MODEL 1
REMARK VINA RESULT: -6.941860709      0.000      0.000
REMARK  6 active torsions:
REMARK  status: ('A' for Active; 'I' for Inactive)
REMARK    1  A    between atoms: N1_2  and  C3_4 
REMARK    2  A    between atoms: C3_4  and  C4_5 
REMARK    3  A    between atoms: C4_5  and  C5_6 
REMARK    4  A    between atoms: C5_6  and  C6_7 
REMARK    5  A    between atoms: C6_7  and  C7_8 
REMARK    6  A    between atoms: C12_13  and  C13_14 
ROOT
HETATM    1  C7  UNL     1     -24.879 -17.528 -13.387  1.00  0.00    -0.048 A 
HETATM    2  C8  UNL     1     -25.949 -16.702 -13.746  1.00  0.00     0.008 A 
HETATM    3  C9  UNL     1     -26.190 -15.515 -13.098  1.00  0.00     0.001 A 
HETATM    4  C10 UNL     1     -25.362 -15.122 -12.070  1.00  0.00     0.001 A 
HETATM    5  C11 UNL     1     -24.303 -15.907 -11.688  1.00  0.00     0.012 A 
HETATM    6  C12 UNL     1     -24.074 -17.111 -12.357  1.00  0.00    -0.028 A 
ENDROOT
BRANCH   6   7
HETATM    7  C13 UNL     1     -22.947 -17.919 -11.840  1.00  0.00     0.047 C 
HETATM    8  C14 UNL     1     -23.116 -18.742 -10.807  1.00  0.00     0.104 A 
HETATM    9  N2  UNL     1     -22.125 -19.582 -10.202  1.00  0.00    -0.324 N 
HETATM   10  C16 UNL     1     -24.337 -18.952 -10.043  1.00  0.00     0.275 A 
HETATM   11  C15 UNL     1     -22.673 -20.292  -9.115  1.00  0.00     0.180 A 
ATOM     12  H2  UNL     1     -21.158 -19.655 -10.515  1.00  0.00     0.169 HD
HETATM   13  N3  UNL     1     -21.988 -21.119  -8.398  1.00  0.00    -0.371 N 
HETATM   14  N4  UNL     1     -24.015 -19.901  -9.030  1.00  0.00    -0.293 N 
ATOM     15  H32 UNL     1     -21.011 -21.403  -8.460  1.00  0.00     0.159 HD
ATOM     16  H31 UNL     1     -22.385 -21.632  -7.611  1.00  0.00     0.159 HD
ATOM     17  H4  UNL     1     -24.675 -20.249  -8.334  1.00  0.00     0.172 HD
HETATM   18  O1  UNL     1     -25.467 -18.436 -10.197  1.00  0.00    -0.266 OA
ENDBRANCH   6   7
BRANCH   1  19
HETATM   19  C6  UNL     1     -24.629 -18.764 -14.146  1.00  0.00     0.039 C 
BRANCH  19  20
HETATM   20  C5  UNL     1     -25.872 -19.636 -14.235  1.00  0.00     0.006 C 
BRANCH  20  21
HETATM   21  C4  UNL     1     -25.881 -20.593 -13.058  1.00  0.00     0.030 C 
BRANCH  21  22
HETATM   22  C3  UNL     1     -27.291 -20.583 -12.502  1.00  0.00     0.271 C 
BRANCH  22  23
HETATM   23  N1  UNL     1     -27.607 -21.799 -11.765  1.00  0.00     0.080 N 
HETATM   24  C1  UNL     1     -26.829 -22.918 -12.290  1.00  0.00     0.309 C 
HETATM   25  C2  UNL     1     -27.234 -21.560 -10.368  1.00  0.00     0.309 C 
ENDBRANCH  22  23
ENDBRANCH  21  22
ENDBRANCH  20  21
ENDBRANCH  19  20
ENDBRANCH   1  19
TORSDOF 6
ENDMDL
MODEL 2
REMARK VINA RESULT: -6.749887188      2.097      4.753
REMARK  6 active torsions:
REMARK  status: ('A' for Active; 'I' for Inactive)
REMARK    1  A    between atoms: N1_2  and  C3_4 
REMARK    2  A    between atoms: C3_4  and  C4_5 
REMARK    3  A    between atoms: C4_5  and  C5_6 
REMARK    4  A    between atoms: C5_6  and  C6_7 
REMARK    5  A    between atoms: C6_7  and  C7_8 
REMARK    6  A    between atoms: C12_13  and  C13_14 
ROOT
HETATM    1  C7  UNL     1     -27.023 -20.789 -10.207  1.00  0.00    -0.048 A 
HETATM    2  C8  UNL     1     -27.374 -22.076  -9.786  1.00  0.00     0.008 A 
HETATM    3  C9  UNL     1     -26.949 -22.578  -8.580  1.00  0.00     0.001 A 
HETATM    4  C10 UNL     1     -26.159 -21.803  -7.761  1.00  0.00     0.001 A 
HETATM    5  C11 UNL     1     -25.794 -20.536  -8.141  1.00  0.00     0.012 A 
HETATM    6  C12 UNL     1     -26.234 -20.041  -9.371  1.00  0.00    -0.028 A 
ENDROOT
BRANCH   6   7
HETATM    7  C13 UNL     1     -25.743 -18.690  -9.723  1.00  0.00     0.047 C 
HETATM    8  C14 UNL     1     -24.618 -18.534 -10.419  1.00  0.00     0.104 A 
HETATM    9  N2  UNL     1     -24.024 -17.298 -10.833  1.00  0.00    -0.324 N 
HETATM   10  C16 UNL     1     -23.727 -19.583 -10.894  1.00  0.00     0.275 A 
HETATM   11  C15 UNL     1     -22.823 -17.533 -11.532  1.00  0.00     0.180 A 
ATOM     12  H2  UNL     1     -24.416 -16.375 -10.647  1.00  0.00     0.169 HD
HETATM   13  N3  UNL     1     -22.091 -16.584 -12.012  1.00  0.00    -0.371 N 
HETATM   14  N4  UNL     1     -22.655 -18.923 -11.562  1.00  0.00    -0.293 N 
ATOM     15  H32 UNL     1     -22.214 -15.572 -11.990  1.00  0.00     0.159 HD
ATOM     16  H31 UNL     1     -21.222 -16.754 -12.518  1.00  0.00     0.159 HD
ATOM     17  H4  UNL     1     -21.868 -19.400 -12.003  1.00  0.00     0.172 HD
HETATM   18  O1  UNL     1     -23.827 -20.824 -10.772  1.00  0.00    -0.266 OA
ENDBRANCH   6   7
BRANCH   1  19
HETATM   19  C6  UNL     1     -27.548 -20.274 -11.483  1.00  0.00     0.039 C 
BRANCH  19  20
HETATM   20  C5  UNL     1     -27.268 -21.225 -12.636  1.00  0.00     0.006 C 
BRANCH  20  21
HETATM   21  C4  UNL     1     -26.152 -20.647 -13.485  1.00  0.00     0.030 C 
BRANCH  21  22
HETATM   22  C3  UNL     1     -26.292 -19.140 -13.416  1.00  0.00     0.271 C 
BRANCH  22  23
HETATM   23  N1  UNL     1     -25.214 -18.449 -14.110  1.00  0.00     0.080 N 
HETATM   24  C1  UNL     1     -25.167 -18.873 -15.507  1.00  0.00     0.309 C 
HETATM   25  C2  UNL     1     -25.516 -17.016 -14.048  1.00  0.00     0.309 C 
ENDBRANCH  22  23
ENDBRANCH  21  22
ENDBRANCH  20  21
ENDBRANCH  19  20
ENDBRANCH   1  19
TORSDOF 6
ENDMDL
MODEL 3
REMARK VINA RESULT: -6.749650209      1.241      1.824
REMARK  6 active torsions:
REMARK  status: ('A' for Active; 'I' for Inactive)
REMARK    1  A    between atoms: N1_2  and  C3_4 
REMARK    2  A    between atoms: C3_4  and  C4_5 
REMARK    3  A    between atoms: C4_5  and  C5_6 
REMARK    4  A    between atoms: C5_6  and  C6_7 
REMARK    5  A    between atoms: C6_7  and  C7_8 
REMARK    6  A    between atoms: C12_13  and  C13_14 
ROOT
HETATM    1  C7  UNL     1     -26.209 -17.849 -12.450  1.00  0.00    -0.048 A 
HETATM    2  C8  UNL     1     -26.195 -16.951 -13.524  1.00  0.00     0.008 A 
HETATM    3  C9  UNL     1     -25.635 -15.703 -13.409  1.00  0.00     0.001 A 
HETATM    4  C10 UNL     1     -25.072 -15.317 -12.212  1.00  0.00     0.001 A 
HETATM    5  C11 UNL     1     -25.069 -16.170 -11.137  1.00  0.00     0.012 A 
HETATM    6  C12 UNL     1     -25.643 -17.436 -11.271  1.00  0.00    -0.028 A 
ENDROOT
BRANCH   6   7
HETATM    7  C13 UNL     1     -25.645 -18.264 -10.044  1.00  0.00     0.047 C 
HETATM    8  C14 UNL     1     -24.614 -19.056  -9.756  1.00  0.00     0.104 A 
HETATM    9  N2  UNL     1     -24.475 -19.907  -8.611  1.00  0.00    -0.324 N 
HETATM   10  C16 UNL     1     -23.411 -19.254 -10.549  1.00  0.00     0.275 A 
HETATM   11  C15 UNL     1     -23.256 -20.612  -8.663  1.00  0.00     0.180 A 
ATOM     12  H2  UNL     1     -25.163 -19.991  -7.864  1.00  0.00     0.169 HD
HETATM   13  N3  UNL     1     -22.888 -21.448  -7.750  1.00  0.00    -0.371 N 
HETATM   14  N4  UNL     1     -22.620 -20.207  -9.843  1.00  0.00    -0.293 N 
ATOM     15  H32 UNL     1     -23.351 -21.743  -6.891  1.00  0.00     0.159 HD
ATOM     16  H31 UNL     1     -22.005 -21.958  -7.788  1.00  0.00     0.159 HD
ATOM     17  H4  UNL     1     -21.711 -20.548 -10.156  1.00  0.00     0.172 HD
HETATM   18  O1  UNL     1     -23.081 -18.727 -11.635  1.00  0.00    -0.266 OA
ENDBRANCH   6   7
BRANCH   1  19
HETATM   19  C6  UNL     1     -26.771 -19.196 -12.638  1.00  0.00     0.039 C 
BRANCH  19  20
HETATM   20  C5  UNL     1     -25.986 -20.001 -13.662  1.00  0.00     0.006 C 
BRANCH  20  21
HETATM   21  C4  UNL     1     -26.061 -21.469 -13.290  1.00  0.00     0.030 C 
BRANCH  21  22
HETATM   22  C3  UNL     1     -25.728 -21.561 -11.815  1.00  0.00     0.271 C 
BRANCH  22  23
HETATM   23  N1  UNL     1     -26.603 -22.482 -11.103  1.00  0.00     0.080 N 
HETATM   24  C1  UNL     1     -27.190 -21.817  -9.942  1.00  0.00     0.309 C 
HETATM   25  C2  UNL     1     -27.668 -22.864 -12.034  1.00  0.00     0.309 C 
ENDBRANCH  22  23
ENDBRANCH  21  22
ENDBRANCH  20  21
ENDBRANCH  19  20
ENDBRANCH   1  19
TORSDOF 6
ENDMDL
MODEL 4
REMARK VINA RESULT: -6.638642514      2.196      3.686
REMARK  6 active torsions:
REMARK  status: ('A' for Active; 'I' for Inactive)
REMARK    1  A    between atoms: N1_2  and  C3_4 
REMARK    2  A    between atoms: C3_4  and  C4_5 
REMARK    3  A    between atoms: C4_5  and  C5_6 
REMARK    4  A    between atoms: C5_6  and  C6_7 
REMARK    5  A    between atoms: C6_7  and  C7_8 
REMARK    6  A    between atoms: C12_13  and  C13_14 
ROOT
HETATM    1  C7  UNL     1     -25.406 -16.646 -12.287  1.00  0.00    -0.048 A 
HETATM    2  C8  UNL     1     -24.728 -15.649 -11.579  1.00  0.00     0.008 A 
HETATM    3  C9  UNL     1     -23.359 -15.646 -11.475  1.00  0.00     0.001 A 
HETATM    4  C10 UNL     1     -22.629 -16.646 -12.078  1.00  0.00     0.001 A 
HETATM    5  C11 UNL     1     -23.260 -17.642 -12.780  1.00  0.00     0.012 A 
HETATM    6  C12 UNL     1     -24.653 -17.630 -12.875  1.00  0.00    -0.028 A 
ENDROOT
BRANCH   6   7
HETATM    7  C13 UNL     1     -25.249 -18.774 -13.600  1.00  0.00     0.047 C 
HETATM    8  C14 UNL     1     -25.537 -19.908 -12.963  1.00  0.00     0.104 A 
HETATM    9  N2  UNL     1     -26.114 -21.092 -13.529  1.00  0.00    -0.324 N 
HETATM   10  C16 UNL     1     -25.307 -20.209 -11.558  1.00  0.00     0.275 A 
HETATM   11  C15 UNL     1     -26.249 -22.095 -12.548  1.00  0.00     0.180 A 
ATOM     12  H2  UNL     1     -26.389 -21.194 -14.505  1.00  0.00     0.169 HD
HETATM   13  N3  UNL     1     -26.743 -23.262 -12.799  1.00  0.00    -0.371 N 
HETATM   14  N4  UNL     1     -25.756 -21.547 -11.358  1.00  0.00    -0.293 N 
ATOM     15  H32 UNL     1     -27.102 -23.661 -13.666  1.00  0.00     0.159 HD
ATOM     16  H31 UNL     1     -26.840 -23.988 -12.089  1.00  0.00     0.159 HD
ATOM     17  H4  UNL     1     -25.722 -22.040 -10.465  1.00  0.00     0.172 HD
HETATM   18  O1  UNL     1     -24.819 -19.485 -10.662  1.00  0.00    -0.266 OA
ENDBRANCH   6   7
BRANCH   1  19
HETATM   19  C6  UNL     1     -26.871 -16.577 -12.417  1.00  0.00     0.039 C 
BRANCH  19  20
HETATM   20  C5  UNL     1     -27.576 -17.266 -11.259  1.00  0.00     0.006 C 
BRANCH  20  21
HETATM   21  C4  UNL     1     -28.661 -18.168 -11.816  1.00  0.00     0.030 C 
BRANCH  21  22
HETATM   22  C3  UNL     1     -28.714 -19.388 -10.920  1.00  0.00     0.271 C 
BRANCH  22  23
HETATM   23  N1  UNL     1     -28.712 -19.040  -9.505  1.00  0.00     0.080 N 
HETATM   24  C1  UNL     1     -30.075 -19.063  -8.983  1.00  0.00     0.309 C 
HETATM   25  C2  UNL     1     -27.911 -20.057  -8.818  1.00  0.00     0.309 C 
ENDBRANCH  22  23
ENDBRANCH  21  22
ENDBRANCH  20  21
ENDBRANCH  19  20
ENDBRANCH   1  19
TORSDOF 6
ENDMDL
MODEL 5
REMARK VINA RESULT: -6.588879729      1.120      4.186
REMARK  6 active torsions:
REMARK  status: ('A' for Active; 'I' for Inactive)
REMARK    1  A    between atoms: N1_2  and  C3_4 
REMARK    2  A    between atoms: C3_4  and  C4_5 
REMARK    3  A    between atoms: C4_5  and  C5_6 
REMARK    4  A    between atoms: C5_6  and  C6_7 
REMARK    5  A    between atoms: C6_7  and  C7_8 
REMARK    6  A    between atoms: C12_13  and  C13_14 
ROOT
HETATM    1  C7  UNL     1     -24.122 -17.143 -12.752  1.00  0.00    -0.048 A 
HETATM    2  C8  UNL     1     -24.113 -15.835 -12.257  1.00  0.00     0.008 A 
HETATM    3  C9  UNL     1     -25.238 -15.048 -12.284  1.00  0.00     0.001 A 
HETATM    4  C10 UNL     1     -26.407 -15.551 -12.811  1.00  0.00     0.001 A 
HETATM    5  C11 UNL     1     -26.453 -16.829 -13.308  1.00  0.00     0.012 A 
HETATM    6  C12 UNL     1     -25.300 -17.615 -13.273  1.00  0.00    -0.028 A 
ENDROOT
BRANCH   6   7
HETATM    7  C13 UNL     1     -25.428 -18.958 -13.883  1.00  0.00     0.047 C 
HETATM    8  C14 UNL     1     -25.895 -19.985 -13.175  1.00  0.00     0.104 A 
HETATM    9  N2  UNL     1     -26.076 -21.332 -13.629  1.00  0.00    -0.324 N 
HETATM   10  C16 UNL     1     -26.300 -19.977 -11.778  1.00  0.00     0.275 A 
HETATM   11  C15 UNL     1     -26.568 -22.144 -12.587  1.00  0.00     0.180 A 
ATOM     12  H2  UNL     1     -25.876 -21.658 -14.574  1.00  0.00     0.169 HD
HETATM   13  N3  UNL     1     -26.817 -23.403 -12.735  1.00  0.00    -0.371 N 
HETATM   14  N4  UNL     1     -26.700 -21.310 -11.470  1.00  0.00    -0.293 N 
ATOM     15  H32 UNL     1     -26.721 -24.010 -13.548  1.00  0.00     0.159 HD
ATOM     16  H31 UNL     1     -27.174 -23.990 -11.981  1.00  0.00     0.159 HD
ATOM     17  H4  UNL     1     -27.037 -21.616 -10.557  1.00  0.00     0.172 HD
HETATM   18  O1  UNL     1     -26.316 -19.028 -10.962  1.00  0.00    -0.266 OA
ENDBRANCH   6   7
BRANCH   1  19
HETATM   19  C6  UNL     1     -22.906 -17.967 -12.651  1.00  0.00     0.039 C 
BRANCH  19  20
HETATM   20  C5  UNL     1     -22.337 -17.967 -11.240  1.00  0.00     0.006 C 
BRANCH  20  21
HETATM   21  C4  UNL     1     -22.983 -19.091 -10.454  1.00  0.00     0.030 C 
BRANCH  21  22
HETATM   22  C3  UNL     1     -21.947 -19.578  -9.463  1.00  0.00     0.271 C 
BRANCH  22  23
HETATM   23  N1  UNL     1     -22.351 -20.807  -8.793  1.00  0.00     0.080 N 
HETATM   24  C1  UNL     1     -22.435 -20.587  -7.352  1.00  0.00     0.309 C 
HETATM   25  C2  UNL     1     -23.677 -21.157  -9.309  1.00  0.00     0.309 C 
ENDBRANCH  22  23
ENDBRANCH  21  22
ENDBRANCH  20  21
ENDBRANCH  19  20
ENDBRANCH   1  19
TORSDOF 6
ENDMDL
