MODEL 1
REMARK VINA RESULT: -7.332508914      0.000      0.000
REMARK  10 active torsions:
REMARK  status: ('A' for Active; 'I' for Inactive)
REMARK    1  A    between atoms: C4_8  and  C5_9 
REMARK    2  A    between atoms: C5_9  and  C6_10 
REMARK    3  A    between atoms: C6_10  and  C7_11 
REMARK    4  A    between atoms: C7_11  and  C8_12 
REMARK    5  A    between atoms: C8_12  and  C9_13 
REMARK    6  A    between atoms: C9_13  and  C10_14 
REMARK    7  A    between atoms: C10_14  and  C11_15 
REMARK    8  A    between atoms: C11_15  and  C12_16 
REMARK    9  A    between atoms: C12_16  and  C13_17 
REMARK   10  A    between atoms: C13_17  and  O2_18 
ROOT
HETATM    1  C1  UNL     1     202.131  73.199-128.066  1.00  0.00     0.158 C 
HETATM    2  N1  UNL     1     203.185  72.884-127.149  1.00  0.00    -0.329 N 
HETATM    3  C2  UNL     1     203.877  73.804-126.427  1.00  0.00     0.139 A 
HETATM    4  N2  UNL     1     203.846  75.121-126.320  1.00  0.00    -0.306 N 
ATOM      5  H2  UNL     1     203.176  75.661-126.868  1.00  0.00     0.170 HD
HETATM    6  C3  UNL     1     204.715  75.764-125.472  1.00  0.00     0.269 A 
HETATM    7  O1  UNL     1     204.618  77.015-125.422  1.00  0.00    -0.266 OA
HETATM    8  C4  UNL     1     205.630  75.106-124.718  1.00  0.00     0.078 A 
HETATM    9  N3  UNL     1     205.620  73.733-124.865  1.00  0.00    -0.351 N 
ATOM     10  H3  UNL     1     206.285  73.182-124.322  1.00  0.00     0.166 HD
HETATM   11  C14 UNL     1     204.783  73.091-125.684  1.00  0.00     0.096 A 
HETATM   12  C15 UNL     1     204.642  71.711-125.956  1.00  0.00     0.097 A 
HETATM   13  C16 UNL     1     205.311  70.609-125.470  1.00  0.00     0.264 A 
HETATM   14  O3  UNL     1     206.233  70.886-124.608  1.00  0.00    -0.267 OA
HETATM   15  N4  UNL     1     205.087  69.338-125.807  1.00  0.00    -0.284 N 
ATOM     16  H4  UNL     1     205.677  68.645-125.348  1.00  0.00     0.172 HD
HETATM   17  C17 UNL     1     204.192  68.860-126.667  1.00  0.00     0.292 A 
HETATM   18  O4  UNL     1     204.125  67.614-126.862  1.00  0.00    -0.260 OA
HETATM   19  S1  UNL     1     203.231  70.051-127.407  1.00  0.00    -0.010 SA
HETATM   20  C18 UNL     1     203.624  71.647-126.881  1.00  0.00     0.101 A 
ENDROOT
BRANCH   8  21
HETATM   21  C5  UNL     1     206.657  75.681-123.813  1.00  0.00     0.063 C 
BRANCH  21  22
HETATM   22  C6  UNL     1     207.134  74.815-122.722  1.00  0.00     0.006 C 
BRANCH  22  23
HETATM   23  C7  UNL     1     208.490  74.238-122.819  1.00  0.00     0.000 C 
BRANCH  23  24
HETATM   24  C8  UNL     1     208.501  72.750-123.037  1.00  0.00     0.000 C 
BRANCH  24  25
HETATM   25  C9  UNL     1     209.561  72.450-124.064  1.00  0.00     0.000 C 
BRANCH  25  26
HETATM   26  C10 UNL     1     210.230  71.127-123.887  1.00  0.00     0.000 C 
BRANCH  26  27
HETATM   27  C11 UNL     1     209.379  70.100-123.209  1.00  0.00     0.002 C 
BRANCH  27  28
HETATM   28  C12 UNL     1     209.146  68.881-124.090  1.00  0.00     0.026 C 
BRANCH  28  29
HETATM   29  C13 UNL     1     208.237  67.927-123.334  1.00  0.00     0.164 C 
BRANCH  29  30
HETATM   30  O2  UNL     1     206.923  68.445-123.326  1.00  0.00    -0.401 OA
ATOM     31  H2  UNL     1     206.637  68.585-124.221  1.00  0.00     0.209 HD
ENDBRANCH  29  30
ENDBRANCH  28  29
ENDBRANCH  27  28
ENDBRANCH  26  27
ENDBRANCH  25  26
ENDBRANCH  24  25
ENDBRANCH  23  24
ENDBRANCH  22  23
ENDBRANCH  21  22
ENDBRANCH   8  21
TORSDOF 10
ENDMDL
MODEL 2
REMARK VINA RESULT: -7.170748555      3.029      5.427
REMARK  10 active torsions:
REMARK  status: ('A' for Active; 'I' for Inactive)
REMARK    1  A    between atoms: C4_8  and  C5_9 
REMARK    2  A    between atoms: C5_9  and  C6_10 
REMARK    3  A    between atoms: C6_10  and  C7_11 
REMARK    4  A    between atoms: C7_11  and  C8_12 
REMARK    5  A    between atoms: C8_12  and  C9_13 
REMARK    6  A    between atoms: C9_13  and  C10_14 
REMARK    7  A    between atoms: C10_14  and  C11_15 
REMARK    8  A    between atoms: C11_15  and  C12_16 
REMARK    9  A    between atoms: C12_16  and  C13_17 
REMARK   10  A    between atoms: C13_17  and  O2_18 
ROOT
HETATM    1  C1  UNL     1     208.298  67.468-123.069  1.00  0.00     0.158 C 
HETATM    2  N1  UNL     1     208.382  68.788-123.619  1.00  0.00    -0.329 N 
HETATM    3  C2  UNL     1     208.027  69.921-122.958  1.00  0.00     0.139 A 
HETATM    4  N2  UNL     1     207.546  70.188-121.756  1.00  0.00    -0.306 N 
ATOM      5  H2  UNL     1     207.368  69.429-121.098  1.00  0.00     0.170 HD
HETATM    6  C3  UNL     1     207.284  71.486-121.393  1.00  0.00     0.269 A 
HETATM    7  O1  UNL     1     206.835  71.658-120.232  1.00  0.00    -0.266 OA
HETATM    8  C4  UNL     1     207.496  72.540-122.219  1.00  0.00     0.078 A 
HETATM    9  N3  UNL     1     208.000  72.207-123.461  1.00  0.00    -0.351 N 
ATOM     10  H3  UNL     1     208.182  72.958-124.127  1.00  0.00     0.166 HD
HETATM   11  C14 UNL     1     208.261  70.951-123.832  1.00  0.00     0.096 A 
HETATM   12  C15 UNL     1     208.768  70.440-125.049  1.00  0.00     0.097 A 
HETATM   13  C16 UNL     1     209.149  71.064-126.217  1.00  0.00     0.264 A 
HETATM   14  O3  UNL     1     209.022  72.349-126.197  1.00  0.00    -0.267 OA
HETATM   15  N4  UNL     1     209.617  70.467-127.314  1.00  0.00    -0.284 N 
ATOM     16  H4  UNL     1     209.853  71.084-128.091  1.00  0.00     0.172 HD
HETATM   17  C17 UNL     1     209.816  69.168-127.522  1.00  0.00     0.292 A 
HETATM   18  O4  UNL     1     210.270  68.783-128.636  1.00  0.00    -0.260 OA
HETATM   19  S1  UNL     1     209.411  68.179-126.200  1.00  0.00    -0.010 SA
HETATM   20  C18 UNL     1     208.821  69.078-124.851  1.00  0.00     0.101 A 
ENDROOT
BRANCH   8  21
HETATM   21  C5  UNL     1     207.202  73.975-121.971  1.00  0.00     0.063 C 
BRANCH  21  22
HETATM   22  C6  UNL     1     207.498  74.907-123.071  1.00  0.00     0.006 C 
BRANCH  22  23
HETATM   23  C7  UNL     1     206.406  75.282-123.992  1.00  0.00     0.000 C 
BRANCH  23  24
HETATM   24  C8  UNL     1     206.643  74.859-125.416  1.00  0.00     0.000 C 
BRANCH  24  25
HETATM   25  C9  UNL     1     205.447  74.056-125.855  1.00  0.00     0.000 C 
BRANCH  25  26
HETATM   26  C10 UNL     1     204.754  73.332-124.748  1.00  0.00     0.000 C 
BRANCH  26  27
HETATM   27  C11 UNL     1     204.750  71.844-124.902  1.00  0.00     0.002 C 
BRANCH  27  28
HETATM   28  C12 UNL     1     205.448  71.400-126.179  1.00  0.00     0.026 C 
BRANCH  28  29
HETATM   29  C13 UNL     1     205.329  69.889-126.274  1.00  0.00     0.164 C 
BRANCH  29  30
HETATM   30  O2  UNL     1     205.267  69.344-124.972  1.00  0.00    -0.401 OA
ATOM     31  H2  UNL     1     205.550  68.438-124.999  1.00  0.00     0.209 HD
ENDBRANCH  29  30
ENDBRANCH  28  29
ENDBRANCH  27  28
ENDBRANCH  26  27
ENDBRANCH  25  26
ENDBRANCH  24  25
ENDBRANCH  23  24
ENDBRANCH  22  23
ENDBRANCH  21  22
ENDBRANCH   8  21
TORSDOF 10
ENDMDL
MODEL 3
REMARK VINA RESULT: -7.151155959      3.536      6.637
REMARK  10 active torsions:
REMARK  status: ('A' for Active; 'I' for Inactive)
REMARK    1  A    between atoms: C4_8  and  C5_9 
REMARK    2  A    between atoms: C5_9  and  C6_10 
REMARK    3  A    between atoms: C6_10  and  C7_11 
REMARK    4  A    between atoms: C7_11  and  C8_12 
REMARK    5  A    between atoms: C8_12  and  C9_13 
REMARK    6  A    between atoms: C9_13  and  C10_14 
REMARK    7  A    between atoms: C10_14  and  C11_15 
REMARK    8  A    between atoms: C11_15  and  C12_16 
REMARK    9  A    between atoms: C12_16  and  C13_17 
REMARK   10  A    between atoms: C13_17  and  O2_18 
ROOT
HETATM    1  C1  UNL     1     208.158  67.392-123.180  1.00  0.00     0.158 C 
HETATM    2  N1  UNL     1     208.299  68.728-123.675  1.00  0.00    -0.329 N 
HETATM    3  C2  UNL     1     207.982  69.847-122.973  1.00  0.00     0.139 A 
HETATM    4  N2  UNL     1     207.499  70.085-121.766  1.00  0.00    -0.306 N 
ATOM      5  H2  UNL     1     207.284  69.308-121.141  1.00  0.00     0.170 HD
HETATM    6  C3  UNL     1     207.285  71.377-121.353  1.00  0.00     0.269 A 
HETATM    7  O1  UNL     1     206.830  71.520-120.190  1.00  0.00    -0.266 OA
HETATM    8  C4  UNL     1     207.546  72.454-122.134  1.00  0.00     0.078 A 
HETATM    9  N3  UNL     1     208.051  72.151-123.384  1.00  0.00    -0.351 N 
ATOM     10  H3  UNL     1     208.269  72.920-124.018  1.00  0.00     0.166 HD
HETATM   11  C14 UNL     1     208.266  70.901-123.803  1.00  0.00     0.096 A 
HETATM   12  C15 UNL     1     208.765  70.419-125.034  1.00  0.00     0.097 A 
HETATM   13  C16 UNL     1     209.183  71.073-126.173  1.00  0.00     0.264 A 
HETATM   14  O3  UNL     1     209.106  72.361-126.102  1.00  0.00    -0.267 OA
HETATM   15  N4  UNL     1     209.639  70.502-127.288  1.00  0.00    -0.284 N 
ATOM     16  H4  UNL     1     209.907  71.140-128.038  1.00  0.00     0.172 HD
HETATM   17  C17 UNL     1     209.789  69.206-127.547  1.00  0.00     0.292 A 
HETATM   18  O4  UNL     1     210.240  68.848-128.672  1.00  0.00    -0.260 OA
HETATM   19  S1  UNL     1     209.332  68.182-126.270  1.00  0.00    -0.010 SA
HETATM   20  C18 UNL     1     208.763  69.049-124.891  1.00  0.00     0.101 A 
ENDROOT
BRANCH   8  21
HETATM   21  C5  UNL     1     207.307  73.888-121.831  1.00  0.00     0.063 C 
BRANCH  21  22
HETATM   22  C6  UNL     1     207.816  74.862-122.810  1.00  0.00     0.006 C 
BRANCH  22  23
HETATM   23  C7  UNL     1     206.849  75.558-123.683  1.00  0.00     0.000 C 
BRANCH  23  24
HETATM   24  C8  UNL     1     206.675  74.913-125.031  1.00  0.00     0.000 C 
BRANCH  24  25
HETATM   25  C9  UNL     1     205.353  75.372-125.586  1.00  0.00     0.000 C 
BRANCH  25  26
HETATM   26  C10 UNL     1     205.063  76.819-125.362  1.00  0.00     0.000 C 
BRANCH  26  27
HETATM   27  C11 UNL     1     203.604  77.151-125.333  1.00  0.00     0.002 C 
BRANCH  27  28
HETATM   28  C12 UNL     1     202.951  76.971-126.696  1.00  0.00     0.026 C 
BRANCH  28  29
HETATM   29  C13 UNL     1     201.507  76.556-126.469  1.00  0.00     0.164 C 
BRANCH  29  30
HETATM   30  O2  UNL     1     201.043  77.127-125.263  1.00  0.00    -0.401 OA
ATOM     31  H2  UNL     1     200.249  77.620-125.436  1.00  0.00     0.209 HD
ENDBRANCH  29  30
ENDBRANCH  28  29
ENDBRANCH  27  28
ENDBRANCH  26  27
ENDBRANCH  25  26
ENDBRANCH  24  25
ENDBRANCH  23  24
ENDBRANCH  22  23
ENDBRANCH  21  22
ENDBRANCH   8  21
TORSDOF 10
ENDMDL
MODEL 4
REMARK VINA RESULT: -7.067341789      3.570      8.150
REMARK  10 active torsions:
REMARK  status: ('A' for Active; 'I' for Inactive)
REMARK    1  A    between atoms: C4_8  and  C5_9 
REMARK    2  A    between atoms: C5_9  and  C6_10 
REMARK    3  A    between atoms: C6_10  and  C7_11 
REMARK    4  A    between atoms: C7_11  and  C8_12 
REMARK    5  A    between atoms: C8_12  and  C9_13 
REMARK    6  A    between atoms: C9_13  and  C10_14 
REMARK    7  A    between atoms: C10_14  and  C11_15 
REMARK    8  A    between atoms: C11_15  and  C12_16 
REMARK    9  A    between atoms: C12_16  and  C13_17 
REMARK   10  A    between atoms: C13_17  and  O2_18 
ROOT
HETATM    1  C1  UNL     1     206.995  74.379-123.580  1.00  0.00     0.158 C 
HETATM    2  N1  UNL     1     205.922  73.969-124.435  1.00  0.00    -0.329 N 
HETATM    3  C2  UNL     1     204.991  74.809-124.959  1.00  0.00     0.139 A 
HETATM    4  N2  UNL     1     204.761  76.109-124.886  1.00  0.00    -0.306 N 
ATOM      5  H2  UNL     1     205.374  76.704-124.329  1.00  0.00     0.170 HD
HETATM    6  C3  UNL     1     203.696  76.658-125.557  1.00  0.00     0.269 A 
HETATM    7  O1  UNL     1     203.549  77.900-125.442  1.00  0.00    -0.266 OA
HETATM    8  C4  UNL     1     202.842  75.923-126.311  1.00  0.00     0.078 A 
HETATM    9  N3  UNL     1     203.127  74.573-126.356  1.00  0.00    -0.351 N 
ATOM     10  H3  UNL     1     202.521  73.967-126.910  1.00  0.00     0.166 HD
HETATM   11  C14 UNL     1     204.158  74.021-125.711  1.00  0.00     0.096 A 
HETATM   12  C15 UNL     1     204.586  72.675-125.646  1.00  0.00     0.097 A 
HETATM   13  C16 UNL     1     204.086  71.526-126.219  1.00  0.00     0.264 A 
HETATM   14  O3  UNL     1     203.037  71.711-126.949  1.00  0.00    -0.267 OA
HETATM   15  N4  UNL     1     204.583  70.296-126.081  1.00  0.00    -0.284 N 
ATOM     16  H4  UNL     1     204.086  69.557-126.578  1.00  0.00     0.172 HD
HETATM   17  C17 UNL     1     205.644  69.910-125.378  1.00  0.00     0.292 A 
HETATM   18  O4  UNL     1     205.966  68.689-125.364  1.00  0.00    -0.260 OA
HETATM   19  S1  UNL     1     206.440  71.175-124.568  1.00  0.00    -0.010 SA
HETATM   20  C18 UNL     1     205.696  72.709-124.832  1.00  0.00     0.101 A 
ENDROOT
BRANCH   8  21
HETATM   21  C5  UNL     1     201.628  76.382-127.033  1.00  0.00     0.063 C 
BRANCH  21  22
HETATM   22  C6  UNL     1     201.610  76.172-128.490  1.00  0.00     0.006 C 
BRANCH  22  23
HETATM   23  C7  UNL     1     200.919  74.980-129.023  1.00  0.00     0.000 C 
BRANCH  23  24
HETATM   24  C8  UNL     1     200.291  75.196-130.372  1.00  0.00     0.000 C 
BRANCH  24  25
HETATM   25  C9  UNL     1     198.967  75.879-130.152  1.00  0.00     0.000 C 
BRANCH  25  26
HETATM   26  C10 UNL     1     199.010  77.363-130.299  1.00  0.00     0.000 C 
BRANCH  26  27
HETATM   27  C11 UNL     1     198.800  77.843-131.701  1.00  0.00     0.002 C 
BRANCH  27  28
HETATM   28  C12 UNL     1     200.104  78.271-132.358  1.00  0.00     0.026 C 
BRANCH  28  29
HETATM   29  C13 UNL     1     201.065  78.692-131.259  1.00  0.00     0.164 C 
BRANCH  29  30
HETATM   30  O2  UNL     1     201.177  80.100-131.254  1.00  0.00    -0.401 OA
ATOM     31  H2  UNL     1     202.095  80.340-131.227  1.00  0.00     0.209 HD
ENDBRANCH  29  30
ENDBRANCH  28  29
ENDBRANCH  27  28
ENDBRANCH  26  27
ENDBRANCH  25  26
ENDBRANCH  24  25
ENDBRANCH  23  24
ENDBRANCH  22  23
ENDBRANCH  21  22
ENDBRANCH   8  21
TORSDOF 10
ENDMDL
MODEL 5
REMARK VINA RESULT: -7.018923504      2.344      3.994
REMARK  10 active torsions:
REMARK  status: ('A' for Active; 'I' for Inactive)
REMARK    1  A    between atoms: C4_8  and  C5_9 
REMARK    2  A    between atoms: C5_9  and  C6_10 
REMARK    3  A    between atoms: C6_10  and  C7_11 
REMARK    4  A    between atoms: C7_11  and  C8_12 
REMARK    5  A    between atoms: C8_12  and  C9_13 
REMARK    6  A    between atoms: C9_13  and  C10_14 
REMARK    7  A    between atoms: C10_14  and  C11_15 
REMARK    8  A    between atoms: C11_15  and  C12_16 
REMARK    9  A    between atoms: C12_16  and  C13_17 
REMARK   10  A    between atoms: C13_17  and  O2_18 
ROOT
HETATM    1  C1  UNL     1     204.869  77.085-125.262  1.00  0.00     0.158 C 
HETATM    2  N1  UNL     1     204.765  75.665-125.103  1.00  0.00    -0.329 N 
HETATM    3  C2  UNL     1     205.439  74.943-124.170  1.00  0.00     0.139 A 
HETATM    4  N2  UNL     1     206.307  75.232-123.216  1.00  0.00    -0.306 N 
ATOM      5  H2  UNL     1     206.599  76.198-123.067  1.00  0.00     0.170 HD
HETATM    6  C3  UNL     1     206.818  74.232-122.425  1.00  0.00     0.269 A 
HETATM    7  O1  UNL     1     207.631  74.588-121.537  1.00  0.00    -0.266 OA
HETATM    8  C4  UNL     1     206.474  72.929-122.571  1.00  0.00     0.078 A 
HETATM    9  N3  UNL     1     205.564  72.681-123.580  1.00  0.00    -0.351 N 
ATOM     10  H3  UNL     1     205.265  71.719-123.738  1.00  0.00     0.166 HD
HETATM   11  C14 UNL     1     205.057  73.640-124.359  1.00  0.00     0.096 A 
HETATM   12  C15 UNL     1     204.132  73.563-125.425  1.00  0.00     0.097 A 
HETATM   13  C16 UNL     1     203.470  72.494-125.989  1.00  0.00     0.264 A 
HETATM   14  O3  UNL     1     203.743  71.355-125.444  1.00  0.00    -0.267 OA
HETATM   15  N4  UNL     1     202.610  72.546-127.007  1.00  0.00    -0.284 N 
ATOM     16  H4  UNL     1     202.210  71.654-127.298  1.00  0.00     0.172 HD
HETATM   17  C17 UNL     1     202.209  73.614-127.691  1.00  0.00     0.292 A 
HETATM   18  O4  UNL     1     201.381  73.469-128.634  1.00  0.00    -0.260 OA
HETATM   19  S1  UNL     1     202.900  75.076-127.170  1.00  0.00    -0.010 SA
HETATM   20  C18 UNL     1     203.990  74.866-125.849  1.00  0.00     0.101 A 
ENDROOT
BRANCH   8  21
HETATM   21  C5  UNL     1     206.993  71.753-121.826  1.00  0.00     0.063 C 
BRANCH  21  22
HETATM   22  C6  UNL     1     207.586  70.673-122.631  1.00  0.00     0.006 C 
BRANCH  22  23
HETATM   23  C7  UNL     1     207.978  69.421-121.953  1.00  0.00     0.000 C 
BRANCH  23  24
HETATM   24  C8  UNL     1     207.664  68.180-122.742  1.00  0.00     0.000 C 
BRANCH  24  25
HETATM   25  C9  UNL     1     208.827  67.921-123.663  1.00  0.00     0.000 C 
BRANCH  25  26
HETATM   26  C10 UNL     1     208.461  67.849-125.109  1.00  0.00     0.000 C 
BRANCH  26  27
HETATM   27  C11 UNL     1     208.688  69.124-125.859  1.00  0.00     0.002 C 
BRANCH  27  28
HETATM   28  C12 UNL     1     207.396  69.900-126.068  1.00  0.00     0.026 C 
BRANCH  28  29
HETATM   29  C13 UNL     1     206.255  68.898-126.128  1.00  0.00     0.164 C 
BRANCH  29  30
HETATM   30  O2  UNL     1     205.353  69.158-125.071  1.00  0.00    -0.401 OA
ATOM     31  H2  UNL     1     205.843  69.403-124.296  1.00  0.00     0.209 HD
ENDBRANCH  29  30
ENDBRANCH  28  29
ENDBRANCH  27  28
ENDBRANCH  26  27
ENDBRANCH  25  26
ENDBRANCH  24  25
ENDBRANCH  23  24
ENDBRANCH  22  23
ENDBRANCH  21  22
ENDBRANCH   8  21
TORSDOF 10
ENDMDL
