MODEL 1
REMARK VINA RESULT: -8.150798710      0.000      0.000
REMARK  10 active torsions:
REMARK  status: ('A' for Active; 'I' for Inactive)
REMARK    1  A    between atoms: C2_7  and  C3_8 
REMARK    2  A    between atoms: C3_8  and  O1_9 
REMARK    3  A    between atoms: O1_9  and  C4_10 
REMARK    4  A    between atoms: C9_16  and  C10_17 
REMARK    5  A    between atoms: C10_17  and  C11_18 
REMARK    6  A    between atoms: C10_17  and  C18_26 
REMARK    7  A    between atoms: C11_18  and  C12_19 
REMARK    8  A    between atoms: C12_19  and  N3_20 
REMARK    9  A    between atoms: C18_26  and  O3_27 
REMARK   10  A    between atoms: O3_27  and  N4_28 
ROOT
HETATM    1  C4  UNL     1     204.055  71.451-126.023  1.00  0.00     0.070 A 
HETATM    2  C5  UNL     1     203.787  70.353-126.805  1.00  0.00     0.039 A 
HETATM    3  C6  UNL     1     204.560  69.191-126.808  1.00  0.00     0.041 A 
HETATM    4  C7  UNL     1     205.669  69.127-125.984  1.00  0.00     0.086 A 
HETATM    5  O2  UNL     1     206.579  68.243-125.747  1.00  0.00    -0.321 OA
HETATM    6  C8  UNL     1     207.465  68.676-124.844  1.00  0.00     0.151 A 
HETATM    7  C9  UNL     1     207.110  69.936-124.457  1.00  0.00    -0.016 A 
HETATM    8  C19 UNL     1     205.953  70.227-125.187  1.00  0.00     0.009 A 
HETATM    9  C20 UNL     1     205.178  71.359-125.197  1.00  0.00     0.051 A 
ENDROOT
BRANCH   7  10
HETATM   10  C10 UNL     1     207.696  70.856-123.448  1.00  0.00     0.049 C 
BRANCH  10  11
HETATM   11  C11 UNL     1     209.182  71.088-123.715  1.00  0.00     0.032 C 
BRANCH  11  12
HETATM   12  C12 UNL     1     209.238  72.268-124.686  1.00  0.00     0.128 C 
BRANCH  12  13
HETATM   13  N3  UNL     1     208.466  73.372-124.221  1.00  0.00    -0.366 N 
HETATM   14  C13 UNL     1     207.522  73.867-125.055  1.00  0.00     0.090 A 
HETATM   15  C14 UNL     1     206.715  74.898-124.647  1.00  0.00     0.017 A 
HETATM   16  C15 UNL     1     206.819  75.478-123.391  1.00  0.00     0.003 A 
HETATM   17  C16 UNL     1     207.792  74.950-122.564  1.00  0.00     0.017 A 
HETATM   18  C17 UNL     1     208.603  73.901-122.994  1.00  0.00     0.090 A 
ENDBRANCH  12  13
ENDBRANCH  11  12
ENDBRANCH  10  11
BRANCH  10  19
HETATM   19  C18 UNL     1     207.544  70.275-122.045  1.00  0.00     0.210 C 
BRANCH  19  20
HETATM   20  O3  UNL     1     207.089  71.280-121.190  1.00  0.00    -0.287 OA
BRANCH  20  21
HETATM   21  N4  UNL     1     205.984  71.866-121.602  1.00  0.00    -0.311 N 
ATOM     22  H42 UNL     1     205.961  72.843-121.893  1.00  0.00     0.184 HD
ATOM     23  H41 UNL     1     205.169  71.252-121.600  1.00  0.00     0.184 HD
ENDBRANCH  20  21
ENDBRANCH  19  20
ENDBRANCH  10  19
ENDBRANCH   7  10
BRANCH   1  24
HETATM   24  O1  UNL     1     203.338  72.590-125.991  1.00  0.00    -0.344 OA
BRANCH  24  25
HETATM   25  C3  UNL     1     202.680  73.377-126.878  1.00  0.00     0.254 C 
BRANCH  25  26
HETATM   26  C2  UNL     1     202.804  74.852-126.805  1.00  0.00     0.129 A 
HETATM   27  N2  UNL     1     203.431  75.481-125.737  1.00  0.00    -0.307 N 
HETATM   28  C1  UNL     1     203.414  76.801-125.907  1.00  0.00     0.242 A 
ATOM     29  H2  UNL     1     203.844  75.001-124.938  1.00  0.00     0.171 HD
HETATM   30  N1  UNL     1     203.896  77.731-125.138  1.00  0.00    -0.364 N 
HETATM   31  O4  UNL     1     202.800  77.018-127.039  1.00  0.00    -0.200 OA
ATOM     32  H12 UNL     1     204.376  77.561-124.254  1.00  0.00     0.159 HD
ATOM     33  H11 UNL     1     203.884  78.743-125.268  1.00  0.00     0.159 HD
HETATM   34  N5  UNL     1     202.434  75.860-127.576  1.00  0.00    -0.243 N 
ATOM     35  H5  UNL     1     201.938  75.762-128.461  1.00  0.00     0.196 HD
ENDBRANCH  25  26
ENDBRANCH  24  25
ENDBRANCH   1  24
TORSDOF 10
ENDMDL
MODEL 2
REMARK VINA RESULT: -7.709069923      2.248      4.722
REMARK  10 active torsions:
REMARK  status: ('A' for Active; 'I' for Inactive)
REMARK    1  A    between atoms: C2_7  and  C3_8 
REMARK    2  A    between atoms: C3_8  and  O1_9 
REMARK    3  A    between atoms: O1_9  and  C4_10 
REMARK    4  A    between atoms: C9_16  and  C10_17 
REMARK    5  A    between atoms: C10_17  and  C11_18 
REMARK    6  A    between atoms: C10_17  and  C18_26 
REMARK    7  A    between atoms: C11_18  and  C12_19 
REMARK    8  A    between atoms: C12_19  and  N3_20 
REMARK    9  A    between atoms: C18_26  and  O3_27 
REMARK   10  A    between atoms: O3_27  and  N4_28 
ROOT
HETATM    1  C4  UNL     1     206.619  69.302-125.149  1.00  0.00     0.070 A 
HETATM    2  C5  UNL     1     207.842  68.710-124.940  1.00  0.00     0.039 A 
HETATM    3  C6  UNL     1     208.984  69.404-124.535  1.00  0.00     0.041 A 
HETATM    4  C7  UNL     1     208.897  70.769-124.331  1.00  0.00     0.086 A 
HETATM    5  O2  UNL     1     209.725  71.692-123.976  1.00  0.00    -0.321 OA
HETATM    6  C8  UNL     1     209.138  72.893-123.933  1.00  0.00     0.151 A 
HETATM    7  C9  UNL     1     207.827  72.747-124.283  1.00  0.00    -0.016 A 
HETATM    8  C19 UNL     1     207.669  71.382-124.538  1.00  0.00     0.009 A 
HETATM    9  C20 UNL     1     206.557  70.681-124.933  1.00  0.00     0.051 A 
ENDROOT
BRANCH   7  10
HETATM   10  C10 UNL     1     206.711  73.727-124.345  1.00  0.00     0.049 C 
BRANCH  10  11
HETATM   11  C11 UNL     1     206.627  74.376-125.725  1.00  0.00     0.032 C 
BRANCH  11  12
HETATM   12  C12 UNL     1     205.257  73.979-126.274  1.00  0.00     0.128 C 
BRANCH  12  13
HETATM   13  N3  UNL     1     204.332  75.062-126.221  1.00  0.00    -0.366 N 
HETATM   14  C13 UNL     1     203.130  74.884-126.817  1.00  0.00     0.090 A 
HETATM   15  C14 UNL     1     202.179  75.871-126.758  1.00  0.00     0.017 A 
HETATM   16  C15 UNL     1     202.392  77.076-126.104  1.00  0.00     0.003 A 
HETATM   17  C16 UNL     1     203.628  77.227-125.507  1.00  0.00     0.017 A 
HETATM   18  C17 UNL     1     204.582  76.213-125.574  1.00  0.00     0.090 A 
ENDBRANCH  12  13
ENDBRANCH  11  12
ENDBRANCH  10  11
BRANCH  10  19
HETATM   19  C18 UNL     1     206.911  74.829-123.307  1.00  0.00     0.210 C 
BRANCH  19  20
HETATM   20  O3  UNL     1     206.018  74.620-122.255  1.00  0.00    -0.287 OA
BRANCH  20  21
HETATM   21  N4  UNL     1     204.754  74.637-122.622  1.00  0.00    -0.311 N 
ATOM     22  H42 UNL     1     204.384  74.005-123.332  1.00  0.00     0.184 HD
ATOM     23  H41 UNL     1     204.194  75.335-122.132  1.00  0.00     0.184 HD
ENDBRANCH  20  21
ENDBRANCH  19  20
ENDBRANCH  10  19
ENDBRANCH   7  10
BRANCH   1  24
HETATM   24  O1  UNL     1     205.496  68.672-125.541  1.00  0.00    -0.344 OA
BRANCH  24  25
HETATM   25  C3  UNL     1     204.712  68.630-126.646  1.00  0.00     0.254 C 
BRANCH  25  26
HETATM   26  C2  UNL     1     203.928  69.819-127.053  1.00  0.00     0.129 A 
HETATM   27  N2  UNL     1     204.141  70.454-128.269  1.00  0.00    -0.307 N 
HETATM   28  C1  UNL     1     203.314  71.488-128.399  1.00  0.00     0.242 A 
ATOM     29  H2  UNL     1     204.833  70.169-128.963  1.00  0.00     0.171 HD
HETATM   30  N1  UNL     1     203.200  72.327-129.386  1.00  0.00    -0.364 N 
HETATM   31  O4  UNL     1     202.595  71.523-127.310  1.00  0.00    -0.200 OA
ATOM     32  H12 UNL     1     203.763  72.299-130.237  1.00  0.00     0.159 HD
ATOM     33  H11 UNL     1     202.566  73.119-129.486  1.00  0.00     0.159 HD
HETATM   34  N5  UNL     1     202.958  70.531-126.505  1.00  0.00    -0.243 N 
ATOM     35  H5  UNL     1     202.545  70.344-125.592  1.00  0.00     0.196 HD
ENDBRANCH  25  26
ENDBRANCH  24  25
ENDBRANCH   1  24
TORSDOF 10
ENDMDL
MODEL 3
REMARK VINA RESULT: -7.649849630      1.617      2.300
REMARK  10 active torsions:
REMARK  status: ('A' for Active; 'I' for Inactive)
REMARK    1  A    between atoms: C2_7  and  C3_8 
REMARK    2  A    between atoms: C3_8  and  O1_9 
REMARK    3  A    between atoms: O1_9  and  C4_10 
REMARK    4  A    between atoms: C9_16  and  C10_17 
REMARK    5  A    between atoms: C10_17  and  C11_18 
REMARK    6  A    between atoms: C10_17  and  C18_26 
REMARK    7  A    between atoms: C11_18  and  C12_19 
REMARK    8  A    between atoms: C12_19  and  N3_20 
REMARK    9  A    between atoms: C18_26  and  O3_27 
REMARK   10  A    between atoms: O3_27  and  N4_28 
ROOT
HETATM    1  C4  UNL     1     204.428  72.734-125.443  1.00  0.00     0.070 A 
HETATM    2  C5  UNL     1     203.479  72.339-126.355  1.00  0.00     0.039 A 
HETATM    3  C6  UNL     1     203.469  71.090-126.978  1.00  0.00     0.041 A 
HETATM    4  C7  UNL     1     204.470  70.186-126.673  1.00  0.00     0.086 A 
HETATM    5  O2  UNL     1     204.765  68.989-127.053  1.00  0.00    -0.321 OA
HETATM    6  C8  UNL     1     205.871  68.537-126.453  1.00  0.00     0.151 A 
HETATM    7  C9  UNL     1     206.337  69.509-125.614  1.00  0.00    -0.016 A 
HETATM    8  C19 UNL     1     205.436  70.569-125.753  1.00  0.00     0.009 A 
HETATM    9  C20 UNL     1     205.426  71.801-125.149  1.00  0.00     0.051 A 
ENDROOT
BRANCH   7  10
HETATM   10  C10 UNL     1     207.483  69.524-124.669  1.00  0.00     0.049 C 
BRANCH  10  11
HETATM   11  C11 UNL     1     208.569  70.490-125.139  1.00  0.00     0.032 C 
BRANCH  11  12
HETATM   12  C12 UNL     1     209.244  70.989-123.861  1.00  0.00     0.128 C 
BRANCH  12  13
HETATM   13  N3  UNL     1     208.570  72.119-123.314  1.00  0.00    -0.366 N 
HETATM   14  C13 UNL     1     208.829  73.327-123.866  1.00  0.00     0.090 A 
HETATM   15  C14 UNL     1     208.176  74.446-123.415  1.00  0.00     0.017 A 
HETATM   16  C15 UNL     1     207.238  74.403-122.393  1.00  0.00     0.003 A 
HETATM   17  C16 UNL     1     206.996  73.155-121.851  1.00  0.00     0.017 A 
HETATM   18  C17 UNL     1     207.668  72.029-122.322  1.00  0.00     0.090 A 
ENDBRANCH  12  13
ENDBRANCH  11  12
ENDBRANCH  10  11
BRANCH  10  19
HETATM   19  C18 UNL     1     208.096  68.131-124.552  1.00  0.00     0.210 C 
BRANCH  19  20
HETATM   20  O3  UNL     1     207.563  67.500-123.428  1.00  0.00    -0.287 OA
BRANCH  20  21
HETATM   21  N4  UNL     1     207.544  68.260-122.353  1.00  0.00    -0.311 N 
ATOM     22  H42 UNL     1     206.749  68.855-122.121  1.00  0.00     0.184 HD
ATOM     23  H41 UNL     1     208.391  68.192-121.787  1.00  0.00     0.184 HD
ENDBRANCH  20  21
ENDBRANCH  19  20
ENDBRANCH  10  19
ENDBRANCH   7  10
BRANCH   1  24
HETATM   24  O1  UNL     1     204.475  73.928-124.821  1.00  0.00    -0.344 OA
BRANCH  24  25
HETATM   25  C3  UNL     1     204.808  75.203-125.138  1.00  0.00     0.254 C 
BRANCH  25  26
HETATM   26  C2  UNL     1     203.859  76.061-125.884  1.00  0.00     0.129 A 
HETATM   27  N2  UNL     1     203.204  75.610-127.022  1.00  0.00    -0.307 N 
HETATM   28  C1  UNL     1     202.409  76.562-127.504  1.00  0.00     0.242 A 
ATOM     29  H2  UNL     1     203.317  74.682-127.431  1.00  0.00     0.171 HD
HETATM   30  N1  UNL     1     201.633  76.532-128.546  1.00  0.00    -0.364 N 
HETATM   31  O4  UNL     1     202.545  77.591-126.710  1.00  0.00    -0.200 OA
ATOM     32  H12 UNL     1     201.527  75.728-129.166  1.00  0.00     0.159 HD
ATOM     33  H11 UNL     1     201.023  77.262-128.915  1.00  0.00     0.159 HD
HETATM   34  N5  UNL     1     203.408  77.297-125.745  1.00  0.00    -0.243 N 
ATOM     35  H5  UNL     1     203.685  77.934-124.999  1.00  0.00     0.196 HD
ENDBRANCH  25  26
ENDBRANCH  24  25
ENDBRANCH   1  24
TORSDOF 10
ENDMDL
MODEL 4
REMARK VINA RESULT: -7.556616673      2.614      5.623
REMARK  10 active torsions:
REMARK  status: ('A' for Active; 'I' for Inactive)
REMARK    1  A    between atoms: C2_7  and  C3_8 
REMARK    2  A    between atoms: C3_8  and  O1_9 
REMARK    3  A    between atoms: O1_9  and  C4_10 
REMARK    4  A    between atoms: C9_16  and  C10_17 
REMARK    5  A    between atoms: C10_17  and  C11_18 
REMARK    6  A    between atoms: C10_17  and  C18_26 
REMARK    7  A    between atoms: C11_18  and  C12_19 
REMARK    8  A    between atoms: C12_19  and  N3_20 
REMARK    9  A    between atoms: C18_26  and  O3_27 
REMARK   10  A    between atoms: O3_27  and  N4_28 
ROOT
HETATM    1  C4  UNL     1     207.405  68.821-124.898  1.00  0.00     0.070 A 
HETATM    2  C5  UNL     1     208.176  68.414-123.834  1.00  0.00     0.039 A 
HETATM    3  C6  UNL     1     208.364  69.168-122.675  1.00  0.00     0.041 A 
HETATM    4  C7  UNL     1     207.746  70.402-122.575  1.00  0.00     0.086 A 
HETATM    5  O2  UNL     1     207.709  71.333-121.683  1.00  0.00    -0.321 OA
HETATM    6  C8  UNL     1     206.954  72.365-122.077  1.00  0.00     0.151 A 
HETATM    7  C9  UNL     1     206.457  72.089-123.319  1.00  0.00    -0.016 A 
HETATM    8  C19 UNL     1     206.963  70.826-123.640  1.00  0.00     0.009 A 
HETATM    9  C20 UNL     1     206.790  70.069-124.770  1.00  0.00     0.051 A 
ENDROOT
BRANCH   7  10
HETATM   10  C10 UNL     1     205.525  72.846-124.194  1.00  0.00     0.049 C 
BRANCH  10  11
HETATM   11  C11 UNL     1     205.540  74.335-123.854  1.00  0.00     0.032 C 
BRANCH  11  12
HETATM   12  C12 UNL     1     205.686  75.054-125.195  1.00  0.00     0.128 C 
BRANCH  12  13
HETATM   13  N3  UNL     1     204.435  75.542-125.671  1.00  0.00    -0.366 N 
HETATM   14  C13 UNL     1     204.074  76.794-125.304  1.00  0.00     0.090 A 
HETATM   15  C14 UNL     1     202.904  77.339-125.769  1.00  0.00     0.017 A 
HETATM   16  C15 UNL     1     202.046  76.654-126.618  1.00  0.00     0.003 A 
HETATM   17  C16 UNL     1     202.442  75.379-126.973  1.00  0.00     0.017 A 
HETATM   18  C17 UNL     1     203.635  74.841-126.493  1.00  0.00     0.090 A 
ENDBRANCH  12  13
ENDBRANCH  11  12
ENDBRANCH  10  11
BRANCH  10  19
HETATM   19  C18 UNL     1     204.098  72.329-124.027  1.00  0.00     0.210 C 
BRANCH  19  20
HETATM   20  O3  UNL     1     203.788  71.511-125.115  1.00  0.00    -0.287 OA
BRANCH  20  21
HETATM   21  N4  UNL     1     202.527  71.579-125.486  1.00  0.00    -0.311 N 
ATOM     22  H42 UNL     1     202.080  72.460-125.739  1.00  0.00     0.184 HD
ATOM     23  H41 UNL     1     202.053  70.676-125.494  1.00  0.00     0.184 HD
ENDBRANCH  20  21
ENDBRANCH  19  20
ENDBRANCH  10  19
ENDBRANCH   7  10
BRANCH   1  24
HETATM   24  O1  UNL     1     207.200  68.127-126.033  1.00  0.00    -0.344 OA
BRANCH  24  25
HETATM   25  C3  UNL     1     206.567  68.319-127.216  1.00  0.00     0.254 C 
BRANCH  25  26
HETATM   26  C2  UNL     1     205.111  68.588-127.251  1.00  0.00     0.129 A 
HETATM   27  N2  UNL     1     204.485  69.079-128.389  1.00  0.00    -0.307 N 
HETATM   28  C1  UNL     1     203.182  69.233-128.168  1.00  0.00     0.242 A 
ATOM     29  H2  UNL     1     204.957  69.291-129.269  1.00  0.00     0.171 HD
HETATM   30  N1  UNL     1     202.259  69.663-128.976  1.00  0.00    -0.364 N 
HETATM   31  O4  UNL     1     202.972  68.858-126.934  1.00  0.00    -0.200 OA
ATOM     32  H12 UNL     1     202.423  69.955-129.940  1.00  0.00     0.159 HD
ATOM     33  H11 UNL     1     201.260  69.780-128.806  1.00  0.00     0.159 HD
HETATM   34  N5  UNL     1     204.119  68.474-126.385  1.00  0.00    -0.243 N 
ATOM     35  H5  UNL     1     204.220  68.138-125.428  1.00  0.00     0.196 HD
ENDBRANCH  25  26
ENDBRANCH  24  25
ENDBRANCH   1  24
TORSDOF 10
ENDMDL
MODEL 5
REMARK VINA RESULT: -7.526495875      2.013      2.576
REMARK  10 active torsions:
REMARK  status: ('A' for Active; 'I' for Inactive)
REMARK    1  A    between atoms: C2_7  and  C3_8 
REMARK    2  A    between atoms: C3_8  and  O1_9 
REMARK    3  A    between atoms: O1_9  and  C4_10 
REMARK    4  A    between atoms: C9_16  and  C10_17 
REMARK    5  A    between atoms: C10_17  and  C11_18 
REMARK    6  A    between atoms: C10_17  and  C18_26 
REMARK    7  A    between atoms: C11_18  and  C12_19 
REMARK    8  A    between atoms: C12_19  and  N3_20 
REMARK    9  A    between atoms: C18_26  and  O3_27 
REMARK   10  A    between atoms: O3_27  and  N4_28 
ROOT
HETATM    1  C4  UNL     1     205.189  72.508-127.157  1.00  0.00     0.070 A 
HETATM    2  C5  UNL     1     206.076  73.141-127.995  1.00  0.00     0.039 A 
HETATM    3  C6  UNL     1     207.461  73.123-127.821  1.00  0.00     0.041 A 
HETATM    4  C7  UNL     1     207.988  72.435-126.743  1.00  0.00     0.086 A 
HETATM    5  O2  UNL     1     209.177  72.225-126.289  1.00  0.00    -0.321 OA
HETATM    6  C8  UNL     1     209.158  71.481-125.177  1.00  0.00     0.151 A 
HETATM    7  C9  UNL     1     207.860  71.180-124.880  1.00  0.00    -0.016 A 
HETATM    8  C19 UNL     1     207.106  71.790-125.887  1.00  0.00     0.009 A 
HETATM    9  C20 UNL     1     205.747  71.818-126.078  1.00  0.00     0.051 A 
ENDROOT
BRANCH   7  10
HETATM   10  C10 UNL     1     207.267  70.344-123.805  1.00  0.00     0.049 C 
BRANCH  10  11
HETATM   11  C11 UNL     1     207.916  70.644-122.456  1.00  0.00     0.032 C 
BRANCH  11  12
HETATM   12  C12 UNL     1     206.955  71.599-121.748  1.00  0.00     0.128 C 
BRANCH  12  13
HETATM   13  N3  UNL     1     206.953  72.890-122.352  1.00  0.00    -0.366 N 
HETATM   14  C13 UNL     1     205.771  73.358-122.817  1.00  0.00     0.090 A 
HETATM   15  C14 UNL     1     205.695  74.614-123.365  1.00  0.00     0.017 A 
HETATM   16  C15 UNL     1     206.797  75.450-123.473  1.00  0.00     0.003 A 
HETATM   17  C16 UNL     1     207.988  74.942-122.990  1.00  0.00     0.017 A 
HETATM   18  C17 UNL     1     208.047  73.665-122.435  1.00  0.00     0.090 A 
ENDBRANCH  12  13
ENDBRANCH  11  12
ENDBRANCH  10  11
BRANCH  10  19
HETATM   19  C18 UNL     1     207.462  68.861-124.113  1.00  0.00     0.210 C 
BRANCH  19  20
HETATM   20  O3  UNL     1     208.480  68.364-123.300  1.00  0.00    -0.287 OA
BRANCH  20  21
HETATM   21  N4  UNL     1     208.423  67.061-123.115  1.00  0.00    -0.311 N 
ATOM     22  H42 UNL     1     209.183  66.439-123.390  1.00  0.00     0.184 HD
ATOM     23  H41 UNL     1     207.557  66.746-122.679  1.00  0.00     0.184 HD
ENDBRANCH  20  21
ENDBRANCH  19  20
ENDBRANCH  10  19
ENDBRANCH   7  10
BRANCH   1  24
HETATM   24  O1  UNL     1     203.849  72.502-127.287  1.00  0.00    -0.344 OA
BRANCH  24  25
HETATM   25  C3  UNL     1     202.802  73.237-126.840  1.00  0.00     0.254 C 
BRANCH  25  26
HETATM   26  C2  UNL     1     202.888  74.716-126.801  1.00  0.00     0.129 A 
HETATM   27  N2  UNL     1     203.499  75.385-125.749  1.00  0.00    -0.307 N 
HETATM   28  C1  UNL     1     203.449  76.700-125.949  1.00  0.00     0.242 A 
ATOM     29  H2  UNL     1     203.925  74.934-124.939  1.00  0.00     0.171 HD
HETATM   30  N1  UNL     1     203.907  77.660-125.202  1.00  0.00    -0.364 N 
HETATM   31  O4  UNL     1     202.828  76.875-127.085  1.00  0.00    -0.200 OA
ATOM     32  H12 UNL     1     204.391  77.523-124.315  1.00  0.00     0.159 HD
ATOM     33  H11 UNL     1     203.868  78.668-125.356  1.00  0.00     0.159 HD
HETATM   34  N5  UNL     1     202.492  75.696-127.595  1.00  0.00    -0.243 N 
ATOM     35  H5  UNL     1     201.997  75.564-128.477  1.00  0.00     0.196 HD
ENDBRANCH  25  26
ENDBRANCH  24  25
ENDBRANCH   1  24
TORSDOF 10
ENDMDL
