MODEL 1
REMARK VINA RESULT: -7.190178010      0.000      0.000
REMARK  11 active torsions:
REMARK  status: ('A' for Active; 'I' for Inactive)
REMARK    1  A    between atoms: O1_2  and  C2_3 
REMARK    2  A    between atoms: C2_3  and  C3_4 
REMARK    3  A    between atoms: C3_4  and  O2_5 
REMARK    4  A    between atoms: O2_5  and  C4_6 
REMARK    5  A    between atoms: C4_6  and  C5_7 
REMARK    6  A    between atoms: C7_9  and  O3_10 
REMARK    7  A    between atoms: C9_12  and  O4_13 
REMARK    8  A    between atoms: O4_13  and  C10_14 
REMARK    9  A    between atoms: C10_14  and  C11_15 
REMARK   10  A    between atoms: C19_23  and  N1_24 
REMARK   11  A    between atoms: C20_29  and  N3_30 
ROOT
HETATM    1  C5  UNL     1     205.539  75.330-125.112  1.00  0.00    -0.004 C 
HETATM    2  C6  UNL     1     204.724  76.381-125.702  1.00  0.00     0.051 C 
HETATM    3  C7  UNL     1     203.485  76.233-126.132  1.00  0.00     0.102 C 
HETATM    4  C9  UNL     1     202.906  75.093-126.857  1.00  0.00     0.103 C 
HETATM    5  C17 UNL     1     203.203  73.768-126.598  1.00  0.00     0.057 C 
HETATM    6  C18 UNL     1     203.991  73.381-125.467  1.00  0.00     0.039 A 
HETATM    7  C19 UNL     1     203.541  72.197-124.897  1.00  0.00     0.127 A 
HETATM    8  N2  UNL     1     204.020  71.875-123.742  1.00  0.00    -0.176 N 
ATOM      9  H2  UNL     1     203.678  71.003-123.338  1.00  0.00     0.186 HD
HETATM   10  C20 UNL     1     204.938  72.574-122.996  1.00  0.00     0.677 A 
HETATM   11  N4  UNL     1     205.417  73.698-123.486  1.00  0.00    -0.191 N 
ATOM     12  H4  UNL     1     206.110  74.232-122.962  1.00  0.00     0.184 HD
HETATM   13  C21 UNL     1     204.973  74.151-124.719  1.00  0.00     0.071 A 
ENDROOT
BRANCH   4  14
HETATM   14  O4  UNL     1     202.101  75.596-127.727  1.00  0.00    -0.344 OA
BRANCH  14  15
HETATM   15  C10 UNL     1     201.278  76.098-128.623  1.00  0.00     0.214 C 
BRANCH  15  16
HETATM   16  C11 UNL     1     200.936  75.250-129.769  1.00  0.00    -0.034 A 
HETATM   17  C12 UNL     1     200.813  75.843-131.023  1.00  0.00     0.009 A 
HETATM   18  C13 UNL     1     200.544  75.179-132.178  1.00  0.00     0.001 A 
HETATM   19  C14 UNL     1     200.374  73.759-132.119  1.00  0.00     0.000 A 
HETATM   20  C15 UNL     1     200.482  73.172-130.895  1.00  0.00     0.001 A 
HETATM   21  C16 UNL     1     200.747  73.867-129.741  1.00  0.00     0.009 A 
ENDBRANCH  15  16
ENDBRANCH  14  15
ENDBRANCH   4  14
BRANCH   3  22
HETATM   22  O3  UNL     1     202.344  77.046-125.958  1.00  0.00    -0.353 OA
HETATM   23  C8  UNL     1     202.144  77.492-124.669  1.00  0.00     0.210 C 
ENDBRANCH   3  22
BRANCH   1  24
HETATM   24  C4  UNL     1     206.881  75.664-124.640  1.00  0.00     0.208 C 
BRANCH  24  25
HETATM   25  O2  UNL     1     207.769  74.640-124.694  1.00  0.00    -0.385 OA
BRANCH  25  26
HETATM   26  C3  UNL     1     208.620  74.312-123.690  1.00  0.00     0.194 C 
BRANCH  26  27
HETATM   27  C2  UNL     1     208.902  72.821-123.778  1.00  0.00     0.193 C 
BRANCH  27  28
HETATM   28  O1  UNL     1     208.144  72.036-122.974  1.00  0.00    -0.394 OA
HETATM   29  C1  UNL     1     208.472  70.673-123.284  1.00  0.00     0.201 C 
ENDBRANCH  27  28
ENDBRANCH  26  27
ENDBRANCH  25  26
ENDBRANCH  24  25
ENDBRANCH   1  24
BRANCH   7  30
HETATM   30  N1  UNL     1     202.561  71.568-125.493  1.00  0.00    -0.384 N 
ATOM     31  H12 UNL     1     202.126  71.873-126.364  1.00  0.00     0.157 HD
ATOM     32  H11 UNL     1     202.293  70.654-125.127  1.00  0.00     0.157 HD
ENDBRANCH   7  30
BRANCH  10  33
HETATM   33  N3  UNL     1     205.228  71.925-121.877  1.00  0.00    -0.234 N 
ATOM     34  H32 UNL     1     204.662  71.297-121.306  1.00  0.00     0.174 HD
ATOM     35  H31 UNL     1     206.170  72.156-121.558  1.00  0.00     0.174 HD
ENDBRANCH  10  33
TORSDOF 11
ENDMDL
MODEL 2
REMARK VINA RESULT: -7.162228852      2.985      5.145
REMARK  11 active torsions:
REMARK  status: ('A' for Active; 'I' for Inactive)
REMARK    1  A    between atoms: O1_2  and  C2_3 
REMARK    2  A    between atoms: C2_3  and  C3_4 
REMARK    3  A    between atoms: C3_4  and  O2_5 
REMARK    4  A    between atoms: O2_5  and  C4_6 
REMARK    5  A    between atoms: C4_6  and  C5_7 
REMARK    6  A    between atoms: C7_9  and  O3_10 
REMARK    7  A    between atoms: C9_12  and  O4_13 
REMARK    8  A    between atoms: O4_13  and  C10_14 
REMARK    9  A    between atoms: C10_14  and  C11_15 
REMARK   10  A    between atoms: C19_23  and  N1_24 
REMARK   11  A    between atoms: C20_29  and  N3_30 
ROOT
HETATM    1  C5  UNL     1     209.576  72.005-124.139  1.00  0.00    -0.004 C 
HETATM    2  C6  UNL     1     209.247  73.385-123.814  1.00  0.00     0.051 C 
HETATM    3  C7  UNL     1     208.027  73.885-123.763  1.00  0.00     0.102 C 
HETATM    4  C9  UNL     1     206.895  73.610-124.660  1.00  0.00     0.103 C 
HETATM    5  C17 UNL     1     206.596  72.366-125.185  1.00  0.00     0.057 C 
HETATM    6  C18 UNL     1     207.280  71.185-124.757  1.00  0.00     0.039 A 
HETATM    7  C19 UNL     1     206.434  70.087-124.686  1.00  0.00     0.127 A 
HETATM    8  N2  UNL     1     206.880  69.030-124.092  1.00  0.00    -0.176 N 
ATOM      9  H2  UNL     1     206.244  68.233-124.049  1.00  0.00     0.186 HD
HETATM   10  C20 UNL     1     208.114  68.859-123.512  1.00  0.00     0.677 A 
HETATM   11  N4  UNL     1     208.970  69.856-123.557  1.00  0.00    -0.191 N 
ATOM     12  H4  UNL     1     209.898  69.754-123.147  1.00  0.00     0.184 HD
HETATM   13  C21 UNL     1     208.603  71.048-124.165  1.00  0.00     0.071 A 
ENDROOT
BRANCH   4  14
HETATM   14  O4  UNL     1     206.287  74.734-124.819  1.00  0.00    -0.344 OA
BRANCH  14  15
HETATM   15  C10 UNL     1     205.661  75.879-124.996  1.00  0.00     0.214 C 
BRANCH  15  16
HETATM   16  C11 UNL     1     204.364  75.837-125.676  1.00  0.00    -0.034 A 
HETATM   17  C12 UNL     1     203.590  76.994-125.706  1.00  0.00     0.009 A 
HETATM   18  C13 UNL     1     202.390  77.115-126.334  1.00  0.00     0.001 A 
HETATM   19  C14 UNL     1     201.869  75.974-127.025  1.00  0.00     0.000 A 
HETATM   20  C15 UNL     1     202.614  74.836-126.991  1.00  0.00     0.001 A 
HETATM   21  C16 UNL     1     203.820  74.737-126.343  1.00  0.00     0.009 A 
ENDBRANCH  15  16
ENDBRANCH  14  15
ENDBRANCH   4  14
BRANCH   3  22
HETATM   22  O3  UNL     1     207.416  74.734-122.815  1.00  0.00    -0.353 OA
HETATM   23  C8  UNL     1     207.189  74.158-121.585  1.00  0.00     0.210 C 
ENDBRANCH   3  22
BRANCH   1  24
HETATM   24  C4  UNL     1     210.977  71.591-124.108  1.00  0.00     0.208 C 
BRANCH  24  25
HETATM   25  O2  UNL     1     211.430  71.046-125.265  1.00  0.00    -0.385 OA
BRANCH  25  26
HETATM   26  C3  UNL     1     211.135  71.521-126.501  1.00  0.00     0.194 C 
BRANCH  26  27
HETATM   27  C2  UNL     1     210.599  70.368-127.334  1.00  0.00     0.193 C 
BRANCH  27  28
HETATM   28  O1  UNL     1     210.004  69.370-126.635  1.00  0.00    -0.394 OA
HETATM   29  C1  UNL     1     208.833  68.982-127.368  1.00  0.00     0.201 C 
ENDBRANCH  27  28
ENDBRANCH  26  27
ENDBRANCH  25  26
ENDBRANCH  24  25
ENDBRANCH   1  24
BRANCH   7  30
HETATM   30  N1  UNL     1     205.199  70.242-125.090  1.00  0.00    -0.384 N 
ATOM     31  H12 UNL     1     204.838  71.092-125.523  1.00  0.00     0.157 HD
ATOM     32  H11 UNL     1     204.590  69.424-125.079  1.00  0.00     0.157 HD
ENDBRANCH   7  30
BRANCH  10  33
HETATM   33  N3  UNL     1     208.240  67.630-123.030  1.00  0.00    -0.234 N 
ATOM     34  H32 UNL     1     207.538  66.973-122.688  1.00  0.00     0.174 HD
ATOM     35  H31 UNL     1     209.223  67.362-122.975  1.00  0.00     0.174 HD
ENDBRANCH  10  33
TORSDOF 11
ENDMDL
MODEL 3
REMARK VINA RESULT: -7.089201653      3.298      6.022
REMARK  11 active torsions:
REMARK  status: ('A' for Active; 'I' for Inactive)
REMARK    1  A    between atoms: O1_2  and  C2_3 
REMARK    2  A    between atoms: C2_3  and  C3_4 
REMARK    3  A    between atoms: C3_4  and  O2_5 
REMARK    4  A    between atoms: O2_5  and  C4_6 
REMARK    5  A    between atoms: C4_6  and  C5_7 
REMARK    6  A    between atoms: C7_9  and  O3_10 
REMARK    7  A    between atoms: C9_12  and  O4_13 
REMARK    8  A    between atoms: O4_13  and  C10_14 
REMARK    9  A    between atoms: C10_14  and  C11_15 
REMARK   10  A    between atoms: C19_23  and  N1_24 
REMARK   11  A    between atoms: C20_29  and  N3_30 
ROOT
HETATM    1  C5  UNL     1     206.667  69.866-126.284  1.00  0.00    -0.004 C 
HETATM    2  C6  UNL     1     206.620  71.177-126.915  1.00  0.00     0.051 C 
HETATM    3  C7  UNL     1     206.839  72.325-126.302  1.00  0.00     0.102 C 
HETATM    4  C9  UNL     1     206.414  72.731-124.955  1.00  0.00     0.103 C 
HETATM    5  C17 UNL     1     206.406  71.897-123.852  1.00  0.00     0.057 C 
HETATM    6  C18 UNL     1     206.981  70.588-123.895  1.00  0.00     0.039 A 
HETATM    7  C19 UNL     1     207.618  70.257-122.707  1.00  0.00     0.127 A 
HETATM    8  N2  UNL     1     208.369  69.206-122.708  1.00  0.00    -0.176 N 
ATOM      9  H2  UNL     1     208.829  68.979-121.826  1.00  0.00     0.186 HD
HETATM   10  C20 UNL     1     208.618  68.361-123.762  1.00  0.00     0.677 A 
HETATM   11  N4  UNL     1     208.034  68.610-124.915  1.00  0.00    -0.191 N 
ATOM     12  H4  UNL     1     208.188  67.993-125.711  1.00  0.00     0.184 HD
HETATM   13  C21 UNL     1     207.206  69.716-125.039  1.00  0.00     0.071 A 
ENDROOT
BRANCH   4  14
HETATM   14  O4  UNL     1     206.081  73.972-125.046  1.00  0.00    -0.344 OA
BRANCH  14  15
HETATM   15  C10 UNL     1     205.749  75.243-125.126  1.00  0.00     0.214 C 
BRANCH  15  16
HETATM   16  C11 UNL     1     204.439  75.560-125.701  1.00  0.00    -0.034 A 
HETATM   17  C12 UNL     1     203.919  76.837-125.511  1.00  0.00     0.009 A 
HETATM   18  C13 UNL     1     202.741  77.285-126.020  1.00  0.00     0.001 A 
HETATM   19  C14 UNL     1     201.963  76.386-126.818  1.00  0.00     0.000 A 
HETATM   20  C15 UNL     1     202.458  75.131-126.999  1.00  0.00     0.001 A 
HETATM   21  C16 UNL     1     203.648  74.701-126.467  1.00  0.00     0.009 A 
ENDBRANCH  15  16
ENDBRANCH  14  15
ENDBRANCH   4  14
BRANCH   3  22
HETATM   22  O3  UNL     1     207.601  73.449-126.691  1.00  0.00    -0.353 OA
HETATM   23  C8  UNL     1     207.625  73.689-128.048  1.00  0.00     0.210 C 
ENDBRANCH   3  22
BRANCH   1  24
HETATM   24  C4  UNL     1     206.447  68.681-127.110  1.00  0.00     0.208 C 
BRANCH  24  25
HETATM   25  O2  UNL     1     205.178  68.542-127.569  1.00  0.00    -0.385 OA
BRANCH  25  26
HETATM   26  C3  UNL     1     204.082  68.463-126.774  1.00  0.00     0.194 C 
BRANCH  26  27
HETATM   27  C2  UNL     1     202.995  69.336-127.381  1.00  0.00     0.193 C 
BRANCH  27  28
HETATM   28  O1  UNL     1     202.246  70.035-126.494  1.00  0.00    -0.394 OA
HETATM   29  C1  UNL     1     202.965  71.239-126.189  1.00  0.00     0.201 C 
ENDBRANCH  27  28
ENDBRANCH  26  27
ENDBRANCH  25  26
ENDBRANCH  24  25
ENDBRANCH   1  24
BRANCH   7  30
HETATM   30  N1  UNL     1     207.534  71.105-121.714  1.00  0.00    -0.384 N 
ATOM     31  H12 UNL     1     208.166  71.119-120.914  1.00  0.00     0.157 HD
ATOM     32  H11 UNL     1     206.867  71.872-121.801  1.00  0.00     0.157 HD
ENDBRANCH   7  30
BRANCH  10  33
HETATM   33  N3  UNL     1     209.408  67.364-123.389  1.00  0.00    -0.234 N 
ATOM     34  H32 UNL     1     210.360  67.128-123.669  1.00  0.00     0.174 HD
ATOM     35  H31 UNL     1     208.922  66.737-122.747  1.00  0.00     0.174 HD
ENDBRANCH  10  33
TORSDOF 11
ENDMDL
MODEL 4
REMARK VINA RESULT: -6.766919275      2.601      4.132
REMARK  11 active torsions:
REMARK  status: ('A' for Active; 'I' for Inactive)
REMARK    1  A    between atoms: O1_2  and  C2_3 
REMARK    2  A    between atoms: C2_3  and  C3_4 
REMARK    3  A    between atoms: C3_4  and  O2_5 
REMARK    4  A    between atoms: O2_5  and  C4_6 
REMARK    5  A    between atoms: C4_6  and  C5_7 
REMARK    6  A    between atoms: C7_9  and  O3_10 
REMARK    7  A    between atoms: C9_12  and  O4_13 
REMARK    8  A    between atoms: O4_13  and  C10_14 
REMARK    9  A    between atoms: C10_14  and  C11_15 
REMARK   10  A    between atoms: C19_23  and  N1_24 
REMARK   11  A    between atoms: C20_29  and  N3_30 
ROOT
HETATM    1  C5  UNL     1     203.779  72.641-125.724  1.00  0.00    -0.004 C 
HETATM    2  C6  UNL     1     203.324  72.061-126.978  1.00  0.00     0.051 C 
HETATM    3  C7  UNL     1     202.889  72.745-128.020  1.00  0.00     0.102 C 
HETATM    4  C9  UNL     1     202.040  73.945-128.029  1.00  0.00     0.103 C 
HETATM    5  C17 UNL     1     202.139  74.980-127.119  1.00  0.00     0.057 C 
HETATM    6  C18 UNL     1     203.209  75.050-126.171  1.00  0.00     0.039 A 
HETATM    7  C19 UNL     1     203.639  76.353-125.963  1.00  0.00     0.127 A 
HETATM    8  N2  UNL     1     204.744  76.518-125.315  1.00  0.00    -0.176 N 
ATOM      9  H2  UNL     1     205.045  77.482-125.172  1.00  0.00     0.186 HD
HETATM   10  C20 UNL     1     205.559  75.540-124.797  1.00  0.00     0.677 A 
HETATM   11  N4  UNL     1     205.202  74.283-124.947  1.00  0.00    -0.191 N 
ATOM     12  H4  UNL     1     205.779  73.536-124.561  1.00  0.00     0.184 HD
HETATM   13  C21 UNL     1     204.034  73.979-125.631  1.00  0.00     0.071 A 
ENDROOT
BRANCH   4  14
HETATM   14  O4  UNL     1     201.242  73.808-129.031  1.00  0.00    -0.344 OA
BRANCH  14  15
HETATM   15  C10 UNL     1     200.436  73.675-130.063  1.00  0.00     0.214 C 
BRANCH  15  16
HETATM   16  C11 UNL     1     200.012  74.901-130.745  1.00  0.00    -0.034 A 
HETATM   17  C12 UNL     1     199.150  75.769-130.079  1.00  0.00     0.009 A 
HETATM   18  C13 UNL     1     198.708  76.958-130.567  1.00  0.00     0.001 A 
HETATM   19  C14 UNL     1     199.156  77.365-131.865  1.00  0.00     0.000 A 
HETATM   20  C15 UNL     1     199.988  76.517-132.528  1.00  0.00     0.001 A 
HETATM   21  C16 UNL     1     200.414  75.317-132.016  1.00  0.00     0.009 A 
ENDBRANCH  15  16
ENDBRANCH  14  15
ENDBRANCH   4  14
BRANCH   3  22
HETATM   22  O3  UNL     1     203.168  72.605-129.398  1.00  0.00    -0.353 OA
HETATM   23  C8  UNL     1     203.784  71.423-129.745  1.00  0.00     0.210 C 
ENDBRANCH   3  22
BRANCH   1  24
HETATM   24  C4  UNL     1     204.276  71.751-124.678  1.00  0.00     0.208 C 
BRANCH  24  25
HETATM   25  O2  UNL     1     205.604  71.488-124.744  1.00  0.00    -0.385 OA
BRANCH  25  26
HETATM   26  C3  UNL     1     206.141  70.244-124.688  1.00  0.00     0.194 C 
BRANCH  26  27
HETATM   27  C2  UNL     1     205.772  69.512-125.968  1.00  0.00     0.193 C 
BRANCH  27  28
HETATM   28  O1  UNL     1     204.914  68.473-125.819  1.00  0.00    -0.394 OA
HETATM   29  C1  UNL     1     204.005  68.513-126.928  1.00  0.00     0.201 C 
ENDBRANCH  27  28
ENDBRANCH  26  27
ENDBRANCH  25  26
ENDBRANCH  24  25
ENDBRANCH   1  24
BRANCH   7  30
HETATM   30  N1  UNL     1     202.981  77.314-126.559  1.00  0.00    -0.384 N 
ATOM     31  H12 UNL     1     202.101  77.186-127.058  1.00  0.00     0.157 HD
ATOM     32  H11 UNL     1     203.308  78.270-126.418  1.00  0.00     0.157 HD
ENDBRANCH   7  30
BRANCH  10  33
HETATM   33  N3  UNL     1     206.591  76.077-124.161  1.00  0.00    -0.234 N 
ATOM     34  H32 UNL     1     206.924  77.041-124.125  1.00  0.00     0.174 HD
ATOM     35  H31 UNL     1     207.131  75.359-123.676  1.00  0.00     0.174 HD
ENDBRANCH  10  33
TORSDOF 11
ENDMDL
MODEL 5
REMARK VINA RESULT: -6.724778576      2.247      3.812
REMARK  11 active torsions:
REMARK  status: ('A' for Active; 'I' for Inactive)
REMARK    1  A    between atoms: O1_2  and  C2_3 
REMARK    2  A    between atoms: C2_3  and  C3_4 
REMARK    3  A    between atoms: C3_4  and  O2_5 
REMARK    4  A    between atoms: O2_5  and  C4_6 
REMARK    5  A    between atoms: C4_6  and  C5_7 
REMARK    6  A    between atoms: C7_9  and  O3_10 
REMARK    7  A    between atoms: C9_12  and  O4_13 
REMARK    8  A    between atoms: O4_13  and  C10_14 
REMARK    9  A    between atoms: C10_14  and  C11_15 
REMARK   10  A    between atoms: C19_23  and  N1_24 
REMARK   11  A    between atoms: C20_29  and  N3_30 
ROOT
HETATM    1  C5  UNL     1     203.647  72.690-125.617  1.00  0.00    -0.004 C 
HETATM    2  C6  UNL     1     203.224  72.069-126.863  1.00  0.00     0.051 C 
HETATM    3  C7  UNL     1     202.841  72.718-127.946  1.00  0.00     0.102 C 
HETATM    4  C9  UNL     1     202.019  73.933-128.034  1.00  0.00     0.103 C 
HETATM    5  C17 UNL     1     202.107  75.003-127.162  1.00  0.00     0.057 C 
HETATM    6  C18 UNL     1     203.144  75.089-126.180  1.00  0.00     0.039 A 
HETATM    7  C19 UNL     1     203.595  76.391-126.009  1.00  0.00     0.127 A 
HETATM    8  N2  UNL     1     204.679  76.560-125.329  1.00  0.00    -0.176 N 
ATOM      9  H2  UNL     1     204.996  77.523-125.213  1.00  0.00     0.186 HD
HETATM   10  C20 UNL     1     205.455  75.588-124.743  1.00  0.00     0.677 A 
HETATM   11  N4  UNL     1     205.076  74.333-124.855  1.00  0.00    -0.191 N 
ATOM     12  H4  UNL     1     205.624  73.592-124.420  1.00  0.00     0.184 HD
HETATM   13  C21 UNL     1     203.928  74.026-125.569  1.00  0.00     0.071 A 
ENDROOT
BRANCH   4  14
HETATM   14  O4  UNL     1     201.253  73.772-129.057  1.00  0.00    -0.344 OA
BRANCH  14  15
HETATM   15  C10 UNL     1     200.470  73.622-130.104  1.00  0.00     0.214 C 
BRANCH  15  16
HETATM   16  C11 UNL     1     200.056  74.837-130.812  1.00  0.00    -0.034 A 
HETATM   17  C12 UNL     1     199.225  75.740-130.154  1.00  0.00     0.009 A 
HETATM   18  C13 UNL     1     198.797  76.924-130.668  1.00  0.00     0.001 A 
HETATM   19  C14 UNL     1     199.227  77.286-131.984  1.00  0.00     0.000 A 
HETATM   20  C15 UNL     1     200.030  76.403-132.638  1.00  0.00     0.001 A 
HETATM   21  C16 UNL     1     200.443  75.209-132.101  1.00  0.00     0.009 A 
ENDBRANCH  15  16
ENDBRANCH  14  15
ENDBRANCH   4  14
BRANCH   3  22
HETATM   22  O3  UNL     1     203.165  72.518-129.306  1.00  0.00    -0.353 OA
HETATM   23  C8  UNL     1     203.491  71.220-129.636  1.00  0.00     0.210 C 
ENDBRANCH   3  22
BRANCH   1  24
HETATM   24  C4  UNL     1     204.088  71.833-124.519  1.00  0.00     0.208 C 
BRANCH  24  25
HETATM   25  O2  UNL     1     205.074  70.961-124.845  1.00  0.00    -0.385 OA
BRANCH  25  26
HETATM   26  C3  UNL     1     206.366  71.086-124.452  1.00  0.00     0.194 C 
BRANCH  26  27
HETATM   27  C2  UNL     1     206.387  71.852-123.138  1.00  0.00     0.193 C 
BRANCH  27  28
HETATM   28  O1  UNL     1     207.105  73.001-123.145  1.00  0.00    -0.394 OA
HETATM   29  C1  UNL     1     207.209  73.443-121.783  1.00  0.00     0.201 C 
ENDBRANCH  27  28
ENDBRANCH  26  27
ENDBRANCH  25  26
ENDBRANCH  24  25
ENDBRANCH   1  24
BRANCH   7  30
HETATM   30  N1  UNL     1     202.979  77.340-126.665  1.00  0.00    -0.384 N 
ATOM     31  H12 UNL     1     202.003  77.297-126.960  1.00  0.00     0.157 HD
ATOM     32  H11 UNL     1     203.469  78.226-126.790  1.00  0.00     0.157 HD
ENDBRANCH   7  30
BRANCH  10  33
HETATM   33  N3  UNL     1     206.476  76.130-124.092  1.00  0.00    -0.234 N 
ATOM     34  H32 UNL     1     206.944  77.027-124.217  1.00  0.00     0.174 HD
ATOM     35  H31 UNL     1     206.839  75.487-123.388  1.00  0.00     0.174 HD
ENDBRANCH  10  33
TORSDOF 11
ENDMDL
