MODEL 1
REMARK VINA RESULT: -8.040480133      0.000      0.000
REMARK  10 active torsions:
REMARK  status: ('A' for Active; 'I' for Inactive)
REMARK    1  A    between atoms: N1_1  and  N2_4 
REMARK    2  A    between atoms: N2_4  and  C1_5 
REMARK    3  A    between atoms: C1_5  and  C2_6 
REMARK    4  A    between atoms: C2_6  and  N3_7 
REMARK    5  A    between atoms: C3_9  and  C4_10 
REMARK    6  A    between atoms: C8_16  and  C9_17 
REMARK    7  A    between atoms: C9_17  and  C10_18 
REMARK    8  A    between atoms: C10_18  and  C11_19 
REMARK    9  A    between atoms: N5_25  and  C17_26 
REMARK   10  A    between atoms: C17_26  and  C18_27 
ROOT
HETATM    1  C4  UNL     1     202.696  75.398-126.803  1.00  0.00     0.049 A 
HETATM    2  C5  UNL     1     203.166  76.659-126.579  1.00  0.00     0.033 A 
HETATM    3  C6  UNL     1     204.161  76.854-125.645  1.00  0.00     0.036 A 
HETATM    4  C7  UNL     1     204.654  75.763-124.962  1.00  0.00     0.078 A 
HETATM    5  N4  UNL     1     205.588  75.595-124.013  1.00  0.00    -0.343 N 
ATOM      6  H4  UNL     1     206.148  76.344-123.604  1.00  0.00     0.167 HD
HETATM    7  C8  UNL     1     205.680  74.270-123.672  1.00  0.00     0.086 A 
HETATM    8  N5  UNL     1     204.797  73.601-124.413  1.00  0.00    -0.315 N 
HETATM    9  C23 UNL     1     204.148  74.510-125.223  1.00  0.00     0.137 A 
HETATM   10  N7  UNL     1     203.183  74.314-126.127  1.00  0.00    -0.339 N 
ATOM     11  H7  UNL     1     202.819  73.379-126.308  1.00  0.00     0.167 HD
ENDROOT
BRANCH   1  12
HETATM   12  C3  UNL     1     201.652  75.119-127.769  1.00  0.00     0.112 C 
HETATM   13  N3  UNL     1     201.353  75.751-128.775  1.00  0.00    -0.396 N 
ATOM     14  H3  UNL     1     200.571  75.270-129.220  1.00  0.00     0.159 HD
BRANCH  13  15
HETATM   15  C2  UNL     1     201.656  76.847-129.537  1.00  0.00     0.137 C 
BRANCH  15  16
HETATM   16  C1  UNL     1     200.501  77.081-130.546  1.00  0.00     0.153 C 
BRANCH  16  17
HETATM   17  N2  UNL     1     199.394  77.600-129.769  1.00  0.00    -0.147 NA
BRANCH  17  18
HETATM   18  N1  UNL     1     198.299  77.748-130.633  1.00  0.00    -0.348 N 
ATOM     19  H12 UNL     1     198.255  78.388-131.426  1.00  0.00     0.172 HD
ATOM     20  H11 UNL     1     197.570  77.106-130.323  1.00  0.00     0.172 HD
ENDBRANCH  17  18
ENDBRANCH  16  17
ENDBRANCH  15  16
ENDBRANCH  13  15
ENDBRANCH   1  12
BRANCH   8  21
HETATM   21  C17 UNL     1     204.501  72.199-124.389  1.00  0.00     0.189 C 
BRANCH  21  22
HETATM   22  C18 UNL     1     205.422  71.329-125.136  1.00  0.00     0.027 A 
HETATM   23  C19 UNL     1     206.346  71.817-126.061  1.00  0.00     0.027 A 
HETATM   24  C20 UNL     1     207.197  71.002-126.781  1.00  0.00     0.003 A 
HETATM   25  C21 UNL     1     207.141  69.650-126.587  1.00  0.00     0.017 A 
HETATM   26  C22 UNL     1     206.233  69.160-125.678  1.00  0.00     0.088 A 
HETATM   27  N6  UNL     1     205.429  69.987-125.002  1.00  0.00    -0.368 N 
ATOM     28  H6  UNL     1     204.775  69.574-124.339  1.00  0.00     0.165 HD
ENDBRANCH  21  22
ENDBRANCH   8  21
BRANCH   7  29
HETATM   29  C9  UNL     1     206.575  73.761-122.624  1.00  0.00     0.081 C 
BRANCH  29  30
HETATM   30  C10 UNL     1     208.026  73.700-122.991  1.00  0.00     0.046 C 
BRANCH  30  31
HETATM   31  C11 UNL     1     208.370  72.255-123.072  1.00  0.00    -0.058 A 
HETATM   32  C12 UNL     1     209.408  71.781-123.834  1.00  0.00     0.007 A 
HETATM   33  C13 UNL     1     209.731  70.438-123.912  1.00  0.00     0.001 A 
HETATM   34  C14 UNL     1     208.946  69.565-123.172  1.00  0.00     0.000 A 
HETATM   35  C15 UNL     1     207.895  69.987-122.392  1.00  0.00     0.001 A 
HETATM   36  C16 UNL     1     207.623  71.346-122.357  1.00  0.00     0.007 A 
ENDBRANCH  30  31
ENDBRANCH  29  30
ENDBRANCH   7  29
TORSDOF 10
ENDMDL
MODEL 2
REMARK VINA RESULT: -7.822510213      0.773      1.167
REMARK  10 active torsions:
REMARK  status: ('A' for Active; 'I' for Inactive)
REMARK    1  A    between atoms: N1_1  and  N2_4 
REMARK    2  A    between atoms: N2_4  and  C1_5 
REMARK    3  A    between atoms: C1_5  and  C2_6 
REMARK    4  A    between atoms: C2_6  and  N3_7 
REMARK    5  A    between atoms: C3_9  and  C4_10 
REMARK    6  A    between atoms: C8_16  and  C9_17 
REMARK    7  A    between atoms: C9_17  and  C10_18 
REMARK    8  A    between atoms: C10_18  and  C11_19 
REMARK    9  A    between atoms: N5_25  and  C17_26 
REMARK   10  A    between atoms: C17_26  and  C18_27 
ROOT
HETATM    1  C4  UNL     1     202.236  75.678-127.514  1.00  0.00     0.049 A 
HETATM    2  C5  UNL     1     202.635  76.894-127.044  1.00  0.00     0.033 A 
HETATM    3  C6  UNL     1     203.527  76.955-125.994  1.00  0.00     0.036 A 
HETATM    4  C7  UNL     1     203.992  75.777-125.449  1.00  0.00     0.078 A 
HETATM    5  N4  UNL     1     204.835  75.475-124.450  1.00  0.00    -0.343 N 
ATOM      6  H4  UNL     1     205.324  76.159-123.871  1.00  0.00     0.167 HD
HETATM    7  C8  UNL     1     204.943  74.115-124.320  1.00  0.00     0.086 A 
HETATM    8  N5  UNL     1     204.161  73.558-125.244  1.00  0.00    -0.315 N 
HETATM    9  C23 UNL     1     203.560  74.573-125.959  1.00  0.00     0.137 A 
HETATM   10  N7  UNL     1     202.695  74.509-126.976  1.00  0.00    -0.339 N 
ATOM     11  H7  UNL     1     202.386  73.608-127.341  1.00  0.00     0.167 HD
ENDROOT
BRANCH   1  12
HETATM   12  C3  UNL     1     201.302  75.540-128.614  1.00  0.00     0.112 C 
HETATM   13  N3  UNL     1     201.189  76.237-129.614  1.00  0.00    -0.396 N 
ATOM     14  H3  UNL     1     200.430  75.852-130.176  1.00  0.00     0.159 HD
BRANCH  13  15
HETATM   15  C2  UNL     1     201.682  77.330-130.274  1.00  0.00     0.137 C 
BRANCH  15  16
HETATM   16  C1  UNL     1     200.595  77.847-131.253  1.00  0.00     0.153 C 
BRANCH  16  17
HETATM   17  N2  UNL     1     199.614  78.527-130.435  1.00  0.00    -0.147 NA
BRANCH  17  18
HETATM   18  N1  UNL     1     198.363  77.951-130.701  1.00  0.00    -0.348 N 
ATOM     19  H12 UNL     1     197.676  78.313-131.362  1.00  0.00     0.172 HD
ATOM     20  H11 UNL     1     198.274  77.118-130.120  1.00  0.00     0.172 HD
ENDBRANCH  17  18
ENDBRANCH  16  17
ENDBRANCH  15  16
ENDBRANCH  13  15
ENDBRANCH   1  12
BRANCH   8  21
HETATM   21  C17 UNL     1     203.916  72.165-125.476  1.00  0.00     0.189 C 
BRANCH  21  22
HETATM   22  C18 UNL     1     205.101  71.334-125.743  1.00  0.00     0.027 A 
HETATM   23  C19 UNL     1     206.150  71.749-126.564  1.00  0.00     0.027 A 
HETATM   24  C20 UNL     1     207.253  70.964-126.836  1.00  0.00     0.003 A 
HETATM   25  C21 UNL     1     207.332  69.718-126.278  1.00  0.00     0.017 A 
HETATM   26  C22 UNL     1     206.303  69.301-125.468  1.00  0.00     0.088 A 
HETATM   27  N6  UNL     1     205.254  70.096-125.233  1.00  0.00    -0.368 N 
ATOM     28  H6  UNL     1     204.518  69.740-124.624  1.00  0.00     0.165 HD
ENDBRANCH  21  22
ENDBRANCH   8  21
BRANCH   7  29
HETATM   29  C9  UNL     1     205.750  73.460-123.281  1.00  0.00     0.081 C 
BRANCH  29  30
HETATM   30  C10 UNL     1     207.223  73.727-123.347  1.00  0.00     0.046 C 
BRANCH  30  31
HETATM   31  C11 UNL     1     207.888  72.401-123.232  1.00  0.00    -0.058 A 
HETATM   32  C12 UNL     1     207.344  71.356-122.530  1.00  0.00     0.007 A 
HETATM   33  C13 UNL     1     207.960  70.122-122.420  1.00  0.00     0.001 A 
HETATM   34  C14 UNL     1     209.180  69.976-123.064  1.00  0.00     0.000 A 
HETATM   35  C15 UNL     1     209.769  70.991-123.781  1.00  0.00     0.001 A 
HETATM   36  C16 UNL     1     209.102  72.203-123.853  1.00  0.00     0.007 A 
ENDBRANCH  30  31
ENDBRANCH  29  30
ENDBRANCH   7  29
TORSDOF 10
ENDMDL
MODEL 3
REMARK VINA RESULT: -7.763252642      1.215      1.711
REMARK  10 active torsions:
REMARK  status: ('A' for Active; 'I' for Inactive)
REMARK    1  A    between atoms: N1_1  and  N2_4 
REMARK    2  A    between atoms: N2_4  and  C1_5 
REMARK    3  A    between atoms: C1_5  and  C2_6 
REMARK    4  A    between atoms: C2_6  and  N3_7 
REMARK    5  A    between atoms: C3_9  and  C4_10 
REMARK    6  A    between atoms: C8_16  and  C9_17 
REMARK    7  A    between atoms: C9_17  and  C10_18 
REMARK    8  A    between atoms: C10_18  and  C11_19 
REMARK    9  A    between atoms: N5_25  and  C17_26 
REMARK   10  A    between atoms: C17_26  and  C18_27 
ROOT
HETATM    1  C4  UNL     1     202.210  75.826-127.562  1.00  0.00     0.049 A 
HETATM    2  C5  UNL     1     202.338  77.023-126.920  1.00  0.00     0.033 A 
HETATM    3  C6  UNL     1     203.189  77.123-125.838  1.00  0.00     0.036 A 
HETATM    4  C7  UNL     1     203.888  76.005-125.438  1.00  0.00     0.078 A 
HETATM    5  N4  UNL     1     204.767  75.751-124.456  1.00  0.00    -0.343 N 
ATOM      6  H4  UNL     1     205.095  76.435-123.774  1.00  0.00     0.167 HD
HETATM    7  C8  UNL     1     205.159  74.438-124.504  1.00  0.00     0.086 A 
HETATM    8  N5  UNL     1     204.521  73.863-125.523  1.00  0.00    -0.315 N 
HETATM    9  C23 UNL     1     203.725  74.819-126.119  1.00  0.00     0.137 A 
HETATM   10  N7  UNL     1     202.902  74.716-127.167  1.00  0.00    -0.339 N 
ATOM     11  H7  UNL     1     202.793  73.830-127.660  1.00  0.00     0.167 HD
ENDROOT
BRANCH   1  12
HETATM   12  C3  UNL     1     201.335  75.649-128.704  1.00  0.00     0.112 C 
HETATM   13  N3  UNL     1     201.236  76.346-129.706  1.00  0.00    -0.396 N 
ATOM     14  H3  UNL     1     200.523  75.928-130.304  1.00  0.00     0.159 HD
BRANCH  13  15
HETATM   15  C2  UNL     1     201.705  77.465-130.340  1.00  0.00     0.137 C 
BRANCH  15  16
HETATM   16  C1  UNL     1     200.605  77.987-131.301  1.00  0.00     0.153 C 
BRANCH  16  17
HETATM   17  N2  UNL     1     199.589  78.579-130.456  1.00  0.00    -0.147 NA
BRANCH  17  18
HETATM   18  N1  UNL     1     198.364  77.971-130.771  1.00  0.00    -0.348 N 
ATOM     19  H12 UNL     1     198.103  77.611-131.689  1.00  0.00     0.172 HD
ATOM     20  H11 UNL     1     197.797  77.959-129.923  1.00  0.00     0.172 HD
ENDBRANCH  17  18
ENDBRANCH  16  17
ENDBRANCH  15  16
ENDBRANCH  13  15
ENDBRANCH   1  12
BRANCH   8  21
HETATM   21  C17 UNL     1     204.579  72.495-125.947  1.00  0.00     0.189 C 
BRANCH  21  22
HETATM   22  C18 UNL     1     205.888  72.018-126.420  1.00  0.00     0.027 A 
HETATM   23  C19 UNL     1     206.363  70.731-126.169  1.00  0.00     0.027 A 
HETATM   24  C20 UNL     1     207.600  70.285-126.591  1.00  0.00     0.003 A 
HETATM   25  C21 UNL     1     208.407  71.138-127.290  1.00  0.00     0.017 A 
HETATM   26  C22 UNL     1     207.947  72.409-127.542  1.00  0.00     0.088 A 
HETATM   27  N6  UNL     1     206.741  72.797-127.114  1.00  0.00    -0.368 N 
ATOM     28  H6  UNL     1     206.447  73.749-127.328  1.00  0.00     0.165 HD
ENDBRANCH  21  22
ENDBRANCH   8  21
BRANCH   7  29
HETATM   29  C9  UNL     1     206.078  73.829-123.533  1.00  0.00     0.081 C 
BRANCH  29  30
HETATM   30  C10 UNL     1     207.531  74.128-123.746  1.00  0.00     0.046 C 
BRANCH  30  31
HETATM   31  C11 UNL     1     208.244  72.829-123.612  1.00  0.00    -0.058 A 
HETATM   32  C12 UNL     1     207.683  71.734-123.006  1.00  0.00     0.007 A 
HETATM   33  C13 UNL     1     208.343  70.525-122.880  1.00  0.00     0.001 A 
HETATM   34  C14 UNL     1     209.626  70.458-123.404  1.00  0.00     0.000 A 
HETATM   35  C15 UNL     1     210.234  71.525-124.022  1.00  0.00     0.001 A 
HETATM   36  C16 UNL     1     209.520  72.709-124.116  1.00  0.00     0.007 A 
ENDBRANCH  30  31
ENDBRANCH  29  30
ENDBRANCH   7  29
TORSDOF 10
ENDMDL
MODEL 4
REMARK VINA RESULT: -7.696169797      0.616      1.267
REMARK  10 active torsions:
REMARK  status: ('A' for Active; 'I' for Inactive)
REMARK    1  A    between atoms: N1_1  and  N2_4 
REMARK    2  A    between atoms: N2_4  and  C1_5 
REMARK    3  A    between atoms: C1_5  and  C2_6 
REMARK    4  A    between atoms: C2_6  and  N3_7 
REMARK    5  A    between atoms: C3_9  and  C4_10 
REMARK    6  A    between atoms: C8_16  and  C9_17 
REMARK    7  A    between atoms: C9_17  and  C10_18 
REMARK    8  A    between atoms: C10_18  and  C11_19 
REMARK    9  A    between atoms: N5_25  and  C17_26 
REMARK   10  A    between atoms: C17_26  and  C18_27 
ROOT
HETATM    1  C4  UNL     1     202.740  75.210-126.818  1.00  0.00     0.049 A 
HETATM    2  C5  UNL     1     203.090  76.509-126.588  1.00  0.00     0.033 A 
HETATM    3  C6  UNL     1     204.054  76.793-125.643  1.00  0.00     0.036 A 
HETATM    4  C7  UNL     1     204.638  75.750-124.957  1.00  0.00     0.078 A 
HETATM    5  N4  UNL     1     205.574  75.667-123.998  1.00  0.00    -0.343 N 
ATOM      6  H4  UNL     1     206.058  76.464-123.583  1.00  0.00     0.167 HD
HETATM    7  C8  UNL     1     205.784  74.355-123.658  1.00  0.00     0.086 A 
HETATM    8  N5  UNL     1     204.974  73.610-124.409  1.00  0.00    -0.315 N 
HETATM    9  C23 UNL     1     204.252  74.457-125.224  1.00  0.00     0.137 A 
HETATM   10  N7  UNL     1     203.318  74.175-126.138  1.00  0.00    -0.339 N 
ATOM     11  H7  UNL     1     203.044  73.211-126.324  1.00  0.00     0.167 HD
ENDROOT
BRANCH   1  12
HETATM   12  C3  UNL     1     201.736  74.839-127.795  1.00  0.00     0.112 C 
HETATM   13  N3  UNL     1     201.271  75.511-128.706  1.00  0.00    -0.396 N 
ATOM     14  H3  UNL     1     200.586  74.936-129.197  1.00  0.00     0.159 HD
BRANCH  13  15
HETATM   15  C2  UNL     1     201.308  76.732-129.325  1.00  0.00     0.137 C 
BRANCH  15  16
HETATM   16  C1  UNL     1     200.145  76.801-130.350  1.00  0.00     0.153 C 
BRANCH  16  17
HETATM   17  N2  UNL     1     199.132  77.642-129.745  1.00  0.00    -0.147 NA
BRANCH  17  18
HETATM   18  N1  UNL     1     197.921  76.935-129.768  1.00  0.00    -0.348 N 
ATOM     19  H12 UNL     1     197.704  76.116-129.200  1.00  0.00     0.172 HD
ATOM     20  H11 UNL     1     197.310  77.388-130.448  1.00  0.00     0.172 HD
ENDBRANCH  17  18
ENDBRANCH  16  17
ENDBRANCH  15  16
ENDBRANCH  13  15
ENDBRANCH   1  12
BRANCH   8  21
HETATM   21  C17 UNL     1     204.807  72.187-124.388  1.00  0.00     0.189 C 
BRANCH  21  22
HETATM   22  C18 UNL     1     205.691  71.418-125.279  1.00  0.00     0.027 A 
HETATM   23  C19 UNL     1     205.755  70.025-125.268  1.00  0.00     0.027 A 
HETATM   24  C20 UNL     1     206.599  69.300-126.086  1.00  0.00     0.003 A 
HETATM   25  C21 UNL     1     207.416  69.970-126.954  1.00  0.00     0.017 A 
HETATM   26  C22 UNL     1     207.360  71.343-126.971  1.00  0.00     0.088 A 
HETATM   27  N6  UNL     1     206.526  72.003-126.161  1.00  0.00    -0.368 N 
ATOM     28  H6  UNL     1     206.522  73.021-126.213  1.00  0.00     0.165 HD
ENDBRANCH  21  22
ENDBRANCH   8  21
BRANCH   7  29
HETATM   29  C9  UNL     1     206.711  73.929-122.601  1.00  0.00     0.081 C 
BRANCH  29  30
HETATM   30  C10 UNL     1     208.128  73.710-123.037  1.00  0.00     0.046 C 
BRANCH  30  31
HETATM   31  C11 UNL     1     208.342  72.238-123.018  1.00  0.00    -0.058 A 
HETATM   32  C12 UNL     1     207.612  71.392-122.223  1.00  0.00     0.007 A 
HETATM   33  C13 UNL     1     207.809  70.023-122.202  1.00  0.00     0.001 A 
HETATM   34  C14 UNL     1     208.798  69.524-123.036  1.00  0.00     0.000 A 
HETATM   35  C15 UNL     1     209.559  70.327-123.853  1.00  0.00     0.001 A 
HETATM   36  C16 UNL     1     209.312  71.690-123.828  1.00  0.00     0.007 A 
ENDBRANCH  30  31
ENDBRANCH  29  30
ENDBRANCH   7  29
TORSDOF 10
ENDMDL
MODEL 5
REMARK VINA RESULT: -7.504817777      1.851      2.819
REMARK  10 active torsions:
REMARK  status: ('A' for Active; 'I' for Inactive)
REMARK    1  A    between atoms: N1_1  and  N2_4 
REMARK    2  A    between atoms: N2_4  and  C1_5 
REMARK    3  A    between atoms: C1_5  and  C2_6 
REMARK    4  A    between atoms: C2_6  and  N3_7 
REMARK    5  A    between atoms: C3_9  and  C4_10 
REMARK    6  A    between atoms: C8_16  and  C9_17 
REMARK    7  A    between atoms: C9_17  and  C10_18 
REMARK    8  A    between atoms: C10_18  and  C11_19 
REMARK    9  A    between atoms: N5_25  and  C17_26 
REMARK   10  A    between atoms: C17_26  and  C18_27 
ROOT
HETATM    1  C4  UNL     1     202.803  74.713-126.902  1.00  0.00     0.049 A 
HETATM    2  C5  UNL     1     203.112  76.038-126.815  1.00  0.00     0.033 A 
HETATM    3  C6  UNL     1     204.027  76.459-125.872  1.00  0.00     0.036 A 
HETATM    4  C7  UNL     1     204.604  75.522-125.043  1.00  0.00     0.078 A 
HETATM    5  N4  UNL     1     205.499  75.579-124.044  1.00  0.00    -0.343 N 
ATOM      6  H4  UNL     1     205.946  76.433-123.707  1.00  0.00     0.167 HD
HETATM    7  C8  UNL     1     205.724  74.323-123.542  1.00  0.00     0.086 A 
HETATM    8  N5  UNL     1     204.965  73.472-124.231  1.00  0.00    -0.315 N 
HETATM    9  C23 UNL     1     204.260  74.196-125.170  1.00  0.00     0.137 A 
HETATM   10  N7  UNL     1     203.374  73.782-126.081  1.00  0.00    -0.339 N 
ATOM     11  H7  UNL     1     203.131  72.795-126.161  1.00  0.00     0.167 HD
ENDROOT
BRANCH   1  12
HETATM   12  C3  UNL     1     201.851  74.200-127.868  1.00  0.00     0.112 C 
HETATM   13  N3  UNL     1     202.020  73.344-128.727  1.00  0.00    -0.396 N 
ATOM     14  H3  UNL     1     201.139  73.231-129.228  1.00  0.00     0.159 HD
BRANCH  13  15
HETATM   15  C2  UNL     1     202.925  72.479-129.279  1.00  0.00     0.137 C 
BRANCH  15  16
HETATM   16  C1  UNL     1     202.632  71.051-128.746  1.00  0.00     0.153 C 
BRANCH  16  17
HETATM   17  N2  UNL     1     203.110  71.031-127.379  1.00  0.00    -0.147 NA
BRANCH  17  18
HETATM   18  N1  UNL     1     202.744  69.799-126.817  1.00  0.00    -0.348 N 
ATOM     19  H12 UNL     1     202.382  69.665-125.873  1.00  0.00     0.172 HD
ATOM     20  H11 UNL     1     202.907  69.077-127.519  1.00  0.00     0.172 HD
ENDBRANCH  17  18
ENDBRANCH  16  17
ENDBRANCH  15  16
ENDBRANCH  13  15
ENDBRANCH   1  12
BRANCH   8  21
HETATM   21  C17 UNL     1     204.831  72.057-124.048  1.00  0.00     0.189 C 
BRANCH  21  22
HETATM   22  C18 UNL     1     205.670  71.209-124.910  1.00  0.00     0.027 A 
HETATM   23  C19 UNL     1     206.533  71.727-125.875  1.00  0.00     0.027 A 
HETATM   24  C20 UNL     1     207.305  70.936-126.702  1.00  0.00     0.003 A 
HETATM   25  C21 UNL     1     207.229  69.577-126.578  1.00  0.00     0.017 A 
HETATM   26  C22 UNL     1     206.380  69.057-125.629  1.00  0.00     0.088 A 
HETATM   27  N6  UNL     1     205.651  69.863-124.850  1.00  0.00    -0.368 N 
ATOM     28  H6  UNL     1     205.038  69.428-124.161  1.00  0.00     0.165 HD
ENDBRANCH  21  22
ENDBRANCH   8  21
BRANCH   7  29
HETATM   29  C9  UNL     1     206.614  74.051-122.405  1.00  0.00     0.081 C 
BRANCH  29  30
HETATM   30  C10 UNL     1     208.080  74.176-122.690  1.00  0.00     0.046 C 
BRANCH  30  31
HETATM   31  C11 UNL     1     208.559  72.802-122.997  1.00  0.00    -0.058 A 
HETATM   32  C12 UNL     1     209.576  72.550-123.881  1.00  0.00     0.007 A 
HETATM   33  C13 UNL     1     210.025  71.274-124.169  1.00  0.00     0.001 A 
HETATM   34  C14 UNL     1     209.391  70.229-123.512  1.00  0.00     0.000 A 
HETATM   35  C15 UNL     1     208.366  70.425-122.616  1.00  0.00     0.001 A 
HETATM   36  C16 UNL     1     207.963  71.728-122.372  1.00  0.00     0.007 A 
ENDBRANCH  30  31
ENDBRANCH  29  30
ENDBRANCH   7  29
TORSDOF 10
ENDMDL
