MODEL 1
REMARK VINA RESULT: -7.104522398      0.000      0.000
REMARK  3 active torsions:
REMARK  status: ('A' for Active; 'I' for Inactive)
REMARK    1  A    between atoms: C7_8  and  O1_9 
REMARK    2  A    between atoms: O1_9  and  C8_10 
REMARK    3  A    between atoms: C8_10  and  C9_12 
ROOT
HETATM    1  C1  UNL     1      -1.861 -24.243  53.662  1.00  0.00     0.272 C 
HETATM    2  N1  UNL     1      -1.572 -24.900  52.418  1.00  0.00    -0.068 N 
HETATM    3  C2  UNL     1      -2.805 -25.235  51.738  1.00  0.00     0.237 C 
HETATM    4  C3  UNL     1      -2.558 -25.656  50.303  1.00  0.00     0.035 C 
HETATM    5  C4  UNL     1      -1.069 -25.988  50.220  1.00  0.00     0.020 C 
HETATM    6  C5  UNL     1      -0.391 -24.643  50.313  1.00  0.00     0.035 C 
HETATM    7  C6  UNL     1      -0.763 -23.984  51.601  1.00  0.00     0.237 C 
HETATM    8  C7  UNL     1      -0.760 -26.878  51.397  1.00  0.00     0.162 C 
HETATM    9  C14 UNL     1      -0.733 -26.068  52.634  1.00  0.00     0.269 C 
ENDROOT
BRANCH   8  10
HETATM   10  O1  UNL     1       0.290 -27.758  51.193  1.00  0.00    -0.314 OA
BRANCH  10  11
HETATM   11  C8  UNL     1       0.912 -28.055  50.013  1.00  0.00     0.263 C 
HETATM   12  O2  UNL     1       0.357 -28.962  49.347  1.00  0.00    -0.265 OA
BRANCH  11  13
HETATM   13  C9  UNL     1       2.119 -27.364  49.587  1.00  0.00     0.085 C 
HETATM   14  C10 UNL     1       3.194 -28.278  49.043  1.00  0.00     0.014 C 
HETATM   15  C11 UNL     1       4.486 -27.521  49.269  1.00  0.00     0.001 C 
HETATM   16  C12 UNL     1       4.114 -26.254  50.013  1.00  0.00     0.001 C 
HETATM   17  C13 UNL     1       2.869 -26.703  50.750  1.00  0.00     0.014 C 
ENDBRANCH  11  13
ENDBRANCH  10  11
ENDBRANCH   8  10
TORSDOF 3
ENDMDL
MODEL 2
REMARK VINA RESULT: -6.386472895      0.939      1.527
REMARK  3 active torsions:
REMARK  status: ('A' for Active; 'I' for Inactive)
REMARK    1  A    between atoms: C7_8  and  O1_9 
REMARK    2  A    between atoms: O1_9  and  C8_10 
REMARK    3  A    between atoms: C8_10  and  C9_12 
ROOT
HETATM    1  C1  UNL     1      -2.072 -24.302  53.457  1.00  0.00     0.272 C 
HETATM    2  N1  UNL     1      -1.591 -24.934  52.261  1.00  0.00    -0.068 N 
HETATM    3  C2  UNL     1      -2.701 -25.482  51.511  1.00  0.00     0.237 C 
HETATM    4  C3  UNL     1      -2.286 -25.893  50.112  1.00  0.00     0.035 C 
HETATM    5  C4  UNL     1      -0.761 -25.980  50.143  1.00  0.00     0.020 C 
HETATM    6  C5  UNL     1      -0.316 -24.541  50.233  1.00  0.00     0.035 C 
HETATM    7  C6  UNL     1      -0.882 -23.920  51.468  1.00  0.00     0.237 C 
HETATM    8  C7  UNL     1      -0.399 -26.779  51.370  1.00  0.00     0.162 C 
HETATM    9  C14 UNL     1      -0.593 -25.944  52.575  1.00  0.00     0.269 C 
ENDROOT
BRANCH   8  10
HETATM   10  O1  UNL     1       0.790 -27.480  51.270  1.00  0.00    -0.314 OA
BRANCH  10  11
HETATM   11  C8  UNL     1       2.017 -26.996  50.915  1.00  0.00     0.263 C 
HETATM   12  O2  UNL     1       2.561 -26.271  51.783  1.00  0.00    -0.265 OA
BRANCH  11  13
HETATM   13  C9  UNL     1       2.623 -27.307  49.629  1.00  0.00     0.085 C 
HETATM   14  C10 UNL     1       2.027 -28.516  48.943  1.00  0.00     0.014 C 
HETATM   15  C11 UNL     1       3.135 -29.024  48.042  1.00  0.00     0.001 C 
HETATM   16  C12 UNL     1       4.342 -28.150  48.315  1.00  0.00     0.001 C 
HETATM   17  C13 UNL     1       4.089 -27.741  49.751  1.00  0.00     0.014 C 
ENDBRANCH  11  13
ENDBRANCH  10  11
ENDBRANCH   8  10
TORSDOF 3
ENDMDL
MODEL 3
REMARK VINA RESULT: -6.205463513      1.030      1.541
REMARK  3 active torsions:
REMARK  status: ('A' for Active; 'I' for Inactive)
REMARK    1  A    between atoms: C7_8  and  O1_9 
REMARK    2  A    between atoms: O1_9  and  C8_10 
REMARK    3  A    between atoms: C8_10  and  C9_12 
ROOT
HETATM    1  C1  UNL     1      -1.334 -24.690  54.709  1.00  0.00     0.272 C 
HETATM    2  N1  UNL     1      -1.655 -24.799  53.314  1.00  0.00    -0.068 N 
HETATM    3  C2  UNL     1      -3.029 -25.226  53.154  1.00  0.00     0.237 C 
HETATM    4  C3  UNL     1      -3.503 -25.072  51.723  1.00  0.00     0.035 C 
HETATM    5  C4  UNL     1      -2.235 -24.929  50.882  1.00  0.00     0.020 C 
HETATM    6  C5  UNL     1      -1.720 -23.554  51.231  1.00  0.00     0.035 C 
HETATM    7  C6  UNL     1      -1.449 -23.481  52.699  1.00  0.00     0.237 C 
HETATM    8  C7  UNL     1      -1.302 -26.029  51.319  1.00  0.00     0.162 C 
HETATM    9  C14 UNL     1      -0.725 -25.690  52.639  1.00  0.00     0.269 C 
ENDROOT
BRANCH   8  10
HETATM   10  O1  UNL     1      -0.426 -26.465  50.339  1.00  0.00    -0.314 OA
BRANCH  10  11
HETATM   11  C8  UNL     1       0.318 -27.610  50.335  1.00  0.00     0.263 C 
HETATM   12  O2  UNL     1      -0.354 -28.667  50.262  1.00  0.00    -0.265 OA
BRANCH  11  13
HETATM   13  C9  UNL     1       1.771 -27.582  50.411  1.00  0.00     0.085 C 
HETATM   14  C10 UNL     1       2.354 -26.194  50.562  1.00  0.00     0.014 C 
HETATM   15  C11 UNL     1       3.754 -26.308  49.993  1.00  0.00     0.001 C 
HETATM   16  C12 UNL     1       3.884 -27.719  49.458  1.00  0.00     0.001 C 
HETATM   17  C13 UNL     1       2.444 -28.034  49.109  1.00  0.00     0.014 C 
ENDBRANCH  11  13
ENDBRANCH  10  11
ENDBRANCH   8  10
TORSDOF 3
ENDMDL
MODEL 4
REMARK VINA RESULT: -6.091310351      0.390      1.021
REMARK  3 active torsions:
REMARK  status: ('A' for Active; 'I' for Inactive)
REMARK    1  A    between atoms: C7_8  and  O1_9 
REMARK    2  A    between atoms: O1_9  and  C8_10 
REMARK    3  A    between atoms: C8_10  and  C9_12 
ROOT
HETATM    1  C1  UNL     1      -1.879 -24.135  53.503  1.00  0.00     0.272 C 
HETATM    2  N1  UNL     1      -1.571 -24.880  52.314  1.00  0.00    -0.068 N 
HETATM    3  C2  UNL     1      -2.792 -25.311  51.670  1.00  0.00     0.237 C 
HETATM    4  C3  UNL     1      -2.535 -25.838  50.272  1.00  0.00     0.035 C 
HETATM    5  C4  UNL     1      -1.036 -26.123  50.207  1.00  0.00     0.020 C 
HETATM    6  C5  UNL     1      -0.405 -24.752  50.189  1.00  0.00     0.035 C 
HETATM    7  C6  UNL     1      -0.797 -24.005  51.422  1.00  0.00     0.237 C 
HETATM    8  C7  UNL     1      -0.692 -26.905  51.450  1.00  0.00     0.162 C 
HETATM    9  C14 UNL     1      -0.690 -25.996  52.618  1.00  0.00     0.269 C 
ENDROOT
BRANCH   8  10
HETATM   10  O1  UNL     1       0.387 -27.760  51.312  1.00  0.00    -0.314 OA
BRANCH  10  11
HETATM   11  C8  UNL     1       1.205 -27.903  50.227  1.00  0.00     0.263 C 
HETATM   12  O2  UNL     1       0.628 -28.312  49.191  1.00  0.00    -0.265 OA
BRANCH  11  13
HETATM   13  C9  UNL     1       2.626 -27.600  50.292  1.00  0.00     0.085 C 
HETATM   14  C10 UNL     1       2.942 -26.121  50.311  1.00  0.00     0.014 C 
HETATM   15  C11 UNL     1       4.346 -26.026  49.748  1.00  0.00     0.001 C 
HETATM   16  C12 UNL     1       4.740 -27.432  49.344  1.00  0.00     0.001 C 
HETATM   17  C13 UNL     1       3.387 -28.038  49.034  1.00  0.00     0.014 C 
ENDBRANCH  11  13
ENDBRANCH  10  11
ENDBRANCH   8  10
TORSDOF 3
ENDMDL
MODEL 5
REMARK VINA RESULT: -6.058444561      1.646      2.786
REMARK  3 active torsions:
REMARK  status: ('A' for Active; 'I' for Inactive)
REMARK    1  A    between atoms: C7_8  and  O1_9 
REMARK    2  A    between atoms: O1_9  and  C8_10 
REMARK    3  A    between atoms: C8_10  and  C9_12 
ROOT
HETATM    1  C1  UNL     1      -2.249 -24.744  51.196  1.00  0.00     0.272 C 
HETATM    2  N1  UNL     1      -1.199 -25.722  51.245  1.00  0.00    -0.068 N 
HETATM    3  C2  UNL     1      -0.961 -26.123  52.615  1.00  0.00     0.237 C 
HETATM    4  C3  UNL     1      -0.080 -27.355  52.695  1.00  0.00     0.035 C 
HETATM    5  C4  UNL     1       0.588 -27.474  51.327  1.00  0.00     0.020 C 
HETATM    6  C5  UNL     1      -0.532 -27.902  50.411  1.00  0.00     0.035 C 
HETATM    7  C6  UNL     1      -1.616 -26.874  50.434  1.00  0.00     0.237 C 
HETATM    8  C7  UNL     1       1.126 -26.107  50.990  1.00  0.00     0.162 C 
HETATM    9  C14 UNL     1       0.007 -25.218  50.607  1.00  0.00     0.269 C 
ENDROOT
BRANCH   8  10
HETATM   10  O1  UNL     1       2.239 -26.113  50.167  1.00  0.00    -0.314 OA
BRANCH  10  11
HETATM   11  C8  UNL     1       3.451 -26.697  50.406  1.00  0.00     0.263 C 
HETATM   12  O2  UNL     1       3.706 -26.886  51.621  1.00  0.00    -0.265 OA
BRANCH  11  13
HETATM   13  C9  UNL     1       4.355 -27.060  49.326  1.00  0.00     0.085 C 
HETATM   14  C10 UNL     1       3.845 -28.177  48.443  1.00  0.00     0.014 C 
HETATM   15  C11 UNL     1       5.096 -28.802  47.862  1.00  0.00     0.001 C 
HETATM   16  C12 UNL     1       6.268 -28.087  48.502  1.00  0.00     0.001 C 
HETATM   17  C13 UNL     1       5.668 -27.672  49.830  1.00  0.00     0.014 C 
ENDBRANCH  11  13
ENDBRANCH  10  11
ENDBRANCH   8  10
TORSDOF 3
ENDMDL
