MODEL 1
REMARK VINA RESULT: -6.718143948      0.000      0.000
REMARK  2 active torsions:
REMARK  status: ('A' for Active; 'I' for Inactive)
REMARK    1  A    between atoms: N1_2  and  C3_4 
REMARK    2  A    between atoms: N2_8  and  C7_9 
ROOT
HETATM    1  C3  UNL     1       2.640 -26.992  50.031  1.00  0.00     0.223 C 
HETATM    2  C4  UNL     1       1.828 -27.899  49.149  1.00  0.00     0.037 C 
HETATM    3  C5  UNL     1       0.871 -28.769  49.919  1.00  0.00     0.032 C 
HETATM    4  C6  UNL     1      -0.293 -28.036  50.472  1.00  0.00     0.273 C 
HETATM    5  N2  UNL     1       0.001 -26.698  50.946  1.00  0.00     0.093 N 
HETATM    6  C14 UNL     1       1.034 -26.646  51.930  1.00  0.00     0.275 C 
HETATM    7  C15 UNL     1       2.362 -27.133  51.487  1.00  0.00     0.066 C 
ENDROOT
BRANCH   5   8
HETATM    8  C7  UNL     1      -1.240 -26.164  51.418  1.00  0.00     0.227 C 
HETATM    9  C8  UNL     1      -2.120 -25.558  50.370  1.00  0.00     0.041 C 
HETATM   10  C9  UNL     1      -2.755 -24.402  51.144  1.00  0.00    -0.012 C 
HETATM   11  C10 UNL     1      -3.462 -24.927  52.364  1.00  0.00     0.005 C 
HETATM   12  C13 UNL     1      -1.484 -23.838  51.803  1.00  0.00     0.011 C 
HETATM   13  C11 UNL     1      -2.376 -25.282  53.383  1.00  0.00     0.007 C 
HETATM   14  C12 UNL     1      -1.117 -25.151  52.514  1.00  0.00     0.019 C 
ENDBRANCH   5   8
BRANCH   1  15
HETATM   15  N1  UNL     1       4.025 -27.225  49.724  1.00  0.00     0.084 N 
HETATM   16  C1  UNL     1       4.787 -26.018  49.552  1.00  0.00     0.309 C 
HETATM   17  C2  UNL     1       4.242 -28.197  48.687  1.00  0.00     0.309 C 
ENDBRANCH   1  15
TORSDOF 2
ENDMDL
MODEL 2
REMARK VINA RESULT: -6.448356487      1.047      1.816
REMARK  2 active torsions:
REMARK  status: ('A' for Active; 'I' for Inactive)
REMARK    1  A    between atoms: N1_2  and  C3_4 
REMARK    2  A    between atoms: N2_8  and  C7_9 
ROOT
HETATM    1  C3  UNL     1       2.289 -27.480  49.299  1.00  0.00     0.223 C 
HETATM    2  C4  UNL     1       1.038 -28.292  49.117  1.00  0.00     0.037 C 
HETATM    3  C5  UNL     1       0.444 -28.761  50.418  1.00  0.00     0.032 C 
HETATM    4  C6  UNL     1      -0.203 -27.684  51.205  1.00  0.00     0.273 C 
HETATM    5  N2  UNL     1       0.467 -26.400  51.142  1.00  0.00     0.093 N 
HETATM    6  C14 UNL     1       1.838 -26.442  51.540  1.00  0.00     0.275 C 
HETATM    7  C15 UNL     1       2.715 -27.307  50.715  1.00  0.00     0.066 C 
ENDROOT
BRANCH   5   8
HETATM    8  C7  UNL     1      -0.314 -25.508  51.943  1.00  0.00     0.227 C 
HETATM    9  C8  UNL     1      -1.102 -26.151  53.042  1.00  0.00     0.041 C 
HETATM   10  C9  UNL     1      -2.359 -25.280  53.056  1.00  0.00    -0.012 C 
HETATM   11  C10 UNL     1      -1.986 -23.840  53.281  1.00  0.00     0.005 C 
HETATM   12  C13 UNL     1      -2.635 -25.244  51.543  1.00  0.00     0.011 C 
HETATM   13  C11 UNL     1      -1.399 -23.328  51.962  1.00  0.00     0.007 C 
HETATM   14  C12 UNL     1      -1.267 -24.642  51.180  1.00  0.00     0.019 C 
ENDBRANCH   5   8
BRANCH   1  15
HETATM   15  N1  UNL     1       3.317 -28.093  48.501  1.00  0.00     0.084 N 
HETATM   16  C1  UNL     1       2.952 -29.383  47.984  1.00  0.00     0.309 C 
HETATM   17  C2  UNL     1       4.624 -28.059  49.100  1.00  0.00     0.309 C 
ENDBRANCH   1  15
TORSDOF 2
ENDMDL
MODEL 3
REMARK VINA RESULT: -5.858405911      0.925      1.199
REMARK  2 active torsions:
REMARK  status: ('A' for Active; 'I' for Inactive)
REMARK    1  A    between atoms: N1_2  and  C3_4 
REMARK    2  A    between atoms: N2_8  and  C7_9 
ROOT
HETATM    1  C3  UNL     1       2.526 -27.643  49.297  1.00  0.00     0.223 C 
HETATM    2  C4  UNL     1       1.463 -28.625  48.893  1.00  0.00     0.037 C 
HETATM    3  C5  UNL     1       0.519 -28.968  50.014  1.00  0.00     0.032 C 
HETATM    4  C6  UNL     1      -0.424 -27.878  50.358  1.00  0.00     0.273 C 
HETATM    5  N2  UNL     1       0.133 -26.543  50.272  1.00  0.00     0.093 N 
HETATM    6  C14 UNL     1       1.303 -26.351  51.069  1.00  0.00     0.275 C 
HETATM    7  C15 UNL     1       2.460 -27.209  50.720  1.00  0.00     0.066 C 
ENDROOT
BRANCH   5   8
HETATM    8  C7  UNL     1      -0.928 -25.648  50.623  1.00  0.00     0.227 C 
HETATM    9  C8  UNL     1      -0.597 -24.191  50.532  1.00  0.00     0.041 C 
HETATM   10  C9  UNL     1      -1.404 -23.628  51.702  1.00  0.00    -0.012 C 
HETATM   11  C10 UNL     1      -2.859 -23.976  51.540  1.00  0.00     0.005 C 
HETATM   12  C13 UNL     1      -1.009 -24.657  52.775  1.00  0.00     0.011 C 
HETATM   13  C11 UNL     1      -2.997 -25.460  51.893  1.00  0.00     0.007 C 
HETATM   14  C12 UNL     1      -1.520 -25.870  51.980  1.00  0.00     0.019 C 
ENDBRANCH   5   8
BRANCH   1  15
HETATM   15  N1  UNL     1       3.798 -28.231  48.974  1.00  0.00     0.084 N 
HETATM   16  C1  UNL     1       4.920 -27.412  49.339  1.00  0.00     0.309 C 
HETATM   17  C2  UNL     1       3.878 -28.759  47.639  1.00  0.00     0.309 C 
ENDBRANCH   1  15
TORSDOF 2
ENDMDL
MODEL 4
REMARK VINA RESULT: -5.686578528      1.582      3.068
REMARK  2 active torsions:
REMARK  status: ('A' for Active; 'I' for Inactive)
REMARK    1  A    between atoms: N1_2  and  C3_4 
REMARK    2  A    between atoms: N2_8  and  C7_9 
ROOT
HETATM    1  C3  UNL     1       4.838 -27.502  48.586  1.00  0.00     0.223 C 
HETATM    2  C4  UNL     1       3.915 -28.299  47.706  1.00  0.00     0.037 C 
HETATM    3  C5  UNL     1       2.955 -29.159  48.484  1.00  0.00     0.032 C 
HETATM    4  C6  UNL     1       1.878 -28.395  49.160  1.00  0.00     0.273 C 
HETATM    5  N2  UNL     1       2.287 -27.112  49.694  1.00  0.00     0.093 N 
HETATM    6  C14 UNL     1       3.383 -27.187  50.607  1.00  0.00     0.275 C 
HETATM    7  C15 UNL     1       4.646 -27.722  50.046  1.00  0.00     0.066 C 
ENDROOT
BRANCH   5   8
HETATM    8  C7  UNL     1       1.116 -26.537  50.281  1.00  0.00     0.227 C 
HETATM    9  C8  UNL     1       1.238 -26.162  51.726  1.00  0.00     0.041 C 
HETATM   10  C9  UNL     1      -0.171 -26.473  52.235  1.00  0.00    -0.012 C 
HETATM   11  C10 UNL     1      -1.187 -25.695  51.445  1.00  0.00     0.005 C 
HETATM   12  C13 UNL     1      -0.349 -27.860  51.594  1.00  0.00     0.011 C 
HETATM   13  C11 UNL     1      -1.307 -26.385  50.083  1.00  0.00     0.007 C 
HETATM   14  C12 UNL     1      -0.126 -27.364  50.156  1.00  0.00     0.019 C 
ENDBRANCH   5   8
BRANCH   1  15
HETATM   15  N1  UNL     1       6.183 -27.796  48.172  1.00  0.00     0.084 N 
HETATM   16  C1  UNL     1       6.284 -28.227  46.805  1.00  0.00     0.309 C 
HETATM   17  C2  UNL     1       6.914 -28.624  49.094  1.00  0.00     0.309 C 
ENDBRANCH   1  15
TORSDOF 2
ENDMDL
MODEL 5
REMARK VINA RESULT: -5.417801055      1.441      5.987
REMARK  2 active torsions:
REMARK  status: ('A' for Active; 'I' for Inactive)
REMARK    1  A    between atoms: N1_2  and  C3_4 
REMARK    2  A    between atoms: N2_8  and  C7_9 
ROOT
HETATM    1  C3  UNL     1      -0.821 -25.672  52.284  1.00  0.00     0.223 C 
HETATM    2  C4  UNL     1      -0.532 -27.079  52.729  1.00  0.00     0.037 C 
HETATM    3  C5  UNL     1      -0.397 -28.044  51.581  1.00  0.00     0.032 C 
HETATM    4  C6  UNL     1       0.856 -27.883  50.806  1.00  0.00     0.273 C 
HETATM    5  N2  UNL     1       1.301 -26.513  50.648  1.00  0.00     0.093 N 
HETATM    6  C14 UNL     1       0.328 -25.654  50.052  1.00  0.00     0.275 C 
HETATM    7  C15 UNL     1      -0.936 -25.499  50.810  1.00  0.00     0.066 C 
ENDROOT
BRANCH   5   8
HETATM    8  C7  UNL     1       2.517 -26.577  49.896  1.00  0.00     0.227 C 
HETATM    9  C8  UNL     1       2.833 -27.911  49.294  1.00  0.00     0.041 C 
HETATM   10  C9  UNL     1       4.357 -27.937  49.408  1.00  0.00    -0.012 C 
HETATM   11  C10 UNL     1       4.947 -26.748  48.700  1.00  0.00     0.005 C 
HETATM   12  C13 UNL     1       4.490 -27.463  50.866  1.00  0.00     0.011 C 
HETATM   13  C11 UNL     1       4.697 -25.533  49.598  1.00  0.00     0.007 C 
HETATM   14  C12 UNL     1       3.742 -26.139  50.636  1.00  0.00     0.019 C 
ENDBRANCH   5   8
BRANCH   1  15
HETATM   15  N1  UNL     1      -2.010 -25.242  52.969  1.00  0.00     0.084 N 
HETATM   16  C1  UNL     1      -3.116 -24.978  52.092  1.00  0.00     0.309 C 
HETATM   17  C2  UNL     1      -1.785 -24.208  53.942  1.00  0.00     0.309 C 
ENDBRANCH   1  15
TORSDOF 2
ENDMDL
