MODEL 1
REMARK VINA RESULT: -4.992784143      0.000      0.000
REMARK  2 active torsions:
REMARK  status: ('A' for Active; 'I' for Inactive)
REMARK    1  A    between atoms: N1_2  and  N2_3 
REMARK       I    between atoms: N2_3  and  C2_5 
REMARK    2  A    between atoms: C2_5  and  C3_7 
ROOT
HETATM    1  C3  UNL     1      -1.013 -27.250  50.787  1.00  0.00     0.090 C 
HETATM    2  C4  UNL     1      -1.713 -26.389  49.734  1.00  0.00     0.022 C 
HETATM    3  C5  UNL     1      -1.762 -24.992  50.240  1.00  0.00     0.016 C 
HETATM    4  C6  UNL     1      -0.307 -24.613  50.567  1.00  0.00     0.015 C 
HETATM    5  C7  UNL     1      -0.112 -25.169  51.979  1.00  0.00     0.024 C 
HETATM    6  C8  UNL     1      -0.911 -24.294  52.952  1.00  0.00     0.127 C 
HETATM    7  C9  UNL     1      -1.841 -25.242  53.716  1.00  0.00     0.040 C 
HETATM    8  C10 UNL     1      -2.160 -26.049  52.506  1.00  0.00     0.027 C 
HETATM    9  C11 UNL     1      -2.502 -24.878  51.567  1.00  0.00     0.131 C 
HETATM   10  O2  UNL     1      -1.942 -23.725  52.164  1.00  0.00    -0.379 OA
HETATM   11  C12 UNL     1      -0.790 -26.504  52.049  1.00  0.00    -0.020 C 
HETATM   12  C13 UNL     1      -0.023 -27.327  53.028  1.00  0.00     0.017 C 
ENDROOT
BRANCH   1  13
HETATM   13  C2  UNL     1       0.103 -27.983  50.206  1.00  0.00     0.251 C 
HETATM   14  N2  UNL     1       1.221 -27.413  49.560  1.00  0.00    -0.204 N 
ATOM     15  H2  UNL     1       1.159 -27.157  48.575  1.00  0.00     0.205 HD
HETATM   16  O1  UNL     1       0.097 -29.257  50.272  1.00  0.00    -0.271 OA
BRANCH  14  17
HETATM   17  N1  UNL     1       2.283 -27.220  50.184  1.00  0.00    -0.347 NA
HETATM   18  C1  UNL     1       3.130 -26.810  51.008  1.00  0.00     0.258 C 
ENDBRANCH  14  17
ENDBRANCH   1  13
TORSDOF 2
ENDMDL
MODEL 2
REMARK VINA RESULT: -4.944573668      2.361      3.264
REMARK  2 active torsions:
REMARK  status: ('A' for Active; 'I' for Inactive)
REMARK    1  A    between atoms: N1_2  and  N2_3 
REMARK       I    between atoms: N2_3  and  C2_5 
REMARK    2  A    between atoms: C2_5  and  C3_7 
ROOT
HETATM    1  C3  UNL     1       2.390 -27.514  50.357  1.00  0.00     0.090 C 
HETATM    2  C4  UNL     1       1.462 -27.771  49.168  1.00  0.00     0.022 C 
HETATM    3  C5  UNL     1       0.151 -27.134  49.460  1.00  0.00     0.016 C 
HETATM    4  C6  UNL     1       0.462 -25.659  49.770  1.00  0.00     0.015 C 
HETATM    5  C7  UNL     1       0.834 -25.687  51.254  1.00  0.00     0.024 C 
HETATM    6  C8  UNL     1      -0.444 -25.936  52.063  1.00  0.00     0.127 C 
HETATM    7  C9  UNL     1      -0.169 -27.168  52.931  1.00  0.00     0.040 C 
HETATM    8  C10 UNL     1       0.556 -27.883  51.844  1.00  0.00     0.027 C 
HETATM    9  C11 UNL     1      -0.489 -27.674  50.733  1.00  0.00     0.131 C 
HETATM   10  O2  UNL     1      -1.312 -26.611  51.170  1.00  0.00    -0.379 OA
HETATM   11  C12 UNL     1       1.665 -26.910  51.500  1.00  0.00    -0.020 C 
HETATM   12  C13 UNL     1       2.602 -26.579  52.613  1.00  0.00     0.017 C 
ENDROOT
BRANCH   1  13
HETATM   13  C2  UNL     1       3.638 -26.901  49.923  1.00  0.00     0.251 C 
HETATM   14  N2  UNL     1       4.870 -27.567  49.753  1.00  0.00    -0.204 N 
ATOM     15  H2  UNL     1       5.478 -27.720  50.557  1.00  0.00     0.205 HD
HETATM   16  O1  UNL     1       3.649 -25.652  49.666  1.00  0.00    -0.271 OA
BRANCH  14  17
HETATM   17  N1  UNL     1       5.222 -27.971  48.626  1.00  0.00    -0.347 NA
HETATM   18  C1  UNL     1       5.819 -28.108  47.536  1.00  0.00     0.258 C 
ENDBRANCH  14  17
ENDBRANCH   1  13
TORSDOF 2
ENDMDL
MODEL 3
REMARK VINA RESULT: -4.230846794      1.465      2.666
REMARK  2 active torsions:
REMARK  status: ('A' for Active; 'I' for Inactive)
REMARK    1  A    between atoms: N1_2  and  N2_3 
REMARK       I    between atoms: N2_3  and  C2_5 
REMARK    2  A    between atoms: C2_5  and  C3_7 
ROOT
HETATM    1  C3  UNL     1       1.221 -26.215  51.130  1.00  0.00     0.090 C 
HETATM    2  C4  UNL     1       1.068 -27.132  52.345  1.00  0.00     0.022 C 
HETATM    3  C5  UNL     1      -0.370 -27.160  52.722  1.00  0.00     0.016 C 
HETATM    4  C6  UNL     1      -1.129 -27.584  51.453  1.00  0.00     0.015 C 
HETATM    5  C7  UNL     1      -1.302 -26.265  50.695  1.00  0.00     0.024 C 
HETATM    6  C8  UNL     1      -2.343 -25.420  51.439  1.00  0.00     0.127 C 
HETATM    7  C9  UNL     1      -1.669 -24.078  51.739  1.00  0.00     0.040 C 
HETATM    8  C10 UNL     1      -0.366 -24.708  52.090  1.00  0.00     0.027 C 
HETATM    9  C11 UNL     1      -0.911 -25.775  53.057  1.00  0.00     0.131 C 
HETATM   10  O2  UNL     1      -2.294 -25.881  52.778  1.00  0.00    -0.379 OA
HETATM   11  C12 UNL     1      -0.032 -25.482  50.832  1.00  0.00    -0.020 C 
HETATM   12  C13 UNL     1       0.108 -24.667  49.591  1.00  0.00     0.017 C 
ENDROOT
BRANCH   1  13
HETATM   13  C2  UNL     1       1.904 -26.900  50.041  1.00  0.00     0.251 C 
HETATM   14  N2  UNL     1       3.146 -26.532  49.482  1.00  0.00    -0.204 N 
ATOM     15  H2  UNL     1       3.183 -25.811  48.762  1.00  0.00     0.205 HD
HETATM   16  O1  UNL     1       1.353 -27.928  49.525  1.00  0.00    -0.271 OA
BRANCH  14  17
HETATM   17  N1  UNL     1       4.199 -27.082  49.863  1.00  0.00    -0.347 NA
HETATM   18  C1  UNL     1       5.317 -27.641  49.884  1.00  0.00     0.258 C 
ENDBRANCH  14  17
ENDBRANCH   1  13
TORSDOF 2
ENDMDL
MODEL 4
REMARK VINA RESULT: -4.108495725      1.737      3.031
REMARK  2 active torsions:
REMARK  status: ('A' for Active; 'I' for Inactive)
REMARK    1  A    between atoms: N1_2  and  N2_3 
REMARK       I    between atoms: N2_3  and  C2_5 
REMARK    2  A    between atoms: C2_5  and  C3_7 
ROOT
HETATM    1  C3  UNL     1       1.467 -26.052  51.285  1.00  0.00     0.090 C 
HETATM    2  C4  UNL     1       1.283 -26.975  52.491  1.00  0.00     0.022 C 
HETATM    3  C5  UNL     1      -0.174 -27.199  52.682  1.00  0.00     0.016 C 
HETATM    4  C6  UNL     1      -0.696 -27.730  51.336  1.00  0.00     0.015 C 
HETATM    5  C7  UNL     1      -0.948 -26.452  50.531  1.00  0.00     0.024 C 
HETATM    6  C8  UNL     1      -2.182 -25.755  51.115  1.00  0.00     0.127 C 
HETATM    7  C9  UNL     1      -1.742 -24.331  51.468  1.00  0.00     0.040 C 
HETATM    8  C10 UNL     1      -0.422 -24.774  51.998  1.00  0.00     0.027 C 
HETATM    9  C11 UNL     1      -0.938 -25.900  52.911  1.00  0.00     0.131 C 
HETATM   10  O2  UNL     1      -2.245 -26.197  52.460  1.00  0.00    -0.379 OA
HETATM   11  C12 UNL     1       0.175 -25.501  50.811  1.00  0.00    -0.020 C 
HETATM   12  C13 UNL     1       0.364 -24.681  49.580  1.00  0.00     0.017 C 
ENDROOT
BRANCH   1  13
HETATM   13  C2  UNL     1       2.372 -26.642  50.309  1.00  0.00     0.251 C 
HETATM   14  N2  UNL     1       2.393 -27.996  49.912  1.00  0.00    -0.204 N 
ATOM     15  H2  UNL     1       2.901 -28.680  50.472  1.00  0.00     0.205 HD
HETATM   16  O1  UNL     1       3.235 -25.892  49.744  1.00  0.00    -0.271 OA
BRANCH  14  17
HETATM   17  N1  UNL     1       1.794 -28.364  48.882  1.00  0.00    -0.347 NA
HETATM   18  C1  UNL     1       1.221 -29.057  48.013  1.00  0.00     0.258 C 
ENDBRANCH  14  17
ENDBRANCH   1  13
TORSDOF 2
ENDMDL
MODEL 5
REMARK VINA RESULT: -3.958829220      9.186     12.321
REMARK  2 active torsions:
REMARK  status: ('A' for Active; 'I' for Inactive)
REMARK    1  A    between atoms: N1_2  and  N2_3 
REMARK       I    between atoms: N2_3  and  C2_5 
REMARK    2  A    between atoms: C2_5  and  C3_7 
ROOT
HETATM    1  C3  UNL     1       8.799 -27.181  45.245  1.00  0.00     0.090 C 
HETATM    2  C4  UNL     1       9.461 -26.023  44.495  1.00  0.00     0.022 C 
HETATM    3  C5  UNL     1       9.747 -26.476  43.109  1.00  0.00     0.016 C 
HETATM    4  C6  UNL     1       8.404 -26.970  42.543  1.00  0.00     0.015 C 
HETATM    5  C7  UNL     1       8.323 -28.412  43.050  1.00  0.00     0.024 C 
HETATM    6  C8  UNL     1       9.342 -29.251  42.269  1.00  0.00     0.127 C 
HETATM    7  C9  UNL     1      10.236 -29.922  43.317  1.00  0.00     0.040 C 
HETATM    8  C10 UNL     1      10.296 -28.706  44.175  1.00  0.00     0.027 C 
HETATM    9  C11 UNL     1      10.659 -27.696  43.070  1.00  0.00     0.131 C 
HETATM   10  O2  UNL     1      10.327 -28.323  41.848  1.00  0.00    -0.379 OA
HETATM   11  C12 UNL     1       8.833 -28.437  44.458  1.00  0.00    -0.020 C 
HETATM   12  C13 UNL     1       8.101 -29.529  45.163  1.00  0.00     0.017 C 
ENDROOT
BRANCH   1  13
HETATM   13  C2  UNL     1       7.536 -26.765  45.839  1.00  0.00     0.251 C 
HETATM   14  N2  UNL     1       6.539 -27.624  46.348  1.00  0.00    -0.204 N 
ATOM     15  H2  UNL     1       5.855 -28.037  45.714  1.00  0.00     0.205 HD
HETATM   16  O1  UNL     1       7.280 -25.518  45.919  1.00  0.00    -0.271 OA
BRANCH  14  17
HETATM   17  N1  UNL     1       6.489 -27.883  47.567  1.00  0.00    -0.347 NA
HETATM   18  C1  UNL     1       6.099 -28.014  48.748  1.00  0.00     0.258 C 
ENDBRANCH  14  17
ENDBRANCH   1  13
TORSDOF 2
ENDMDL
