MODEL 1
REMARK VINA RESULT: -4.988401739      0.000      0.000
REMARK  1 active torsions:
REMARK  status: ('A' for Active; 'I' for Inactive)
REMARK    1  A    between atoms: C10_11  and  O1_12 
ROOT
HETATM    1  C1  UNL     1      10.017 -27.680  39.662  1.00  0.00     0.309 C 
HETATM    2  N1  UNL     1       9.266 -27.769  40.900  1.00  0.00     0.085 N 
HETATM    3  C2  UNL     1       9.695 -28.928  41.643  1.00  0.00     0.277 C 
HETATM    4  C3  UNL     1       9.102 -28.912  43.002  1.00  0.00     0.019 C 
HETATM    5  C4  UNL     1       8.289 -30.104  43.365  1.00  0.00     0.007 C 
HETATM    6  C5  UNL     1       7.446 -29.600  44.527  1.00  0.00     0.001 C 
HETATM    7  C6  UNL     1       7.386 -28.085  44.366  1.00  0.00     0.006 C 
HETATM    8  C7  UNL     1       8.057 -27.787  43.092  1.00  0.00     0.003 C 
HETATM    9  C8  UNL     1       8.785 -26.522  42.968  1.00  0.00     0.016 C 
HETATM   10  C9  UNL     1       9.783 -26.257  44.054  1.00  0.00     0.047 C 
HETATM   11  C10 UNL     1       9.478 -24.766  43.855  1.00  0.00     0.143 C 
HETATM   12  C11 UNL     1       8.133 -25.236  43.275  1.00  0.00     0.069 C 
HETATM   13  C12 UNL     1       7.764 -24.341  42.127  1.00  0.00     0.036 C 
HETATM   14 CL1  UNL     1       6.910 -25.215  44.526  1.00  0.00    -0.116 Cl
HETATM   15  C13 UNL     1       9.496 -26.525  41.616  1.00  0.00     0.283 C 
ENDROOT
BRANCH  11  16
HETATM   16  O1  UNL     1       9.377 -24.050  45.024  1.00  0.00    -0.394 OA
ATOM     17  H1  UNL     1       9.702 -23.159  44.964  1.00  0.00     0.210 HD
ENDBRANCH  11  16
TORSDOF 1
ENDMDL
MODEL 2
REMARK VINA RESULT: -4.661088110      2.545      4.541
REMARK  1 active torsions:
REMARK  status: ('A' for Active; 'I' for Inactive)
REMARK    1  A    between atoms: C10_11  and  O1_12 
ROOT
HETATM    1  C1  UNL     1       9.733 -23.968  45.223  1.00  0.00     0.309 C 
HETATM    2  N1  UNL     1       9.207 -24.591  44.023  1.00  0.00     0.085 N 
HETATM    3  C2  UNL     1       9.964 -24.148  42.879  1.00  0.00     0.277 C 
HETATM    4  C3  UNL     1       9.587 -24.938  41.681  1.00  0.00     0.019 C 
HETATM    5  C4  UNL     1       9.092 -24.151  40.519  1.00  0.00     0.007 C 
HETATM    6  C5  UNL     1       8.347 -25.192  39.696  1.00  0.00     0.001 C 
HETATM    7  C6  UNL     1       7.963 -26.294  40.676  1.00  0.00     0.006 C 
HETATM    8  C7  UNL     1       8.365 -25.811  42.006  1.00  0.00     0.003 C 
HETATM    9  C8  UNL     1       8.799 -26.793  43.002  1.00  0.00     0.016 C 
HETATM   10  C9  UNL     1       9.873 -27.730  42.540  1.00  0.00     0.047 C 
HETATM   11  C10 UNL     1       9.250 -28.773  43.479  1.00  0.00     0.143 C 
HETATM   12  C11 UNL     1       7.956 -27.954  43.343  1.00  0.00     0.069 C 
HETATM   13  C12 UNL     1       7.249 -27.947  44.668  1.00  0.00     0.036 C 
HETATM   14 CL1  UNL     1       6.953 -28.637  42.083  1.00  0.00    -0.116 Cl
HETATM   15  C13 UNL     1       9.288 -26.027  44.230  1.00  0.00     0.283 C 
ENDROOT
BRANCH  11  16
HETATM   16  O1  UNL     1       9.183 -30.039  42.949  1.00  0.00    -0.394 OA
ATOM     17  H1  UNL     1      10.019 -30.384  42.658  1.00  0.00     0.210 HD
ENDBRANCH  11  16
TORSDOF 1
ENDMDL
MODEL 3
REMARK VINA RESULT: -4.186600948      8.823     10.522
REMARK  1 active torsions:
REMARK  status: ('A' for Active; 'I' for Inactive)
REMARK    1  A    between atoms: C10_11  and  O1_12 
ROOT
HETATM    1  C1  UNL     1       1.641 -29.815  46.608  1.00  0.00     0.309 C 
HETATM    2  N1  UNL     1       1.847 -29.042  47.818  1.00  0.00     0.085 N 
HETATM    3  C2  UNL     1       2.743 -27.946  47.543  1.00  0.00     0.277 C 
HETATM    4  C3  UNL     1       2.790 -27.023  48.703  1.00  0.00     0.019 C 
HETATM    5  C4  UNL     1       4.139 -26.789  49.287  1.00  0.00     0.007 C 
HETATM    6  C5  UNL     1       3.820 -26.257  50.676  1.00  0.00     0.001 C 
HETATM    7  C6  UNL     1       2.421 -26.767  51.003  1.00  0.00     0.006 C 
HETATM    8  C7  UNL     1       2.045 -27.653  49.891  1.00  0.00     0.003 C 
HETATM    9  C8  UNL     1       0.632 -27.732  49.511  1.00  0.00     0.016 C 
HETATM   10  C9  UNL     1      -0.029 -26.411  49.253  1.00  0.00     0.047 C 
HETATM   11  C10 UNL     1      -1.325 -27.056  49.762  1.00  0.00     0.143 C 
HETATM   12  C11 UNL     1      -0.409 -28.039  50.509  1.00  0.00     0.069 C 
HETATM   13  C12 UNL     1      -1.036 -29.403  50.477  1.00  0.00     0.036 C 
HETATM   14 CL1  UNL     1      -0.159 -27.485  52.150  1.00  0.00    -0.116 Cl
HETATM   15  C13 UNL     1       0.535 -28.601  48.258  1.00  0.00     0.283 C 
ENDROOT
BRANCH  11  16
HETATM   16  O1  UNL     1      -2.076 -26.243  50.578  1.00  0.00    -0.394 OA
ATOM     17  H1  UNL     1      -2.998 -26.471  50.611  1.00  0.00     0.210 HD
ENDBRANCH  11  16
TORSDOF 1
ENDMDL
MODEL 4
REMARK VINA RESULT: -3.885447420      2.809      4.594
REMARK  1 active torsions:
REMARK  status: ('A' for Active; 'I' for Inactive)
REMARK    1  A    between atoms: C10_11  and  O1_12 
ROOT
HETATM    1  C1  UNL     1       6.035 -28.590  45.031  1.00  0.00     0.309 C 
HETATM    2  N1  UNL     1       6.887 -27.741  44.220  1.00  0.00     0.085 N 
HETATM    3  C2  UNL     1       7.930 -27.178  45.042  1.00  0.00     0.277 C 
HETATM    4  C3  UNL     1       8.934 -26.491  44.193  1.00  0.00     0.019 C 
HETATM    5  C4  UNL     1       9.164 -25.054  44.503  1.00  0.00     0.007 C 
HETATM    6  C5  UNL     1       9.808 -24.531  43.227  1.00  0.00     0.001 C 
HETATM    7  C6  UNL     1       9.371 -25.487  42.123  1.00  0.00     0.006 C 
HETATM    8  C7  UNL     1       8.419 -26.417  42.747  1.00  0.00     0.003 C 
HETATM    9  C8  UNL     1       8.359 -27.793  42.248  1.00  0.00     0.016 C 
HETATM   10  C9  UNL     1       9.679 -28.502  42.188  1.00  0.00     0.047 C 
HETATM   11  C10 UNL     1       9.118 -29.268  40.982  1.00  0.00     0.143 C 
HETATM   12  C11 UNL     1       8.162 -28.074  40.814  1.00  0.00     0.069 C 
HETATM   13  C12 UNL     1       6.821 -28.588  40.374  1.00  0.00     0.036 C 
HETATM   14 CL1  UNL     1       8.827 -26.942  39.658  1.00  0.00    -0.116 Cl
HETATM   15  C13 UNL     1       7.404 -28.575  43.148  1.00  0.00     0.283 C 
ENDROOT
BRANCH  11  16
HETATM   16  O1  UNL     1      10.013 -29.431  39.952  1.00  0.00    -0.394 OA
ATOM     17  H1  UNL     1      10.200 -30.338  39.740  1.00  0.00     0.210 HD
ENDBRANCH  11  16
TORSDOF 1
ENDMDL
MODEL 5
REMARK VINA RESULT: -3.828900962      8.867     10.414
REMARK  1 active torsions:
REMARK  status: ('A' for Active; 'I' for Inactive)
REMARK    1  A    between atoms: C10_11  and  O1_12 
ROOT
HETATM    1  C1  UNL     1       4.113 -25.598  49.492  1.00  0.00     0.309 C 
HETATM    2  N1  UNL     1       2.989 -26.391  49.031  1.00  0.00     0.085 N 
HETATM    3  C2  UNL     1       3.460 -27.672  48.567  1.00  0.00     0.277 C 
HETATM    4  C3  UNL     1       2.311 -28.573  48.302  1.00  0.00     0.019 C 
HETATM    5  C4  UNL     1       2.227 -29.120  46.920  1.00  0.00     0.007 C 
HETATM    6  C5  UNL     1       0.772 -29.552  46.815  1.00  0.00     0.001 C 
HETATM    7  C6  UNL     1       0.018 -28.719  47.845  1.00  0.00     0.006 C 
HETATM    8  C7  UNL     1       1.001 -27.775  48.398  1.00  0.00     0.003 C 
HETATM    9  C8  UNL     1       0.859 -27.360  49.796  1.00  0.00     0.016 C 
HETATM   10  C9  UNL     1       0.739 -28.485  50.780  1.00  0.00     0.047 C 
HETATM   11  C10 UNL     1      -0.135 -27.544  51.620  1.00  0.00     0.143 C 
HETATM   12  C11 UNL     1      -0.411 -26.806  50.300  1.00  0.00     0.069 C 
HETATM   13  C12 UNL     1      -0.476 -25.331  50.576  1.00  0.00     0.036 C 
HETATM   14 CL1  UNL     1      -1.900 -27.394  49.593  1.00  0.00    -0.116 Cl
HETATM   15  C13 UNL     1       2.071 -26.501  50.152  1.00  0.00     0.283 C 
ENDROOT
BRANCH  11  16
HETATM   16  O1  UNL     1      -1.237 -28.147  52.178  1.00  0.00    -0.394 OA
ATOM     17  H1  UNL     1      -1.080 -28.530  53.033  1.00  0.00     0.210 HD
ENDBRANCH  11  16
TORSDOF 1
ENDMDL
