MODEL 1
REMARK VINA RESULT: -4.923881986      0.000      0.000
REMARK  0 active torsions:
REMARK  status: ('A' for Active; 'I' for Inactive)
ROOT
HETATM    1 CL1  UNL     1      10.017 -27.463  44.906  1.00  0.00    -0.102 Cl
HETATM    2  C1  UNL     1       9.377 -26.813  43.355  1.00  0.00     0.191 C 
HETATM    3  N1  UNL     1       8.305 -27.592  42.891  1.00  0.00    -0.375 N 
HETATM    4  C2  UNL     1       7.620 -28.368  43.853  1.00  0.00     0.123 C 
HETATM    5  C3  UNL     1       7.018 -27.441  44.884  1.00  0.00     0.020 C 
HETATM    6  C4  UNL     1       6.647 -26.109  44.387  1.00  0.00     0.002 C 
HETATM    7  C5  UNL     1       7.662 -25.103  44.025  1.00  0.00     0.015 C 
HETATM    8  C6  UNL     1       8.945 -25.398  43.459  1.00  0.00     0.023 C 
HETATM    9  C7  UNL     1       9.943 -24.463  44.189  1.00  0.00     0.245 C 
HETATM   10  N2  UNL     1       9.409 -23.188  43.663  1.00  0.00    -0.074 N 
ATOM     11  H21 UNL     1      10.063 -22.411  43.757  1.00  0.00     0.277 HD
ATOM     12  H22 UNL     1       8.662 -22.800  44.238  1.00  0.00     0.277 HD
HETATM   13  C8  UNL     1       8.998 -23.432  42.269  1.00  0.00     0.238 C 
HETATM   14  C9  UNL     1       9.350 -24.822  42.078  1.00  0.00     0.029 C 
HETATM   15  C10 UNL     1       9.104 -25.650  40.948  1.00  0.00     0.002 A 
HETATM   16  C11 UNL     1       8.248 -25.579  39.776  1.00  0.00     0.016 A 
HETATM   17  C12 UNL     1       7.677 -26.147  40.976  1.00  0.00     0.029 A 
HETATM   18  C13 UNL     1       7.777 -27.465  41.612  1.00  0.00     0.065 C 
ENDROOT
TORSDOF 0
ENDMDL
MODEL 2
REMARK VINA RESULT: -4.812409713      2.264      4.002
REMARK  0 active torsions:
REMARK  status: ('A' for Active; 'I' for Inactive)
ROOT
HETATM    1 CL1  UNL     1       9.267 -30.765  42.990  1.00  0.00    -0.102 Cl
HETATM    2  C1  UNL     1       9.182 -28.983  43.228  1.00  0.00     0.191 C 
HETATM    3  N1  UNL     1       9.734 -28.305  42.130  1.00  0.00    -0.375 N 
HETATM    4  C2  UNL     1       9.792 -29.014  40.909  1.00  0.00     0.123 C 
HETATM    5  C3  UNL     1       8.384 -29.369  40.487  1.00  0.00     0.020 C 
HETATM    6  C4  UNL     1       7.345 -28.424  40.920  1.00  0.00     0.002 C 
HETATM    7  C5  UNL     1       6.932 -28.314  42.331  1.00  0.00     0.015 C 
HETATM    8  C6  UNL     1       7.799 -28.499  43.457  1.00  0.00     0.023 C 
HETATM    9  C7  UNL     1       6.977 -29.327  44.479  1.00  0.00     0.245 C 
HETATM   10  N2  UNL     1       5.951 -28.299  44.758  1.00  0.00    -0.074 N 
ATOM     11  H21 UNL     1       5.436 -28.472  45.620  1.00  0.00     0.277 HD
ATOM     12  H22 UNL     1       5.157 -28.343  44.120  1.00  0.00     0.277 HD
HETATM   13  C8  UNL     1       6.633 -26.992  44.744  1.00  0.00     0.238 C 
HETATM   14  C9  UNL     1       8.008 -27.359  44.486  1.00  0.00     0.029 C 
HETATM   15  C10 UNL     1       9.126 -26.507  44.270  1.00  0.00     0.002 A 
HETATM   16  C11 UNL     1       9.313 -25.102  43.952  1.00  0.00     0.016 A 
HETATM   17  C12 UNL     1       9.125 -26.010  42.843  1.00  0.00     0.029 A 
HETATM   18  C13 UNL     1      10.014 -26.944  42.146  1.00  0.00     0.065 C 
ENDROOT
TORSDOF 0
ENDMDL
MODEL 3
REMARK VINA RESULT: -4.586281922      2.564      4.186
REMARK  0 active torsions:
REMARK  status: ('A' for Active; 'I' for Inactive)
ROOT
HETATM    1 CL1  UNL     1       9.300 -25.784  42.305  1.00  0.00    -0.102 Cl
HETATM    2  C1  UNL     1       9.285 -27.507  41.785  1.00  0.00     0.191 C 
HETATM    3  N1  UNL     1       9.708 -28.347  42.827  1.00  0.00    -0.375 N 
HETATM    4  C2  UNL     1       9.594 -27.837  44.141  1.00  0.00     0.123 C 
HETATM    5  C3  UNL     1       8.136 -27.556  44.427  1.00  0.00     0.020 C 
HETATM    6  C4  UNL     1       7.181 -28.423  43.722  1.00  0.00     0.002 C 
HETATM    7  C5  UNL     1       6.954 -28.312  42.270  1.00  0.00     0.015 C 
HETATM    8  C6  UNL     1       7.953 -27.952  41.307  1.00  0.00     0.023 C 
HETATM    9  C7  UNL     1       7.250 -26.976  40.329  1.00  0.00     0.245 C 
HETATM   10  N2  UNL     1       6.291 -27.950  39.764  1.00  0.00    -0.074 N 
ATOM     11  H21 UNL     1       5.886 -27.645  38.879  1.00  0.00     0.277 HD
ATOM     12  H22 UNL     1       5.421 -28.008  40.293  1.00  0.00     0.277 HD
HETATM   13  C8  UNL     1       6.994 -29.241  39.664  1.00  0.00     0.238 C 
HETATM   14  C9  UNL     1       8.317 -28.917  40.150  1.00  0.00     0.029 C 
HETATM   15  C10 UNL     1       9.416 -29.790  40.375  1.00  0.00     0.002 A 
HETATM   16  C11 UNL     1       9.593 -31.227  40.494  1.00  0.00     0.016 A 
HETATM   17  C12 UNL     1       9.245 -30.504  41.695  1.00  0.00     0.029 A 
HETATM   18  C13 UNL     1      10.017 -29.688  42.638  1.00  0.00     0.065 C 
ENDROOT
TORSDOF 0
ENDMDL
MODEL 4
REMARK VINA RESULT: -4.348959617      1.961      3.306
REMARK  0 active torsions:
REMARK  status: ('A' for Active; 'I' for Inactive)
ROOT
HETATM    1 CL1  UNL     1      10.017 -29.843  42.322  1.00  0.00    -0.102 Cl
HETATM    2  C1  UNL     1       9.797 -28.148  41.759  1.00  0.00     0.191 C 
HETATM    3  N1  UNL     1       9.804 -28.082  40.357  1.00  0.00    -0.375 N 
HETATM    4  C2  UNL     1       9.490 -29.272  39.662  1.00  0.00     0.123 C 
HETATM    5  C3  UNL     1       8.086 -29.693  40.032  1.00  0.00     0.020 C 
HETATM    6  C4  UNL     1       7.172 -28.593  40.371  1.00  0.00     0.002 C 
HETATM    7  C5  UNL     1       7.308 -27.826  41.622  1.00  0.00     0.015 C 
HETATM    8  C6  UNL     1       8.550 -27.529  42.272  1.00  0.00     0.023 C 
HETATM    9  C7  UNL     1       8.288 -27.747  43.785  1.00  0.00     0.245 C 
HETATM   10  N2  UNL     1       7.317 -26.644  43.958  1.00  0.00    -0.074 N 
ATOM     11  H21 UNL     1       7.190 -26.372  44.932  1.00  0.00     0.277 HD
ATOM     12  H22 UNL     1       6.355 -26.925  43.774  1.00  0.00     0.277 HD
HETATM   13  C8  UNL     1       7.768 -25.533  43.101  1.00  0.00     0.238 C 
HETATM   14  C9  UNL     1       8.981 -26.060  42.516  1.00  0.00     0.029 C 
HETATM   15  C10 UNL     1       9.815 -25.471  41.526  1.00  0.00     0.002 A 
HETATM   16  C11 UNL     1       9.686 -24.381  40.575  1.00  0.00     0.016 A 
HETATM   17  C12 UNL     1       9.215 -25.681  40.156  1.00  0.00     0.029 A 
HETATM   18  C13 UNL     1       9.890 -26.884  39.658  1.00  0.00     0.065 C 
ENDROOT
TORSDOF 0
ENDMDL
MODEL 5
REMARK VINA RESULT: -4.277228951      1.777      3.708
REMARK  0 active torsions:
REMARK  status: ('A' for Active; 'I' for Inactive)
ROOT
HETATM    1 CL1  UNL     1       6.641 -27.294  45.246  1.00  0.00    -0.102 Cl
HETATM    2  C1  UNL     1       7.165 -27.236  43.526  1.00  0.00     0.191 C 
HETATM    3  N1  UNL     1       7.550 -25.935  43.164  1.00  0.00    -0.375 N 
HETATM    4  C2  UNL     1       7.929 -25.069  44.214  1.00  0.00     0.123 C 
HETATM    5  C3  UNL     1       9.132 -25.656  44.916  1.00  0.00     0.020 C 
HETATM    6  C4  UNL     1      10.017 -26.468  44.069  1.00  0.00     0.002 C 
HETATM    7  C5  UNL     1       9.615 -27.796  43.573  1.00  0.00     0.015 C 
HETATM    8  C6  UNL     1       8.275 -28.175  43.231  1.00  0.00     0.023 C 
HETATM    9  C7  UNL     1       8.091 -29.604  43.802  1.00  0.00     0.245 C 
HETATM   10  N2  UNL     1       9.076 -30.275  42.925  1.00  0.00    -0.074 N 
ATOM     11  H21 UNL     1       8.955 -31.287  42.889  1.00  0.00     0.277 HD
ATOM     12  H22 UNL     1      10.021 -30.269  43.307  1.00  0.00     0.277 HD
HETATM   13  C8  UNL     1       8.984 -29.633  41.601  1.00  0.00     0.238 C 
HETATM   14  C9  UNL     1       7.934 -28.658  41.798  1.00  0.00     0.029 C 
HETATM   15  C10 UNL     1       7.463 -27.670  40.890  1.00  0.00     0.002 A 
HETATM   16  C11 UNL     1       7.950 -27.076  39.658  1.00  0.00     0.016 A 
HETATM   17  C12 UNL     1       8.394 -26.480  40.896  1.00  0.00     0.029 A 
HETATM   18  C13 UNL     1       7.772 -25.552  41.846  1.00  0.00     0.065 C 
ENDROOT
TORSDOF 0
ENDMDL
