MODEL 1
REMARK VINA RESULT: -7.171311162      0.000      0.000
REMARK  11 active torsions:
REMARK  status: ('A' for Active; 'I' for Inactive)
REMARK    1  A    between atoms: S1_2  and  C2_3 
REMARK    2  A    between atoms: C2_3  and  C3_4 
REMARK    3  A    between atoms: C3_4  and  N1_5 
REMARK    4  A    between atoms: C3_4  and  C4_9 
REMARK    5  A    between atoms: C4_9  and  O1_10 
REMARK    6  A    between atoms: C9_16  and  C10_17 
REMARK    7  A    between atoms: C10_17  and  O2_18 
REMARK    8  A    between atoms: C10_17  and  O3_20 
REMARK    9  A    between atoms: N2_23  and  C12_24 
REMARK   10  A    between atoms: C12_24  and  C13_25 
REMARK       I    between atoms: C13_25  and  N3_27 
REMARK   11  A    between atoms: C16_30  and  N4_31 
ROOT
HETATM    1  C4  UNL     1     100.614  16.606  14.438  1.00  0.00     0.108 A 
HETATM    2  C5  UNL     1      99.395  17.004  13.739  1.00  0.00     0.015 A 
HETATM    3  C6  UNL     1      98.187  16.949  14.254  1.00  0.00     0.029 A 
HETATM    4  C7  UNL     1      97.957  16.470  15.610  1.00  0.00     0.041 A 
HETATM    5  C8  UNL     1      99.062  16.078  16.329  1.00  0.00    -0.016 A 
HETATM    6  C9  UNL     1      98.619  15.676  17.569  1.00  0.00     0.020 A 
HETATM    7  C11 UNL     1      97.252  15.840  17.557  1.00  0.00     0.104 A 
HETATM    8  N2  UNL     1      96.838  16.329  16.351  1.00  0.00    -0.347 N 
HETATM    9  C19 UNL     1     100.448  16.098  15.819  1.00  0.00     0.086 A 
ENDROOT
BRANCH   8  10
HETATM   10  C12 UNL     1      95.455  16.612  15.994  1.00  0.00     0.231 C 
BRANCH  10  11
HETATM   11  C13 UNL     1      94.714  15.385  15.703  1.00  0.00     0.238 C 
HETATM   12  O4  UNL     1      94.867  14.898  14.534  1.00  0.00    -0.272 OA
HETATM   13  N3  UNL     1      93.876  14.749  16.624  1.00  0.00    -0.351 N 
HETATM   14  C14 UNL     1      93.677  15.259  17.960  1.00  0.00     0.128 C 
HETATM   15  C18 UNL     1      93.171  13.521  16.230  1.00  0.00     0.128 C 
HETATM   16  C15 UNL     1      93.248  14.049  18.801  1.00  0.00     0.052 C 
HETATM   17  C16 UNL     1      94.159  12.911  18.395  1.00  0.00     0.186 C 
HETATM   18  C17 UNL     1      93.690  12.367  17.071  1.00  0.00     0.052 C 
BRANCH  17  19
HETATM   19  N4  UNL     1      94.058  11.875  19.403  1.00  0.00    -0.075 N 
ATOM     20  H43 UNL     1      94.249  10.944  19.033  1.00  0.00     0.274 HD
ATOM     21  H42 UNL     1      94.819  11.909  20.082  1.00  0.00     0.274 HD
ATOM     22  H41 UNL     1      93.139  11.946  19.838  1.00  0.00     0.274 HD
ENDBRANCH  17  19
ENDBRANCH  10  11
ENDBRANCH   8  10
BRANCH   6  23
HETATM   23  C10 UNL     1      99.427  15.159  18.723  1.00  0.00     0.290 C 
BRANCH  23  24
HETATM   24  O2  UNL     1      98.648  15.085  19.885  1.00  0.00    -0.367 OA
ATOM     25  H2  UNL     1      98.790  14.261  20.336  1.00  0.00     0.213 HD
ENDBRANCH  23  24
BRANCH  23  26
HETATM   26  O3  UNL     1      99.885  13.862  18.459  1.00  0.00    -0.367 OA
ATOM     27  H3  UNL     1      99.214  13.357  18.013  1.00  0.00     0.213 HD
ENDBRANCH  23  26
ENDBRANCH   6  23
BRANCH   1  28
HETATM   28  C3  UNL     1     101.686  17.702  14.361  1.00  0.00     0.230 C 
BRANCH  28  29
HETATM   29  C2  UNL     1     102.105  17.825  12.920  1.00  0.00     0.109 C 
BRANCH  29  30
HETATM   30  S1  UNL     1     103.907  17.784  12.740  1.00  0.00    -0.171 SA
HETATM   31  C1  UNL     1     104.449  16.507  11.588  1.00  0.00     0.089 C 
ENDBRANCH  29  30
ENDBRANCH  28  29
BRANCH  28  32
HETATM   32  N1  UNL     1     102.840  17.266  15.129  1.00  0.00    -0.071 N 
ATOM     33  H13 UNL     1     103.282  16.435  14.738  1.00  0.00     0.274 HD
ATOM     34  H12 UNL     1     103.636  17.899  15.039  1.00  0.00     0.274 HD
ATOM     35  H11 UNL     1     102.545  17.139  16.097  1.00  0.00     0.274 HD
ENDBRANCH  28  32
ENDBRANCH   1  28
BRANCH   1  36
HETATM   36  O1  UNL     1     101.173  15.542  13.683  1.00  0.00    -0.383 OA
ATOM     37  H1  UNL     1     101.749  15.109  14.301  1.00  0.00     0.211 HD
ENDBRANCH   1  36
TORSDOF 11
ENDMDL
MODEL 2
REMARK VINA RESULT: -7.165582455      3.635      5.344
REMARK  11 active torsions:
REMARK  status: ('A' for Active; 'I' for Inactive)
REMARK    1  A    between atoms: S1_2  and  C2_3 
REMARK    2  A    between atoms: C2_3  and  C3_4 
REMARK    3  A    between atoms: C3_4  and  N1_5 
REMARK    4  A    between atoms: C3_4  and  C4_9 
REMARK    5  A    between atoms: C4_9  and  O1_10 
REMARK    6  A    between atoms: C9_16  and  C10_17 
REMARK    7  A    between atoms: C10_17  and  O2_18 
REMARK    8  A    between atoms: C10_17  and  O3_20 
REMARK    9  A    between atoms: N2_23  and  C12_24 
REMARK   10  A    between atoms: C12_24  and  C13_25 
REMARK       I    between atoms: C13_25  and  N3_27 
REMARK   11  A    between atoms: C16_30  and  N4_31 
ROOT
HETATM    1  C4  UNL     1      98.986  14.674  18.458  1.00  0.00     0.108 A 
HETATM    2  C5  UNL     1      98.473  15.358  17.274  1.00  0.00     0.015 A 
HETATM    3  C6  UNL     1      97.339  15.069  16.677  1.00  0.00     0.029 A 
HETATM    4  C7  UNL     1      96.470  14.006  17.164  1.00  0.00     0.041 A 
HETATM    5  C8  UNL     1      96.890  13.318  18.278  1.00  0.00    -0.016 A 
HETATM    6  C9  UNL     1      95.926  12.378  18.564  1.00  0.00     0.020 A 
HETATM    7  C11 UNL     1      94.949  12.531  17.607  1.00  0.00     0.104 A 
HETATM    8  N2  UNL     1      95.279  13.533  16.740  1.00  0.00    -0.347 N 
HETATM    9  C19 UNL     1      98.155  13.574  18.998  1.00  0.00     0.086 A 
ENDROOT
BRANCH   8  10
HETATM   10  C12 UNL     1      94.473  13.954  15.604  1.00  0.00     0.231 C 
BRANCH  10  11
HETATM   11  C13 UNL     1      93.925  15.296  15.802  1.00  0.00     0.238 C 
HETATM   12  O4  UNL     1      93.076  15.424  16.746  1.00  0.00    -0.272 OA
HETATM   13  N3  UNL     1      94.283  16.402  15.025  1.00  0.00    -0.351 N 
HETATM   14  C14 UNL     1      95.244  16.306  13.951  1.00  0.00     0.128 C 
HETATM   15  C18 UNL     1      93.670  17.708  15.303  1.00  0.00     0.128 C 
HETATM   16  C15 UNL     1      95.807  17.724  13.778  1.00  0.00     0.052 C 
HETATM   17  C16 UNL     1      96.064  18.247  15.174  1.00  0.00     0.186 C 
HETATM   18  C17 UNL     1      94.749  18.665  15.781  1.00  0.00     0.052 C 
BRANCH  17  19
HETATM   19  N4  UNL     1      96.932  19.402  15.067  1.00  0.00    -0.075 N 
ATOM     20  H43 UNL     1      97.883  19.211  15.386  1.00  0.00     0.274 HD
ATOM     21  H42 UNL     1      97.157  19.638  14.101  1.00  0.00     0.274 HD
ATOM     22  H41 UNL     1      96.495  20.173  15.570  1.00  0.00     0.274 HD
ENDBRANCH  17  19
ENDBRANCH  10  11
ENDBRANCH   8  10
BRANCH   6  23
HETATM   23  C10 UNL     1      95.907  11.375  19.681  1.00  0.00     0.290 C 
BRANCH  23  24
HETATM   24  O2  UNL     1      94.657  10.748  19.767  1.00  0.00    -0.367 OA
ATOM     25  H2  UNL     1      94.590  10.038  19.138  1.00  0.00     0.213 HD
ENDBRANCH  23  24
BRANCH  23  26
HETATM   26  O3  UNL     1      96.851  10.367  19.451  1.00  0.00    -0.367 OA
ATOM     27  H3  UNL     1      96.812   9.712  20.138  1.00  0.00     0.213 HD
ENDBRANCH  23  26
ENDBRANCH   6  23
BRANCH   1  28
HETATM   28  C3  UNL     1      99.385  15.674  19.553  1.00  0.00     0.230 C 
BRANCH  28  29
HETATM   29  C2  UNL     1     100.743  16.217  19.196  1.00  0.00     0.109 C 
BRANCH  29  30
HETATM   30  S1  UNL     1     101.879  16.158  20.606  1.00  0.00    -0.171 SA
HETATM   31  C1  UNL     1     103.411  17.055  20.285  1.00  0.00     0.089 C 
ENDBRANCH  29  30
ENDBRANCH  28  29
BRANCH  28  32
HETATM   32  N1  UNL     1      99.505  14.953  20.808  1.00  0.00    -0.071 N 
ATOM     33  H13 UNL     1     100.442  14.580  20.960  1.00  0.00     0.274 HD
ATOM     34  H12 UNL     1      99.469  15.568  21.622  1.00  0.00     0.274 HD
ATOM     35  H11 UNL     1      98.784  14.231  20.828  1.00  0.00     0.274 HD
ENDBRANCH  28  32
ENDBRANCH   1  28
BRANCH   1  36
HETATM   36  O1  UNL     1     100.223  14.092  18.074  1.00  0.00    -0.383 OA
ATOM     37  H1  UNL     1     100.188  13.224  18.456  1.00  0.00     0.211 HD
ENDBRANCH   1  36
TORSDOF 11
ENDMDL
MODEL 3
REMARK VINA RESULT: -7.114443500      3.694      6.103
REMARK  11 active torsions:
REMARK  status: ('A' for Active; 'I' for Inactive)
REMARK    1  A    between atoms: S1_2  and  C2_3 
REMARK    2  A    between atoms: C2_3  and  C3_4 
REMARK    3  A    between atoms: C3_4  and  N1_5 
REMARK    4  A    between atoms: C3_4  and  C4_9 
REMARK    5  A    between atoms: C4_9  and  O1_10 
REMARK    6  A    between atoms: C9_16  and  C10_17 
REMARK    7  A    between atoms: C10_17  and  O2_18 
REMARK    8  A    between atoms: C10_17  and  O3_20 
REMARK    9  A    between atoms: N2_23  and  C12_24 
REMARK   10  A    between atoms: C12_24  and  C13_25 
REMARK       I    between atoms: C13_25  and  N3_27 
REMARK   11  A    between atoms: C16_30  and  N4_31 
ROOT
HETATM    1  C4  UNL     1      97.357  13.130  18.593  1.00  0.00     0.108 A 
HETATM    2  C5  UNL     1      97.333  13.408  17.159  1.00  0.00     0.015 A 
HETATM    3  C6  UNL     1      96.300  13.894  16.509  1.00  0.00     0.029 A 
HETATM    4  C7  UNL     1      95.050  14.206  17.189  1.00  0.00     0.041 A 
HETATM    5  C8  UNL     1      94.999  13.968  18.542  1.00  0.00    -0.016 A 
HETATM    6  C9  UNL     1      93.745  14.337  18.973  1.00  0.00     0.020 A 
HETATM    7  C11 UNL     1      93.075  14.788  17.858  1.00  0.00     0.104 A 
HETATM    8  N2  UNL     1      93.875  14.709  16.754  1.00  0.00    -0.347 N 
HETATM    9  C19 UNL     1      96.111  13.414  19.341  1.00  0.00     0.086 A 
ENDROOT
BRANCH   8  10
HETATM   10  C12 UNL     1      93.481  15.096  15.407  1.00  0.00     0.231 C 
BRANCH  10  11
HETATM   11  C13 UNL     1      93.527  16.547  15.230  1.00  0.00     0.238 C 
HETATM   12  O4  UNL     1      92.548  17.205  15.717  1.00  0.00    -0.272 OA
HETATM   13  N3  UNL     1      94.564  17.215  14.573  1.00  0.00    -0.351 N 
HETATM   14  C14 UNL     1      95.695  16.513  14.013  1.00  0.00     0.128 C 
HETATM   15  C18 UNL     1      94.513  18.678  14.446  1.00  0.00     0.128 C 
HETATM   16  C15 UNL     1      96.831  17.545  13.958  1.00  0.00     0.052 C 
HETATM   17  C16 UNL     1      96.791  18.284  15.278  1.00  0.00     0.186 C 
HETATM   18  C17 UNL     1      95.662  19.280  15.237  1.00  0.00     0.052 C 
BRANCH  17  19
HETATM   19  N4  UNL     1      98.048  18.989  15.434  1.00  0.00    -0.075 N 
ATOM     20  H43 UNL     1      98.491  18.809  16.335  1.00  0.00     0.274 HD
ATOM     21  H42 UNL     1      98.787  18.612  14.842  1.00  0.00     0.274 HD
ATOM     22  H41 UNL     1      97.876  19.980  15.269  1.00  0.00     0.274 HD
ENDBRANCH  17  19
ENDBRANCH  10  11
ENDBRANCH   8  10
BRANCH   6  23
HETATM   23  C10 UNL     1      93.184  14.276  20.364  1.00  0.00     0.290 C 
BRANCH  23  24
HETATM   24  O2  UNL     1      92.148  15.205  20.526  1.00  0.00    -0.367 OA
ATOM     25  H2  UNL     1      91.332  14.867  20.173  1.00  0.00     0.213 HD
ENDBRANCH  23  24
BRANCH  23  26
HETATM   26  O3  UNL     1      92.638  13.012  20.618  1.00  0.00    -0.367 OA
ATOM     27  H3  UNL     1      93.001  12.368  20.020  1.00  0.00     0.213 HD
ENDBRANCH  23  26
ENDBRANCH   6  23
BRANCH   1  28
HETATM   28  C3  UNL     1      98.581  13.765  19.267  1.00  0.00     0.230 C 
BRANCH  28  29
HETATM   29  C2  UNL     1      99.286  14.598  18.230  1.00  0.00     0.109 C 
BRANCH  29  30
HETATM   30  S1  UNL     1     100.156  16.002  18.977  1.00  0.00    -0.171 SA
HETATM   31  C1  UNL     1     100.384  15.796  20.753  1.00  0.00     0.089 C 
ENDBRANCH  29  30
ENDBRANCH  28  29
BRANCH  28  32
HETATM   32  N1  UNL     1      99.481  12.700  19.675  1.00  0.00    -0.071 N 
ATOM     33  H13 UNL     1      99.824  12.817  20.628  1.00  0.00     0.274 HD
ATOM     34  H12 UNL     1      99.002  11.809  19.810  1.00  0.00     0.274 HD
ATOM     35  H11 UNL     1     100.234  12.642  18.989  1.00  0.00     0.274 HD
ENDBRANCH  28  32
ENDBRANCH   1  28
BRANCH   1  36
HETATM   36  O1  UNL     1      97.593  11.736  18.720  1.00  0.00    -0.383 OA
ATOM     37  H1  UNL     1      97.117  11.501  19.508  1.00  0.00     0.211 HD
ENDBRANCH   1  36
TORSDOF 11
ENDMDL
MODEL 4
REMARK VINA RESULT: -7.027072768      3.690      5.247
REMARK  11 active torsions:
REMARK  status: ('A' for Active; 'I' for Inactive)
REMARK    1  A    between atoms: S1_2  and  C2_3 
REMARK    2  A    between atoms: C2_3  and  C3_4 
REMARK    3  A    between atoms: C3_4  and  N1_5 
REMARK    4  A    between atoms: C3_4  and  C4_9 
REMARK    5  A    between atoms: C4_9  and  O1_10 
REMARK    6  A    between atoms: C9_16  and  C10_17 
REMARK    7  A    between atoms: C10_17  and  O2_18 
REMARK    8  A    between atoms: C10_17  and  O3_20 
REMARK    9  A    between atoms: N2_23  and  C12_24 
REMARK   10  A    between atoms: C12_24  and  C13_25 
REMARK       I    between atoms: C13_25  and  N3_27 
REMARK   11  A    between atoms: C16_30  and  N4_31 
ROOT
HETATM    1  C4  UNL     1      98.431  14.931  18.173  1.00  0.00     0.108 A 
HETATM    2  C5  UNL     1      97.521  15.708  17.335  1.00  0.00     0.015 A 
HETATM    3  C6  UNL     1      96.270  15.388  17.095  1.00  0.00     0.029 A 
HETATM    4  C7  UNL     1      95.666  14.191  17.665  1.00  0.00     0.041 A 
HETATM    5  C8  UNL     1      96.465  13.409  18.466  1.00  0.00    -0.016 A 
HETATM    6  C9  UNL     1      95.699  12.350  18.896  1.00  0.00     0.020 A 
HETATM    7  C11 UNL     1      94.453  12.529  18.337  1.00  0.00     0.104 A 
HETATM    8  N2  UNL     1      94.428  13.662  17.576  1.00  0.00    -0.347 N 
HETATM    9  C19 UNL     1      97.882  13.694  18.773  1.00  0.00     0.086 A 
ENDROOT
BRANCH   8  10
HETATM   10  C12 UNL     1      93.271  14.145  16.836  1.00  0.00     0.231 C 
BRANCH  10  11
HETATM   11  C13 UNL     1      93.405  13.887  15.402  1.00  0.00     0.238 C 
HETATM   12  O4  UNL     1      93.432  12.661  15.050  1.00  0.00    -0.272 OA
HETATM   13  N3  UNL     1      93.500  14.896  14.439  1.00  0.00    -0.351 N 
HETATM   14  C14 UNL     1      93.467  16.296  14.789  1.00  0.00     0.128 C 
HETATM   15  C18 UNL     1      93.636  14.529  13.022  1.00  0.00     0.128 C 
HETATM   16  C15 UNL     1      92.984  17.023  13.526  1.00  0.00     0.052 C 
HETATM   17  C16 UNL     1      91.835  16.201  12.982  1.00  0.00     0.186 C 
HETATM   18  C17 UNL     1      92.399  14.997  12.274  1.00  0.00     0.052 C 
BRANCH  17  19
HETATM   19  N4  UNL     1      91.109  17.021  12.033  1.00  0.00    -0.075 N 
ATOM     20  H43 UNL     1      91.195  18.018  12.227  1.00  0.00     0.274 HD
ATOM     21  H42 UNL     1      91.536  17.024  11.107  1.00  0.00     0.274 HD
ATOM     22  H41 UNL     1      90.140  16.704  12.019  1.00  0.00     0.274 HD
ENDBRANCH  17  19
ENDBRANCH  10  11
ENDBRANCH   8  10
BRANCH   6  23
HETATM   23  C10 UNL     1      96.101  11.215  19.792  1.00  0.00     0.290 C 
BRANCH  23  24
HETATM   24  O2  UNL     1      94.997  10.409  20.102  1.00  0.00    -0.367 OA
ATOM     25  H2  UNL     1      95.115   9.529  19.763  1.00  0.00     0.213 HD
ENDBRANCH  23  24
BRANCH  23  26
HETATM   26  O3  UNL     1      97.036  10.392  19.151  1.00  0.00    -0.367 OA
ATOM     27  H3  UNL     1      97.816  10.888  18.927  1.00  0.00     0.213 HD
ENDBRANCH  23  26
ENDBRANCH   6  23
BRANCH   1  28
HETATM   28  C3  UNL     1      99.118  15.816  19.223  1.00  0.00     0.230 C 
BRANCH  28  29
HETATM   29  C2  UNL     1     100.541  16.022  18.778  1.00  0.00     0.109 C 
BRANCH  29  30
HETATM   30  S1  UNL     1     101.687  16.029  20.181  1.00  0.00    -0.171 SA
HETATM   31  C1  UNL     1     103.244  16.849  19.787  1.00  0.00     0.089 C 
ENDBRANCH  29  30
ENDBRANCH  28  29
BRANCH  28  32
HETATM   32  N1  UNL     1      99.141  15.094  20.483  1.00  0.00    -0.071 N 
ATOM     33  H13 UNL     1      99.709  15.557  21.192  1.00  0.00     0.274 HD
ATOM     34  H12 UNL     1      98.249  15.132  20.976  1.00  0.00     0.274 HD
ATOM     35  H11 UNL     1      99.447  14.139  20.295  1.00  0.00     0.274 HD
ENDBRANCH  28  32
ENDBRANCH   1  28
BRANCH   1  36
HETATM   36  O1  UNL     1      99.499  14.528  17.328  1.00  0.00    -0.383 OA
ATOM     37  H1  UNL     1      99.266  14.898  16.484  1.00  0.00     0.211 HD
ENDBRANCH   1  36
TORSDOF 11
ENDMDL
MODEL 5
REMARK VINA RESULT: -6.957019468      1.996      2.329
REMARK  11 active torsions:
REMARK  status: ('A' for Active; 'I' for Inactive)
REMARK    1  A    between atoms: S1_2  and  C2_3 
REMARK    2  A    between atoms: C2_3  and  C3_4 
REMARK    3  A    between atoms: C3_4  and  N1_5 
REMARK    4  A    between atoms: C3_4  and  C4_9 
REMARK    5  A    between atoms: C4_9  and  O1_10 
REMARK    6  A    between atoms: C9_16  and  C10_17 
REMARK    7  A    between atoms: C10_17  and  O2_18 
REMARK    8  A    between atoms: C10_17  and  O3_20 
REMARK    9  A    between atoms: N2_23  and  C12_24 
REMARK   10  A    between atoms: C12_24  and  C13_25 
REMARK       I    between atoms: C13_25  and  N3_27 
REMARK   11  A    between atoms: C16_30  and  N4_31 
ROOT
HETATM    1  C4  UNL     1     101.257  17.359  14.587  1.00  0.00     0.108 A 
HETATM    2  C5  UNL     1     100.132  16.730  13.901  1.00  0.00     0.015 A 
HETATM    3  C6  UNL     1      99.198  16.020  14.493  1.00  0.00     0.029 A 
HETATM    4  C7  UNL     1      99.210  15.794  15.932  1.00  0.00     0.041 A 
HETATM    5  C8  UNL     1     100.242  16.358  16.645  1.00  0.00    -0.016 A 
HETATM    6  C9  UNL     1     100.052  16.029  17.967  1.00  0.00     0.020 A 
HETATM    7  C11 UNL     1      98.903  15.272  18.010  1.00  0.00     0.104 A 
HETATM    8  N2  UNL     1      98.380  15.123  16.758  1.00  0.00    -0.347 N 
HETATM    9  C19 UNL     1     101.334  17.158  16.052  1.00  0.00     0.086 A 
ENDROOT
BRANCH   8  10
HETATM   10  C12 UNL     1      97.172  14.374  16.441  1.00  0.00     0.231 C 
BRANCH  10  11
HETATM   11  C13 UNL     1      96.170  14.496  17.500  1.00  0.00     0.238 C 
HETATM   12  O4  UNL     1      95.403  15.513  17.435  1.00  0.00    -0.272 OA
HETATM   13  N3  UNL     1      96.027  13.574  18.541  1.00  0.00    -0.351 N 
HETATM   14  C14 UNL     1      96.868  12.405  18.652  1.00  0.00     0.128 C 
HETATM   15  C18 UNL     1      94.990  13.791  19.559  1.00  0.00     0.128 C 
HETATM   16  C15 UNL     1      96.056  11.393  19.472  1.00  0.00     0.052 C 
HETATM   17  C16 UNL     1      94.646  11.443  18.924  1.00  0.00     0.186 C 
HETATM   18  C17 UNL     1      93.964  12.675  19.461  1.00  0.00     0.052 C 
BRANCH  17  19
HETATM   19  N4  UNL     1      93.943  10.264  19.389  1.00  0.00    -0.075 N 
ATOM     20  H43 UNL     1      93.561   9.706  18.625  1.00  0.00     0.274 HD
ATOM     21  H42 UNL     1      94.569   9.557  19.774  1.00  0.00     0.274 HD
ATOM     22  H41 UNL     1      93.230  10.563  20.054  1.00  0.00     0.274 HD
ENDBRANCH  17  19
ENDBRANCH  10  11
ENDBRANCH   8  10
BRANCH   6  23
HETATM   23  C10 UNL     1     100.900  16.399  19.149  1.00  0.00     0.290 C 
BRANCH  23  24
HETATM   24  O2  UNL     1     100.261  16.056  20.348  1.00  0.00    -0.367 OA
ATOM     25  H2  UNL     1     100.562  15.211  20.662  1.00  0.00     0.213 HD
ENDBRANCH  23  24
BRANCH  23  26
HETATM   26  O3  UNL     1     102.113  15.700  19.121  1.00  0.00    -0.367 OA
ATOM     27  H3  UNL     1     102.702  16.030  19.790  1.00  0.00     0.213 HD
ENDBRANCH  23  26
ENDBRANCH   6  23
BRANCH   1  28
HETATM   28  C3  UNL     1     101.384  18.842  14.210  1.00  0.00     0.230 C 
BRANCH  28  29
HETATM   29  C2  UNL     1     101.960  18.908  12.821  1.00  0.00     0.109 C 
BRANCH  29  30
HETATM   30  S1  UNL     1     103.423  19.973  12.751  1.00  0.00    -0.171 SA
HETATM   31  C1  UNL     1     104.956  19.024  12.693  1.00  0.00     0.089 C 
ENDBRANCH  29  30
ENDBRANCH  28  29
BRANCH  28  32
HETATM   32  N1  UNL     1     102.332  19.464  15.119  1.00  0.00    -0.071 N 
ATOM     33  H13 UNL     1     103.193  18.928  15.218  1.00  0.00     0.274 HD
ATOM     34  H12 UNL     1     102.744  20.316  14.737  1.00  0.00     0.274 HD
ATOM     35  H11 UNL     1     101.859  19.621  16.009  1.00  0.00     0.274 HD
ENDBRANCH  28  32
ENDBRANCH   1  28
BRANCH   1  36
HETATM   36  O1  UNL     1     102.430  16.776  14.039  1.00  0.00    -0.383 OA
ATOM     37  H1  UNL     1     102.095  16.069  13.500  1.00  0.00     0.211 HD
ENDBRANCH   1  36
TORSDOF 11
ENDMDL
