MODEL 1
REMARK VINA RESULT: -8.324571565      0.000      0.000
REMARK  8 active torsions:
REMARK  status: ('A' for Active; 'I' for Inactive)
REMARK       I    between atoms: C2_5  and  N3_6 
REMARK       I    between atoms: C2_5  and  N5_11 
REMARK    1  A    between atoms: N3_6  and  N4_8 
REMARK    2  A    between atoms: N5_11  and  N6_13 
REMARK    3  A    between atoms: C3_15  and  C4_16 
REMARK    4  A    between atoms: C3_15  and  C11_30 
REMARK    5  A    between atoms: C4_16  and  S1_17 
REMARK    6  A    between atoms: S1_17  and  C5_18 
REMARK    7  A    between atoms: C8_21  and  S2_22 
REMARK    8  A    between atoms: S2_22  and  N7_23 
ROOT
HETATM    1  N1  UNL     1      95.837  15.857  17.458  1.00  0.00    -0.171 NA
HETATM    2  C1  UNL     1      96.162  14.781  17.731  1.00  0.00     0.196 C 
HETATM    3  N2  UNL     1      96.531  13.482  18.073  1.00  0.00    -0.123 N 
ATOM      4  H2  UNL     1      96.017  12.679  17.711  1.00  0.00     0.197 HD
HETATM    5  C2  UNL     1      97.543  13.322  18.859  1.00  0.00     0.720 C 
HETATM    6  N3  UNL     1      97.904  12.002  19.195  1.00  0.00    -0.137 N 
ATOM      7  H3  UNL     1      98.442  11.437  18.539  1.00  0.00     0.205 HD
HETATM    8  N5  UNL     1      98.283  14.446  19.378  1.00  0.00    -0.130 N 
ATOM      9  H5  UNL     1      98.246  14.700  20.366  1.00  0.00     0.205 HD
ENDROOT
BRANCH   6  10
HETATM   10  N4  UNL     1      97.527  11.474  20.416  1.00  0.00    -0.331 N 
ATOM     11  H42 UNL     1      97.503  12.083  21.233  1.00  0.00     0.177 HD
ATOM     12  H41 UNL     1      97.278  10.487  20.488  1.00  0.00     0.177 HD
ENDBRANCH   6  10
BRANCH   8  13
HETATM   13  N6  UNL     1      99.042  15.162  18.476  1.00  0.00    -0.288 N 
HETATM   14  C3  UNL     1     100.097  15.845  18.729  1.00  0.00     0.062 C 
ATOM     15  H6  UNL     1      98.730  15.148  17.505  1.00  0.00     0.187 HD
BRANCH  14  16
HETATM   16  C4  UNL     1     100.763  16.543  17.601  1.00  0.00     0.140 C 
BRANCH  16  17
HETATM   17  S1  UNL     1      99.870  16.276  16.052  1.00  0.00    -0.124 SA
BRANCH  17  18
HETATM   18  C5  UNL     1     100.996  16.649  14.698  1.00  0.00     0.001 A 
HETATM   19  C6  UNL     1     102.060  17.508  14.860  1.00  0.00     0.020 A 
HETATM   20  C7  UNL     1     102.901  17.772  13.806  1.00  0.00     0.026 A 
HETATM   21  C8  UNL     1     102.707  17.192  12.574  1.00  0.00     0.079 A 
HETATM   22  C9  UNL     1     101.654  16.341  12.411  1.00  0.00     0.026 A 
HETATM   23  C10 UNL     1     100.801  16.067  13.459  1.00  0.00     0.020 A 
BRANCH  21  24
HETATM   24  S2  UNL     1     103.832  17.593  11.302  1.00  0.00     0.256 S 
HETATM   25  O1  UNL     1     104.386  16.293  10.765  1.00  0.00    -0.201 OA
HETATM   26  O2  UNL     1     103.086  18.333  10.226  1.00  0.00    -0.201 OA
BRANCH  24  27
HETATM   27  N7  UNL     1     105.117  18.571  11.844  1.00  0.00    -0.324 N 
ATOM     28  H72 UNL     1     104.983  19.357  12.479  1.00  0.00     0.169 HD
ATOM     29  H71 UNL     1     106.018  18.283  11.464  1.00  0.00     0.169 HD
ENDBRANCH  24  27
ENDBRANCH  21  24
ENDBRANCH  17  18
ENDBRANCH  16  17
ENDBRANCH  14  16
BRANCH  14  30
HETATM   30  C11 UNL     1     100.686  15.975  20.070  1.00  0.00     0.059 A 
HETATM   31  C12 UNL     1     102.019  16.279  20.238  1.00  0.00     0.048 A 
HETATM   32  C13 UNL     1     102.592  16.405  21.485  1.00  0.00     0.091 A 
HETATM   33  N8  UNL     1     101.817  16.224  22.568  1.00  0.00    -0.362 N 
HETATM   34  C14 UNL     1     100.514  15.927  22.402  1.00  0.00     0.180 A 
ATOM     35  H8  UNL     1     102.210  16.311  23.505  1.00  0.00     0.165 HD
HETATM   36  N9  UNL     1      99.957  15.804  21.185  1.00  0.00    -0.351 N 
ATOM     37  H9  UNL     1      98.965  15.576  21.107  1.00  0.00     0.166 HD
ENDBRANCH  14  30
ENDBRANCH   8  13
TORSDOF 8
ENDMDL
MODEL 2
REMARK VINA RESULT: -8.307498302      5.150      7.825
REMARK  8 active torsions:
REMARK  status: ('A' for Active; 'I' for Inactive)
REMARK       I    between atoms: C2_5  and  N3_6 
REMARK       I    between atoms: C2_5  and  N5_11 
REMARK    1  A    between atoms: N3_6  and  N4_8 
REMARK    2  A    between atoms: N5_11  and  N6_13 
REMARK    3  A    between atoms: C3_15  and  C4_16 
REMARK    4  A    between atoms: C3_15  and  C11_30 
REMARK    5  A    between atoms: C4_16  and  S1_17 
REMARK    6  A    between atoms: S1_17  and  C5_18 
REMARK    7  A    between atoms: C8_21  and  S2_22 
REMARK    8  A    between atoms: S2_22  and  N7_23 
ROOT
HETATM    1  N1  UNL     1      98.316  12.301  19.743  1.00  0.00    -0.171 NA
HETATM    2  C1  UNL     1      97.234  12.566  19.426  1.00  0.00     0.196 C 
HETATM    3  N2  UNL     1      95.927  12.861  19.048  1.00  0.00    -0.123 N 
ATOM      4  H2  UNL     1      95.158  12.782  19.713  1.00  0.00     0.197 HD
HETATM    5  C2  UNL     1      95.714  13.239  17.831  1.00  0.00     0.720 C 
HETATM    6  N3  UNL     1      94.385  13.534  17.465  1.00  0.00    -0.137 N 
ATOM      7  H3  UNL     1      93.972  14.431  17.719  1.00  0.00     0.205 HD
HETATM    8  N5  UNL     1      96.788  13.358  16.877  1.00  0.00    -0.130 N 
ATOM      9  H5  UNL     1      96.876  12.718  16.088  1.00  0.00     0.205 HD
ENDROOT
BRANCH   6  10
HETATM   10  N4  UNL     1      93.642  12.604  16.761  1.00  0.00    -0.331 N 
ATOM     11  H42 UNL     1      93.644  12.637  15.742  1.00  0.00     0.177 HD
ATOM     12  H41 UNL     1      93.102  11.899  17.264  1.00  0.00     0.177 HD
ENDBRANCH   6  10
BRANCH   8  13
HETATM   13  N6  UNL     1      97.692  14.380  17.082  1.00  0.00    -0.288 N 
HETATM   14  C3  UNL     1      97.562  15.606  16.730  1.00  0.00     0.062 C 
ATOM     15  H6  UNL     1      98.556  14.134  17.565  1.00  0.00     0.187 HD
BRANCH  14  16
HETATM   16  C4  UNL     1      98.665  16.545  17.052  1.00  0.00     0.140 C 
BRANCH  16  17
HETATM   17  S1  UNL     1     100.187  15.652  17.446  1.00  0.00    -0.124 SA
BRANCH  17  18
HETATM   18  C5  UNL     1     100.482  15.823  19.213  1.00  0.00     0.001 A 
HETATM   19  C6  UNL     1      99.492  15.577  20.138  1.00  0.00     0.020 A 
HETATM   20  C7  UNL     1      99.751  15.716  21.480  1.00  0.00     0.026 A 
HETATM   21  C8  UNL     1     100.991  16.101  21.933  1.00  0.00     0.079 A 
HETATM   22  C9  UNL     1     101.973  16.346  21.020  1.00  0.00     0.026 A 
HETATM   23  C10 UNL     1     101.729  16.211  19.670  1.00  0.00     0.020 A 
BRANCH  21  24
HETATM   24  S2  UNL     1     101.216  16.249  23.657  1.00  0.00     0.256 S 
HETATM   25  O1  UNL     1     102.602  15.737  23.976  1.00  0.00    -0.201 OA
HETATM   26  O2  UNL     1     101.091  17.701  24.029  1.00  0.00    -0.201 OA
BRANCH  24  27
HETATM   27  N7  UNL     1     100.068  15.359  24.549  1.00  0.00    -0.324 N 
ATOM     28  H72 UNL     1      99.780  14.416  24.292  1.00  0.00     0.169 HD
ATOM     29  H71 UNL     1      99.712  15.873  25.354  1.00  0.00     0.169 HD
ENDBRANCH  24  27
ENDBRANCH  21  24
ENDBRANCH  17  18
ENDBRANCH  16  17
ENDBRANCH  14  16
BRANCH  14  30
HETATM   30  C11 UNL     1      96.383  16.134  16.027  1.00  0.00     0.059 A 
HETATM   31  C12 UNL     1      95.431  16.879  16.689  1.00  0.00     0.048 A 
HETATM   32  C13 UNL     1      94.319  17.384  16.050  1.00  0.00     0.091 A 
HETATM   33  N8  UNL     1      94.167  17.137  14.738  1.00  0.00    -0.362 N 
HETATM   34  C14 UNL     1      95.098  16.409  14.093  1.00  0.00     0.180 A 
ATOM     35  H8  UNL     1      93.355  17.497  14.236  1.00  0.00     0.165 HD
HETATM   36  N9  UNL     1      96.182  15.917  14.717  1.00  0.00    -0.351 N 
ATOM     37  H9  UNL     1      96.861  15.369  14.188  1.00  0.00     0.166 HD
ENDBRANCH  14  30
ENDBRANCH   8  13
TORSDOF 8
ENDMDL
MODEL 3
REMARK VINA RESULT: -8.292450903      0.731      1.249
REMARK  8 active torsions:
REMARK  status: ('A' for Active; 'I' for Inactive)
REMARK       I    between atoms: C2_5  and  N3_6 
REMARK       I    between atoms: C2_5  and  N5_11 
REMARK    1  A    between atoms: N3_6  and  N4_8 
REMARK    2  A    between atoms: N5_11  and  N6_13 
REMARK    3  A    between atoms: C3_15  and  C4_16 
REMARK    4  A    between atoms: C3_15  and  C11_30 
REMARK    5  A    between atoms: C4_16  and  S1_17 
REMARK    6  A    between atoms: S1_17  and  C5_18 
REMARK    7  A    between atoms: C8_21  and  S2_22 
REMARK    8  A    between atoms: S2_22  and  N7_23 
ROOT
HETATM    1  N1  UNL     1      95.923  15.704  17.469  1.00  0.00    -0.171 NA
HETATM    2  C1  UNL     1      96.250  14.639  17.785  1.00  0.00     0.196 C 
HETATM    3  N2  UNL     1      96.622  13.355  18.177  1.00  0.00    -0.123 N 
ATOM      4  H2  UNL     1      96.132  12.536  17.819  1.00  0.00     0.197 HD
HETATM    5  C2  UNL     1      97.604  13.231  19.007  1.00  0.00     0.720 C 
HETATM    6  N3  UNL     1      97.968  11.925  19.393  1.00  0.00    -0.137 N 
ATOM      7  H3  UNL     1      98.538  11.349  18.775  1.00  0.00     0.205 HD
HETATM    8  N5  UNL     1      98.309  14.378  19.522  1.00  0.00    -0.130 N 
ATOM      9  H5  UNL     1      98.231  14.659  20.500  1.00  0.00     0.205 HD
ENDROOT
BRANCH   6  10
HETATM   10  N4  UNL     1      97.549  11.426  20.613  1.00  0.00    -0.331 N 
ATOM     11  H42 UNL     1      97.810  11.920  21.466  1.00  0.00     0.177 HD
ATOM     12  H41 UNL     1      96.987  10.576  20.649  1.00  0.00     0.177 HD
ENDBRANCH   6  10
BRANCH   8  13
HETATM   13  N6  UNL     1      99.094  15.080  18.631  1.00  0.00    -0.288 N 
HETATM   14  C3  UNL     1     100.137  15.773  18.903  1.00  0.00     0.062 C 
ATOM     15  H6  UNL     1      98.815  15.042  17.650  1.00  0.00     0.187 HD
BRANCH  14  16
HETATM   16  C4  UNL     1     100.836  16.451  17.784  1.00  0.00     0.140 C 
BRANCH  16  17
HETATM   17  S1  UNL     1      99.859  16.376  16.265  1.00  0.00    -0.124 SA
BRANCH  17  18
HETATM   18  C5  UNL     1     100.959  16.734  14.885  1.00  0.00     0.001 A 
HETATM   19  C6  UNL     1     100.727  16.227  13.627  1.00  0.00     0.020 A 
HETATM   20  C7  UNL     1     101.585  16.519  12.595  1.00  0.00     0.026 A 
HETATM   21  C8  UNL     1     102.688  17.318  12.788  1.00  0.00     0.079 A 
HETATM   22  C9  UNL     1     102.921  17.821  14.033  1.00  0.00     0.026 A 
HETATM   23  C10 UNL     1     102.068  17.537  15.079  1.00  0.00     0.020 A 
BRANCH  21  24
HETATM   24  S2  UNL     1     103.716  17.629  11.412  1.00  0.00     0.256 S 
HETATM   25  O1  UNL     1     102.848  18.222  10.326  1.00  0.00    -0.201 OA
HETATM   26  O2  UNL     1     104.782  18.606  11.828  1.00  0.00    -0.201 OA
BRANCH  24  27
HETATM   27  N7  UNL     1     104.471  16.220  10.823  1.00  0.00    -0.324 N 
ATOM     28  H72 UNL     1     105.085  15.642  11.396  1.00  0.00     0.169 HD
ATOM     29  H71 UNL     1     104.240  16.027   9.849  1.00  0.00     0.169 HD
ENDBRANCH  24  27
ENDBRANCH  21  24
ENDBRANCH  17  18
ENDBRANCH  16  17
ENDBRANCH  14  16
BRANCH  14  30
HETATM   30  C11 UNL     1     100.680  15.935  20.260  1.00  0.00     0.059 A 
HETATM   31  C12 UNL     1     102.003  16.260  20.466  1.00  0.00     0.048 A 
HETATM   32  C13 UNL     1     102.534  16.416  21.728  1.00  0.00     0.091 A 
HETATM   33  N8  UNL     1     101.725  16.245  22.788  1.00  0.00    -0.362 N 
HETATM   34  C14 UNL     1     100.433  15.928  22.585  1.00  0.00     0.180 A 
ATOM     35  H8  UNL     1     102.087  16.354  23.735  1.00  0.00     0.165 HD
HETATM   36  N9  UNL     1      99.917  15.775  21.354  1.00  0.00    -0.351 N 
ATOM     37  H9  UNL     1      98.932  15.533  21.248  1.00  0.00     0.166 HD
ENDBRANCH  14  30
ENDBRANCH   8  13
TORSDOF 8
ENDMDL
MODEL 4
REMARK VINA RESULT: -8.285204356      4.608      5.697
REMARK  8 active torsions:
REMARK  status: ('A' for Active; 'I' for Inactive)
REMARK       I    between atoms: C2_5  and  N3_6 
REMARK       I    between atoms: C2_5  and  N5_11 
REMARK    1  A    between atoms: N3_6  and  N4_8 
REMARK    2  A    between atoms: N5_11  and  N6_13 
REMARK    3  A    between atoms: C3_15  and  C4_16 
REMARK    4  A    between atoms: C3_15  and  C11_30 
REMARK    5  A    between atoms: C4_16  and  S1_17 
REMARK    6  A    between atoms: S1_17  and  C5_18 
REMARK    7  A    between atoms: C8_21  and  S2_22 
REMARK    8  A    between atoms: S2_22  and  N7_23 
ROOT
HETATM    1  N1  UNL     1      94.490  15.212  17.904  1.00  0.00    -0.171 NA
HETATM    2  C1  UNL     1      95.004  14.197  18.117  1.00  0.00     0.196 C 
HETATM    3  N2  UNL     1      95.605  12.971  18.389  1.00  0.00    -0.123 N 
ATOM      4  H2  UNL     1      95.128  12.095  18.177  1.00  0.00     0.197 HD
HETATM    5  C2  UNL     1      96.784  12.972  18.917  1.00  0.00     0.720 C 
HETATM    6  N3  UNL     1      97.378  11.723  19.187  1.00  0.00    -0.137 N 
ATOM      7  H3  UNL     1      97.817  11.193  18.434  1.00  0.00     0.205 HD
HETATM    8  N5  UNL     1      97.474  14.201  19.223  1.00  0.00    -0.130 N 
ATOM      9  H5  UNL     1      97.635  14.499  20.185  1.00  0.00     0.205 HD
ENDROOT
BRANCH   6  10
HETATM   10  N4  UNL     1      97.365  11.217  20.474  1.00  0.00    -0.331 N 
ATOM     11  H42 UNL     1      96.960  11.778  21.223  1.00  0.00     0.177 HD
ATOM     12  H41 UNL     1      97.756  10.294  20.661  1.00  0.00     0.177 HD
ENDBRANCH   6  10
BRANCH   8  13
HETATM   13  N6  UNL     1      97.905  14.956  18.152  1.00  0.00    -0.288 N 
HETATM   14  C3  UNL     1      98.960  15.683  18.097  1.00  0.00     0.062 C 
ATOM     15  H6  UNL     1      97.324  14.933  17.314  1.00  0.00     0.187 HD
BRANCH  14  16
HETATM   16  C4  UNL     1      99.237  16.417  16.837  1.00  0.00     0.140 C 
BRANCH  16  17
HETATM   17  S1  UNL     1      99.093  15.326  15.403  1.00  0.00    -0.124 SA
BRANCH  17  18
HETATM   18  C5  UNL     1      97.352  15.230  14.957  1.00  0.00     0.001 A 
HETATM   19  C6  UNL     1      96.579  16.361  14.821  1.00  0.00     0.020 A 
HETATM   20  C7  UNL     1      95.253  16.253  14.480  1.00  0.00     0.026 A 
HETATM   21  C8  UNL     1      94.666  15.027  14.266  1.00  0.00     0.079 A 
HETATM   22  C9  UNL     1      95.430  13.906  14.401  1.00  0.00     0.026 A 
HETATM   23  C10 UNL     1      96.762  13.998  14.743  1.00  0.00     0.020 A 
BRANCH  21  24
HETATM   24  S2  UNL     1      92.975  14.999  13.836  1.00  0.00     0.256 S 
HETATM   25  O1  UNL     1      92.307  13.959  14.706  1.00  0.00    -0.201 OA
HETATM   26  O2  UNL     1      92.396  16.361  14.103  1.00  0.00    -0.201 OA
BRANCH  24  27
HETATM   27  N7  UNL     1      92.719  14.612  12.197  1.00  0.00    -0.324 N 
ATOM     28  H72 UNL     1      93.185  15.102  11.434  1.00  0.00     0.169 HD
ATOM     29  H71 UNL     1      92.057  13.846  12.072  1.00  0.00     0.169 HD
ENDBRANCH  24  27
ENDBRANCH  21  24
ENDBRANCH  17  18
ENDBRANCH  16  17
ENDBRANCH  14  16
BRANCH  14  30
HETATM   30  C11 UNL     1      99.910  15.831  19.210  1.00  0.00     0.059 A 
HETATM   31  C12 UNL     1     101.237  16.122  18.982  1.00  0.00     0.048 A 
HETATM   32  C13 UNL     1     102.145  16.265  20.009  1.00  0.00     0.091 A 
HETATM   33  N8  UNL     1     101.712  16.115  21.272  1.00  0.00    -0.362 N 
HETATM   34  C14 UNL     1     100.415  15.831  21.493  1.00  0.00     0.180 A 
ATOM     35  H8  UNL     1     102.358  16.215  22.054  1.00  0.00     0.165 HD
HETATM   36  N9  UNL     1      99.531  15.691  20.490  1.00  0.00    -0.351 N 
ATOM     37  H9  UNL     1      98.557  15.474  20.705  1.00  0.00     0.166 HD
ENDBRANCH  14  30
ENDBRANCH   8  13
TORSDOF 8
ENDMDL
MODEL 5
REMARK VINA RESULT: -8.271055529      2.952      5.257
REMARK  8 active torsions:
REMARK  status: ('A' for Active; 'I' for Inactive)
REMARK       I    between atoms: C2_5  and  N3_6 
REMARK       I    between atoms: C2_5  and  N5_11 
REMARK    1  A    between atoms: N3_6  and  N4_8 
REMARK    2  A    between atoms: N5_11  and  N6_13 
REMARK    3  A    between atoms: C3_15  and  C4_16 
REMARK    4  A    between atoms: C3_15  and  C11_30 
REMARK    5  A    between atoms: C4_16  and  S1_17 
REMARK    6  A    between atoms: S1_17  and  C5_18 
REMARK    7  A    between atoms: C8_21  and  S2_22 
REMARK    8  A    between atoms: S2_22  and  N7_23 
ROOT
HETATM    1  N1  UNL     1      96.597  11.492  19.461  1.00  0.00    -0.171 NA
HETATM    2  C1  UNL     1      97.619  12.014  19.606  1.00  0.00     0.196 C 
HETATM    3  N2  UNL     1      98.846  12.643  19.805  1.00  0.00    -0.123 N 
ATOM      4  H2  UNL     1      99.595  12.180  20.319  1.00  0.00     0.197 HD
HETATM    5  C2  UNL     1      99.010  13.829  19.320  1.00  0.00     0.720 C 
HETATM    6  N3  UNL     1     100.257  14.451  19.530  1.00  0.00    -0.137 N 
ATOM      7  H3  UNL     1     101.056  14.203  18.948  1.00  0.00     0.205 HD
HETATM    8  N5  UNL     1      97.962  14.499  18.590  1.00  0.00    -0.130 N 
ATOM      9  H5  UNL     1      97.478  15.311  18.973  1.00  0.00     0.205 HD
ENDROOT
BRANCH   6  10
HETATM   10  N4  UNL     1     100.394  15.399  20.528  1.00  0.00    -0.331 N 
ATOM     11  H42 UNL     1      99.664  15.485  21.234  1.00  0.00     0.177 HD
ATOM     12  H41 UNL     1     101.219  15.998  20.549  1.00  0.00     0.177 HD
ENDBRANCH   6  10
BRANCH   8  13
HETATM   13  N6  UNL     1      97.644  13.988  17.349  1.00  0.00    -0.288 N 
HETATM   14  C3  UNL     1      96.476  13.903  16.828  1.00  0.00     0.062 C 
ATOM     15  H6  UNL     1      98.420  13.642  16.785  1.00  0.00     0.187 HD
BRANCH  14  16
HETATM   16  C4  UNL     1      96.359  13.316  15.470  1.00  0.00     0.140 C 
BRANCH  16  17
HETATM   17  S1  UNL     1      96.505  14.589  14.195  1.00  0.00    -0.124 SA
BRANCH  17  18
HETATM   18  C5  UNL     1      98.012  15.519  14.517  1.00  0.00     0.001 A 
HETATM   19  C6  UNL     1      99.257  14.968  14.317  1.00  0.00     0.020 A 
HETATM   20  C7  UNL     1     100.388  15.705  14.572  1.00  0.00     0.026 A 
HETATM   21  C8  UNL     1     100.309  16.999  15.029  1.00  0.00     0.079 A 
HETATM   22  C9  UNL     1      99.077  17.548  15.229  1.00  0.00     0.026 A 
HETATM   23  C10 UNL     1      97.933  16.821  14.977  1.00  0.00     0.020 A 
BRANCH  21  24
HETATM   24  S2  UNL     1     101.805  17.850  15.322  1.00  0.00     0.256 S 
HETATM   25  O1  UNL     1     101.566  19.306  14.995  1.00  0.00    -0.201 OA
HETATM   26  O2  UNL     1     102.165  17.687  16.774  1.00  0.00    -0.201 OA
BRANCH  24  27
HETATM   27  N7  UNL     1     103.093  17.262  14.374  1.00  0.00    -0.324 N 
ATOM     28  H72 UNL     1     103.083  16.340  13.939  1.00  0.00     0.169 HD
ATOM     29  H71 UNL     1     103.859  17.930  14.295  1.00  0.00     0.169 HD
ENDBRANCH  24  27
ENDBRANCH  21  24
ENDBRANCH  17  18
ENDBRANCH  16  17
ENDBRANCH  14  16
BRANCH  14  30
HETATM   30  C11 UNL     1      95.246  14.353  17.497  1.00  0.00     0.059 A 
HETATM   31  C12 UNL     1      94.656  15.555  17.174  1.00  0.00     0.048 A 
HETATM   32  C13 UNL     1      93.504  15.997  17.789  1.00  0.00     0.091 A 
HETATM   33  N8  UNL     1      92.945  15.222  18.733  1.00  0.00    -0.362 N 
HETATM   34  C14 UNL     1      93.523  14.048  19.048  1.00  0.00     0.180 A 
ATOM     35  H8  UNL     1      92.092  15.520  19.207  1.00  0.00     0.165 HD
HETATM   36  N9  UNL     1      94.647  13.618  18.448  1.00  0.00    -0.351 N 
ATOM     37  H9  UNL     1      95.050  12.722  18.720  1.00  0.00     0.166 HD
ENDBRANCH  14  30
ENDBRANCH   8  13
TORSDOF 8
ENDMDL
