MODEL 1
REMARK VINA RESULT: -8.475862785      0.000      0.000
REMARK  9 active torsions:
REMARK  status: ('A' for Active; 'I' for Inactive)
REMARK       I    between atoms: C1_2  and  N1_3 
REMARK    1  A    between atoms: C1_2  and  C8_19 
REMARK    2  A    between atoms: N1_3  and  S1_5 
REMARK    3  A    between atoms: S1_5  and  C2_8 
REMARK    4  A    between atoms: C2_8  and  C3_9 
REMARK    5  A    between atoms: C3_9  and  C4_10 
REMARK    6  A    between atoms: C4_10  and  O4_11 
REMARK    7  A    between atoms: C8_19  and  O5_20 
REMARK    8  A    between atoms: C8_19  and  N3_22 
REMARK    9  A    between atoms: N3_22  and  C9_24 
ROOT
HETATM    1  O1  UNL     1      96.713  16.086  17.605  1.00  0.00    -0.268 OA
HETATM    2  C1  UNL     1      97.869  15.544  17.646  1.00  0.00     0.279 C 
HETATM    3  N1  UNL     1      97.973  14.131  17.844  1.00  0.00    -0.251 N 
ATOM      4  H1  UNL     1      98.879  13.664  17.871  1.00  0.00     0.181 HD
ENDROOT
BRANCH   2   5
HETATM    5  C8  UNL     1      99.043  16.409  17.485  1.00  0.00     0.313 C 
BRANCH   5   6
HETATM    6  O5  UNL     1      98.954  17.029  16.240  1.00  0.00    -0.368 OA
ATOM      7  H5  UNL     1      99.817  17.352  16.010  1.00  0.00     0.212 HD
ENDBRANCH   5   6
BRANCH   5   8
HETATM    8  N3  UNL     1     100.315  15.854  17.768  1.00  0.00    -0.356 N 
ATOM      9  H3  UNL     1     100.746  15.265  17.055  1.00  0.00     0.162 HD
BRANCH   8  10
HETATM   10  C9  UNL     1     101.044  16.066  18.993  1.00  0.00     0.031 A 
HETATM   11  C10 UNL     1     102.341  16.419  19.035  1.00  0.00     0.030 A 
HETATM   12  C11 UNL     1     102.963  16.590  20.268  1.00  0.00     0.015 A 
HETATM   13  C12 UNL     1     102.285  16.407  21.480  1.00  0.00    -0.019 A 
HETATM   14  C13 UNL     1     102.871  16.572  22.711  1.00  0.00     0.061 A 
HETATM   15  C15 UNL     1     101.000  16.059  21.446  1.00  0.00    -0.017 A 
HETATM   16  S2  UNL     1     101.587  16.231  23.787  1.00  0.00    -0.112 SA
HETATM   17  C14 UNL     1     100.366  15.893  22.657  1.00  0.00     0.061 A 
HETATM   18  C16 UNL     1     100.370  15.885  20.208  1.00  0.00     0.042 A 
ENDBRANCH   8  10
ENDBRANCH   5   8
ENDBRANCH   2   5
BRANCH   3  19
HETATM   19  S1  UNL     1      96.483  13.240  18.039  1.00  0.00     0.233 S 
HETATM   20  O2  UNL     1      95.711  13.959  19.117  1.00  0.00    -0.206 OA
HETATM   21  O3  UNL     1      96.809  11.839  18.414  1.00  0.00    -0.206 OA
BRANCH  19  22
HETATM   22  C2  UNL     1      95.628  13.268  16.494  1.00  0.00     0.176 C 
BRANCH  22  23
HETATM   23  C3  UNL     1      94.154  13.384  16.629  1.00  0.00     0.021 C 
HETATM   24  C5  UNL     1      93.542  12.951  15.272  1.00  0.00     0.041 C 
HETATM   25  C6  UNL     1      92.257  12.258  15.715  1.00  0.00     0.233 C 
HETATM   26  N2  UNL     1      92.702  11.577  16.890  1.00  0.00    -0.074 N 
HETATM   27  C7  UNL     1      93.595  12.418  17.623  1.00  0.00     0.245 C 
ATOM     28  H22 UNL     1      91.924  11.251  17.463  1.00  0.00     0.277 HD
ATOM     29  H21 UNL     1      93.117  10.670  16.675  1.00  0.00     0.277 HD
BRANCH  23  30
HETATM   30  C4  UNL     1      93.658  14.792  16.853  1.00  0.00     0.176 C 
BRANCH  30  31
HETATM   31  O4  UNL     1      93.181  14.947  18.147  1.00  0.00    -0.400 OA
ATOM     32  H4  UNL     1      93.043  15.865  18.348  1.00  0.00     0.209 HD
ENDBRANCH  30  31
ENDBRANCH  23  30
ENDBRANCH  22  23
ENDBRANCH  19  22
ENDBRANCH   3  19
TORSDOF 9
ENDMDL
MODEL 2
REMARK VINA RESULT: -8.233690417      1.166      1.199
REMARK  9 active torsions:
REMARK  status: ('A' for Active; 'I' for Inactive)
REMARK       I    between atoms: C1_2  and  N1_3 
REMARK    1  A    between atoms: C1_2  and  C8_19 
REMARK    2  A    between atoms: N1_3  and  S1_5 
REMARK    3  A    between atoms: S1_5  and  C2_8 
REMARK    4  A    between atoms: C2_8  and  C3_9 
REMARK    5  A    between atoms: C3_9  and  C4_10 
REMARK    6  A    between atoms: C4_10  and  O4_11 
REMARK    7  A    between atoms: C8_19  and  O5_20 
REMARK    8  A    between atoms: C8_19  and  N3_22 
REMARK    9  A    between atoms: N3_22  and  C9_24 
ROOT
HETATM    1  O1  UNL     1      97.138  15.324  17.457  1.00  0.00    -0.268 OA
HETATM    2  C1  UNL     1      97.984  14.444  17.832  1.00  0.00     0.279 C 
HETATM    3  N1  UNL     1      97.518  13.160  18.256  1.00  0.00    -0.251 N 
ATOM      4  H1  UNL     1      98.166  12.430  18.552  1.00  0.00     0.181 HD
ENDROOT
BRANCH   2   5
HETATM    5  C8  UNL     1      99.407  14.800  17.808  1.00  0.00     0.313 C 
BRANCH   5   6
HETATM    6  O5  UNL     1     100.134  13.702  18.265  1.00  0.00    -0.368 OA
ATOM      7  H5  UNL     1      99.938  12.964  17.700  1.00  0.00     0.212 HD
ENDBRANCH   5   6
BRANCH   5   8
HETATM    8  N3  UNL     1      99.789  16.033  18.392  1.00  0.00    -0.356 N 
ATOM      9  H3  UNL     1      99.408  16.888  17.988  1.00  0.00     0.162 HD
BRANCH   8  10
HETATM   10  C9  UNL     1     100.680  16.161  19.517  1.00  0.00     0.031 A 
HETATM   11  C10 UNL     1     101.994  16.421  19.399  1.00  0.00     0.030 A 
HETATM   12  C11 UNL     1     102.778  16.516  20.546  1.00  0.00     0.015 A 
HETATM   13  C12 UNL     1     102.247  16.351  21.831  1.00  0.00    -0.019 A 
HETATM   14  C13 UNL     1     102.993  16.443  22.979  1.00  0.00     0.061 A 
HETATM   15  C15 UNL     1     100.945  16.096  21.955  1.00  0.00    -0.017 A 
HETATM   16  S2  UNL     1     101.833  16.166  24.205  1.00  0.00    -0.112 SA
HETATM   17  C14 UNL     1     100.458  15.945  23.234  1.00  0.00     0.061 A 
HETATM   18  C16 UNL     1     100.153  15.997  20.806  1.00  0.00     0.042 A 
ENDBRANCH   8  10
ENDBRANCH   5   8
ENDBRANCH   2   5
BRANCH   3  19
HETATM   19  S1  UNL     1      95.791  12.896  18.247  1.00  0.00     0.233 S 
HETATM   20  O2  UNL     1      95.202  13.981  19.112  1.00  0.00    -0.206 OA
HETATM   21  O3  UNL     1      95.513  11.535  18.776  1.00  0.00    -0.206 OA
BRANCH  19  22
HETATM   22  C2  UNL     1      95.232  13.019  16.576  1.00  0.00     0.176 C 
BRANCH  22  23
HETATM   23  C3  UNL     1      93.793  13.364  16.451  1.00  0.00     0.021 C 
HETATM   24  C5  UNL     1      93.486  13.475  14.935  1.00  0.00     0.041 C 
HETATM   25  C6  UNL     1      92.061  12.936  14.864  1.00  0.00     0.233 C 
HETATM   26  N2  UNL     1      92.123  11.866  15.810  1.00  0.00    -0.074 N 
HETATM   27  C7  UNL     1      92.900  12.269  16.939  1.00  0.00     0.245 C 
ATOM     28  H22 UNL     1      91.196  11.537  16.079  1.00  0.00     0.277 HD
ATOM     29  H21 UNL     1      92.470  11.003  15.392  1.00  0.00     0.277 HD
BRANCH  23  30
HETATM   30  C4  UNL     1      93.422  14.709  17.028  1.00  0.00     0.176 C 
BRANCH  30  31
HETATM   31  O4  UNL     1      94.327  15.682  16.629  1.00  0.00    -0.400 OA
ATOM     32  H4  UNL     1      94.072  16.536  16.959  1.00  0.00     0.209 HD
ENDBRANCH  30  31
ENDBRANCH  23  30
ENDBRANCH  22  23
ENDBRANCH  19  22
ENDBRANCH   3  19
TORSDOF 9
ENDMDL
MODEL 3
REMARK VINA RESULT: -8.060182948      1.739      2.328
REMARK  9 active torsions:
REMARK  status: ('A' for Active; 'I' for Inactive)
REMARK       I    between atoms: C1_2  and  N1_3 
REMARK    1  A    between atoms: C1_2  and  C8_19 
REMARK    2  A    between atoms: N1_3  and  S1_5 
REMARK    3  A    between atoms: S1_5  and  C2_8 
REMARK    4  A    between atoms: C2_8  and  C3_9 
REMARK    5  A    between atoms: C3_9  and  C4_10 
REMARK    6  A    between atoms: C4_10  and  O4_11 
REMARK    7  A    between atoms: C8_19  and  O5_20 
REMARK    8  A    between atoms: C8_19  and  N3_22 
REMARK    9  A    between atoms: N3_22  and  C9_24 
ROOT
HETATM    1  O1  UNL     1      97.631  16.034  18.217  1.00  0.00    -0.268 OA
HETATM    2  C1  UNL     1      98.177  15.181  17.438  1.00  0.00     0.279 C 
HETATM    3  N1  UNL     1      97.357  14.426  16.542  1.00  0.00    -0.251 N 
ATOM      4  H1  UNL     1      97.761  13.745  15.899  1.00  0.00     0.181 HD
ENDROOT
BRANCH   2   5
HETATM    5  C8  UNL     1      99.633  15.019  17.505  1.00  0.00     0.313 C 
BRANCH   5   6
HETATM    6  O5  UNL     1      99.905  13.854  18.222  1.00  0.00    -0.368 OA
ATOM      7  H5  UNL     1     100.101  14.101  19.119  1.00  0.00     0.212 HD
ENDBRANCH   5   6
BRANCH   5   8
HETATM    8  N3  UNL     1     100.405  16.138  17.902  1.00  0.00    -0.356 N 
ATOM      9  H3  UNL     1     100.448  16.935  17.266  1.00  0.00     0.162 HD
BRANCH   8  10
HETATM   10  C9  UNL     1     101.133  16.229  19.142  1.00  0.00     0.031 A 
HETATM   11  C10 UNL     1     102.456  16.461  19.212  1.00  0.00     0.030 A 
HETATM   12  C11 UNL     1     103.074  16.521  20.457  1.00  0.00     0.015 A 
HETATM   13  C12 UNL     1     102.367  16.348  21.654  1.00  0.00    -0.019 A 
HETATM   14  C13 UNL     1     102.948  16.406  22.896  1.00  0.00     0.061 A 
HETATM   15  C15 UNL     1     101.056  16.120  21.591  1.00  0.00    -0.017 A 
HETATM   16  S2  UNL     1     101.623  16.137  23.944  1.00  0.00    -0.112 SA
HETATM   17  C14 UNL     1     100.393  15.961  22.788  1.00  0.00     0.061 A 
HETATM   18  C16 UNL     1     100.429  16.058  20.342  1.00  0.00     0.042 A 
ENDBRANCH   8  10
ENDBRANCH   5   8
ENDBRANCH   2   5
BRANCH   3  19
HETATM   19  S1  UNL     1      95.636  14.719  16.595  1.00  0.00     0.233 S 
HETATM   20  O2  UNL     1      95.262  15.231  15.226  1.00  0.00    -0.206 OA
HETATM   21  O3  UNL     1      95.353  15.709  17.667  1.00  0.00    -0.206 OA
BRANCH  19  22
HETATM   22  C2  UNL     1      94.835  13.188  16.960  1.00  0.00     0.176 C 
BRANCH  22  23
HETATM   23  C3  UNL     1      94.871  12.823  18.399  1.00  0.00     0.021 C 
HETATM   24  C5  UNL     1      94.232  11.416  18.523  1.00  0.00     0.041 C 
HETATM   25  C6  UNL     1      95.057  10.797  19.648  1.00  0.00     0.233 C 
HETATM   26  N2  UNL     1      96.360  11.295  19.341  1.00  0.00    -0.074 N 
HETATM   27  C7  UNL     1      96.266  12.654  18.909  1.00  0.00     0.245 C 
ATOM     28  H22 UNL     1      97.008  11.184  20.120  1.00  0.00     0.277 HD
ATOM     29  H21 UNL     1      96.846  10.709  18.662  1.00  0.00     0.277 HD
BRANCH  23  30
HETATM   30  C4  UNL     1      94.037  13.714  19.289  1.00  0.00     0.176 C 
BRANCH  30  31
HETATM   31  O4  UNL     1      92.939  14.209  18.600  1.00  0.00    -0.400 OA
ATOM     32  H4  UNL     1      92.651  15.034  18.973  1.00  0.00     0.209 HD
ENDBRANCH  30  31
ENDBRANCH  23  30
ENDBRANCH  22  23
ENDBRANCH  19  22
ENDBRANCH   3  19
TORSDOF 9
ENDMDL
MODEL 4
REMARK VINA RESULT: -7.946078296      2.138      3.071
REMARK  9 active torsions:
REMARK  status: ('A' for Active; 'I' for Inactive)
REMARK       I    between atoms: C1_2  and  N1_3 
REMARK    1  A    between atoms: C1_2  and  C8_19 
REMARK    2  A    between atoms: N1_3  and  S1_5 
REMARK    3  A    between atoms: S1_5  and  C2_8 
REMARK    4  A    between atoms: C2_8  and  C3_9 
REMARK    5  A    between atoms: C3_9  and  C4_10 
REMARK    6  A    between atoms: C4_10  and  O4_11 
REMARK    7  A    between atoms: C8_19  and  O5_20 
REMARK    8  A    between atoms: C8_19  and  N3_22 
REMARK    9  A    between atoms: N3_22  and  C9_24 
ROOT
HETATM    1  O1  UNL     1      97.178  16.679  15.700  1.00  0.00    -0.268 OA
HETATM    2  C1  UNL     1      97.899  15.625  15.759  1.00  0.00     0.279 C 
HETATM    3  N1  UNL     1      97.292  14.381  16.120  1.00  0.00    -0.251 N 
ATOM      4  H1  UNL     1      97.835  13.519  16.166  1.00  0.00     0.181 HD
ENDROOT
BRANCH   2   5
HETATM    5  C8  UNL     1      99.327  15.748  15.448  1.00  0.00     0.313 C 
BRANCH   5   6
HETATM    6  O5  UNL     1      99.836  14.465  15.248  1.00  0.00    -0.368 OA
ATOM      7  H5  UNL     1     100.358  14.236  16.008  1.00  0.00     0.212 HD
ENDBRANCH   5   6
BRANCH   5   8
HETATM    8  N3  UNL     1     100.120  16.562  16.293  1.00  0.00    -0.356 N 
ATOM      9  H3  UNL     1     100.607  17.353  15.871  1.00  0.00     0.162 HD
BRANCH   8  10
HETATM   10  C9  UNL     1     100.284  16.351  17.709  1.00  0.00     0.031 A 
HETATM   11  C10 UNL     1      99.285  15.967  18.524  1.00  0.00     0.030 A 
HETATM   12  C11 UNL     1      99.538  15.799  19.882  1.00  0.00     0.015 A 
HETATM   13  C12 UNL     1     100.804  16.017  20.441  1.00  0.00    -0.019 A 
HETATM   14  C13 UNL     1     101.084  15.856  21.775  1.00  0.00     0.061 A 
HETATM   15  C15 UNL     1     101.797  16.396  19.639  1.00  0.00    -0.017 A 
HETATM   16  S2  UNL     1     102.747  16.245  21.860  1.00  0.00    -0.112 SA
HETATM   17  C14 UNL     1     103.029  16.596  20.223  1.00  0.00     0.061 A 
HETATM   18  C16 UNL     1     101.549  16.568  18.273  1.00  0.00     0.042 A 
ENDBRANCH   8  10
ENDBRANCH   5   8
ENDBRANCH   2   5
BRANCH   3  19
HETATM   19  S1  UNL     1      95.583  14.402  16.481  1.00  0.00     0.233 S 
HETATM   20  O2  UNL     1      94.887  14.650  15.166  1.00  0.00    -0.206 OA
HETATM   21  O3  UNL     1      95.317  15.474  17.475  1.00  0.00    -0.206 OA
BRANCH  19  22
HETATM   22  C2  UNL     1      95.153  12.829  17.161  1.00  0.00     0.176 C 
BRANCH  22  23
HETATM   23  C3  UNL     1      95.400  12.722  18.621  1.00  0.00     0.021 C 
HETATM   24  C5  UNL     1      95.331  11.215  18.979  1.00  0.00     0.041 C 
HETATM   25  C6  UNL     1      96.387  11.106  20.075  1.00  0.00     0.233 C 
HETATM   26  N2  UNL     1      97.397  11.983  19.574  1.00  0.00    -0.074 N 
HETATM   27  C7  UNL     1      96.786  13.138  18.996  1.00  0.00     0.245 C 
ATOM     28  H22 UNL     1      98.083  12.228  20.288  1.00  0.00     0.277 HD
ATOM     29  H21 UNL     1      98.026  11.513  18.922  1.00  0.00     0.277 HD
BRANCH  23  30
HETATM   30  C4  UNL     1      94.349  13.380  19.482  1.00  0.00     0.176 C 
BRANCH  30  31
HETATM   31  O4  UNL     1      93.077  13.101  19.005  1.00  0.00    -0.400 OA
ATOM     32  H4  UNL     1      92.483  12.904  19.720  1.00  0.00     0.209 HD
ENDBRANCH  30  31
ENDBRANCH  23  30
ENDBRANCH  22  23
ENDBRANCH  19  22
ENDBRANCH   3  19
TORSDOF 9
ENDMDL
MODEL 5
REMARK VINA RESULT: -7.906576486      2.041      2.578
REMARK  9 active torsions:
REMARK  status: ('A' for Active; 'I' for Inactive)
REMARK       I    between atoms: C1_2  and  N1_3 
REMARK    1  A    between atoms: C1_2  and  C8_19 
REMARK    2  A    between atoms: N1_3  and  S1_5 
REMARK    3  A    between atoms: S1_5  and  C2_8 
REMARK    4  A    between atoms: C2_8  and  C3_9 
REMARK    5  A    between atoms: C3_9  and  C4_10 
REMARK    6  A    between atoms: C4_10  and  O4_11 
REMARK    7  A    between atoms: C8_19  and  O5_20 
REMARK    8  A    between atoms: C8_19  and  N3_22 
REMARK    9  A    between atoms: N3_22  and  C9_24 
ROOT
HETATM    1  O1  UNL     1      97.529  17.310  16.511  1.00  0.00    -0.268 OA
HETATM    2  C1  UNL     1      98.357  16.396  16.844  1.00  0.00     0.279 C 
HETATM    3  N1  UNL     1      97.898  15.047  16.969  1.00  0.00    -0.251 N 
ATOM      4  H1  UNL     1      98.534  14.291  17.222  1.00  0.00     0.181 HD
ENDROOT
BRANCH   2   5
HETATM    5  C8  UNL     1      99.753  16.782  17.082  1.00  0.00     0.313 C 
BRANCH   5   6
HETATM    6  O5  UNL     1     100.268  17.292  15.891  1.00  0.00    -0.368 OA
ATOM      7  H5  UNL     1     100.884  16.658  15.543  1.00  0.00     0.212 HD
ENDBRANCH   5   6
BRANCH   5   8
HETATM    8  N3  UNL     1     100.596  15.845  17.726  1.00  0.00    -0.356 N 
ATOM      9  H3  UNL     1     100.765  14.956  17.256  1.00  0.00     0.162 HD
BRANCH   8  10
HETATM   10  C9  UNL     1     101.234  16.061  19.000  1.00  0.00     0.031 A 
HETATM   11  C10 UNL     1     102.526  16.408  19.135  1.00  0.00     0.030 A 
HETATM   12  C11 UNL     1     103.057  16.583  20.410  1.00  0.00     0.015 A 
HETATM   13  C12 UNL     1     102.291  16.413  21.570  1.00  0.00    -0.019 A 
HETATM   14  C13 UNL     1     102.785  16.583  22.839  1.00  0.00     0.061 A 
HETATM   15  C15 UNL     1     101.010  16.071  21.443  1.00  0.00    -0.017 A 
HETATM   16  S2  UNL     1     101.423  16.256  23.821  1.00  0.00    -0.112 SA
HETATM   17  C14 UNL     1     100.287  15.917  22.605  1.00  0.00     0.061 A 
HETATM   18  C16 UNL     1     100.471  15.891  20.164  1.00  0.00     0.042 A 
ENDBRANCH   8  10
ENDBRANCH   5   8
ENDBRANCH   2   5
BRANCH   3  19
HETATM   19  S1  UNL     1      96.203  14.750  16.671  1.00  0.00     0.233 S 
HETATM   20  O2  UNL     1      95.989  15.017  15.202  1.00  0.00    -0.206 OA
HETATM   21  O3  UNL     1      95.400  15.655  17.535  1.00  0.00    -0.206 OA
BRANCH  19  22
HETATM   22  C2  UNL     1      95.866  13.066  17.085  1.00  0.00     0.176 C 
BRANCH  22  23
HETATM   23  C3  UNL     1      95.762  12.819  18.545  1.00  0.00     0.021 C 
HETATM   24  C5  UNL     1      95.672  11.283  18.736  1.00  0.00     0.041 C 
HETATM   25  C6  UNL     1      96.439  11.085  20.040  1.00  0.00     0.233 C 
HETATM   26  N2  UNL     1      97.503  12.026  19.880  1.00  0.00    -0.074 N 
HETATM   27  C7  UNL     1      97.000  13.221  19.280  1.00  0.00     0.245 C 
ATOM     28  H22 UNL     1      97.987  12.211  20.758  1.00  0.00     0.277 HD
ATOM     29  H21 UNL     1      98.287  11.634  19.359  1.00  0.00     0.277 HD
BRANCH  23  30
HETATM   30  C4  UNL     1      94.509  13.369  19.183  1.00  0.00     0.176 C 
BRANCH  30  31
HETATM   31  O4  UNL     1      93.398  12.632  18.802  1.00  0.00    -0.400 OA
ATOM     32  H4  UNL     1      93.594  12.091  18.046  1.00  0.00     0.209 HD
ENDBRANCH  30  31
ENDBRANCH  23  30
ENDBRANCH  22  23
ENDBRANCH  19  22
ENDBRANCH   3  19
TORSDOF 9
ENDMDL
