MODEL 1
REMARK VINA RESULT: -6.966025586      0.000      0.000
REMARK  9 active torsions:
REMARK  status: ('A' for Active; 'I' for Inactive)
REMARK       I    between atoms: C1_4  and  N3_6 
REMARK       I    between atoms: N4_9  and  C4_10 
REMARK    1  A    between atoms: N6_12  and  C5_14 
REMARK    2  A    between atoms: C5_14  and  C6_15 
REMARK    3  A    between atoms: C6_15  and  C7_16 
REMARK    4  A    between atoms: C7_16  and  C8_17 
REMARK    5  A    between atoms: C8_17  and  C9_18 
REMARK    6  A    between atoms: C9_18  and  S1_19 
REMARK    7  A    between atoms: S1_19  and  C10_20 
REMARK    8  A    between atoms: C10_20  and  C11_21 
REMARK    9  A    between atoms: C11_21  and  N7_22 
ROOT
HETATM    1  N1  UNL     1      -9.732  38.146  35.344  1.00  0.00    -0.374 N 
ATOM      2  H11 UNL     1      -9.052  38.691  35.875  1.00  0.00     0.158 HD
ATOM      3  H12 UNL     1      -9.414  37.710  34.478  1.00  0.00     0.158 HD
HETATM    4  C1  UNL     1     -10.950  38.000  35.727  1.00  0.00     0.184 C 
HETATM    5  N2  UNL     1     -11.894  37.245  34.991  1.00  0.00    -0.064 NA
HETATM    6  N3  UNL     1     -11.394  38.610  36.937  1.00  0.00    -0.353 N 
HETATM    7  C2  UNL     1     -11.234  37.855  38.150  1.00  0.00     0.145 C 
HETATM    8  C3  UNL     1     -11.789  38.511  39.367  1.00  0.00     0.145 C 
HETATM    9  N4  UNL     1     -12.846  39.455  39.111  1.00  0.00    -0.353 N 
HETATM   10  C4  UNL     1     -13.614  39.898  40.221  1.00  0.00     0.186 C 
HETATM   11  N5  UNL     1     -14.945  39.491  40.430  1.00  0.00    -0.064 NA
HETATM   12  N6  UNL     1     -13.052  40.698  41.053  1.00  0.00    -0.365 N 
ATOM     13  H6  UNL     1     -12.088  40.994  40.904  1.00  0.00     0.162 HD
HETATM   14  C12 UNL     1     -13.178  39.981  37.809  1.00  0.00     0.145 C 
HETATM   15  C13 UNL     1     -11.970  39.919  36.902  1.00  0.00     0.145 C 
ENDROOT
BRANCH  12  16
HETATM   16  C5  UNL     1     -13.780  41.173  42.187  1.00  0.00     0.122 C 
BRANCH  16  17
HETATM   17  C6  UNL     1     -13.023  42.247  42.969  1.00  0.00     0.020 C 
BRANCH  17  18
HETATM   18  C7  UNL     1     -13.485  42.127  44.404  1.00  0.00     0.002 C 
BRANCH  18  19
HETATM   19  C8  UNL     1     -12.465  41.480  45.292  1.00  0.00     0.010 C 
BRANCH  19  20
HETATM   20  C9  UNL     1     -13.086  40.189  45.812  1.00  0.00     0.074 C 
BRANCH  20  21
HETATM   21  S1  UNL     1     -12.572  38.875  44.659  1.00  0.00    -0.167 SA
BRANCH  21  22
HETATM   22  C10 UNL     1     -10.919  39.324  44.040  1.00  0.00     0.101 C 
BRANCH  22  23
HETATM   23  C11 UNL     1     -10.636  38.422  42.856  1.00  0.00     0.239 C 
BRANCH  23  24
HETATM   24  N7  UNL     1     -10.749  37.020  43.201  1.00  0.00    -0.079 N 
ATOM     25  H73 UNL     1     -10.100  36.769  43.947  1.00  0.00     0.274 HD
ATOM     26  H72 UNL     1     -11.628  36.827  43.682  1.00  0.00     0.274 HD
ATOM     27  H71 UNL     1     -10.631  36.414  42.389  1.00  0.00     0.274 HD
ENDBRANCH  23  24
ENDBRANCH  22  23
ENDBRANCH  21  22
ENDBRANCH  20  21
ENDBRANCH  19  20
ENDBRANCH  18  19
ENDBRANCH  17  18
ENDBRANCH  16  17
ENDBRANCH  12  16
TORSDOF 9
ENDMDL
MODEL 2
REMARK VINA RESULT: -6.940009474      3.138      4.273
REMARK  9 active torsions:
REMARK  status: ('A' for Active; 'I' for Inactive)
REMARK       I    between atoms: C1_4  and  N3_6 
REMARK       I    between atoms: N4_9  and  C4_10 
REMARK    1  A    between atoms: N6_12  and  C5_14 
REMARK    2  A    between atoms: C5_14  and  C6_15 
REMARK    3  A    between atoms: C6_15  and  C7_16 
REMARK    4  A    between atoms: C7_16  and  C8_17 
REMARK    5  A    between atoms: C8_17  and  C9_18 
REMARK    6  A    between atoms: C9_18  and  S1_19 
REMARK    7  A    between atoms: S1_19  and  C10_20 
REMARK    8  A    between atoms: C10_20  and  C11_21 
REMARK    9  A    between atoms: C11_21  and  N7_22 
ROOT
HETATM    1  N1  UNL     1      -9.734  38.107  35.352  1.00  0.00    -0.374 N 
ATOM      2  H11 UNL     1      -9.058  38.662  35.876  1.00  0.00     0.158 HD
ATOM      3  H12 UNL     1      -9.419  37.678  34.481  1.00  0.00     0.158 HD
HETATM    4  C1  UNL     1     -10.946  37.939  35.748  1.00  0.00     0.184 C 
HETATM    5  N2  UNL     1     -11.884  37.169  35.021  1.00  0.00    -0.064 NA
HETATM    6  N3  UNL     1     -11.387  38.538  36.964  1.00  0.00    -0.353 N 
HETATM    7  C2  UNL     1     -11.200  37.784  38.173  1.00  0.00     0.145 C 
HETATM    8  C3  UNL     1     -11.753  38.427  39.398  1.00  0.00     0.145 C 
HETATM    9  N4  UNL     1     -12.829  39.353  39.156  1.00  0.00    -0.353 N 
HETATM   10  C4  UNL     1     -13.592  39.781  40.276  1.00  0.00     0.186 C 
HETATM   11  N5  UNL     1     -14.914  39.350  40.498  1.00  0.00    -0.064 NA
HETATM   12  N6  UNL     1     -13.035  40.588  41.103  1.00  0.00    -0.365 N 
ATOM     13  H6  UNL     1     -12.077  40.902  40.944  1.00  0.00     0.162 HD
HETATM   14  C12 UNL     1     -13.185  39.876  37.859  1.00  0.00     0.145 C 
HETATM   15  C13 UNL     1     -11.986  39.837  36.939  1.00  0.00     0.145 C 
ENDROOT
BRANCH  12  16
HETATM   16  C5  UNL     1     -13.758  41.048  42.246  1.00  0.00     0.122 C 
BRANCH  16  17
HETATM   17  C6  UNL     1     -12.845  41.401  43.421  1.00  0.00     0.020 C 
BRANCH  17  18
HETATM   18  C7  UNL     1     -13.461  42.614  44.083  1.00  0.00     0.002 C 
BRANCH  18  19
HETATM   19  C8  UNL     1     -13.248  42.639  45.566  1.00  0.00     0.010 C 
BRANCH  19  20
HETATM   20  C9  UNL     1     -13.890  43.920  46.086  1.00  0.00     0.074 C 
BRANCH  20  21
HETATM   21  S1  UNL     1     -15.669  43.565  46.259  1.00  0.00    -0.167 SA
BRANCH  21  22
HETATM   22  C10 UNL     1     -16.145  44.036  47.952  1.00  0.00     0.101 C 
BRANCH  22  23
HETATM   23  C11 UNL     1     -17.119  45.191  47.827  1.00  0.00     0.239 C 
BRANCH  23  24
HETATM   24  N7  UNL     1     -16.896  46.202  48.839  1.00  0.00    -0.079 N 
ATOM     25  H73 UNL     1     -16.282  45.857  49.577  1.00  0.00     0.274 HD
ATOM     26  H72 UNL     1     -16.311  46.958  48.484  1.00  0.00     0.274 HD
ATOM     27  H71 UNL     1     -17.771  46.560  49.222  1.00  0.00     0.274 HD
ENDBRANCH  23  24
ENDBRANCH  22  23
ENDBRANCH  21  22
ENDBRANCH  20  21
ENDBRANCH  19  20
ENDBRANCH  18  19
ENDBRANCH  17  18
ENDBRANCH  16  17
ENDBRANCH  12  16
TORSDOF 9
ENDMDL
MODEL 3
REMARK VINA RESULT: -6.930163500      3.303      8.149
REMARK  9 active torsions:
REMARK  status: ('A' for Active; 'I' for Inactive)
REMARK       I    between atoms: C1_4  and  N3_6 
REMARK       I    between atoms: N4_9  and  C4_10 
REMARK    1  A    between atoms: N6_12  and  C5_14 
REMARK    2  A    between atoms: C5_14  and  C6_15 
REMARK    3  A    between atoms: C6_15  and  C7_16 
REMARK    4  A    between atoms: C7_16  and  C8_17 
REMARK    5  A    between atoms: C8_17  and  C9_18 
REMARK    6  A    between atoms: C9_18  and  S1_19 
REMARK    7  A    between atoms: S1_19  and  C10_20 
REMARK    8  A    between atoms: C10_20  and  C11_21 
REMARK    9  A    between atoms: C11_21  and  N7_22 
ROOT
HETATM    1  N1  UNL     1     -12.390  42.380  46.318  1.00  0.00    -0.374 N 
ATOM      2  H11 UNL     1     -11.787  42.959  45.734  1.00  0.00     0.158 HD
ATOM      3  H12 UNL     1     -12.505  42.654  47.294  1.00  0.00     0.158 HD
HETATM    4  C1  UNL     1     -12.994  41.338  45.868  1.00  0.00     0.184 C 
HETATM    5  N2  UNL     1     -13.830  40.534  46.677  1.00  0.00    -0.064 NA
HETATM    6  N3  UNL     1     -12.833  40.955  44.504  1.00  0.00    -0.353 N 
HETATM    7  C2  UNL     1     -13.742  41.529  43.549  1.00  0.00     0.145 C 
HETATM    8  C3  UNL     1     -13.575  41.030  42.155  1.00  0.00     0.145 C 
HETATM    9  N4  UNL     1     -12.982  39.722  42.054  1.00  0.00    -0.353 N 
HETATM   10  C4  UNL     1     -13.056  39.063  40.796  1.00  0.00     0.186 C 
HETATM   11  N5  UNL     1     -13.898  37.958  40.571  1.00  0.00    -0.064 NA
HETATM   12  N6  UNL     1     -12.320  39.511  39.846  1.00  0.00    -0.365 N 
ATOM     13  H6  UNL     1     -11.708  40.312  40.007  1.00  0.00     0.162 HD
HETATM   14  C12 UNL     1     -12.319  39.035  43.136  1.00  0.00     0.145 C 
HETATM   15  C13 UNL     1     -11.798  40.036  44.142  1.00  0.00     0.145 C 
ENDROOT
BRANCH  12  16
HETATM   16  C5  UNL     1     -12.357  38.886  38.561  1.00  0.00     0.122 C 
BRANCH  16  17
HETATM   17  C6  UNL     1     -11.190  37.923  38.338  1.00  0.00     0.020 C 
BRANCH  17  18
HETATM   18  C7  UNL     1     -11.808  36.586  37.992  1.00  0.00     0.002 C 
BRANCH  18  19
HETATM   19  C8  UNL     1     -12.236  36.496  36.558  1.00  0.00     0.010 C 
BRANCH  19  20
HETATM   20  C9  UNL     1     -11.010  36.080  35.754  1.00  0.00     0.074 C 
BRANCH  20  21
HETATM   21  S1  UNL     1     -10.823  37.319  34.432  1.00  0.00    -0.167 SA
BRANCH  21  22
HETATM   22  C10 UNL     1      -9.662  38.582  35.043  1.00  0.00     0.101 C 
BRANCH  22  23
HETATM   23  C11 UNL     1      -9.398  39.527  33.888  1.00  0.00     0.239 C 
BRANCH  23  24
HETATM   24  N7  UNL     1      -8.132  39.252  33.240  1.00  0.00    -0.079 N 
ATOM     25  H73 UNL     1      -7.485  40.033  33.347  1.00  0.00     0.274 HD
ATOM     26  H72 UNL     1      -7.606  38.537  33.743  1.00  0.00     0.274 HD
ATOM     27  H71 UNL     1      -8.252  39.002  32.258  1.00  0.00     0.274 HD
ENDBRANCH  23  24
ENDBRANCH  22  23
ENDBRANCH  21  22
ENDBRANCH  20  21
ENDBRANCH  19  20
ENDBRANCH  18  19
ENDBRANCH  17  18
ENDBRANCH  16  17
ENDBRANCH  12  16
TORSDOF 9
ENDMDL
MODEL 4
REMARK VINA RESULT: -6.905957340      3.473      4.657
REMARK  9 active torsions:
REMARK  status: ('A' for Active; 'I' for Inactive)
REMARK       I    between atoms: C1_4  and  N3_6 
REMARK       I    between atoms: N4_9  and  C4_10 
REMARK    1  A    between atoms: N6_12  and  C5_14 
REMARK    2  A    between atoms: C5_14  and  C6_15 
REMARK    3  A    between atoms: C6_15  and  C7_16 
REMARK    4  A    between atoms: C7_16  and  C8_17 
REMARK    5  A    between atoms: C8_17  and  C9_18 
REMARK    6  A    between atoms: C9_18  and  S1_19 
REMARK    7  A    between atoms: S1_19  and  C10_20 
REMARK    8  A    between atoms: C10_20  and  C11_21 
REMARK    9  A    between atoms: C11_21  and  N7_22 
ROOT
HETATM    1  N1  UNL     1     -11.278  35.666  37.261  1.00  0.00    -0.374 N 
ATOM      2  H11 UNL     1     -10.619  35.489  38.020  1.00  0.00     0.158 HD
ATOM      3  H12 UNL     1     -11.200  35.089  36.424  1.00  0.00     0.158 HD
HETATM    4  C1  UNL     1     -12.181  36.579  37.330  1.00  0.00     0.184 C 
HETATM    5  N2  UNL     1     -13.094  36.826  36.278  1.00  0.00    -0.064 NA
HETATM    6  N3  UNL     1     -12.289  37.387  38.500  1.00  0.00    -0.353 N 
HETATM    7  C2  UNL     1     -13.125  36.896  39.561  1.00  0.00     0.145 C 
HETATM    8  C3  UNL     1     -13.262  37.820  40.722  1.00  0.00     0.145 C 
HETATM    9  N4  UNL     1     -13.046  39.210  40.411  1.00  0.00    -0.353 N 
HETATM   10  C4  UNL     1     -13.439  40.169  41.383  1.00  0.00     0.186 C 
HETATM   11  N5  UNL     1     -14.560  41.003  41.212  1.00  0.00    -0.064 NA
HETATM   12  N6  UNL     1     -12.731  40.260  42.449  1.00  0.00    -0.365 N 
ATOM     13  H6  UNL     1     -11.918  39.657  42.575  1.00  0.00     0.162 HD
HETATM   14  C12 UNL     1     -12.460  39.694  39.185  1.00  0.00     0.145 C 
HETATM   15  C13 UNL     1     -11.580  38.627  38.574  1.00  0.00     0.145 C 
ENDROOT
BRANCH  12  16
HETATM   16  C5  UNL     1     -13.083  41.208  43.459  1.00  0.00     0.122 C 
BRANCH  16  17
HETATM   17  C6  UNL     1     -12.520  40.844  44.834  1.00  0.00     0.020 C 
BRANCH  17  18
HETATM   18  C7  UNL     1     -12.791  42.034  45.728  1.00  0.00     0.002 C 
BRANCH  18  19
HETATM   19  C8  UNL     1     -13.646  43.074  45.069  1.00  0.00     0.010 C 
BRANCH  19  20
HETATM   20  C9  UNL     1     -14.199  43.962  46.178  1.00  0.00     0.074 C 
BRANCH  20  21
HETATM   21  S1  UNL     1     -15.980  43.595  46.284  1.00  0.00    -0.167 SA
BRANCH  21  22
HETATM   22  C10 UNL     1     -16.492  43.926  48.000  1.00  0.00     0.101 C 
BRANCH  22  23
HETATM   23  C11 UNL     1     -17.223  45.254  47.989  1.00  0.00     0.239 C 
BRANCH  23  24
HETATM   24  N7  UNL     1     -16.661  46.192  48.938  1.00  0.00    -0.079 N 
ATOM     25  H73 UNL     1     -17.378  46.812  49.314  1.00  0.00     0.274 HD
ATOM     26  H72 UNL     1     -16.383  45.725  49.801  1.00  0.00     0.274 HD
ATOM     27  H71 UNL     1     -15.886  46.722  48.538  1.00  0.00     0.274 HD
ENDBRANCH  23  24
ENDBRANCH  22  23
ENDBRANCH  21  22
ENDBRANCH  20  21
ENDBRANCH  19  20
ENDBRANCH  18  19
ENDBRANCH  17  18
ENDBRANCH  16  17
ENDBRANCH  12  16
TORSDOF 9
ENDMDL
MODEL 5
REMARK VINA RESULT: -6.858033774      4.387      5.976
REMARK  9 active torsions:
REMARK  status: ('A' for Active; 'I' for Inactive)
REMARK       I    between atoms: C1_4  and  N3_6 
REMARK       I    between atoms: N4_9  and  C4_10 
REMARK    1  A    between atoms: N6_12  and  C5_14 
REMARK    2  A    between atoms: C5_14  and  C6_15 
REMARK    3  A    between atoms: C6_15  and  C7_16 
REMARK    4  A    between atoms: C7_16  and  C8_17 
REMARK    5  A    between atoms: C8_17  and  C9_18 
REMARK    6  A    between atoms: C9_18  and  S1_19 
REMARK    7  A    between atoms: S1_19  and  C10_20 
REMARK    8  A    between atoms: C10_20  and  C11_21 
REMARK    9  A    between atoms: C11_21  and  N7_22 
ROOT
HETATM    1  N1  UNL     1     -11.342  38.001  38.197  1.00  0.00    -0.374 N 
ATOM      2  H11 UNL     1     -10.748  38.829  38.238  1.00  0.00     0.158 HD
ATOM      3  H12 UNL     1     -11.345  37.464  37.330  1.00  0.00     0.158 HD
HETATM    4  C1  UNL     1     -12.073  37.625  39.187  1.00  0.00     0.184 C 
HETATM    5  N2  UNL     1     -12.898  36.478  39.131  1.00  0.00    -0.064 NA
HETATM    6  N3  UNL     1     -12.069  38.375  40.399  1.00  0.00    -0.353 N 
HETATM    7  C2  UNL     1     -11.080  38.029  41.382  1.00  0.00     0.145 C 
HETATM    8  C3  UNL     1     -11.178  38.793  42.658  1.00  0.00     0.145 C 
HETATM    9  N4  UNL     1     -12.490  39.310  42.948  1.00  0.00    -0.353 N 
HETATM   10  C4  UNL     1     -12.731  39.791  44.264  1.00  0.00     0.186 C 
HETATM   11  N5  UNL     1     -13.539  39.097  45.185  1.00  0.00    -0.064 NA
HETATM   12  N6  UNL     1     -12.180  40.898  44.603  1.00  0.00    -0.365 N 
ATOM     13  H6  UNL     1     -11.594  41.402  43.937  1.00  0.00     0.162 HD
HETATM   14  C12 UNL     1     -13.575  39.374  41.999  1.00  0.00     0.145 C 
HETATM   15  C13 UNL     1     -13.028  39.420  40.590  1.00  0.00     0.145 C 
ENDROOT
BRANCH  12  16
HETATM   16  C5  UNL     1     -12.389  41.425  45.914  1.00  0.00     0.122 C 
BRANCH  16  17
HETATM   17  C6  UNL     1     -12.992  42.831  45.899  1.00  0.00     0.020 C 
BRANCH  17  18
HETATM   18  C7  UNL     1     -14.492  42.645  45.952  1.00  0.00     0.002 C 
BRANCH  18  19
HETATM   19  C8  UNL     1     -15.225  43.915  46.266  1.00  0.00     0.010 C 
BRANCH  19  20
HETATM   20  C9  UNL     1     -16.346  43.553  47.234  1.00  0.00     0.074 C 
BRANCH  20  21
HETATM   21  S1  UNL     1     -17.486  44.973  47.246  1.00  0.00    -0.167 SA
BRANCH  21  22
HETATM   22  C10 UNL     1     -18.902  44.512  48.294  1.00  0.00     0.101 C 
BRANCH  22  23
HETATM   23  C11 UNL     1     -18.860  45.416  49.509  1.00  0.00     0.239 C 
BRANCH  23  24
HETATM   24  N7  UNL     1     -17.583  45.355  50.188  1.00  0.00    -0.079 N 
ATOM     25  H73 UNL     1     -17.278  46.281  50.486  1.00  0.00     0.274 HD
ATOM     26  H72 UNL     1     -17.671  44.912  51.103  1.00  0.00     0.274 HD
ATOM     27  H71 UNL     1     -16.870  44.895  49.622  1.00  0.00     0.274 HD
ENDBRANCH  23  24
ENDBRANCH  22  23
ENDBRANCH  21  22
ENDBRANCH  20  21
ENDBRANCH  19  20
ENDBRANCH  18  19
ENDBRANCH  17  18
ENDBRANCH  16  17
ENDBRANCH  12  16
TORSDOF 9
ENDMDL
