MODEL 1
REMARK VINA RESULT: -6.966439823      0.000      0.000
REMARK  9 active torsions:
REMARK  status: ('A' for Active; 'I' for Inactive)
REMARK    1  A    between atoms: C2_2  and  N1_3 
REMARK    2  A    between atoms: C4_6  and  N2_7 
REMARK    3  A    between atoms: N2_7  and  C5_9 
REMARK    4  A    between atoms: C5_9  and  C6_10 
REMARK    5  A    between atoms: C6_10  and  C7_11 
REMARK    6  A    between atoms: C7_11  and  C8_12 
REMARK    7  A    between atoms: C8_12  and  C9_13 
REMARK    8  A    between atoms: C9_13  and  N3_14 
REMARK    9  A    between atoms: N3_14  and  C10_16 
ROOT
HETATM    1  N2  UNL     1     -11.851  39.838  44.819  1.00  0.00    -0.408 N 
ATOM      2  H2  UNL     1     -10.986  40.330  45.041  1.00  0.00     0.154 HD
ENDROOT
BRANCH   1   3
HETATM    3  C4  UNL     1     -12.049  39.217  43.562  1.00  0.00     0.188 C 
HETATM    4  C3  UNL     1     -12.522  40.083  42.465  1.00  0.00     0.250 C 
HETATM    5  N1  UNL     1     -12.638  39.514  41.165  1.00  0.00    -0.293 N 
HETATM    6  O1  UNL     1     -12.822  41.290  42.634  1.00  0.00    -0.271 OA
HETATM    7  C12 UNL     1     -11.990  38.242  40.934  1.00  0.00     0.176 C 
HETATM    8  N5  UNL     1     -11.272  37.616  41.992  1.00  0.00    -0.364 N 
HETATM    9  S2  UNL     1     -12.129  37.597  39.447  1.00  0.00    -0.041 SA
HETATM   10  C11 UNL     1     -10.826  38.488  43.052  1.00  0.00     0.156 C 
ATOM     11  H5  UNL     1     -11.084  36.614  42.000  1.00  0.00     0.162 HD
BRANCH   5  12
HETATM   12  C2  UNL     1     -13.370  40.154  40.099  1.00  0.00     0.130 C 
HETATM   13  C1  UNL     1     -14.866  40.046  40.281  1.00  0.00     0.027 C 
ENDBRANCH   5  12
ENDBRANCH   1   3
BRANCH   1  14
HETATM   14  C5  UNL     1     -12.910  39.746  45.753  1.00  0.00     0.114 C 
BRANCH  14  15
HETATM   15  C6  UNL     1     -13.599  41.064  46.032  1.00  0.00     0.019 C 
BRANCH  15  16
HETATM   16  C7  UNL     1     -12.672  42.222  46.068  1.00  0.00     0.003 C 
BRANCH  16  17
HETATM   17  C8  UNL     1     -13.414  43.525  45.833  1.00  0.00     0.020 C 
BRANCH  17  18
HETATM   18  C9  UNL     1     -14.883  43.347  46.068  1.00  0.00     0.121 C 
BRANCH  18  19
HETATM   19  N3  UNL     1     -15.315  44.188  47.149  1.00  0.00    -0.369 N 
ATOM     20  H3  UNL     1     -14.614  44.615  47.755  1.00  0.00     0.161 HD
BRANCH  19  21
HETATM   21  C10 UNL     1     -16.672  44.441  47.397  1.00  0.00     0.180 C 
HETATM   22  N4  UNL     1     -17.183  45.736  47.102  1.00  0.00    -0.070 NA
HETATM   23  S1  UNL     1     -17.653  43.334  48.034  1.00  0.00    -0.044 SA
ENDBRANCH  19  21
ENDBRANCH  18  19
ENDBRANCH  17  18
ENDBRANCH  16  17
ENDBRANCH  15  16
ENDBRANCH  14  15
ENDBRANCH   1  14
TORSDOF 9
ENDMDL
MODEL 2
REMARK VINA RESULT: -6.937266844      1.164      1.248
REMARK  9 active torsions:
REMARK  status: ('A' for Active; 'I' for Inactive)
REMARK    1  A    between atoms: C2_2  and  N1_3 
REMARK    2  A    between atoms: C4_6  and  N2_7 
REMARK    3  A    between atoms: N2_7  and  C5_9 
REMARK    4  A    between atoms: C5_9  and  C6_10 
REMARK    5  A    between atoms: C6_10  and  C7_11 
REMARK    6  A    between atoms: C7_11  and  C8_12 
REMARK    7  A    between atoms: C8_12  and  C9_13 
REMARK    8  A    between atoms: C9_13  and  N3_14 
REMARK    9  A    between atoms: N3_14  and  C10_16 
ROOT
HETATM    1  N2  UNL     1     -11.664  40.020  43.311  1.00  0.00    -0.408 N 
ATOM      2  H2  UNL     1     -10.801  40.523  43.108  1.00  0.00     0.154 HD
ENDROOT
BRANCH   1   3
HETATM    3  C4  UNL     1     -12.262  39.160  42.357  1.00  0.00     0.188 C 
HETATM    4  C3  UNL     1     -13.037  39.806  41.281  1.00  0.00     0.250 C 
HETATM    5  N1  UNL     1     -13.569  38.980  40.251  1.00  0.00    -0.293 N 
HETATM    6  O1  UNL     1     -13.242  41.044  41.240  1.00  0.00    -0.271 OA
HETATM    7  C12 UNL     1     -13.056  37.632  40.145  1.00  0.00     0.176 C 
HETATM    8  N5  UNL     1     -12.055  37.187  41.054  1.00  0.00    -0.364 N 
HETATM    9  S2  UNL     1     -13.671  36.694  38.966  1.00  0.00    -0.041 SA
HETATM   10  C11 UNL     1     -11.279  38.224  41.691  1.00  0.00     0.156 C 
ATOM     11  H5  UNL     1     -11.896  36.198  41.243  1.00  0.00     0.162 HD
BRANCH   5  12
HETATM   12  C2  UNL     1     -14.586  39.439  39.335  1.00  0.00     0.130 C 
HETATM   13  C1  UNL     1     -14.007  40.200  38.165  1.00  0.00     0.027 C 
ENDBRANCH   5  12
ENDBRANCH   1   3
BRANCH   1  14
HETATM   14  C5  UNL     1     -12.320  40.147  44.558  1.00  0.00     0.114 C 
BRANCH  14  15
HETATM   15  C6  UNL     1     -13.083  41.444  44.721  1.00  0.00     0.019 C 
BRANCH  15  16
HETATM   16  C7  UNL     1     -12.750  42.174  45.969  1.00  0.00     0.003 C 
BRANCH  16  17
HETATM   17  C8  UNL     1     -13.397  43.546  45.989  1.00  0.00     0.020 C 
BRANCH  17  18
HETATM   18  C9  UNL     1     -14.889  43.427  46.064  1.00  0.00     0.121 C 
BRANCH  18  19
HETATM   19  N3  UNL     1     -15.389  44.173  47.185  1.00  0.00    -0.369 N 
ATOM     20  H3  UNL     1     -14.730  44.522  47.881  1.00  0.00     0.161 HD
BRANCH  19  21
HETATM   21  C10 UNL     1     -16.755  44.437  47.352  1.00  0.00     0.180 C 
HETATM   22  N4  UNL     1     -17.220  45.764  47.135  1.00  0.00    -0.070 NA
HETATM   23  S1  UNL     1     -17.802  43.304  47.814  1.00  0.00    -0.044 SA
ENDBRANCH  19  21
ENDBRANCH  18  19
ENDBRANCH  17  18
ENDBRANCH  16  17
ENDBRANCH  15  16
ENDBRANCH  14  15
ENDBRANCH   1  14
TORSDOF 9
ENDMDL
MODEL 3
REMARK VINA RESULT: -6.909206164      1.068      1.211
REMARK  9 active torsions:
REMARK  status: ('A' for Active; 'I' for Inactive)
REMARK    1  A    between atoms: C2_2  and  N1_3 
REMARK    2  A    between atoms: C4_6  and  N2_7 
REMARK    3  A    between atoms: N2_7  and  C5_9 
REMARK    4  A    between atoms: C5_9  and  C6_10 
REMARK    5  A    between atoms: C6_10  and  C7_11 
REMARK    6  A    between atoms: C7_11  and  C8_12 
REMARK    7  A    between atoms: C8_12  and  C9_13 
REMARK    8  A    between atoms: C9_13  and  N3_14 
REMARK    9  A    between atoms: N3_14  and  C10_16 
ROOT
HETATM    1  N2  UNL     1     -13.297  40.072  44.549  1.00  0.00    -0.408 N 
ATOM      2  H2  UNL     1     -14.238  40.077  44.943  1.00  0.00     0.154 HD
ENDROOT
BRANCH   1   3
HETATM    3  C4  UNL     1     -13.014  39.432  43.317  1.00  0.00     0.188 C 
HETATM    4  C3  UNL     1     -13.438  40.139  42.094  1.00  0.00     0.250 C 
HETATM    5  N1  UNL     1     -13.082  39.572  40.836  1.00  0.00    -0.293 N 
HETATM    6  O1  UNL     1     -14.092  41.210  42.119  1.00  0.00    -0.271 OA
HETATM    7  C12 UNL     1     -12.072  38.538  40.833  1.00  0.00     0.176 C 
HETATM    8  N5  UNL     1     -11.477  38.132  42.060  1.00  0.00    -0.364 N 
HETATM    9  S2  UNL     1     -11.673  37.895  39.393  1.00  0.00    -0.041 SA
HETATM   10  C11 UNL     1     -11.553  39.085  43.142  1.00  0.00     0.156 C 
ATOM     11  H5  UNL     1     -11.025  37.224  42.169  1.00  0.00     0.162 HD
BRANCH   5  12
HETATM   12  C2  UNL     1     -13.692  39.989  39.597  1.00  0.00     0.130 C 
HETATM   13  C1  UNL     1     -13.082  41.260  39.052  1.00  0.00     0.027 C 
ENDBRANCH   5  12
ENDBRANCH   1   3
BRANCH   1  14
HETATM   14  C5  UNL     1     -12.216  40.704  45.206  1.00  0.00     0.114 C 
BRANCH  14  15
HETATM   15  C6  UNL     1     -12.612  41.932  45.998  1.00  0.00     0.019 C 
BRANCH  15  16
HETATM   16  C7  UNL     1     -13.382  42.924  45.208  1.00  0.00     0.003 C 
BRANCH  16  17
HETATM   17  C8  UNL     1     -14.025  43.961  46.110  1.00  0.00     0.020 C 
BRANCH  17  18
HETATM   18  C9  UNL     1     -15.475  43.650  46.324  1.00  0.00     0.121 C 
BRANCH  18  19
HETATM   19  N3  UNL     1     -15.801  43.750  47.720  1.00  0.00    -0.369 N 
ATOM     20  H3  UNL     1     -15.364  43.104  48.377  1.00  0.00     0.161 HD
BRANCH  19  21
HETATM   21  C10 UNL     1     -16.701  44.708  48.206  1.00  0.00     0.180 C 
HETATM   22  N4  UNL     1     -16.203  45.734  49.057  1.00  0.00    -0.070 NA
HETATM   23  S1  UNL     1     -18.274  44.665  47.865  1.00  0.00    -0.044 SA
ENDBRANCH  19  21
ENDBRANCH  18  19
ENDBRANCH  17  18
ENDBRANCH  16  17
ENDBRANCH  15  16
ENDBRANCH  14  15
ENDBRANCH   1  14
TORSDOF 9
ENDMDL
MODEL 4
REMARK VINA RESULT: -6.774143493      1.613      2.018
REMARK  9 active torsions:
REMARK  status: ('A' for Active; 'I' for Inactive)
REMARK    1  A    between atoms: C2_2  and  N1_3 
REMARK    2  A    between atoms: C4_6  and  N2_7 
REMARK    3  A    between atoms: N2_7  and  C5_9 
REMARK    4  A    between atoms: C5_9  and  C6_10 
REMARK    5  A    between atoms: C6_10  and  C7_11 
REMARK    6  A    between atoms: C7_11  and  C8_12 
REMARK    7  A    between atoms: C8_12  and  C9_13 
REMARK    8  A    between atoms: C9_13  and  N3_14 
REMARK    9  A    between atoms: N3_14  and  C10_16 
ROOT
HETATM    1  N2  UNL     1     -13.434  41.610  42.924  1.00  0.00    -0.408 N 
ATOM      2  H2  UNL     1     -13.786  42.567  42.888  1.00  0.00     0.154 HD
ENDROOT
BRANCH   1   3
HETATM    3  C4  UNL     1     -13.743  40.668  41.912  1.00  0.00     0.188 C 
HETATM    4  C3  UNL     1     -13.494  41.090  40.520  1.00  0.00     0.250 C 
HETATM    5  N1  UNL     1     -13.701  40.135  39.485  1.00  0.00    -0.293 N 
HETATM    6  O1  UNL     1     -13.111  42.247  40.219  1.00  0.00    -0.271 OA
HETATM    7  C12 UNL     1     -13.823  38.747  39.872  1.00  0.00     0.176 C 
HETATM    8  N5  UNL     1     -13.733  38.390  41.247  1.00  0.00    -0.364 N 
HETATM    9  S2  UNL     1     -14.061  37.663  38.683  1.00  0.00    -0.041 SA
HETATM   10  C11 UNL     1     -13.053  39.336  42.099  1.00  0.00     0.156 C 
ATOM     11  H5  UNL     1     -14.124  37.521  41.608  1.00  0.00     0.162 HD
BRANCH   5  12
HETATM   12  C2  UNL     1     -13.793  40.506  38.093  1.00  0.00     0.130 C 
HETATM   13  C1  UNL     1     -12.438  40.614  37.433  1.00  0.00     0.027 C 
ENDBRANCH   5  12
ENDBRANCH   1   3
BRANCH   1  14
HETATM   14  C5  UNL     1     -12.615  41.163  43.987  1.00  0.00     0.114 C 
BRANCH  14  15
HETATM   15  C6  UNL     1     -13.255  41.295  45.352  1.00  0.00     0.019 C 
BRANCH  15  16
HETATM   16  C7  UNL     1     -12.729  42.435  46.145  1.00  0.00     0.003 C 
BRANCH  16  17
HETATM   17  C8  UNL     1     -13.519  43.701  45.873  1.00  0.00     0.020 C 
BRANCH  17  18
HETATM   18  C9  UNL     1     -14.985  43.462  46.071  1.00  0.00     0.121 C 
BRANCH  18  19
HETATM   19  N3  UNL     1     -15.437  44.123  47.265  1.00  0.00    -0.369 N 
ATOM     20  H3  UNL     1     -14.760  44.340  47.996  1.00  0.00     0.161 HD
BRANCH  19  21
HETATM   21  C10 UNL     1     -16.780  44.477  47.454  1.00  0.00     0.180 C 
HETATM   22  N4  UNL     1     -17.179  45.806  47.139  1.00  0.00    -0.070 NA
HETATM   23  S1  UNL     1     -17.868  43.449  48.047  1.00  0.00    -0.044 SA
ENDBRANCH  19  21
ENDBRANCH  18  19
ENDBRANCH  17  18
ENDBRANCH  16  17
ENDBRANCH  15  16
ENDBRANCH  14  15
ENDBRANCH   1  14
TORSDOF 9
ENDMDL
MODEL 5
REMARK VINA RESULT: -6.723189355      1.897      2.513
REMARK  9 active torsions:
REMARK  status: ('A' for Active; 'I' for Inactive)
REMARK    1  A    between atoms: C2_2  and  N1_3 
REMARK    2  A    between atoms: C4_6  and  N2_7 
REMARK    3  A    between atoms: N2_7  and  C5_9 
REMARK    4  A    between atoms: C5_9  and  C6_10 
REMARK    5  A    between atoms: C6_10  and  C7_11 
REMARK    6  A    between atoms: C7_11  and  C8_12 
REMARK    7  A    between atoms: C8_12  and  C9_13 
REMARK    8  A    between atoms: C9_13  and  N3_14 
REMARK    9  A    between atoms: N3_14  and  C10_16 
ROOT
HETATM    1  N2  UNL     1     -11.893  39.277  43.056  1.00  0.00    -0.408 N 
ATOM      2  H2  UNL     1     -10.978  38.891  43.288  1.00  0.00     0.154 HD
ENDROOT
BRANCH   1   3
HETATM    3  C4  UNL     1     -12.352  39.342  41.717  1.00  0.00     0.188 C 
HETATM    4  C3  UNL     1     -11.601  38.552  40.723  1.00  0.00     0.250 C 
HETATM    5  N1  UNL     1     -12.092  38.517  39.387  1.00  0.00    -0.293 N 
HETATM    6  O1  UNL     1     -10.556  37.917  41.008  1.00  0.00    -0.271 OA
HETATM    7  C12 UNL     1     -13.444  38.976  39.162  1.00  0.00     0.176 C 
HETATM    8  N5  UNL     1     -14.223  39.438  40.260  1.00  0.00    -0.364 N 
HETATM    9  S2  UNL     1     -13.997  38.934  37.632  1.00  0.00    -0.041 SA
HETATM   10  C11 UNL     1     -13.810  38.973  41.563  1.00  0.00     0.156 C 
ATOM     11  H5  UNL     1     -15.022  40.058  40.135  1.00  0.00     0.162 HD
BRANCH   5  12
HETATM   12  C2  UNL     1     -11.295  38.049  38.279  1.00  0.00     0.130 C 
HETATM   13  C1  UNL     1     -11.508  36.580  37.994  1.00  0.00     0.027 C 
ENDBRANCH   5  12
ENDBRANCH   1   3
BRANCH   1  14
HETATM   14  C5  UNL     1     -12.761  39.774  44.056  1.00  0.00     0.114 C 
BRANCH  14  15
HETATM   15  C6  UNL     1     -12.653  41.267  44.278  1.00  0.00     0.019 C 
BRANCH  15  16
HETATM   16  C7  UNL     1     -12.737  41.661  45.706  1.00  0.00     0.003 C 
BRANCH  16  17
HETATM   17  C8  UNL     1     -13.164  43.109  45.850  1.00  0.00     0.020 C 
BRANCH  17  18
HETATM   18  C9  UNL     1     -14.658  43.220  45.878  1.00  0.00     0.121 C 
BRANCH  18  19
HETATM   19  N3  UNL     1     -15.071  44.077  46.954  1.00  0.00    -0.369 N 
ATOM     20  H3  UNL     1     -14.361  44.585  47.481  1.00  0.00     0.161 HD
BRANCH  19  21
HETATM   21  C10 UNL     1     -16.419  44.235  47.303  1.00  0.00     0.180 C 
HETATM   22  N4  UNL     1     -17.054  45.474  47.005  1.00  0.00    -0.070 NA
HETATM   23  S1  UNL     1     -17.256  43.084  48.057  1.00  0.00    -0.044 SA
ENDBRANCH  19  21
ENDBRANCH  18  19
ENDBRANCH  17  18
ENDBRANCH  16  17
ENDBRANCH  15  16
ENDBRANCH  14  15
ENDBRANCH   1  14
TORSDOF 9
ENDMDL
