MODEL 1
REMARK VINA RESULT: -7.855245147      0.000      0.000
REMARK  13 active torsions:
REMARK  status: ('A' for Active; 'I' for Inactive)
REMARK    1  A    between atoms: C2_2  and  O1_3 
REMARK    2  A    between atoms: C2_2  and  C3_5 
REMARK    3  A    between atoms: C3_5  and  C4_6 
REMARK    4  A    between atoms: C5_7  and  C6_8 
REMARK    5  A    between atoms: C6_8  and  O2_9 
REMARK    6  A    between atoms: C6_8  and  C7_11 
REMARK    7  A    between atoms: C8_12  and  N1_13 
REMARK    8  A    between atoms: C9_18  and  N3_19 
REMARK    9  A    between atoms: N7_30  and  C12_31 
REMARK   10  A    between atoms: C12_31  and  O5_32 
REMARK   11  A    between atoms: O5_32  and  C13_33 
REMARK   12  A    between atoms: C13_33  and  C14_35 
REMARK   13  A    between atoms: N8_36  and  O7_38 
ROOT
HETATM    1  C4  UNL     1       4.053  -4.606  40.760  1.00  0.00     0.052 A 
HETATM    2  C5  UNL     1       3.928  -3.205  40.642  1.00  0.00     0.092 A 
HETATM    3  N6  UNL     1       2.797  -2.837  41.317  1.00  0.00    -0.329 N 
ATOM      4  H6  UNL     1       2.441  -1.886  41.412  1.00  0.00     0.168 HD
HETATM    5  C11 UNL     1       2.246  -3.920  41.822  1.00  0.00     0.184 A 
HETATM    6  S1  UNL     1       0.867  -4.012  42.718  1.00  0.00    -0.040 SA
HETATM    7  N7  UNL     1       3.013  -5.015  41.485  1.00  0.00    -0.280 N 
ENDROOT
BRANCH   2   8
HETATM    8  C6  UNL     1       4.862  -2.302  40.045  1.00  0.00     0.112 C 
BRANCH   8   9
HETATM    9  O2  UNL     1       5.999  -2.262  40.695  1.00  0.00    -0.357 OA
ATOM     10  H2  UNL     1       6.374  -1.389  40.710  1.00  0.00     0.217 HD
ENDBRANCH   8   9
BRANCH   8  11
HETATM   11  C7  UNL     1       4.823  -1.421  38.906  1.00  0.00     0.092 A 
HETATM   12  C8  UNL     1       4.151  -0.238  38.775  1.00  0.00     0.204 A 
HETATM   13  N2  UNL     1       4.262   0.542  37.626  1.00  0.00    -0.170 N 
HETATM   14  C9  UNL     1       5.014   0.165  36.614  1.00  0.00     0.678 A 
ATOM     15  H2  UNL     1       3.751   1.423  37.568  1.00  0.00     0.186 HD
HETATM   16  N4  UNL     1       5.677  -0.988  36.703  1.00  0.00    -0.178 N 
HETATM   17  C10 UNL     1       5.614  -1.777  37.778  1.00  0.00     0.148 A 
ATOM     18  H4  UNL     1       6.257  -1.281  35.916  1.00  0.00     0.185 HD
HETATM   19  N5  UNL     1       6.340  -2.994  37.833  1.00  0.00    -0.081 NA
BRANCH  12  20
HETATM   20  N1  UNL     1       3.233   0.297  39.692  1.00  0.00    -0.096 N 
HETATM   21  O3  UNL     1       2.086  -0.250  39.750  1.00  0.00    -0.530 OA
HETATM   22  O4  UNL     1       3.430   1.335  40.495  1.00  0.00    -0.530 OA
ENDBRANCH  12  20
BRANCH  14  23
HETATM   23  N3  UNL     1       5.116   0.906  35.531  1.00  0.00    -0.234 N 
ATOM     24  H32 UNL     1       5.998   0.950  35.020  1.00  0.00     0.174 HD
ATOM     25  H31 UNL     1       4.322   1.444  35.185  1.00  0.00     0.174 HD
ENDBRANCH  14  23
ENDBRANCH   8  11
ENDBRANCH   2   8
BRANCH   1  26
HETATM   26  C3  UNL     1       5.234  -5.310  40.257  1.00  0.00     0.091 C 
BRANCH  26  27
HETATM   27  C2  UNL     1       6.462  -5.332  41.061  1.00  0.00     0.119 C 
HETATM   28  C1  UNL     1       6.150  -6.271  42.259  1.00  0.00     0.039 C 
BRANCH  27  29
HETATM   29  O1  UNL     1       7.540  -5.893  40.455  1.00  0.00    -0.396 OA
ATOM     30  H1  UNL     1       8.172  -6.018  41.154  1.00  0.00     0.210 HD
ENDBRANCH  27  29
ENDBRANCH  26  27
ENDBRANCH   1  26
BRANCH   7  31
HETATM   31  C12 UNL     1       2.623  -6.339  41.904  1.00  0.00     0.247 C 
BRANCH  31  32
HETATM   32  O5  UNL     1       2.495  -7.284  40.968  1.00  0.00    -0.269 OA
BRANCH  32  33
HETATM   33  C13 UNL     1       1.596  -7.650  40.073  1.00  0.00     0.306 C 
HETATM   34  O6  UNL     1       1.015  -8.751  40.077  1.00  0.00    -0.258 OA
BRANCH  33  35
HETATM   35  C14 UNL     1       1.219  -6.731  38.976  1.00  0.00     0.196 C 
HETATM   36  N8  UNL     1       0.820  -7.231  37.836  1.00  0.00    -0.275 N 
ATOM     37  H8  UNL     1       0.770  -8.240  37.701  1.00  0.00     0.193 HD
BRANCH  36  38
HETATM   38  O7  UNL     1       0.473  -6.373  36.827  1.00  0.00    -0.290 OA
ATOM     39  H7  UNL     1       1.088  -6.230  36.117  1.00  0.00     0.244 HD
ENDBRANCH  36  38
ENDBRANCH  33  35
ENDBRANCH  32  33
ENDBRANCH  31  32
ENDBRANCH   7  31
TORSDOF 13
ENDMDL
MODEL 2
REMARK VINA RESULT: -7.840080846      2.380      3.787
REMARK  13 active torsions:
REMARK  status: ('A' for Active; 'I' for Inactive)
REMARK    1  A    between atoms: C2_2  and  O1_3 
REMARK    2  A    between atoms: C2_2  and  C3_5 
REMARK    3  A    between atoms: C3_5  and  C4_6 
REMARK    4  A    between atoms: C5_7  and  C6_8 
REMARK    5  A    between atoms: C6_8  and  O2_9 
REMARK    6  A    between atoms: C6_8  and  C7_11 
REMARK    7  A    between atoms: C8_12  and  N1_13 
REMARK    8  A    between atoms: C9_18  and  N3_19 
REMARK    9  A    between atoms: N7_30  and  C12_31 
REMARK   10  A    between atoms: C12_31  and  O5_32 
REMARK   11  A    between atoms: O5_32  and  C13_33 
REMARK   12  A    between atoms: C13_33  and  C14_35 
REMARK   13  A    between atoms: N8_36  and  O7_38 
ROOT
HETATM    1  C4  UNL     1       3.983  -3.807  40.863  1.00  0.00     0.052 A 
HETATM    2  C5  UNL     1       3.309  -2.568  40.822  1.00  0.00     0.092 A 
HETATM    3  N6  UNL     1       2.077  -2.754  41.386  1.00  0.00    -0.329 N 
ATOM      4  H6  UNL     1       1.359  -2.039  41.501  1.00  0.00     0.168 HD
HETATM    5  C11 UNL     1       1.976  -4.013  41.754  1.00  0.00     0.184 A 
HETATM    6  S1  UNL     1       0.688  -4.740  42.479  1.00  0.00    -0.040 SA
HETATM    7  N7  UNL     1       3.146  -4.670  41.437  1.00  0.00    -0.280 N 
ENDROOT
BRANCH   2   8
HETATM    8  C6  UNL     1       3.838  -1.310  40.395  1.00  0.00     0.112 C 
BRANCH   8   9
HETATM    9  O2  UNL     1       4.562  -0.736  41.322  1.00  0.00    -0.357 OA
ATOM     10  H2  UNL     1       4.529   0.212  41.268  1.00  0.00     0.217 HD
ENDBRANCH   8   9
BRANCH   8  11
HETATM   11  C7  UNL     1       3.738  -0.535  39.185  1.00  0.00     0.092 A 
HETATM   12  C8  UNL     1       4.566  -0.555  38.097  1.00  0.00     0.204 A 
HETATM   13  N2  UNL     1       4.301   0.211  36.963  1.00  0.00    -0.170 N 
HETATM   14  C9  UNL     1       3.245   0.993  36.898  1.00  0.00     0.678 A 
ATOM     15  H2  UNL     1       4.939   0.164  36.169  1.00  0.00     0.186 HD
HETATM   16  N4  UNL     1       2.420   1.044  37.945  1.00  0.00    -0.178 N 
HETATM   17  C10 UNL     1       2.618   0.332  39.056  1.00  0.00     0.148 A 
ATOM     18  H4  UNL     1       1.604   1.653  37.894  1.00  0.00     0.185 HD
HETATM   19  N5  UNL     1       1.712   0.413  40.144  1.00  0.00    -0.081 NA
BRANCH  12  20
HETATM   20  N1  UNL     1       5.784  -1.245  37.998  1.00  0.00    -0.096 N 
HETATM   21  O3  UNL     1       6.064  -1.768  36.874  1.00  0.00    -0.530 OA
HETATM   22  O4  UNL     1       6.670  -1.430  38.969  1.00  0.00    -0.530 OA
ENDBRANCH  12  20
BRANCH  14  23
HETATM   23  N3  UNL     1       3.000   1.714  35.825  1.00  0.00    -0.234 N 
ATOM     24  H32 UNL     1       3.714   1.823  35.105  1.00  0.00     0.174 HD
ATOM     25  H31 UNL     1       2.099   2.172  35.694  1.00  0.00     0.174 HD
ENDBRANCH  14  23
ENDBRANCH   8  11
ENDBRANCH   2   8
BRANCH   1  26
HETATM   26  C3  UNL     1       5.384  -3.926  40.455  1.00  0.00     0.091 C 
BRANCH  26  27
HETATM   27  C2  UNL     1       5.843  -5.150  39.787  1.00  0.00     0.119 C 
HETATM   28  C1  UNL     1       5.826  -4.818  38.269  1.00  0.00     0.039 C 
BRANCH  27  29
HETATM   29  O1  UNL     1       7.128  -5.504  40.048  1.00  0.00    -0.396 OA
ATOM     30  H1  UNL     1       7.646  -4.760  39.762  1.00  0.00     0.210 HD
ENDBRANCH  27  29
ENDBRANCH  26  27
ENDBRANCH   1  26
BRANCH   7  31
HETATM   31  C12 UNL     1       3.297  -6.076  41.723  1.00  0.00     0.247 C 
BRANCH  31  32
HETATM   32  O5  UNL     1       4.076  -6.429  42.749  1.00  0.00    -0.269 OA
BRANCH  32  33
HETATM   33  C13 UNL     1       4.954  -7.377  43.023  1.00  0.00     0.306 C 
HETATM   34  O6  UNL     1       4.684  -8.591  43.054  1.00  0.00    -0.258 OA
BRANCH  33  35
HETATM   35  C14 UNL     1       6.363  -7.027  43.314  1.00  0.00     0.196 C 
HETATM   36  N8  UNL     1       6.852  -5.913  42.837  1.00  0.00    -0.275 N 
ATOM     37  H8  UNL     1       6.274  -5.291  42.272  1.00  0.00     0.193 HD
BRANCH  36  38
HETATM   38  O7  UNL     1       8.156  -5.597  43.112  1.00  0.00    -0.290 OA
ATOM     39  H7  UNL     1       8.495  -5.773  43.982  1.00  0.00     0.244 HD
ENDBRANCH  36  38
ENDBRANCH  33  35
ENDBRANCH  32  33
ENDBRANCH  31  32
ENDBRANCH   7  31
TORSDOF 13
ENDMDL
MODEL 3
REMARK VINA RESULT: -7.663540884      1.477      2.435
REMARK  13 active torsions:
REMARK  status: ('A' for Active; 'I' for Inactive)
REMARK    1  A    between atoms: C2_2  and  O1_3 
REMARK    2  A    between atoms: C2_2  and  C3_5 
REMARK    3  A    between atoms: C3_5  and  C4_6 
REMARK    4  A    between atoms: C5_7  and  C6_8 
REMARK    5  A    between atoms: C6_8  and  O2_9 
REMARK    6  A    between atoms: C6_8  and  C7_11 
REMARK    7  A    between atoms: C8_12  and  N1_13 
REMARK    8  A    between atoms: C9_18  and  N3_19 
REMARK    9  A    between atoms: N7_30  and  C12_31 
REMARK   10  A    between atoms: C12_31  and  O5_32 
REMARK   11  A    between atoms: O5_32  and  C13_33 
REMARK   12  A    between atoms: C13_33  and  C14_35 
REMARK   13  A    between atoms: N8_36  and  O7_38 
ROOT
HETATM    1  C4  UNL     1       3.226  -4.162  40.833  1.00  0.00     0.052 A 
HETATM    2  C5  UNL     1       2.917  -2.804  41.065  1.00  0.00     0.092 A 
HETATM    3  N6  UNL     1       1.839  -2.768  41.905  1.00  0.00    -0.329 N 
ATOM      4  H6  UNL     1       1.383  -1.926  42.256  1.00  0.00     0.168 HD
HETATM    5  C11 UNL     1       1.489  -4.006  42.183  1.00  0.00     0.184 A 
HETATM    6  S1  UNL     1       0.249  -4.499  43.149  1.00  0.00    -0.040 SA
HETATM    7  N7  UNL     1       2.339  -4.872  41.528  1.00  0.00    -0.280 N 
ENDROOT
BRANCH   2   8
HETATM    8  C6  UNL     1       3.655  -1.662  40.621  1.00  0.00     0.112 C 
BRANCH   8   9
HETATM    9  O2  UNL     1       4.500  -1.235  41.526  1.00  0.00    -0.357 OA
ATOM     10  H2  UNL     1       4.681  -1.893  42.188  1.00  0.00     0.217 HD
ENDBRANCH   8   9
BRANCH   8  11
HETATM   11  C7  UNL     1       3.661  -0.875  39.415  1.00  0.00     0.092 A 
HETATM   12  C8  UNL     1       4.524  -0.955  38.358  1.00  0.00     0.204 A 
HETATM   13  N2  UNL     1       4.363  -0.164  37.222  1.00  0.00    -0.170 N 
HETATM   14  C9  UNL     1       3.376   0.700  37.126  1.00  0.00     0.678 A 
ATOM     15  H2  UNL     1       5.023  -0.257  36.451  1.00  0.00     0.186 HD
HETATM   16  N4  UNL     1       2.520   0.812  38.142  1.00  0.00    -0.178 N 
HETATM   17  C10 UNL     1       2.619   0.080  39.254  1.00  0.00     0.148 A 
ATOM     18  H4  UNL     1       1.757   1.485  38.067  1.00  0.00     0.185 HD
HETATM   19  N5  UNL     1       1.684   0.227  40.309  1.00  0.00    -0.081 NA
BRANCH  12  20
HETATM   20  N1  UNL     1       5.686  -1.740  38.297  1.00  0.00    -0.096 N 
HETATM   21  O3  UNL     1       6.597  -1.494  39.149  1.00  0.00    -0.530 OA
HETATM   22  O4  UNL     1       5.943  -2.705  37.423  1.00  0.00    -0.530 OA
ENDBRANCH  12  20
BRANCH  14  23
HETATM   23  N3  UNL     1       3.228   1.445  36.051  1.00  0.00    -0.234 N 
ATOM     24  H32 UNL     1       3.524   2.421  36.057  1.00  0.00     0.174 HD
ATOM     25  H31 UNL     1       2.820   1.063  35.198  1.00  0.00     0.174 HD
ENDBRANCH  14  23
ENDBRANCH   8  11
ENDBRANCH   2   8
BRANCH   1  26
HETATM   26  C3  UNL     1       4.416  -4.553  40.075  1.00  0.00     0.091 C 
BRANCH  26  27
HETATM   27  C2  UNL     1       5.739  -4.468  40.706  1.00  0.00     0.119 C 
HETATM   28  C1  UNL     1       5.849  -5.737  41.595  1.00  0.00     0.039 C 
BRANCH  27  29
HETATM   29  O1  UNL     1       6.792  -4.551  39.853  1.00  0.00    -0.396 OA
ATOM     30  H1  UNL     1       7.556  -4.393  40.397  1.00  0.00     0.210 HD
ENDBRANCH  27  29
ENDBRANCH  26  27
ENDBRANCH   1  26
BRANCH   7  31
HETATM   31  C12 UNL     1       2.168  -6.298  41.651  1.00  0.00     0.247 C 
BRANCH  31  32
HETATM   32  O5  UNL     1       1.484  -6.936  40.697  1.00  0.00    -0.269 OA
BRANCH  32  33
HETATM   33  C13 UNL     1       0.600  -6.630  39.764  1.00  0.00     0.306 C 
HETATM   34  O6  UNL     1      -0.567  -6.266  40.001  1.00  0.00    -0.258 OA
BRANCH  33  35
HETATM   35  C14 UNL     1       0.969  -6.706  38.333  1.00  0.00     0.196 C 
HETATM   36  N8  UNL     1       0.081  -6.384  37.430  1.00  0.00    -0.275 N 
ATOM     37  H8  UNL     1      -0.854  -6.085  37.704  1.00  0.00     0.193 HD
BRANCH  36  38
HETATM   38  O7  UNL     1       0.432  -6.457  36.108  1.00  0.00    -0.290 OA
ATOM     39  H7  UNL     1       0.632  -5.652  35.644  1.00  0.00     0.244 HD
ENDBRANCH  36  38
ENDBRANCH  33  35
ENDBRANCH  32  33
ENDBRANCH  31  32
ENDBRANCH   7  31
TORSDOF 13
ENDMDL
MODEL 4
REMARK VINA RESULT: -7.647673594      2.321      3.305
REMARK  13 active torsions:
REMARK  status: ('A' for Active; 'I' for Inactive)
REMARK    1  A    between atoms: C2_2  and  O1_3 
REMARK    2  A    between atoms: C2_2  and  C3_5 
REMARK    3  A    between atoms: C3_5  and  C4_6 
REMARK    4  A    between atoms: C5_7  and  C6_8 
REMARK    5  A    between atoms: C6_8  and  O2_9 
REMARK    6  A    between atoms: C6_8  and  C7_11 
REMARK    7  A    between atoms: C8_12  and  N1_13 
REMARK    8  A    between atoms: C9_18  and  N3_19 
REMARK    9  A    between atoms: N7_30  and  C12_31 
REMARK   10  A    between atoms: C12_31  and  O5_32 
REMARK   11  A    between atoms: O5_32  and  C13_33 
REMARK   12  A    between atoms: C13_33  and  C14_35 
REMARK   13  A    between atoms: N8_36  and  O7_38 
ROOT
HETATM    1  C4  UNL     1       4.067  -3.796  40.748  1.00  0.00     0.052 A 
HETATM    2  C5  UNL     1       3.393  -2.557  40.672  1.00  0.00     0.092 A 
HETATM    3  N6  UNL     1       2.163  -2.725  41.244  1.00  0.00    -0.329 N 
ATOM      4  H6  UNL     1       1.445  -2.007  41.339  1.00  0.00     0.168 HD
HETATM    5  C11 UNL     1       2.062  -3.973  41.650  1.00  0.00     0.184 A 
HETATM    6  S1  UNL     1       0.775  -4.677  42.400  1.00  0.00    -0.040 SA
HETATM    7  N7  UNL     1       3.230  -4.640  41.350  1.00  0.00    -0.280 N 
ENDROOT
BRANCH   2   8
HETATM    8  C6  UNL     1       3.923  -1.314  40.205  1.00  0.00     0.112 C 
BRANCH   8   9
HETATM    9  O2  UNL     1       4.760  -0.780  41.059  1.00  0.00    -0.357 OA
ATOM     10  H2  UNL     1       5.659  -1.042  40.893  1.00  0.00     0.217 HD
ENDBRANCH   8   9
BRANCH   8  11
HETATM   11  C7  UNL     1       3.727  -0.517  39.021  1.00  0.00     0.092 A 
HETATM   12  C8  UNL     1       2.763   0.424  38.786  1.00  0.00     0.204 A 
HETATM   13  N2  UNL     1       2.740   1.166  37.607  1.00  0.00    -0.170 N 
HETATM   14  C9  UNL     1       3.642   0.984  36.666  1.00  0.00     0.678 A 
ATOM     15  H2  UNL     1       2.010   1.865  37.471  1.00  0.00     0.186 HD
HETATM   16  N4  UNL     1       4.591   0.067  36.858  1.00  0.00    -0.178 N 
HETATM   17  C10 UNL     1       4.669  -0.672  37.967  1.00  0.00     0.148 A 
ATOM     18  H4  UNL     1       5.287  -0.075  36.127  1.00  0.00     0.185 HD
HETATM   19  N5  UNL     1       5.698  -1.632  38.132  1.00  0.00    -0.081 NA
BRANCH  12  20
HETATM   20  N1  UNL     1       1.665   0.707  39.613  1.00  0.00    -0.096 N 
HETATM   21  O3  UNL     1       0.816   1.548  39.180  1.00  0.00    -0.530 OA
HETATM   22  O4  UNL     1       1.431   0.203  40.818  1.00  0.00    -0.530 OA
ENDBRANCH  12  20
BRANCH  14  23
HETATM   23  N3  UNL     1       3.615   1.688  35.555  1.00  0.00    -0.234 N 
ATOM     24  H32 UNL     1       4.146   2.556  35.484  1.00  0.00     0.174 HD
ATOM     25  H31 UNL     1       3.069   1.381  34.751  1.00  0.00     0.174 HD
ENDBRANCH  14  23
ENDBRANCH   8  11
ENDBRANCH   2   8
BRANCH   1  26
HETATM   26  C3  UNL     1       5.466  -3.928  40.339  1.00  0.00     0.091 C 
BRANCH  26  27
HETATM   27  C2  UNL     1       5.925  -5.175  39.716  1.00  0.00     0.119 C 
HETATM   28  C1  UNL     1       5.956  -4.881  38.190  1.00  0.00     0.039 C 
BRANCH  27  29
HETATM   29  O1  UNL     1       7.197  -5.541  40.022  1.00  0.00    -0.396 OA
ATOM     30  H1  UNL     1       7.280  -6.426  39.686  1.00  0.00     0.210 HD
ENDBRANCH  27  29
ENDBRANCH  26  27
ENDBRANCH   1  26
BRANCH   7  31
HETATM   31  C12 UNL     1       3.381  -6.036  41.677  1.00  0.00     0.247 C 
BRANCH  31  32
HETATM   32  O5  UNL     1       4.146  -6.359  42.724  1.00  0.00    -0.269 OA
BRANCH  32  33
HETATM   33  C13 UNL     1       5.042  -7.280  43.028  1.00  0.00     0.306 C 
HETATM   34  O6  UNL     1       4.816  -8.505  43.013  1.00  0.00    -0.258 OA
BRANCH  33  35
HETATM   35  C14 UNL     1       6.415  -6.887  43.413  1.00  0.00     0.196 C 
HETATM   36  N8  UNL     1       6.984  -5.883  42.799  1.00  0.00    -0.275 N 
ATOM     37  H8  UNL     1       6.492  -5.376  42.065  1.00  0.00     0.193 HD
BRANCH  36  38
HETATM   38  O7  UNL     1       8.256  -5.526  43.162  1.00  0.00    -0.290 OA
ATOM     39  H7  UNL     1       8.446  -4.608  43.314  1.00  0.00     0.244 HD
ENDBRANCH  36  38
ENDBRANCH  33  35
ENDBRANCH  32  33
ENDBRANCH  31  32
ENDBRANCH   7  31
TORSDOF 13
ENDMDL
MODEL 5
REMARK VINA RESULT: -7.571523310      1.420      2.420
REMARK  13 active torsions:
REMARK  status: ('A' for Active; 'I' for Inactive)
REMARK    1  A    between atoms: C2_2  and  O1_3 
REMARK    2  A    between atoms: C2_2  and  C3_5 
REMARK    3  A    between atoms: C3_5  and  C4_6 
REMARK    4  A    between atoms: C5_7  and  C6_8 
REMARK    5  A    between atoms: C6_8  and  O2_9 
REMARK    6  A    between atoms: C6_8  and  C7_11 
REMARK    7  A    between atoms: C8_12  and  N1_13 
REMARK    8  A    between atoms: C9_18  and  N3_19 
REMARK    9  A    between atoms: N7_30  and  C12_31 
REMARK   10  A    between atoms: C12_31  and  O5_32 
REMARK   11  A    between atoms: O5_32  and  C13_33 
REMARK   12  A    between atoms: C13_33  and  C14_35 
REMARK   13  A    between atoms: N8_36  and  O7_38 
ROOT
HETATM    1  C4  UNL     1       4.064  -3.761  40.973  1.00  0.00     0.052 A 
HETATM    2  C5  UNL     1       3.391  -2.522  40.904  1.00  0.00     0.092 A 
HETATM    3  N6  UNL     1       2.168  -2.689  41.493  1.00  0.00    -0.329 N 
ATOM      4  H6  UNL     1       1.453  -1.969  41.597  1.00  0.00     0.168 HD
HETATM    5  C11 UNL     1       2.072  -3.935  41.903  1.00  0.00     0.184 A 
HETATM    6  S1  UNL     1       0.796  -4.637  42.672  1.00  0.00    -0.040 SA
HETATM    7  N7  UNL     1       3.236  -4.604  41.588  1.00  0.00    -0.280 N 
ENDROOT
BRANCH   2   8
HETATM    8  C6  UNL     1       3.915  -1.280  40.428  1.00  0.00     0.112 C 
BRANCH   8   9
HETATM    9  O2  UNL     1       4.678  -0.691  41.314  1.00  0.00    -0.357 OA
ATOM     10  H2  UNL     1       5.003  -1.299  41.969  1.00  0.00     0.217 HD
ENDBRANCH   8   9
BRANCH   8  11
HETATM   11  C7  UNL     1       3.775  -0.531  39.205  1.00  0.00     0.092 A 
HETATM   12  C8  UNL     1       4.567  -0.577  38.091  1.00  0.00     0.204 A 
HETATM   13  N2  UNL     1       4.265   0.164  36.950  1.00  0.00    -0.170 N 
HETATM   14  C9  UNL     1       3.209   0.947  36.903  1.00  0.00     0.678 A 
ATOM     15  H2  UNL     1       4.875   0.098  36.136  1.00  0.00     0.186 HD
HETATM   16  N4  UNL     1       2.420   1.023  37.975  1.00  0.00    -0.178 N 
HETATM   17  C10 UNL     1       2.653   0.335  39.095  1.00  0.00     0.148 A 
ATOM     18  H4  UNL     1       1.603   1.634  37.938  1.00  0.00     0.185 HD
HETATM   19  N5  UNL     1       1.784   0.443  40.211  1.00  0.00    -0.081 NA
BRANCH  12  20
HETATM   20  N1  UNL     1       5.779  -1.273  37.967  1.00  0.00    -0.096 N 
HETATM   21  O3  UNL     1       6.027  -1.807  36.840  1.00  0.00    -0.530 OA
HETATM   22  O4  UNL     1       6.690  -1.452  38.916  1.00  0.00    -0.530 OA
ENDBRANCH  12  20
BRANCH  14  23
HETATM   23  N3  UNL     1       2.929   1.645  35.823  1.00  0.00    -0.234 N 
ATOM     24  H32 UNL     1       2.147   1.376  35.226  1.00  0.00     0.174 HD
ATOM     25  H31 UNL     1       3.483   2.461  35.566  1.00  0.00     0.174 HD
ENDBRANCH  14  23
ENDBRANCH   8  11
ENDBRANCH   2   8
BRANCH   1  26
HETATM   26  C3  UNL     1       5.458  -3.895  40.545  1.00  0.00     0.091 C 
BRANCH  26  27
HETATM   27  C2  UNL     1       5.894  -5.123  39.869  1.00  0.00     0.119 C 
HETATM   28  C1  UNL     1       5.815  -4.801  38.350  1.00  0.00     0.039 C 
BRANCH  27  29
HETATM   29  O1  UNL     1       7.190  -5.470  40.080  1.00  0.00    -0.396 OA
ATOM     30  H1  UNL     1       7.540  -4.776  40.628  1.00  0.00     0.210 HD
ENDBRANCH  27  29
ENDBRANCH  26  27
ENDBRANCH   1  26
BRANCH   7  31
HETATM   31  C12 UNL     1       3.390  -6.000  41.916  1.00  0.00     0.247 C 
BRANCH  31  32
HETATM   32  O5  UNL     1       3.139  -6.902  40.963  1.00  0.00    -0.269 OA
BRANCH  32  33
HETATM   33  C13 UNL     1       2.080  -7.446  40.393  1.00  0.00     0.306 C 
HETATM   34  O6  UNL     1       1.622  -8.565  40.694  1.00  0.00    -0.258 OA
BRANCH  33  35
HETATM   35  C14 UNL     1       1.352  -6.723  39.327  1.00  0.00     0.196 C 
HETATM   36  N8  UNL     1       1.191  -7.298  38.165  1.00  0.00    -0.275 N 
ATOM     37  H8  UNL     1       1.561  -8.232  37.992  1.00  0.00     0.193 HD
BRANCH  36  38
HETATM   38  O7  UNL     1       0.516  -6.621  37.184  1.00  0.00    -0.290 OA
ATOM     39  H7  UNL     1       0.938  -6.498  36.341  1.00  0.00     0.244 HD
ENDBRANCH  36  38
ENDBRANCH  33  35
ENDBRANCH  32  33
ENDBRANCH  31  32
ENDBRANCH   7  31
TORSDOF 13
ENDMDL
