MODEL 1
REMARK VINA RESULT: -7.360582110      0.000      0.000
REMARK  15 active torsions:
REMARK  status: ('A' for Active; 'I' for Inactive)
REMARK    1  A    between atoms: C2_2  and  O2_4 
REMARK    2  A    between atoms: O2_4  and  C3_5 
REMARK    3  A    between atoms: C3_5  and  O3_6 
REMARK    4  A    between atoms: C3_5  and  C6_10 
REMARK    5  A    between atoms: O3_6  and  C4_7 
REMARK    6  A    between atoms: C7_11  and  O5_12 
REMARK    7  A    between atoms: C8_14  and  O6_15 
REMARK    8  A    between atoms: O6_15  and  C9_16 
REMARK    9  A    between atoms: C10_19  and  O8_20 
REMARK   10  A    between atoms: C11_22  and  C12_23 
REMARK   11  A    between atoms: C12_23  and  O9_24 
REMARK   12  A    between atoms: C12_23  and  C15_28 
REMARK   13  A    between atoms: O9_24  and  C13_25 
REMARK   14  A    between atoms: C15_28  and  O11_30 
REMARK   15  A    between atoms: C17_32  and  O12_33 
ROOT
HETATM    1  C6  UNL     1       4.070  -1.818  40.011  1.00  0.00     0.067 A 
HETATM    2  C7  UNL     1       5.263  -2.560  39.916  1.00  0.00     0.116 A 
HETATM    3  C8  UNL     1       5.323  -3.860  40.351  1.00  0.00     0.148 A 
HETATM    4  C10 UNL     1       4.244  -4.457  40.882  1.00  0.00     0.114 A 
HETATM    5  C11 UNL     1       3.037  -3.774  41.008  1.00  0.00     0.044 A 
HETATM    6  C17 UNL     1       2.983  -2.455  40.560  1.00  0.00     0.091 A 
ENDROOT
BRANCH   1   7
HETATM    7  C3  UNL     1       4.093  -0.421  39.520  1.00  0.00     0.319 C 
BRANCH   7   8
HETATM    8  O2  UNL     1       5.165  -0.234  38.559  1.00  0.00    -0.285 OA
BRANCH   8   9
HETATM    9  C2  UNL     1       4.914  -0.243  37.206  1.00  0.00     0.257 C 
HETATM   10  C1  UNL     1       4.614   0.927  36.355  1.00  0.00     0.126 C 
HETATM   11  O1  UNL     1       4.947  -1.384  36.638  1.00  0.00    -0.266 OA
ENDBRANCH   8   9
ENDBRANCH   7   8
BRANCH   7  12
HETATM   12  O3  UNL     1       2.923  -0.043  38.815  1.00  0.00    -0.285 OA
BRANCH  12  13
HETATM   13  C4  UNL     1       2.157   1.081  39.251  1.00  0.00     0.257 C 
HETATM   14  C5  UNL     1       1.557   1.952  38.163  1.00  0.00     0.126 C 
HETATM   15  O4  UNL     1       2.048   1.248  40.456  1.00  0.00    -0.266 OA
ENDBRANCH  12  13
ENDBRANCH   7  12
ENDBRANCH   1   7
BRANCH   2  16
HETATM   16  O5  UNL     1       6.365  -1.964  39.380  1.00  0.00    -0.357 OA
ATOM     17  H5  UNL     1       7.204  -2.085  39.809  1.00  0.00     0.217 HD
ENDBRANCH   2  16
BRANCH   6  18
HETATM   18  O12 UNL     1       1.787  -1.735  40.659  1.00  0.00    -0.359 OA
ATOM     19  H12 UNL     1       1.692  -1.132  41.388  1.00  0.00     0.217 HD
ENDBRANCH   6  18
BRANCH   3  20
HETATM   20  O6  UNL     1       6.504  -4.634  40.273  1.00  0.00    -0.258 OA
BRANCH  20  21
HETATM   21  C9  UNL     1       6.748  -5.105  38.960  1.00  0.00     0.378 C 
HETATM   22  N1  UNL     1       7.840  -5.941  38.665  1.00  0.00    -0.032 NA
HETATM   23  O7  UNL     1       5.994  -4.794  37.998  1.00  0.00    -0.242 OA
ENDBRANCH  20  21
ENDBRANCH   3  20
BRANCH   5  24
HETATM   24  C12 UNL     1       1.872  -4.461  41.508  1.00  0.00     0.199 C 
BRANCH  24  25
HETATM   25  O9  UNL     1       1.222  -4.941  40.270  1.00  0.00    -0.309 OA
BRANCH  25  26
HETATM   26  C13 UNL     1       1.235  -6.270  39.917  1.00  0.00     0.255 C 
HETATM   27  C14 UNL     1       0.744  -6.737  38.575  1.00  0.00     0.126 C 
HETATM   28  O10 UNL     1       1.674  -7.090  40.766  1.00  0.00    -0.266 OA
ENDBRANCH  25  26
ENDBRANCH  24  25
BRANCH  24  29
HETATM   29  C15 UNL     1       0.747  -3.602  42.052  1.00  0.00     0.148 C 
HETATM   30  C16 UNL     1      -0.625  -4.069  41.993  1.00  0.00     0.042 C 
BRANCH  29  31
HETATM   31  O11 UNL     1       1.117  -3.286  43.358  1.00  0.00    -0.393 OA
ATOM     32  H11 UNL     1       0.968  -2.353  43.446  1.00  0.00     0.210 HD
ENDBRANCH  29  31
ENDBRANCH  24  29
ENDBRANCH   5  24
BRANCH   4  33
HETATM   33  O8  UNL     1       4.273  -5.748  41.326  1.00  0.00    -0.357 OA
ATOM     34  H8  UNL     1       3.502  -6.179  41.677  1.00  0.00     0.217 HD
ENDBRANCH   4  33
TORSDOF 15
ENDMDL
MODEL 2
REMARK VINA RESULT: -7.114827070      1.796      2.210
REMARK  15 active torsions:
REMARK  status: ('A' for Active; 'I' for Inactive)
REMARK    1  A    between atoms: C2_2  and  O2_4 
REMARK    2  A    between atoms: O2_4  and  C3_5 
REMARK    3  A    between atoms: C3_5  and  O3_6 
REMARK    4  A    between atoms: C3_5  and  C6_10 
REMARK    5  A    between atoms: O3_6  and  C4_7 
REMARK    6  A    between atoms: C7_11  and  O5_12 
REMARK    7  A    between atoms: C8_14  and  O6_15 
REMARK    8  A    between atoms: O6_15  and  C9_16 
REMARK    9  A    between atoms: C10_19  and  O8_20 
REMARK   10  A    between atoms: C11_22  and  C12_23 
REMARK   11  A    between atoms: C12_23  and  O9_24 
REMARK   12  A    between atoms: C12_23  and  C15_28 
REMARK   13  A    between atoms: O9_24  and  C13_25 
REMARK   14  A    between atoms: C15_28  and  O11_30 
REMARK   15  A    between atoms: C17_32  and  O12_33 
ROOT
HETATM    1  C6  UNL     1       3.990  -3.232  40.752  1.00  0.00     0.067 A 
HETATM    2  C7  UNL     1       5.127  -4.059  40.824  1.00  0.00     0.116 A 
HETATM    3  C8  UNL     1       5.010  -5.400  41.089  1.00  0.00     0.148 A 
HETATM    4  C10 UNL     1       3.805  -5.958  41.289  1.00  0.00     0.114 A 
HETATM    5  C11 UNL     1       2.643  -5.192  41.235  1.00  0.00     0.044 A 
HETATM    6  C17 UNL     1       2.771  -3.830  40.962  1.00  0.00     0.091 A 
ENDROOT
BRANCH   1   7
HETATM    7  C3  UNL     1       4.206  -1.796  40.464  1.00  0.00     0.319 C 
BRANCH   7   8
HETATM    8  O2  UNL     1       4.126  -1.541  39.037  1.00  0.00    -0.285 OA
BRANCH   8   9
HETATM    9  C2  UNL     1       5.258  -1.286  38.297  1.00  0.00     0.257 C 
HETATM   10  C1  UNL     1       5.322  -1.019  36.845  1.00  0.00     0.126 C 
HETATM   11  O1  UNL     1       6.358  -1.282  38.939  1.00  0.00    -0.266 OA
ENDBRANCH   8   9
ENDBRANCH   7   8
BRANCH   7  12
HETATM   12  O3  UNL     1       3.221  -0.945  41.025  1.00  0.00    -0.285 OA
BRANCH  12  13
HETATM   13  C4  UNL     1       2.903   0.296  40.392  1.00  0.00     0.257 C 
HETATM   14  C5  UNL     1       1.642   0.319  39.548  1.00  0.00     0.126 C 
HETATM   15  O4  UNL     1       3.666   1.230  40.581  1.00  0.00    -0.266 OA
ENDBRANCH  12  13
ENDBRANCH   7  12
ENDBRANCH   1   7
BRANCH   2  16
HETATM   16  O5  UNL     1       6.355  -3.504  40.625  1.00  0.00    -0.357 OA
ATOM     17  H5  UNL     1       6.822  -3.145  41.371  1.00  0.00     0.217 HD
ENDBRANCH   2  16
BRANCH   6  18
HETATM   18  O12 UNL     1       1.628  -3.025  40.890  1.00  0.00    -0.359 OA
ATOM     19  H12 UNL     1       0.988  -3.226  40.217  1.00  0.00     0.217 HD
ENDBRANCH   6  18
BRANCH   3  20
HETATM   20  O6  UNL     1       6.130  -6.260  41.171  1.00  0.00    -0.258 OA
BRANCH  20  21
HETATM   21  C9  UNL     1       6.651  -6.335  42.486  1.00  0.00     0.378 C 
HETATM   22  N1  UNL     1       6.218  -7.314  43.398  1.00  0.00    -0.032 NA
HETATM   23  O7  UNL     1       7.528  -5.524  42.894  1.00  0.00    -0.242 OA
ENDBRANCH  20  21
ENDBRANCH   3  20
BRANCH   5  24
HETATM   24  C12 UNL     1       1.356  -5.827  41.374  1.00  0.00     0.199 C 
BRANCH  24  25
HETATM   25  O9  UNL     1       0.751  -5.628  40.040  1.00  0.00    -0.309 OA
BRANCH  25  26
HETATM   26  C13 UNL     1       0.780  -6.612  39.080  1.00  0.00     0.255 C 
HETATM   27  C14 UNL     1       0.033  -6.473  37.782  1.00  0.00     0.126 C 
HETATM   28  O10 UNL     1       1.459  -7.642  39.328  1.00  0.00    -0.266 OA
ENDBRANCH  25  26
ENDBRANCH  24  25
BRANCH  24  29
HETATM   29  C15 UNL     1       0.322  -5.109  42.218  1.00  0.00     0.148 C 
HETATM   30  C16 UNL     1      -1.024  -5.638  42.333  1.00  0.00     0.042 C 
BRANCH  29  31
HETATM   31  O11 UNL     1       0.910  -4.949  43.472  1.00  0.00    -0.393 OA
ATOM     32  H11 UNL     1       0.718  -5.749  43.946  1.00  0.00     0.210 HD
ENDBRANCH  29  31
ENDBRANCH  24  29
ENDBRANCH   5  24
BRANCH   4  33
HETATM   33  O8  UNL     1       3.656  -7.289  41.556  1.00  0.00    -0.357 OA
ATOM     34  H8  UNL     1       2.876  -7.636  41.973  1.00  0.00     0.217 HD
ENDBRANCH   4  33
TORSDOF 15
ENDMDL
MODEL 3
REMARK VINA RESULT: -6.974809963      2.233      6.433
REMARK  15 active torsions:
REMARK  status: ('A' for Active; 'I' for Inactive)
REMARK    1  A    between atoms: C2_2  and  O2_4 
REMARK    2  A    between atoms: O2_4  and  C3_5 
REMARK    3  A    between atoms: C3_5  and  O3_6 
REMARK    4  A    between atoms: C3_5  and  C6_10 
REMARK    5  A    between atoms: O3_6  and  C4_7 
REMARK    6  A    between atoms: C7_11  and  O5_12 
REMARK    7  A    between atoms: C8_14  and  O6_15 
REMARK    8  A    between atoms: O6_15  and  C9_16 
REMARK    9  A    between atoms: C10_19  and  O8_20 
REMARK   10  A    between atoms: C11_22  and  C12_23 
REMARK   11  A    between atoms: C12_23  and  O9_24 
REMARK   12  A    between atoms: C12_23  and  C15_28 
REMARK   13  A    between atoms: O9_24  and  C13_25 
REMARK   14  A    between atoms: C15_28  and  O11_30 
REMARK   15  A    between atoms: C17_32  and  O12_33 
ROOT
HETATM    1  C6  UNL     1       2.254  -3.786  40.889  1.00  0.00     0.067 A 
HETATM    2  C7  UNL     1       1.980  -2.417  41.074  1.00  0.00     0.116 A 
HETATM    3  C8  UNL     1       2.943  -1.466  40.848  1.00  0.00     0.148 A 
HETATM    4  C10 UNL     1       4.174  -1.818  40.445  1.00  0.00     0.114 A 
HETATM    5  C11 UNL     1       4.508  -3.156  40.250  1.00  0.00     0.044 A 
HETATM    6  C17 UNL     1       3.523  -4.116  40.479  1.00  0.00     0.091 A 
ENDROOT
BRANCH   1   7
HETATM    7  C3  UNL     1       1.160  -4.745  41.159  1.00  0.00     0.319 C 
BRANCH   7   8
HETATM    8  O2  UNL     1       1.129  -5.785  40.146  1.00  0.00    -0.285 OA
BRANCH   8   9
HETATM    9  C2  UNL     1      -0.020  -6.049  39.436  1.00  0.00     0.257 C 
HETATM   10  C1  UNL     1      -0.105  -6.578  38.058  1.00  0.00     0.126 C 
HETATM   11  O1  UNL     1      -1.118  -5.810  40.037  1.00  0.00    -0.266 OA
ENDBRANCH   8   9
ENDBRANCH   7   8
BRANCH   7  12
HETATM   12  O3  UNL     1       1.306  -5.453  42.378  1.00  0.00    -0.285 OA
BRANCH  12  13
HETATM   13  C4  UNL     1       0.480  -5.128  43.498  1.00  0.00     0.257 C 
HETATM   14  C5  UNL     1       0.677  -5.965  44.748  1.00  0.00     0.126 C 
HETATM   15  O4  UNL     1      -0.312  -4.209  43.358  1.00  0.00    -0.266 OA
ENDBRANCH  12  13
ENDBRANCH   7  12
ENDBRANCH   1   7
BRANCH   2  16
HETATM   16  O5  UNL     1       0.733  -2.048  41.484  1.00  0.00    -0.357 OA
ATOM     17  H5  UNL     1       0.484  -2.205  42.387  1.00  0.00     0.217 HD
ENDBRANCH   2  16
BRANCH   6  18
HETATM   18  O12 UNL     1       3.815  -5.471  40.285  1.00  0.00    -0.359 OA
ATOM     19  H12 UNL     1       4.728  -5.731  40.286  1.00  0.00     0.217 HD
ENDBRANCH   6  18
BRANCH   3  20
HETATM   20  O6  UNL     1       2.703  -0.083  41.025  1.00  0.00    -0.258 OA
BRANCH  20  21
HETATM   21  C9  UNL     1       2.244   0.536  39.836  1.00  0.00     0.378 C 
HETATM   22  N1  UNL     1       3.077   1.365  39.066  1.00  0.00    -0.032 NA
HETATM   23  O7  UNL     1       1.065   0.367  39.419  1.00  0.00    -0.242 OA
ENDBRANCH  20  21
ENDBRANCH   3  20
BRANCH   5  24
HETATM   24  C12 UNL     1       5.813  -3.503  39.741  1.00  0.00     0.199 C 
BRANCH  24  25
HETATM   25  O9  UNL     1       5.590  -3.545  38.280  1.00  0.00    -0.309 OA
BRANCH  25  26
HETATM   26  C13 UNL     1       6.140  -2.606  37.440  1.00  0.00     0.255 C 
HETATM   27  C14 UNL     1       5.329  -1.465  36.891  1.00  0.00     0.126 C 
HETATM   28  O10 UNL     1       7.356  -2.738  37.142  1.00  0.00    -0.266 OA
ENDBRANCH  25  26
ENDBRANCH  24  25
BRANCH  24  29
HETATM   29  C15 UNL     1       6.277  -4.931  39.955  1.00  0.00     0.148 C 
HETATM   30  C16 UNL     1       7.254  -5.524  39.064  1.00  0.00     0.042 C 
BRANCH  29  31
HETATM   31  O11 UNL     1       6.701  -4.990  41.281  1.00  0.00    -0.393 OA
ATOM     32  H11 UNL     1       7.182  -5.805  41.358  1.00  0.00     0.210 HD
ENDBRANCH  29  31
ENDBRANCH  24  29
ENDBRANCH   5  24
BRANCH   4  33
HETATM   33  O8  UNL     1       5.154  -0.895  40.213  1.00  0.00    -0.357 OA
ATOM     34  H8  UNL     1       5.940  -0.848  40.746  1.00  0.00     0.217 HD
ENDBRANCH   4  33
TORSDOF 15
ENDMDL
MODEL 4
REMARK VINA RESULT: -6.868433766      2.021      6.157
REMARK  15 active torsions:
REMARK  status: ('A' for Active; 'I' for Inactive)
REMARK    1  A    between atoms: C2_2  and  O2_4 
REMARK    2  A    between atoms: O2_4  and  C3_5 
REMARK    3  A    between atoms: C3_5  and  O3_6 
REMARK    4  A    between atoms: C3_5  and  C6_10 
REMARK    5  A    between atoms: O3_6  and  C4_7 
REMARK    6  A    between atoms: C7_11  and  O5_12 
REMARK    7  A    between atoms: C8_14  and  O6_15 
REMARK    8  A    between atoms: O6_15  and  C9_16 
REMARK    9  A    between atoms: C10_19  and  O8_20 
REMARK   10  A    between atoms: C11_22  and  C12_23 
REMARK   11  A    between atoms: C12_23  and  O9_24 
REMARK   12  A    between atoms: C12_23  and  C15_28 
REMARK   13  A    between atoms: O9_24  and  C13_25 
REMARK   14  A    between atoms: C15_28  and  O11_30 
REMARK   15  A    between atoms: C17_32  and  O12_33 
ROOT
HETATM    1  C6  UNL     1       2.097  -4.073  41.658  1.00  0.00     0.067 A 
HETATM    2  C7  UNL     1       2.993  -5.159  41.609  1.00  0.00     0.116 A 
HETATM    3  C8  UNL     1       4.247  -5.017  41.071  1.00  0.00     0.148 A 
HETATM    4  C10 UNL     1       4.651  -3.837  40.574  1.00  0.00     0.114 A 
HETATM    5  C11 UNL     1       3.810  -2.728  40.589  1.00  0.00     0.044 A 
HETATM    6  C17 UNL     1       2.538  -2.880  41.141  1.00  0.00     0.091 A 
ENDROOT
BRANCH   1   7
HETATM    7  C3  UNL     1       0.763  -4.314  42.253  1.00  0.00     0.319 C 
BRANCH   7   8
HETATM    8  O2  UNL     1       0.799  -4.110  43.690  1.00  0.00    -0.285 OA
BRANCH   8   9
HETATM    9  C2  UNL     1       0.478  -5.127  44.559  1.00  0.00     0.257 C 
HETATM   10  C1  UNL     1       0.351  -5.026  46.029  1.00  0.00     0.126 C 
HETATM   11  O1  UNL     1       0.271  -6.269  44.033  1.00  0.00    -0.266 OA
ENDBRANCH   8   9
ENDBRANCH   7   8
BRANCH   7  12
HETATM   12  O3  UNL     1      -0.236  -3.417  41.799  1.00  0.00    -0.285 OA
BRANCH  12  13
HETATM   13  C4  UNL     1      -1.573  -3.878  41.598  1.00  0.00     0.257 C 
HETATM   14  C5  UNL     1      -1.739  -5.109  40.727  1.00  0.00     0.126 C 
HETATM   15  O4  UNL     1      -2.467  -3.247  42.139  1.00  0.00    -0.266 OA
ENDBRANCH  12  13
ENDBRANCH   7  12
ENDBRANCH   1   7
BRANCH   2  16
HETATM   16  O5  UNL     1       2.593  -6.362  42.110  1.00  0.00    -0.357 OA
ATOM     17  H5  UNL     1       2.536  -7.105  41.521  1.00  0.00     0.217 HD
ENDBRANCH   2  16
BRANCH   6  18
HETATM   18  O12 UNL     1       1.664  -1.787  41.184  1.00  0.00    -0.359 OA
ATOM     19  H12 UNL     1       1.316  -1.533  42.030  1.00  0.00     0.217 HD
ENDBRANCH   6  18
BRANCH   3  20
HETATM   20  O6  UNL     1       5.172  -6.086  41.004  1.00  0.00    -0.258 OA
BRANCH  20  21
HETATM   21  C9  UNL     1       5.878  -6.258  42.220  1.00  0.00     0.378 C 
HETATM   22  N1  UNL     1       5.441  -7.160  43.206  1.00  0.00    -0.032 NA
HETATM   23  O7  UNL     1       6.931  -5.609  42.467  1.00  0.00    -0.242 OA
ENDBRANCH  20  21
ENDBRANCH   3  20
BRANCH   5  24
HETATM   24  C12 UNL     1       4.295  -1.452  40.122  1.00  0.00     0.199 C 
BRANCH  24  25
HETATM   25  O9  UNL     1       3.064  -0.798  39.629  1.00  0.00    -0.309 OA
BRANCH  25  26
HETATM   26  C13 UNL     1       2.792   0.523  39.897  1.00  0.00     0.255 C 
HETATM   27  C14 UNL     1       1.616   1.228  39.280  1.00  0.00     0.126 C 
HETATM   28  O10 UNL     1       3.570   1.126  40.681  1.00  0.00    -0.266 OA
ENDBRANCH  25  26
ENDBRANCH  24  25
BRANCH  24  29
HETATM   29  C15 UNL     1       5.100  -1.451  38.837  1.00  0.00     0.148 C 
HETATM   30  C16 UNL     1       4.653  -0.677  37.695  1.00  0.00     0.042 C 
BRANCH  29  31
HETATM   31  O11 UNL     1       6.396  -1.099  39.210  1.00  0.00    -0.393 OA
ATOM     32  H11 UNL     1       6.682  -0.464  38.564  1.00  0.00     0.210 HD
ENDBRANCH  29  31
ENDBRANCH  24  29
ENDBRANCH   5  24
BRANCH   4  33
HETATM   33  O8  UNL     1       5.892  -3.665  40.030  1.00  0.00    -0.357 OA
ATOM     34  H8  UNL     1       6.046  -3.077  39.299  1.00  0.00     0.217 HD
ENDBRANCH   4  33
TORSDOF 15
ENDMDL
MODEL 5
REMARK VINA RESULT: -6.855134291      1.834      3.099
REMARK  15 active torsions:
REMARK  status: ('A' for Active; 'I' for Inactive)
REMARK    1  A    between atoms: C2_2  and  O2_4 
REMARK    2  A    between atoms: O2_4  and  C3_5 
REMARK    3  A    between atoms: C3_5  and  O3_6 
REMARK    4  A    between atoms: C3_5  and  C6_10 
REMARK    5  A    between atoms: O3_6  and  C4_7 
REMARK    6  A    between atoms: C7_11  and  O5_12 
REMARK    7  A    between atoms: C8_14  and  O6_15 
REMARK    8  A    between atoms: O6_15  and  C9_16 
REMARK    9  A    between atoms: C10_19  and  O8_20 
REMARK   10  A    between atoms: C11_22  and  C12_23 
REMARK   11  A    between atoms: C12_23  and  O9_24 
REMARK   12  A    between atoms: C12_23  and  C15_28 
REMARK   13  A    between atoms: O9_24  and  C13_25 
REMARK   14  A    between atoms: C15_28  and  O11_30 
REMARK   15  A    between atoms: C17_32  and  O12_33 
ROOT
HETATM    1  C6  UNL     1       4.131  -3.479  40.472  1.00  0.00     0.067 A 
HETATM    2  C7  UNL     1       5.196  -4.383  40.648  1.00  0.00     0.116 A 
HETATM    3  C8  UNL     1       5.012  -5.575  41.303  1.00  0.00     0.148 A 
HETATM    4  C10 UNL     1       3.809  -5.907  41.797  1.00  0.00     0.114 A 
HETATM    5  C11 UNL     1       2.718  -5.053  41.661  1.00  0.00     0.044 A 
HETATM    6  C17 UNL     1       2.913  -3.846  40.991  1.00  0.00     0.091 A 
ENDROOT
BRANCH   1   7
HETATM    7  C3  UNL     1       4.417  -2.215  39.757  1.00  0.00     0.319 C 
BRANCH   7   8
HETATM    8  O2  UNL     1       4.225  -1.075  40.634  1.00  0.00    -0.285 OA
BRANCH   8   9
HETATM    9  C2  UNL     1       3.469   0.005  40.240  1.00  0.00     0.257 C 
HETATM   10  C1  UNL     1       2.375   0.001  39.246  1.00  0.00     0.126 C 
HETATM   11  O1  UNL     1       3.748   1.117  40.795  1.00  0.00    -0.266 OA
ENDBRANCH   8   9
ENDBRANCH   7   8
BRANCH   7  12
HETATM   12  O3  UNL     1       5.760  -2.096  39.320  1.00  0.00    -0.285 OA
BRANCH  12  13
HETATM   13  C4  UNL     1       6.053  -2.005  37.925  1.00  0.00     0.257 C 
HETATM   14  C5  UNL     1       5.252  -0.990  37.131  1.00  0.00     0.126 C 
HETATM   15  O4  UNL     1       6.919  -2.747  37.488  1.00  0.00    -0.266 OA
ENDBRANCH  12  13
ENDBRANCH   7  12
ENDBRANCH   1   7
BRANCH   2  16
HETATM   16  O5  UNL     1       6.423  -4.055  40.151  1.00  0.00    -0.357 OA
ATOM     17  H5  UNL     1       7.178  -4.561  40.429  1.00  0.00     0.217 HD
ENDBRANCH   2  16
BRANCH   6  18
HETATM   18  O12 UNL     1       1.840  -2.963  40.823  1.00  0.00    -0.359 OA
ATOM     19  H12 UNL     1       1.341  -3.021  40.016  1.00  0.00     0.217 HD
ENDBRANCH   6  18
BRANCH   3  20
HETATM   20  O6  UNL     1       6.060  -6.505  41.499  1.00  0.00    -0.258 OA
BRANCH  20  21
HETATM   21  C9  UNL     1       6.635  -6.398  42.789  1.00  0.00     0.378 C 
HETATM   22  N1  UNL     1       6.252  -7.249  43.841  1.00  0.00    -0.032 NA
HETATM   23  O7  UNL     1       7.517  -5.534  43.047  1.00  0.00    -0.242 OA
ENDBRANCH  20  21
ENDBRANCH   3  20
BRANCH   5  24
HETATM   24  C12 UNL     1       1.418  -5.468  42.130  1.00  0.00     0.199 C 
BRANCH  24  25
HETATM   25  O9  UNL     1       0.675  -5.690  40.871  1.00  0.00    -0.309 OA
BRANCH  25  26
HETATM   26  C13 UNL     1       0.825  -6.845  40.139  1.00  0.00     0.255 C 
HETATM   27  C14 UNL     1       0.769  -6.841  38.637  1.00  0.00     0.126 C 
HETATM   28  O10 UNL     1       1.009  -7.914  40.778  1.00  0.00    -0.266 OA
ENDBRANCH  25  26
ENDBRANCH  24  25
BRANCH  24  29
HETATM   29  C15 UNL     1       0.536  -4.399  42.745  1.00  0.00     0.148 C 
HETATM   30  C16 UNL     1      -0.870  -4.322  42.398  1.00  0.00     0.042 C 
BRANCH  29  31
HETATM   31  O11 UNL     1       0.710  -4.519  44.122  1.00  0.00    -0.393 OA
ATOM     32  H11 UNL     1       0.770  -5.452  44.290  1.00  0.00     0.210 HD
ENDBRANCH  29  31
ENDBRANCH  24  29
ENDBRANCH   5  24
BRANCH   4  33
HETATM   33  O8  UNL     1       3.595  -7.084  42.456  1.00  0.00    -0.357 OA
ATOM     34  H8  UNL     1       3.976  -7.263  43.308  1.00  0.00     0.217 HD
ENDBRANCH   4  33
TORSDOF 15
ENDMDL
