MODEL 1
REMARK VINA RESULT: -7.926823623      0.000      0.000
REMARK  11 active torsions:
REMARK  status: ('A' for Active; 'I' for Inactive)
REMARK    1  A    between atoms: C2_2  and  C3_3 
REMARK    2  A    between atoms: C3_3  and  O1_4 
REMARK    3  A    between atoms: O1_4  and  C4_5 
REMARK    4  A    between atoms: C4_5  and  O2_6 
REMARK    5  A    between atoms: C4_5  and  C5_8 
REMARK    6  A    between atoms: C6_9  and  C7_10 
REMARK    7  A    between atoms: C7_10  and  N1_12 
REMARK    8  A    between atoms: N1_12  and  C9_14 
REMARK    9  A    between atoms: N9_31  and  C11_32 
REMARK   10  A    between atoms: C13_38  and  C14_39 
REMARK   11  A    between atoms: C14_39  and  N12_40 
ROOT
HETATM    1  C5  UNL     1       5.365  -3.448  39.262  1.00  0.00     0.142 A 
HETATM    2  C6  UNL     1       6.050  -3.252  38.025  1.00  0.00     0.083 A 
HETATM    3  N7  UNL     1       6.684  -4.482  37.814  1.00  0.00    -0.285 N 
ATOM      4  H7  UNL     1       7.283  -4.734  37.028  1.00  0.00     0.188 HD
HETATM    5  N8  UNL     1       6.369  -5.214  38.789  1.00  0.00    -0.234 N 
ATOM      6  H8  UNL     1       6.709  -6.172  38.872  1.00  0.00     0.209 HD
HETATM    7  N9  UNL     1       5.579  -4.682  39.693  1.00  0.00    -0.226 N 
ENDROOT
BRANCH   2   8
HETATM    8  C7  UNL     1       5.978  -2.148  37.048  1.00  0.00     0.149 C 
HETATM    9  C8  UNL     1       7.406  -2.254  36.352  1.00  0.00     0.039 C 
BRANCH   8  10
HETATM   10  N1  UNL     1       5.621  -0.899  37.222  1.00  0.00    -0.214 N 
ATOM     11  H1  UNL     1       6.457  -0.355  37.434  1.00  0.00     0.178 HD
BRANCH  10  12
HETATM   12  C9  UNL     1       4.641  -0.124  37.224  1.00  0.00     0.709 A 
HETATM   13  N2  UNL     1       4.250   0.429  36.041  1.00  0.00    -0.117 N 
HETATM   14  N3  UNL     1       3.314   1.362  35.990  1.00  0.00    -0.214 N 
ATOM     15  H2  UNL     1       4.689   0.116  35.176  1.00  0.00     0.207 HD
HETATM   16  N4  UNL     1       2.699   1.821  37.091  1.00  0.00    -0.117 N 
ATOM     17  H3  UNL     1       3.050   1.745  35.083  1.00  0.00     0.209 HD
HETATM   18  C10 UNL     1       3.069   1.277  38.266  1.00  0.00     0.706 A 
ATOM     19  H4  UNL     1       1.986   2.548  37.041  1.00  0.00     0.207 HD
HETATM   20  N5  UNL     1       2.492   1.677  39.347  1.00  0.00    -0.233 N 
HETATM   21  N6  UNL     1       4.025   0.319  38.345  1.00  0.00    -0.020 N 
ATOM     22  H52 UNL     1       1.773   2.397  39.287  1.00  0.00     0.174 HD
ATOM     23  H51 UNL     1       2.773   1.265  40.237  1.00  0.00     0.174 HD
ATOM     24  H6  UNL     1       4.281  -0.070  39.253  1.00  0.00     0.203 HD
ENDBRANCH  10  12
ENDBRANCH   8  10
ENDBRANCH   2   8
BRANCH   1  25
HETATM   25  C4  UNL     1       4.640  -2.380  39.874  1.00  0.00     0.210 C 
BRANCH  25  26
HETATM   26  O1  UNL     1       3.360  -2.009  40.128  1.00  0.00    -0.329 OA
BRANCH  26  27
HETATM   27  C3  UNL     1       2.799  -2.432  41.325  1.00  0.00     0.177 C 
BRANCH  27  28
HETATM   28  C2  UNL     1       1.319  -2.255  41.449  1.00  0.00     0.022 C 
HETATM   29  C1  UNL     1       0.540  -3.445  41.774  1.00  0.00     0.007 C 
ENDBRANCH  27  28
ENDBRANCH  26  27
ENDBRANCH  25  26
BRANCH  25  30
HETATM   30  O2  UNL     1       5.455  -1.444  40.428  1.00  0.00    -0.339 OA
ATOM     31  H2  UNL     1       6.259  -1.880  40.684  1.00  0.00     0.220 HD
ENDBRANCH  25  30
ENDBRANCH   1  25
BRANCH   7  32
HETATM   32  C11 UNL     1       4.944  -5.429  40.713  1.00  0.00     0.132 A 
HETATM   33  S1  UNL     1       3.261  -5.974  40.766  1.00  0.00     0.008 SA
HETATM   34  N10 UNL     1       3.315  -6.914  42.129  1.00  0.00    -0.312 N 
HETATM   35  C12 UNL     1       4.533  -6.806  42.526  1.00  0.00     0.139 A 
ATOM     36  H10 UNL     1       2.560  -7.452  42.554  1.00  0.00     0.175 HD
HETATM   37  N11 UNL     1       4.880  -7.721  43.614  1.00  0.00    -0.081 NA
HETATM   38  C13 UNL     1       5.449  -6.048  41.840  1.00  0.00     0.083 A 
BRANCH  38  39
HETATM   39  C14 UNL     1       6.877  -5.978  42.306  1.00  0.00     0.126 C 
HETATM   40  N13 UNL     1       7.867  -6.648  41.319  1.00  0.00    -0.082 NA
BRANCH  39  41
HETATM   41  N12 UNL     1       7.432  -5.602  43.235  1.00  0.00    -0.387 N 
ATOM     42 2H12 UNL     1       6.877  -5.770  44.074  1.00  0.00     0.157 HD
ATOM     43 1H12 UNL     1       8.303  -5.107  43.429  1.00  0.00     0.157 HD
ENDBRANCH  39  41
ENDBRANCH  38  39
ENDBRANCH   7  32
TORSDOF 11
ENDMDL
MODEL 2
REMARK VINA RESULT: -7.421905603      2.020      4.158
REMARK  11 active torsions:
REMARK  status: ('A' for Active; 'I' for Inactive)
REMARK    1  A    between atoms: C2_2  and  C3_3 
REMARK    2  A    between atoms: C3_3  and  O1_4 
REMARK    3  A    between atoms: O1_4  and  C4_5 
REMARK    4  A    between atoms: C4_5  and  O2_6 
REMARK    5  A    between atoms: C4_5  and  C5_8 
REMARK    6  A    between atoms: C6_9  and  C7_10 
REMARK    7  A    between atoms: C7_10  and  N1_12 
REMARK    8  A    between atoms: N1_12  and  C9_14 
REMARK    9  A    between atoms: N9_31  and  C11_32 
REMARK   10  A    between atoms: C13_38  and  C14_39 
REMARK   11  A    between atoms: C14_39  and  N12_40 
ROOT
HETATM    1  C5  UNL     1       4.103  -2.903  40.520  1.00  0.00     0.142 A 
HETATM    2  C6  UNL     1       3.166  -1.827  40.559  1.00  0.00     0.083 A 
HETATM    3  N7  UNL     1       2.045  -2.403  41.169  1.00  0.00    -0.285 N 
ATOM      4  H7  UNL     1       1.155  -1.946  41.369  1.00  0.00     0.188 HD
HETATM    5  N8  UNL     1       2.355  -3.597  41.420  1.00  0.00    -0.234 N 
ATOM      6  H8  UNL     1       1.700  -4.237  41.870  1.00  0.00     0.209 HD
HETATM    7  N9  UNL     1       3.564  -3.977  41.077  1.00  0.00    -0.226 N 
ENDROOT
BRANCH   2   8
HETATM    8  C7  UNL     1       3.334  -0.391  40.261  1.00  0.00     0.149 C 
HETATM    9  C8  UNL     1       1.825   0.056  40.022  1.00  0.00     0.039 C 
BRANCH   8  10
HETATM   10  N1  UNL     1       4.148   0.199  39.420  1.00  0.00    -0.214 N 
ATOM     11  H1  UNL     1       4.663   0.919  39.928  1.00  0.00     0.178 HD
BRANCH  10  12
HETATM   12  C9  UNL     1       4.530   0.212  38.231  1.00  0.00     0.709 A 
HETATM   13  N2  UNL     1       3.890   1.035  37.354  1.00  0.00    -0.117 N 
HETATM   14  N3  UNL     1       4.147   0.997  36.057  1.00  0.00    -0.214 N 
ATOM     15  H2  UNL     1       3.196   1.695  37.705  1.00  0.00     0.207 HD
HETATM   16  N4  UNL     1       5.043   0.151  35.528  1.00  0.00    -0.117 N 
ATOM     17  H3  UNL     1       3.646   1.634  35.438  1.00  0.00     0.209 HD
HETATM   18  C10 UNL     1       5.691  -0.662  36.385  1.00  0.00     0.706 A 
ATOM     19  H4  UNL     1       5.226   0.123  34.526  1.00  0.00     0.207 HD
HETATM   20  N5  UNL     1       6.572  -1.481  35.922  1.00  0.00    -0.233 N 
HETATM   21  N6  UNL     1       5.446  -0.643  37.719  1.00  0.00    -0.020 N 
ATOM     22  H52 UNL     1       6.756  -1.495  34.919  1.00  0.00     0.174 HD
ATOM     23  H51 UNL     1       7.063  -2.097  36.570  1.00  0.00     0.174 HD
ATOM     24  H6  UNL     1       5.954  -1.275  38.337  1.00  0.00     0.203 HD
ENDBRANCH  10  12
ENDBRANCH   8  10
ENDBRANCH   2   8
BRANCH   1  25
HETATM   25  C4  UNL     1       5.376  -2.741  39.894  1.00  0.00     0.210 C 
BRANCH  25  26
HETATM   26  O1  UNL     1       6.049  -3.158  38.792  1.00  0.00    -0.329 OA
BRANCH  26  27
HETATM   27  C3  UNL     1       5.684  -4.381  38.245  1.00  0.00     0.177 C 
BRANCH  27  28
HETATM   28  C2  UNL     1       6.793  -5.179  37.636  1.00  0.00     0.022 C 
HETATM   29  C1  UNL     1       7.696  -5.859  38.559  1.00  0.00     0.007 C 
ENDBRANCH  27  28
ENDBRANCH  26  27
ENDBRANCH  25  26
BRANCH  25  30
HETATM   30  O2  UNL     1       6.178  -1.865  40.555  1.00  0.00    -0.339 OA
ATOM     31  H2  UNL     1       6.319  -2.210  41.429  1.00  0.00     0.220 HD
ENDBRANCH  25  30
ENDBRANCH   1  25
BRANCH   7  32
HETATM   32  C11 UNL     1       4.149  -5.195  41.494  1.00  0.00     0.132 A 
HETATM   33  S1  UNL     1       5.829  -5.479  41.973  1.00  0.00     0.008 SA
HETATM   34  N10 UNL     1       5.710  -7.049  42.491  1.00  0.00    -0.312 N 
HETATM   35  C12 UNL     1       4.474  -7.342  42.295  1.00  0.00     0.139 A 
ATOM     36  H10 UNL     1       6.444  -7.643  42.873  1.00  0.00     0.175 HD
HETATM   37  N11 UNL     1       4.076  -8.626  42.871  1.00  0.00    -0.081 NA
HETATM   38  C13 UNL     1       3.590  -6.426  41.777  1.00  0.00     0.083 A 
BRANCH  38  39
HETATM   39  C14 UNL     1       2.141  -6.786  41.602  1.00  0.00     0.126 C 
HETATM   40  N13 UNL     1       1.642  -6.587  40.148  1.00  0.00    -0.082 NA
BRANCH  39  41
HETATM   41  N12 UNL     1       1.279  -7.124  42.278  1.00  0.00    -0.387 N 
ATOM     42 2H12 UNL     1       1.167  -6.479  43.060  1.00  0.00     0.157 HD
ATOM     43 1H12 UNL     1       0.639  -7.916  42.322  1.00  0.00     0.157 HD
ENDBRANCH  39  41
ENDBRANCH  38  39
ENDBRANCH   7  32
TORSDOF 11
ENDMDL
MODEL 3
REMARK VINA RESULT: -7.361181059      1.174      1.950
REMARK  11 active torsions:
REMARK  status: ('A' for Active; 'I' for Inactive)
REMARK    1  A    between atoms: C2_2  and  C3_3 
REMARK    2  A    between atoms: C3_3  and  O1_4 
REMARK    3  A    between atoms: O1_4  and  C4_5 
REMARK    4  A    between atoms: C4_5  and  O2_6 
REMARK    5  A    between atoms: C4_5  and  C5_8 
REMARK    6  A    between atoms: C6_9  and  C7_10 
REMARK    7  A    between atoms: C7_10  and  N1_12 
REMARK    8  A    between atoms: N1_12  and  C9_14 
REMARK    9  A    between atoms: N9_31  and  C11_32 
REMARK   10  A    between atoms: C13_38  and  C14_39 
REMARK   11  A    between atoms: C14_39  and  N12_40 
ROOT
HETATM    1  C5  UNL     1       5.572  -3.622  39.555  1.00  0.00     0.142 A 
HETATM    2  C6  UNL     1       6.034  -3.353  38.232  1.00  0.00     0.083 A 
HETATM    3  N7  UNL     1       6.734  -4.518  37.896  1.00  0.00    -0.285 N 
ATOM      4  H7  UNL     1       7.222  -4.707  37.021  1.00  0.00     0.188 HD
HETATM    5  N8  UNL     1       6.641  -5.284  38.891  1.00  0.00    -0.234 N 
ATOM      6  H8  UNL     1       7.074  -6.208  38.897  1.00  0.00     0.209 HD
HETATM    7  N9  UNL     1       5.959  -4.835  39.919  1.00  0.00    -0.226 N 
ENDROOT
BRANCH   2   8
HETATM    8  C7  UNL     1       5.712  -2.251  37.304  1.00  0.00     0.149 C 
HETATM    9  C8  UNL     1       6.970  -2.288  36.328  1.00  0.00     0.039 C 
BRANCH   8  10
HETATM   10  N1  UNL     1       5.341  -1.020  37.562  1.00  0.00    -0.214 N 
ATOM     11  H1  UNL     1       6.081  -0.572  38.103  1.00  0.00     0.178 HD
BRANCH  10  12
HETATM   12  C9  UNL     1       4.423  -0.191  37.395  1.00  0.00     0.709 A 
HETATM   13  N2  UNL     1       4.222   0.310  36.143  1.00  0.00    -0.117 N 
HETATM   14  N3  UNL     1       3.364   1.290  35.920  1.00  0.00    -0.214 N 
ATOM     15  H2  UNL     1       4.746  -0.082  35.361  1.00  0.00     0.207 HD
HETATM   16  N4  UNL     1       2.646   1.853  36.905  1.00  0.00    -0.117 N 
ATOM     17  H3  UNL     1       3.243   1.632  34.967  1.00  0.00     0.209 HD
HETATM   18  C10 UNL     1       2.827   1.362  38.146  1.00  0.00     0.706 A 
ATOM     19  H4  UNL     1       1.995   2.616  36.723  1.00  0.00     0.207 HD
HETATM   20  N5  UNL     1       2.146   1.862  39.119  1.00  0.00    -0.233 N 
HETATM   21  N6  UNL     1       3.700   0.356  38.401  1.00  0.00    -0.020 N 
ATOM     22  H52 UNL     1       1.490   2.618  38.927  1.00  0.00     0.174 HD
ATOM     23  H51 UNL     1       2.284   1.490  40.060  1.00  0.00     0.174 HD
ATOM     24  H6  UNL     1       3.813   0.011  39.354  1.00  0.00     0.203 HD
ENDBRANCH  10  12
ENDBRANCH   8  10
ENDBRANCH   2   8
BRANCH   1  25
HETATM   25  C4  UNL     1       4.861  -2.630  40.297  1.00  0.00     0.210 C 
BRANCH  25  26
HETATM   26  O1  UNL     1       3.712  -2.492  41.005  1.00  0.00    -0.329 OA
BRANCH  26  27
HETATM   27  C3  UNL     1       2.730  -1.666  40.474  1.00  0.00     0.177 C 
BRANCH  27  28
HETATM   28  C2  UNL     1       1.423  -1.655  41.203  1.00  0.00     0.022 C 
HETATM   29  C1  UNL     1       1.142  -2.800  42.063  1.00  0.00     0.007 C 
ENDBRANCH  27  28
ENDBRANCH  26  27
ENDBRANCH  25  26
BRANCH  25  30
HETATM   30  O2  UNL     1       5.538  -1.454  40.383  1.00  0.00    -0.339 OA
ATOM     31  H2  UNL     1       6.462  -1.661  40.456  1.00  0.00     0.220 HD
ENDBRANCH  25  30
ENDBRANCH   1  25
BRANCH   7  32
HETATM   32  C11 UNL     1       5.561  -5.646  41.007  1.00  0.00     0.132 A 
HETATM   33  S1  UNL     1       6.534  -6.134  42.403  1.00  0.00     0.008 SA
HETATM   34  N10 UNL     1       5.367  -6.888  43.306  1.00  0.00    -0.312 N 
HETATM   35  C12 UNL     1       4.309  -6.788  42.584  1.00  0.00     0.139 A 
ATOM     36  H10 UNL     1       5.465  -7.329  44.221  1.00  0.00     0.175 HD
HETATM   37  N11 UNL     1       3.087  -7.207  43.269  1.00  0.00    -0.081 NA
HETATM   38  C13 UNL     1       4.326  -6.151  41.367  1.00  0.00     0.083 A 
BRANCH  38  39
HETATM   39  C14 UNL     1       3.062  -6.011  40.565  1.00  0.00     0.126 C 
HETATM   40  N13 UNL     1       2.426  -7.377  40.201  1.00  0.00    -0.082 NA
BRANCH  39  41
HETATM   41  N12 UNL     1       2.462  -5.154  40.099  1.00  0.00    -0.387 N 
ATOM     42 2H12 UNL     1       1.872  -4.709  40.803  1.00  0.00     0.157 HD
ATOM     43 1H12 UNL     1       2.333  -4.760  39.168  1.00  0.00     0.157 HD
ENDBRANCH  39  41
ENDBRANCH  38  39
ENDBRANCH   7  32
TORSDOF 11
ENDMDL
MODEL 4
REMARK VINA RESULT: -7.164986608      0.660      1.211
REMARK  11 active torsions:
REMARK  status: ('A' for Active; 'I' for Inactive)
REMARK    1  A    between atoms: C2_2  and  C3_3 
REMARK    2  A    between atoms: C3_3  and  O1_4 
REMARK    3  A    between atoms: O1_4  and  C4_5 
REMARK    4  A    between atoms: C4_5  and  O2_6 
REMARK    5  A    between atoms: C4_5  and  C5_8 
REMARK    6  A    between atoms: C6_9  and  C7_10 
REMARK    7  A    between atoms: C7_10  and  N1_12 
REMARK    8  A    between atoms: N1_12  and  C9_14 
REMARK    9  A    between atoms: N9_31  and  C11_32 
REMARK   10  A    between atoms: C13_38  and  C14_39 
REMARK   11  A    between atoms: C14_39  and  N12_40 
ROOT
HETATM    1  C5  UNL     1       5.064  -3.169  39.325  1.00  0.00     0.142 A 
HETATM    2  C6  UNL     1       5.646  -2.834  38.065  1.00  0.00     0.083 A 
HETATM    3  N7  UNL     1       6.258  -4.030  37.671  1.00  0.00    -0.285 N 
ATOM      4  H7  UNL     1       6.790  -4.191  36.815  1.00  0.00     0.188 HD
HETATM    5  N8  UNL     1       6.020  -4.866  38.581  1.00  0.00    -0.234 N 
ATOM      6  H8  UNL     1       6.364  -5.826  38.531  1.00  0.00     0.209 HD
HETATM    7  N9  UNL     1       5.308  -4.441  39.599  1.00  0.00    -0.226 N 
ENDROOT
BRANCH   2   8
HETATM    8  C7  UNL     1       5.498  -1.631  37.224  1.00  0.00     0.149 C 
HETATM    9  C8  UNL     1       6.766  -1.760  36.270  1.00  0.00     0.039 C 
BRANCH   8  10
HETATM   10  N1  UNL     1       5.285  -0.386  37.574  1.00  0.00    -0.214 N 
ATOM     11  H1  UNL     1       6.179   0.106  37.560  1.00  0.00     0.178 HD
BRANCH  10  12
HETATM   12  C9  UNL     1       4.400   0.425  37.920  1.00  0.00     0.709 A 
HETATM   13  N2  UNL     1       4.333   0.792  39.230  1.00  0.00    -0.117 N 
HETATM   14  N3  UNL     1       3.341   1.534  39.691  1.00  0.00    -0.214 N 
ATOM     15  H2  UNL     1       5.066   0.487  39.871  1.00  0.00     0.207 HD
HETATM   16  N4  UNL     1       2.343   1.964  38.904  1.00  0.00    -0.117 N 
ATOM     17  H3  UNL     1       3.333   1.788  40.679  1.00  0.00     0.209 HD
HETATM   18  C10 UNL     1       2.401   1.617  37.604  1.00  0.00     0.706 A 
ATOM     19  H4  UNL     1       1.576   2.527  39.272  1.00  0.00     0.207 HD
HETATM   20  N5  UNL     1       1.471   2.022  36.809  1.00  0.00    -0.233 N 
HETATM   21  N6  UNL     1       3.408   0.858  37.107  1.00  0.00    -0.020 N 
ATOM     22  H52 UNL     1       0.713   2.593  37.183  1.00  0.00     0.174 HD
ATOM     23  H51 UNL     1       1.514   1.759  35.824  1.00  0.00     0.174 HD
ATOM     24  H6  UNL     1       3.418   0.612  36.117  1.00  0.00     0.203 HD
ENDBRANCH  10  12
ENDBRANCH   8  10
ENDBRANCH   2   8
BRANCH   1  25
HETATM   25  C4  UNL     1       4.394  -2.179  40.106  1.00  0.00     0.210 C 
BRANCH  25  26
HETATM   26  O1  UNL     1       3.135  -1.789  40.427  1.00  0.00    -0.329 OA
BRANCH  26  27
HETATM   27  C3  UNL     1       2.494  -2.476  41.448  1.00  0.00     0.177 C 
BRANCH  27  28
HETATM   28  C2  UNL     1       0.999  -2.480  41.393  1.00  0.00     0.022 C 
HETATM   29  C1  UNL     1       0.325  -3.654  41.937  1.00  0.00     0.007 C 
ENDBRANCH  27  28
ENDBRANCH  26  27
ENDBRANCH  25  26
BRANCH  25  30
HETATM   30  O2  UNL     1       5.256  -1.388  40.799  1.00  0.00    -0.339 OA
ATOM     31  H2  UNL     1       6.119  -1.505  40.421  1.00  0.00     0.220 HD
ENDBRANCH  25  30
ENDBRANCH   1  25
BRANCH   7  32
HETATM   32  C11 UNL     1       4.757  -5.298  40.580  1.00  0.00     0.132 A 
HETATM   33  S1  UNL     1       3.100  -5.914  40.669  1.00  0.00     0.008 SA
HETATM   34  N10 UNL     1       3.261  -6.966  41.939  1.00  0.00    -0.312 N 
HETATM   35  C12 UNL     1       4.493  -6.844  42.282  1.00  0.00     0.139 A 
ATOM     36  H10 UNL     1       2.549  -7.568  42.352  1.00  0.00     0.175 HD
HETATM   37  N11 UNL     1       4.931  -7.835  43.265  1.00  0.00    -0.081 NA
HETATM   38  C13 UNL     1       5.344  -5.993  41.620  1.00  0.00     0.083 A 
BRANCH  38  39
HETATM   39  C14 UNL     1       6.791  -5.906  42.018  1.00  0.00     0.126 C 
HETATM   40  N13 UNL     1       7.756  -6.290  40.867  1.00  0.00    -0.082 NA
BRANCH  39  41
HETATM   41  N12 UNL     1       7.380  -5.679  42.974  1.00  0.00    -0.387 N 
ATOM     42 2H12 UNL     1       7.425  -4.673  43.134  1.00  0.00     0.157 HD
ATOM     43 1H12 UNL     1       7.902  -6.214  43.667  1.00  0.00     0.157 HD
ENDBRANCH  39  41
ENDBRANCH  38  39
ENDBRANCH   7  32
TORSDOF 11
ENDMDL
MODEL 5
REMARK VINA RESULT: -7.088342732      2.542      4.473
REMARK  11 active torsions:
REMARK  status: ('A' for Active; 'I' for Inactive)
REMARK    1  A    between atoms: C2_2  and  C3_3 
REMARK    2  A    between atoms: C3_3  and  O1_4 
REMARK    3  A    between atoms: O1_4  and  C4_5 
REMARK    4  A    between atoms: C4_5  and  O2_6 
REMARK    5  A    between atoms: C4_5  and  C5_8 
REMARK    6  A    between atoms: C6_9  and  C7_10 
REMARK    7  A    between atoms: C7_10  and  N1_12 
REMARK    8  A    between atoms: N1_12  and  C9_14 
REMARK    9  A    between atoms: N9_31  and  C11_32 
REMARK   10  A    between atoms: C13_38  and  C14_39 
REMARK   11  A    between atoms: C14_39  and  N12_40 
ROOT
HETATM    1  C5  UNL     1       3.710  -4.047  40.741  1.00  0.00     0.142 A 
HETATM    2  C6  UNL     1       3.106  -2.755  40.684  1.00  0.00     0.083 A 
HETATM    3  N7  UNL     1       1.771  -3.014  41.019  1.00  0.00    -0.285 N 
ATOM      4  H7  UNL     1       1.013  -2.334  41.079  1.00  0.00     0.188 HD
HETATM    5  N8  UNL     1       1.694  -4.252  41.231  1.00  0.00    -0.234 N 
ATOM      6  H8  UNL     1       0.814  -4.697  41.494  1.00  0.00     0.209 HD
HETATM    7  N9  UNL     1       2.802  -4.943  41.098  1.00  0.00    -0.226 N 
ENDROOT
BRANCH   2   8
HETATM    8  C7  UNL     1       3.707  -1.416  40.537  1.00  0.00     0.149 C 
HETATM    9  C8  UNL     1       2.422  -0.483  40.661  1.00  0.00     0.039 C 
BRANCH   8  10
HETATM   10  N1  UNL     1       4.540  -0.967  39.629  1.00  0.00    -0.214 N 
ATOM     11  H1  UNL     1       5.437  -0.788  40.081  1.00  0.00     0.178 HD
BRANCH  10  12
HETATM   12  C9  UNL     1       4.647  -0.675  38.420  1.00  0.00     0.709 A 
HETATM   13  N2  UNL     1       5.720  -1.157  37.731  1.00  0.00    -0.117 N 
HETATM   14  N3  UNL     1       5.972  -0.777  36.490  1.00  0.00    -0.214 N 
ATOM     15  H2  UNL     1       6.343  -1.826  38.183  1.00  0.00     0.207 HD
HETATM   16  N4  UNL     1       5.196   0.103  35.838  1.00  0.00    -0.117 N 
ATOM     17  H3  UNL     1       6.784  -1.165  36.011  1.00  0.00     0.209 HD
HETATM   18  C10 UNL     1       4.127   0.580  36.503  1.00  0.00     0.706 A 
ATOM     19  H4  UNL     1       5.406   0.397  34.884  1.00  0.00     0.207 HD
HETATM   20  N5  UNL     1       3.345   1.415  35.910  1.00  0.00    -0.233 N 
HETATM   21  N6  UNL     1       3.846   0.205  37.776  1.00  0.00    -0.020 N 
ATOM     22  H52 UNL     1       3.556   1.696  34.952  1.00  0.00     0.174 HD
ATOM     23  H51 UNL     1       2.535   1.777  36.414  1.00  0.00     0.174 HD
ATOM     24  H6  UNL     1       3.028   0.589  38.250  1.00  0.00     0.203 HD
ENDBRANCH  10  12
ENDBRANCH   8  10
ENDBRANCH   2   8
BRANCH   1  25
HETATM   25  C4  UNL     1       5.082  -4.229  40.387  1.00  0.00     0.210 C 
BRANCH  25  26
HETATM   26  O1  UNL     1       5.945  -3.912  39.389  1.00  0.00    -0.329 OA
BRANCH  26  27
HETATM   27  C3  UNL     1       5.716  -4.479  38.143  1.00  0.00     0.177 C 
BRANCH  27  28
HETATM   28  C2  UNL     1       6.829  -5.314  37.593  1.00  0.00     0.022 C 
HETATM   29  C1  UNL     1       7.769  -5.872  38.558  1.00  0.00     0.007 C 
ENDBRANCH  27  28
ENDBRANCH  26  27
ENDBRANCH  25  26
BRANCH  25  30
HETATM   30  O2  UNL     1       5.789  -4.880  41.348  1.00  0.00    -0.339 OA
ATOM     31  H2  UNL     1       6.577  -4.375  41.514  1.00  0.00     0.220 HD
ENDBRANCH  25  30
ENDBRANCH   1  25
BRANCH   7  32
HETATM   32  C11 UNL     1       2.943  -6.284  41.523  1.00  0.00     0.132 A 
HETATM   33  S1  UNL     1       3.787  -6.879  42.961  1.00  0.00     0.008 SA
HETATM   34  N10 UNL     1       3.371  -8.482  42.885  1.00  0.00    -0.312 N 
HETATM   35  C12 UNL     1       2.649  -8.560  41.825  1.00  0.00     0.139 A 
ATOM     36  H10 UNL     1       3.627  -9.230  43.529  1.00  0.00     0.175 HD
HETATM   37  N11 UNL     1       1.989  -9.854  41.658  1.00  0.00    -0.081 NA
HETATM   38  C13 UNL     1       2.377  -7.455  41.056  1.00  0.00     0.083 A 
BRANCH  38  39
HETATM   39  C14 UNL     1       1.493  -7.572  39.846  1.00  0.00     0.126 C 
HETATM   40  N13 UNL     1       0.167  -6.781  39.989  1.00  0.00    -0.082 NA
BRANCH  39  41
HETATM   41  N12 UNL     1       1.513  -8.140  38.851  1.00  0.00    -0.387 N 
ATOM     42 2H12 UNL     1       1.476  -9.146  39.016  1.00  0.00     0.157 HD
ATOM     43 1H12 UNL     1       1.606  -7.903  37.864  1.00  0.00     0.157 HD
ENDBRANCH  39  41
ENDBRANCH  38  39
ENDBRANCH   7  32
TORSDOF 11
ENDMDL
