MODEL 1
REMARK VINA RESULT: -8.113396255      0.000      0.000
REMARK  11 active torsions:
REMARK  status: ('A' for Active; 'I' for Inactive)
REMARK    1  A    between atoms: C1_2  and  O2_4 
REMARK    2  A    between atoms: O2_4  and  C2_5 
REMARK    3  A    between atoms: C8_12  and  N2_13 
REMARK    4  A    between atoms: N2_13  and  N3_15 
REMARK       I    between atoms: N3_15  and  C9_17 
REMARK    5  A    between atoms: C9_17  and  C10_19 
REMARK    6  A    between atoms: C10_19  and  S1_20 
REMARK    7  A    between atoms: S1_20  and  C11_21 
REMARK    8  A    between atoms: C11_21  and  N4_22 
REMARK    9  A    between atoms: C11_21  and  N5_26 
REMARK   10  A    between atoms: C13_31  and  O5_32 
REMARK   11  A    between atoms: C14_34  and  N6_35 
ROOT
HETATM    1  C2  UNL     1      -0.303  -5.270  42.462  1.00  0.00     0.158 C 
HETATM    2  C3  UNL     1       0.939  -4.899  42.331  1.00  0.00     0.023 C 
HETATM    3  C4  UNL     1       2.098  -5.782  42.652  1.00  0.00     0.128 C 
HETATM    4  C5  UNL     1       3.174  -5.568  41.647  1.00  0.00     0.167 C 
HETATM    5  O3  UNL     1       3.798  -6.568  41.231  1.00  0.00    -0.292 OA
HETATM    6  C6  UNL     1       3.493  -4.250  41.162  1.00  0.00     0.062 A 
HETATM    7  C7  UNL     1       2.554  -3.226  41.242  1.00  0.00     0.059 A 
HETATM    8  C8  UNL     1       2.800  -1.954  40.802  1.00  0.00     0.066 A 
HETATM    9  C12 UNL     1       4.081  -1.720  40.249  1.00  0.00     0.071 A 
HETATM   10  C13 UNL     1       5.030  -2.694  40.153  1.00  0.00     0.102 A 
HETATM   11  C14 UNL     1       4.723  -3.952  40.613  1.00  0.00     0.150 A 
HETATM   12  C15 UNL     1       1.252  -3.555  41.836  1.00  0.00     0.194 C 
HETATM   13  O8  UNL     1       0.357  -2.703  41.946  1.00  0.00    -0.287 OA
ENDROOT
BRANCH   8  14
HETATM   14  N2  UNL     1       1.879  -0.897  40.847  1.00  0.00    -0.297 N 
ATOM     15  H2  UNL     1       1.361  -0.690  41.701  1.00  0.00     0.187 HD
BRANCH  14  16
HETATM   16  N3  UNL     1       1.686  -0.119  39.665  1.00  0.00    -0.269 N 
HETATM   17  C9  UNL     1       2.360   1.106  39.479  1.00  0.00     0.245 C 
HETATM   18  O4  UNL     1       3.137   1.511  40.370  1.00  0.00    -0.271 OA
ATOM     19  H3  UNL     1       1.049  -0.455  38.943  1.00  0.00     0.190 HD
BRANCH  17  20
HETATM   20  C10 UNL     1       2.152   1.888  38.258  1.00  0.00     0.182 C 
BRANCH  20  21
HETATM   21  S1  UNL     1       3.002   1.242  36.821  1.00  0.00    -0.100 SA
BRANCH  21  22
HETATM   22  C11 UNL     1       4.350   0.165  37.388  1.00  0.00     0.440 C 
BRANCH  22  23
HETATM   23  N4  UNL     1       4.592  -0.824  36.352  1.00  0.00    -0.041 N 
ATOM     24  H43 UNL     1       3.777  -1.408  36.163  1.00  0.00     0.277 HD
ATOM     25  H42 UNL     1       4.681  -0.411  35.423  1.00  0.00     0.277 HD
ATOM     26  H41 UNL     1       5.412  -1.365  36.625  1.00  0.00     0.277 HD
ENDBRANCH  22  23
BRANCH  22  27
HETATM   27  N5  UNL     1       5.565   0.895  37.625  1.00  0.00    -0.041 N 
ATOM     28  H53 UNL     1       5.696   1.629  36.929  1.00  0.00     0.277 HD
ATOM     29  H52 UNL     1       5.489   1.476  38.460  1.00  0.00     0.277 HD
ATOM     30  H51 UNL     1       6.378   0.282  37.674  1.00  0.00     0.277 HD
ENDBRANCH  22  27
ENDBRANCH  21  22
ENDBRANCH  20  21
ENDBRANCH  17  20
ENDBRANCH  14  16
ENDBRANCH   8  14
BRANCH  10  31
HETATM   31  O5  UNL     1       6.298  -2.431  39.598  1.00  0.00    -0.358 OA
ATOM     32  H5  UNL     1       6.615  -2.909  38.840  1.00  0.00     0.217 HD
ENDBRANCH  10  31
BRANCH  11  33
HETATM   33  N6  UNL     1       5.702  -4.984  40.524  1.00  0.00    -0.112 N 
HETATM   34  O6  UNL     1       5.952  -5.526  39.429  1.00  0.00    -0.532 OA
HETATM   35  O7  UNL     1       6.338  -5.361  41.678  1.00  0.00    -0.532 OA
ENDBRANCH  11  33
BRANCH   1  36
HETATM   36  O2  UNL     1      -1.447  -4.582  42.212  1.00  0.00    -0.275 OA
BRANCH  36  37
HETATM   37  C1  UNL     1      -2.528  -4.442  43.088  1.00  0.00     0.377 C 
HETATM   38  N1  UNL     1      -3.356  -3.297  43.120  1.00  0.00    -0.032 NA
HETATM   39  O1  UNL     1      -2.738  -5.410  43.871  1.00  0.00    -0.242 OA
ENDBRANCH  36  37
ENDBRANCH   1  36
TORSDOF 11
ENDMDL
MODEL 2
REMARK VINA RESULT: -8.077359773      2.669      6.537
REMARK  11 active torsions:
REMARK  status: ('A' for Active; 'I' for Inactive)
REMARK    1  A    between atoms: C1_2  and  O2_4 
REMARK    2  A    between atoms: O2_4  and  C2_5 
REMARK    3  A    between atoms: C8_12  and  N2_13 
REMARK    4  A    between atoms: N2_13  and  N3_15 
REMARK       I    between atoms: N3_15  and  C9_17 
REMARK    5  A    between atoms: C9_17  and  C10_19 
REMARK    6  A    between atoms: C10_19  and  S1_20 
REMARK    7  A    between atoms: S1_20  and  C11_21 
REMARK    8  A    between atoms: C11_21  and  N4_22 
REMARK    9  A    between atoms: C11_21  and  N5_26 
REMARK   10  A    between atoms: C13_31  and  O5_32 
REMARK   11  A    between atoms: C14_34  and  N6_35 
ROOT
HETATM    1  C2  UNL     1       5.720  -4.080  40.128  1.00  0.00     0.158 C 
HETATM    2  C3  UNL     1       5.264  -2.875  39.932  1.00  0.00     0.023 C 
HETATM    3  C4  UNL     1       5.980  -1.847  39.122  1.00  0.00     0.128 C 
HETATM    4  C5  UNL     1       4.991  -1.066  38.332  1.00  0.00     0.167 C 
HETATM    5  O3  UNL     1       5.284  -0.765  37.155  1.00  0.00    -0.292 OA
HETATM    6  C6  UNL     1       3.730  -0.664  38.901  1.00  0.00     0.062 A 
HETATM    7  C7  UNL     1       3.199  -1.349  39.989  1.00  0.00     0.059 A 
HETATM    8  C8  UNL     1       2.009  -1.013  40.573  1.00  0.00     0.066 A 
HETATM    9  C12 UNL     1       1.324   0.090  40.008  1.00  0.00     0.071 A 
HETATM   10  C13 UNL     1       1.809   0.790  38.943  1.00  0.00     0.102 A 
HETATM   11  C14 UNL     1       3.011   0.403  38.401  1.00  0.00     0.150 A 
HETATM   12  C15 UNL     1       3.979  -2.477  40.516  1.00  0.00     0.194 C 
HETATM   13  O8  UNL     1       3.580  -3.144  41.483  1.00  0.00    -0.287 OA
ENDROOT
BRANCH   8  14
HETATM   14  N2  UNL     1       1.429  -1.685  41.659  1.00  0.00    -0.297 N 
ATOM     15  H2  UNL     1       1.566  -1.354  42.614  1.00  0.00     0.187 HD
BRANCH  14  16
HETATM   16  N3  UNL     1       0.641  -2.846  41.391  1.00  0.00    -0.269 N 
HETATM   17  C9  UNL     1       0.388  -3.804  42.396  1.00  0.00     0.245 C 
HETATM   18  O4  UNL     1       0.867  -3.626  43.536  1.00  0.00    -0.271 OA
ATOM     19  H3  UNL     1       0.255  -2.985  40.458  1.00  0.00     0.190 HD
BRANCH  17  20
HETATM   20  C10 UNL     1      -0.426  -4.986  42.103  1.00  0.00     0.182 C 
BRANCH  20  21
HETATM   21  S1  UNL     1       0.131  -5.926  40.685  1.00  0.00    -0.100 SA
BRANCH  21  22
HETATM   22  C11 UNL     1       1.853  -6.427  40.970  1.00  0.00     0.440 C 
BRANCH  22  23
HETATM   23  N4  UNL     1       2.660  -5.868  39.899  1.00  0.00    -0.041 N 
ATOM     24  H43 UNL     1       2.440  -6.267  38.987  1.00  0.00     0.277 HD
ATOM     25  H42 UNL     1       2.418  -4.900  39.684  1.00  0.00     0.277 HD
ATOM     26  H41 UNL     1       3.640  -5.983  40.156  1.00  0.00     0.277 HD
ENDBRANCH  22  23
BRANCH  22  27
HETATM   27  N5  UNL     1       2.356  -5.948  42.228  1.00  0.00    -0.041 N 
ATOM     28  H53 UNL     1       3.078  -5.241  42.091  1.00  0.00     0.277 HD
ATOM     29  H52 UNL     1       1.661  -5.378  42.710  1.00  0.00     0.277 HD
ATOM     30  H51 UNL     1       2.689  -6.706  42.823  1.00  0.00     0.277 HD
ENDBRANCH  22  27
ENDBRANCH  21  22
ENDBRANCH  20  21
ENDBRANCH  17  20
ENDBRANCH  14  16
ENDBRANCH   8  14
BRANCH  10  31
HETATM   31  O5  UNL     1       1.106   1.884  38.403  1.00  0.00    -0.358 OA
ATOM     32  H5  UNL     1       0.680   2.523  38.962  1.00  0.00     0.217 HD
ENDBRANCH  10  31
BRANCH  11  33
HETATM   33  N6  UNL     1       3.536   1.123  37.288  1.00  0.00    -0.112 N 
HETATM   34  O6  UNL     1       4.624   1.725  37.382  1.00  0.00    -0.532 OA
HETATM   35  O7  UNL     1       2.799   1.137  36.133  1.00  0.00    -0.532 OA
ENDBRANCH  11  33
BRANCH   1  36
HETATM   36  O2  UNL     1       5.185  -5.108  40.834  1.00  0.00    -0.275 OA
BRANCH  36  37
HETATM   37  C1  UNL     1       5.891  -5.999  41.650  1.00  0.00     0.377 C 
HETATM   38  N1  UNL     1       5.297  -6.705  42.721  1.00  0.00    -0.032 NA
HETATM   39  O1  UNL     1       7.115  -6.149  41.380  1.00  0.00    -0.242 OA
ENDBRANCH  36  37
ENDBRANCH   1  36
TORSDOF 11
ENDMDL
MODEL 3
REMARK VINA RESULT: -8.024089439      2.787      6.562
REMARK  11 active torsions:
REMARK  status: ('A' for Active; 'I' for Inactive)
REMARK    1  A    between atoms: C1_2  and  O2_4 
REMARK    2  A    between atoms: O2_4  and  C2_5 
REMARK    3  A    between atoms: C8_12  and  N2_13 
REMARK    4  A    between atoms: N2_13  and  N3_15 
REMARK       I    between atoms: N3_15  and  C9_17 
REMARK    5  A    between atoms: C9_17  and  C10_19 
REMARK    6  A    between atoms: C10_19  and  S1_20 
REMARK    7  A    between atoms: S1_20  and  C11_21 
REMARK    8  A    between atoms: C11_21  and  N4_22 
REMARK    9  A    between atoms: C11_21  and  N5_26 
REMARK   10  A    between atoms: C13_31  and  O5_32 
REMARK   11  A    between atoms: C14_34  and  N6_35 
ROOT
HETATM    1  C2  UNL     1       5.702  -4.514  40.286  1.00  0.00     0.158 C 
HETATM    2  C3  UNL     1       5.233  -3.304  40.175  1.00  0.00     0.023 C 
HETATM    3  C4  UNL     1       5.940  -2.213  39.444  1.00  0.00     0.128 C 
HETATM    4  C5  UNL     1       4.945  -1.387  38.708  1.00  0.00     0.167 C 
HETATM    5  O3  UNL     1       5.239  -1.000  37.556  1.00  0.00    -0.292 OA
HETATM    6  C6  UNL     1       3.679  -1.040  39.299  1.00  0.00     0.062 A 
HETATM    7  C7  UNL     1       3.152  -1.807  40.334  1.00  0.00     0.059 A 
HETATM    8  C8  UNL     1       1.957  -1.526  40.937  1.00  0.00     0.066 A 
HETATM    9  C12 UNL     1       1.262  -0.392  40.450  1.00  0.00     0.071 A 
HETATM   10  C13 UNL     1       1.743   0.387  39.439  1.00  0.00     0.102 A 
HETATM   11  C14 UNL     1       2.950   0.052  38.874  1.00  0.00     0.150 A 
HETATM   12  C15 UNL     1       3.942  -2.962  40.781  1.00  0.00     0.194 C 
HETATM   13  O8  UNL     1       3.548  -3.700  41.697  1.00  0.00    -0.287 OA
ENDROOT
BRANCH   8  14
HETATM   14  N2  UNL     1       1.381  -2.280  41.969  1.00  0.00    -0.297 N 
ATOM     15  H2  UNL     1       1.593  -2.078  42.946  1.00  0.00     0.187 HD
BRANCH  14  16
HETATM   16  N3  UNL     1       0.490  -3.339  41.616  1.00  0.00    -0.269 N 
HETATM   17  C9  UNL     1       0.122  -4.327  42.554  1.00  0.00     0.245 C 
HETATM   18  O4  UNL     1       0.591  -4.267  43.710  1.00  0.00    -0.271 OA
ATOM     19  H3  UNL     1       0.113  -3.381  40.670  1.00  0.00     0.190 HD
BRANCH  17  20
HETATM   20  C10 UNL     1      -0.797  -5.402  42.174  1.00  0.00     0.182 C 
BRANCH  20  21
HETATM   21  S1  UNL     1      -0.056  -6.671  41.151  1.00  0.00    -0.100 SA
BRANCH  21  22
HETATM   22  C11 UNL     1       1.749  -6.556  41.313  1.00  0.00     0.440 C 
BRANCH  22  23
HETATM   23  N4  UNL     1       2.251  -7.880  41.634  1.00  0.00    -0.041 N 
ATOM     24  H43 UNL     1       2.900  -7.878  42.422  1.00  0.00     0.277 HD
ATOM     25  H42 UNL     1       1.540  -8.484  42.046  1.00  0.00     0.277 HD
ATOM     26  H41 UNL     1       2.660  -8.272  40.786  1.00  0.00     0.277 HD
ENDBRANCH  22  23
BRANCH  22  27
HETATM   27  N5  UNL     1       2.375  -6.105  40.100  1.00  0.00    -0.041 N 
ATOM     28  H53 UNL     1       1.855  -6.415  39.279  1.00  0.00     0.277 HD
ATOM     29  H52 UNL     1       2.272  -5.096  39.984  1.00  0.00     0.277 HD
ATOM     30  H51 UNL     1       3.353  -6.385  40.045  1.00  0.00     0.277 HD
ENDBRANCH  22  27
ENDBRANCH  21  22
ENDBRANCH  20  21
ENDBRANCH  17  20
ENDBRANCH  14  16
ENDBRANCH   8  14
BRANCH  10  31
HETATM   31  O5  UNL     1       1.029   1.510  38.976  1.00  0.00    -0.358 OA
ATOM     32  H5  UNL     1       1.344   2.393  39.128  1.00  0.00     0.217 HD
ENDBRANCH  10  31
BRANCH  11  33
HETATM   33  N6  UNL     1       3.471   0.855  37.818  1.00  0.00    -0.112 N 
HETATM   34  O6  UNL     1       4.435   1.619  38.022  1.00  0.00    -0.532 OA
HETATM   35  O7  UNL     1       2.867   0.765  36.591  1.00  0.00    -0.532 OA
ENDBRANCH  11  33
BRANCH   1  36
HETATM   36  O2  UNL     1       5.175  -5.596  40.915  1.00  0.00    -0.275 OA
BRANCH  36  37
HETATM   37  C1  UNL     1       5.741  -6.269  42.003  1.00  0.00     0.377 C 
HETATM   38  N1  UNL     1       7.136  -6.414  42.185  1.00  0.00    -0.032 NA
HETATM   39  O1  UNL     1       4.929  -6.755  42.839  1.00  0.00    -0.242 OA
ENDBRANCH  36  37
ENDBRANCH   1  36
TORSDOF 11
ENDMDL
MODEL 4
REMARK VINA RESULT: -7.911858576      2.988      6.645
REMARK  11 active torsions:
REMARK  status: ('A' for Active; 'I' for Inactive)
REMARK    1  A    between atoms: C1_2  and  O2_4 
REMARK    2  A    between atoms: O2_4  and  C2_5 
REMARK    3  A    between atoms: C8_12  and  N2_13 
REMARK    4  A    between atoms: N2_13  and  N3_15 
REMARK       I    between atoms: N3_15  and  C9_17 
REMARK    5  A    between atoms: C9_17  and  C10_19 
REMARK    6  A    between atoms: C10_19  and  S1_20 
REMARK    7  A    between atoms: S1_20  and  C11_21 
REMARK    8  A    between atoms: C11_21  and  N4_22 
REMARK    9  A    between atoms: C11_21  and  N5_26 
REMARK   10  A    between atoms: C13_31  and  O5_32 
REMARK   11  A    between atoms: C14_34  and  N6_35 
ROOT
HETATM    1  C2  UNL     1       1.397   2.581  37.791  1.00  0.00     0.158 C 
HETATM    2  C3  UNL     1       2.060   1.462  37.872  1.00  0.00     0.023 C 
HETATM    3  C4  UNL     1       3.087   1.042  36.875  1.00  0.00     0.128 C 
HETATM    4  C5  UNL     1       4.217   0.380  37.580  1.00  0.00     0.167 C 
HETATM    5  O3  UNL     1       5.379   0.632  37.194  1.00  0.00    -0.292 OA
HETATM    6  C6  UNL     1       3.987  -0.524  38.677  1.00  0.00     0.062 A 
HETATM    7  C7  UNL     1       2.800  -0.464  39.400  1.00  0.00     0.059 A 
HETATM    8  C8  UNL     1       2.523  -1.298  40.449  1.00  0.00     0.066 A 
HETATM    9  C12 UNL     1       3.521  -2.249  40.772  1.00  0.00     0.071 A 
HETATM   10  C13 UNL     1       4.697  -2.343  40.088  1.00  0.00     0.102 A 
HETATM   11  C14 UNL     1       4.916  -1.476  39.044  1.00  0.00     0.150 A 
HETATM   12  C15 UNL     1       1.817   0.549  38.993  1.00  0.00     0.194 C 
HETATM   13  O8  UNL     1       0.733   0.673  39.583  1.00  0.00    -0.287 OA
ENDROOT
BRANCH   8  14
HETATM   14  N2  UNL     1       1.350  -1.261  41.216  1.00  0.00    -0.297 N 
ATOM     15  H2  UNL     1       1.190  -0.514  41.892  1.00  0.00     0.187 HD
BRANCH  14  16
HETATM   16  N3  UNL     1       0.386  -2.297  41.026  1.00  0.00    -0.269 N 
HETATM   17  C9  UNL     1       0.268  -3.362  41.943  1.00  0.00     0.245 C 
HETATM   18  O4  UNL     1       1.027  -3.393  42.935  1.00  0.00    -0.271 OA
ATOM     19  H3  UNL     1      -0.228  -2.266  40.213  1.00  0.00     0.190 HD
BRANCH  17  20
HETATM   20  C10 UNL     1      -0.730  -4.413  41.733  1.00  0.00     0.182 C 
BRANCH  20  21
HETATM   21  S1  UNL     1      -0.037  -6.003  41.286  1.00  0.00    -0.100 SA
BRANCH  21  22
HETATM   22  C11 UNL     1       1.510  -5.719  40.379  1.00  0.00     0.440 C 
BRANCH  22  23
HETATM   23  N4  UNL     1       2.601  -5.764  41.338  1.00  0.00    -0.041 N 
ATOM     24  H43 UNL     1       2.867  -4.840  41.679  1.00  0.00     0.277 HD
ATOM     25  H42 UNL     1       2.324  -6.164  42.235  1.00  0.00     0.277 HD
ATOM     26  H41 UNL     1       3.376  -6.264  40.904  1.00  0.00     0.277 HD
ENDBRANCH  22  23
BRANCH  22  27
HETATM   27  N5  UNL     1       1.739  -6.717  39.371  1.00  0.00    -0.041 N 
ATOM     28  H53 UNL     1       1.408  -6.402  38.459  1.00  0.00     0.277 HD
ATOM     29  H52 UNL     1       2.733  -6.807  39.160  1.00  0.00     0.277 HD
ATOM     30  H51 UNL     1       1.331  -7.617  39.622  1.00  0.00     0.277 HD
ENDBRANCH  22  27
ENDBRANCH  21  22
ENDBRANCH  20  21
ENDBRANCH  17  20
ENDBRANCH  14  16
ENDBRANCH   8  14
BRANCH  10  31
HETATM   31  O5  UNL     1       5.671  -3.300  40.433  1.00  0.00    -0.358 OA
ATOM     32  H5  UNL     1       6.110  -3.278  41.275  1.00  0.00     0.217 HD
ENDBRANCH  10  31
BRANCH  11  33
HETATM   33  N6  UNL     1       6.138  -1.560  38.315  1.00  0.00    -0.112 N 
HETATM   34  O6  UNL     1       7.187  -1.073  38.781  1.00  0.00    -0.532 OA
HETATM   35  O7  UNL     1       6.109  -2.176  37.091  1.00  0.00    -0.532 OA
ENDBRANCH  11  33
BRANCH   1  36
HETATM   36  O2  UNL     1       0.443   3.088  38.614  1.00  0.00    -0.275 OA
BRANCH  36  37
HETATM   37  C1  UNL     1      -0.237   4.297  38.435  1.00  0.00     0.377 C 
HETATM   38  N1  UNL     1      -1.269   4.740  39.294  1.00  0.00    -0.032 NA
HETATM   39  O1  UNL     1       0.120   4.994  37.445  1.00  0.00    -0.242 OA
ENDBRANCH  36  37
ENDBRANCH   1  36
TORSDOF 11
ENDMDL
MODEL 5
REMARK VINA RESULT: -7.882597073      2.315      5.948
REMARK  11 active torsions:
REMARK  status: ('A' for Active; 'I' for Inactive)
REMARK    1  A    between atoms: C1_2  and  O2_4 
REMARK    2  A    between atoms: O2_4  and  C2_5 
REMARK    3  A    between atoms: C8_12  and  N2_13 
REMARK    4  A    between atoms: N2_13  and  N3_15 
REMARK       I    between atoms: N3_15  and  C9_17 
REMARK    5  A    between atoms: C9_17  and  C10_19 
REMARK    6  A    between atoms: C10_19  and  S1_20 
REMARK    7  A    between atoms: S1_20  and  C11_21 
REMARK    8  A    between atoms: C11_21  and  N4_22 
REMARK    9  A    between atoms: C11_21  and  N5_26 
REMARK   10  A    between atoms: C13_31  and  O5_32 
REMARK   11  A    between atoms: C14_34  and  N6_35 
ROOT
HETATM    1  C2  UNL     1       2.354  -0.055  39.503  1.00  0.00     0.158 C 
HETATM    2  C3  UNL     1       2.292  -1.014  40.383  1.00  0.00     0.023 C 
HETATM    3  C4  UNL     1       1.151  -1.189  41.328  1.00  0.00     0.128 C 
HETATM    4  C5  UNL     1       0.859  -2.638  41.486  1.00  0.00     0.167 C 
HETATM    5  O3  UNL     1      -0.339  -2.995  41.533  1.00  0.00    -0.292 OA
HETATM    6  C6  UNL     1       1.919  -3.609  41.581  1.00  0.00     0.062 A 
HETATM    7  C7  UNL     1       3.184  -3.318  41.082  1.00  0.00     0.059 A 
HETATM    8  C8  UNL     1       4.231  -4.197  41.146  1.00  0.00     0.066 A 
HETATM    9  C12 UNL     1       3.963  -5.445  41.757  1.00  0.00     0.071 A 
HETATM   10  C13 UNL     1       2.737  -5.770  42.260  1.00  0.00     0.102 A 
HETATM   11  C14 UNL     1       1.727  -4.844  42.165  1.00  0.00     0.150 A 
HETATM   12  C15 UNL     1       3.377  -1.996  40.470  1.00  0.00     0.194 C 
HETATM   13  O8  UNL     1       4.472  -1.654  40.000  1.00  0.00    -0.287 OA
ENDROOT
BRANCH   8  14
HETATM   14  N2  UNL     1       5.517  -3.953  40.643  1.00  0.00    -0.297 N 
ATOM     15  H2  UNL     1       6.319  -3.880  41.268  1.00  0.00     0.187 HD
BRANCH  14  16
HETATM   16  N3  UNL     1       5.672  -3.808  39.231  1.00  0.00    -0.269 N 
HETATM   17  C9  UNL     1       6.583  -4.609  38.510  1.00  0.00     0.245 C 
HETATM   18  O4  UNL     1       7.264  -5.456  39.128  1.00  0.00    -0.271 OA
ATOM     19  H3  UNL     1       5.115  -3.113  38.734  1.00  0.00     0.190 HD
BRANCH  17  20
HETATM   20  C10 UNL     1       6.726  -4.448  37.061  1.00  0.00     0.182 C 
BRANCH  20  21
HETATM   21  S1  UNL     1       7.281  -2.823  36.556  1.00  0.00    -0.100 SA
BRANCH  21  22
HETATM   22  C11 UNL     1       5.869  -1.684  36.637  1.00  0.00     0.440 C 
BRANCH  22  23
HETATM   23  N4  UNL     1       6.037  -0.854  37.817  1.00  0.00    -0.041 N 
ATOM     24  H43 UNL     1       5.317  -1.016  38.521  1.00  0.00     0.277 HD
ATOM     25  H42 UNL     1       6.842  -1.127  38.382  1.00  0.00     0.277 HD
ATOM     26  H41 UNL     1       6.080   0.117  37.511  1.00  0.00     0.277 HD
ENDBRANCH  22  23
BRANCH  22  27
HETATM   27  N5  UNL     1       5.791  -0.834  35.481  1.00  0.00    -0.041 N 
ATOM     28  H53 UNL     1       5.263  -1.279  34.731  1.00  0.00     0.277 HD
ATOM     29  H52 UNL     1       5.184  -0.033  35.653  1.00  0.00     0.277 HD
ATOM     30  H51 UNL     1       6.712  -0.537  35.159  1.00  0.00     0.277 HD
ENDBRANCH  22  27
ENDBRANCH  21  22
ENDBRANCH  20  21
ENDBRANCH  17  20
ENDBRANCH  14  16
ENDBRANCH   8  14
BRANCH  10  31
HETATM   31  O5  UNL     1       2.500  -7.021  42.863  1.00  0.00    -0.358 OA
ATOM     32  H5  UNL     1       1.833  -7.129  43.530  1.00  0.00     0.217 HD
ENDBRANCH  10  31
BRANCH  11  33
HETATM   33  N6  UNL     1       0.439  -5.164  42.686  1.00  0.00    -0.112 N 
HETATM   34  O6  UNL     1      -0.345  -5.883  42.036  1.00  0.00    -0.532 OA
HETATM   35  O7  UNL     1       0.098  -4.643  43.907  1.00  0.00    -0.532 OA
ENDBRANCH  11  33
BRANCH   1  36
HETATM   36  O2  UNL     1       3.318   0.225  38.589  1.00  0.00    -0.275 OA
BRANCH  36  37
HETATM   37  C1  UNL     1       3.173   1.052  37.470  1.00  0.00     0.377 C 
HETATM   38  N1  UNL     1       1.925   1.550  37.031  1.00  0.00    -0.032 NA
HETATM   39  O1  UNL     1       4.235   1.343  36.853  1.00  0.00    -0.242 OA
ENDBRANCH  36  37
ENDBRANCH   1  36
TORSDOF 11
ENDMDL
