MODEL 1
REMARK VINA RESULT: -7.417129499      0.000      0.000
REMARK  11 active torsions:
REMARK  status: ('A' for Active; 'I' for Inactive)
REMARK    1  A    between atoms: O1_2  and  C2_3 
REMARK    2  A    between atoms: C2_3  and  C3_5 
REMARK    3  A    between atoms: C3_5  and  N1_8 
REMARK    4  A    between atoms: N1_8  and  C6_10 
REMARK    5  A    between atoms: C7_13  and  N3_14 
REMARK    6  A    between atoms: N3_14  and  N4_16 
REMARK    7  A    between atoms: N4_16  and  C8_18 
REMARK    8  A    between atoms: C8_18  and  C9_22 
REMARK    9  A    between atoms: C10_28  and  N8_29 
REMARK   10  A    between atoms: C11_34  and  N10_35 
REMARK   11  A    between atoms: C14_39  and  N12_40 
ROOT
HETATM    1  N10 UNL     1       5.843  -5.232  41.014  1.00  0.00    -0.272 N 
HETATM    2  C12 UNL     1       6.412  -5.292  39.657  1.00  0.00     0.170 C 
HETATM    3  C13 UNL     1       6.552  -5.847  42.027  1.00  0.00     0.185 C 
HETATM    4  N11 UNL     1       7.138  -6.352  42.891  1.00  0.00    -0.172 NA
ENDROOT
BRANCH   1   5
HETATM    5  C11 UNL     1       4.617  -4.545  41.161  1.00  0.00     0.169 A 
HETATM    6  N9  UNL     1       4.548  -3.236  40.809  1.00  0.00    -0.172 N 
HETATM    7  C7  UNL     1       3.433  -2.514  40.971  1.00  0.00     0.700 A 
ATOM      8  H9  UNL     1       5.372  -2.788  40.407  1.00  0.00     0.186 HD
HETATM    9  N2  UNL     1       2.358  -3.134  41.503  1.00  0.00    -0.173 N 
HETATM   10  C6  UNL     1       2.292  -4.410  41.890  1.00  0.00     0.155 A 
ATOM     11  H2  UNL     1       1.515  -2.572  41.622  1.00  0.00     0.186 HD
HETATM   12  C14 UNL     1       3.518  -5.137  41.691  1.00  0.00     0.192 A 
BRANCH   7  13
HETATM   13  N3  UNL     1       3.385  -1.133  40.591  1.00  0.00    -0.130 N 
ATOM     14  H3  UNL     1       3.882  -0.462  41.178  1.00  0.00     0.205 HD
BRANCH  13  15
HETATM   15  N4  UNL     1       2.712  -0.641  39.479  1.00  0.00    -0.270 N 
ATOM     16  H4  UNL     1       1.984  -1.204  39.040  1.00  0.00     0.189 HD
BRANCH  15  17
HETATM   17  C8  UNL     1       3.025   0.628  38.952  1.00  0.00     0.147 C 
HETATM   18  N5  UNL     1       2.753   1.670  39.658  1.00  0.00    -0.382 N 
ATOM     19  H52 UNL     1       2.320   1.520  40.570  1.00  0.00     0.157 HD
ATOM     20  H51 UNL     1       2.980   2.588  39.276  1.00  0.00     0.157 HD
BRANCH  17  21
HETATM   21  C9  UNL     1       3.643   0.842  37.652  1.00  0.00     0.146 A 
HETATM   22  N6  UNL     1       3.122   1.613  36.645  1.00  0.00    -0.234 N 
HETATM   23  O3  UNL     1       3.936   1.567  35.656  1.00  0.00    -0.155 OA
ATOM     24  H6  UNL     1       2.244   2.131  36.677  1.00  0.00     0.197 HD
HETATM   25  N7  UNL     1       4.961   0.826  35.922  1.00  0.00    -0.224 N 
HETATM   26  C10 UNL     1       4.828   0.337  37.182  1.00  0.00     0.154 A 
ATOM     27  H7  UNL     1       5.741   0.639  35.291  1.00  0.00     0.198 HD
BRANCH  26  28
HETATM   28  N8  UNL     1       5.665  -0.448  37.792  1.00  0.00    -0.382 N 
ATOM     29  H82 UNL     1       5.638  -0.707  38.778  1.00  0.00     0.157 HD
ATOM     30  H81 UNL     1       6.476  -0.929  37.402  1.00  0.00     0.157 HD
ENDBRANCH  26  28
ENDBRANCH  17  21
ENDBRANCH  15  17
ENDBRANCH  13  15
ENDBRANCH   7  13
BRANCH  10  31
HETATM   31  N1  UNL     1       1.338  -5.035  42.384  1.00  0.00    -0.356 N 
ATOM     32  H1  UNL     1       1.596  -5.382  43.307  1.00  0.00     0.162 HD
BRANCH  31  33
HETATM   33  C3  UNL     1       0.054  -5.410  42.090  1.00  0.00     0.112 C 
HETATM   34  C4  UNL     1      -0.590  -6.553  42.836  1.00  0.00     0.049 C 
HETATM   35  C5  UNL     1      -0.079  -5.748  40.591  1.00  0.00     0.049 C 
BRANCH  33  36
HETATM   36  C2  UNL     1      -0.944  -4.262  42.258  1.00  0.00     0.286 C 
HETATM   37  O2  UNL     1      -0.805  -3.230  41.548  1.00  0.00    -0.262 OA
BRANCH  36  38
HETATM   38  O1  UNL     1      -1.983  -4.312  43.150  1.00  0.00    -0.325 OA
HETATM   39  C1  UNL     1      -3.297  -3.964  42.751  1.00  0.00     0.213 C 
ENDBRANCH  36  38
ENDBRANCH  33  36
ENDBRANCH  31  33
ENDBRANCH  10  31
BRANCH  12  40
HETATM   40  N12 UNL     1       3.496  -6.502  42.020  1.00  0.00    -0.108 N 
HETATM   41  O4  UNL     1       3.241  -7.385  41.157  1.00  0.00    -0.531 OA
HETATM   42  O5  UNL     1       3.739  -6.992  43.273  1.00  0.00    -0.531 OA
ENDBRANCH  12  40
ENDBRANCH   1   5
TORSDOF 11
ENDMDL
MODEL 2
REMARK VINA RESULT: -7.343327321      1.369      2.205
REMARK  11 active torsions:
REMARK  status: ('A' for Active; 'I' for Inactive)
REMARK    1  A    between atoms: O1_2  and  C2_3 
REMARK    2  A    between atoms: C2_3  and  C3_5 
REMARK    3  A    between atoms: C3_5  and  N1_8 
REMARK    4  A    between atoms: N1_8  and  C6_10 
REMARK    5  A    between atoms: C7_13  and  N3_14 
REMARK    6  A    between atoms: N3_14  and  N4_16 
REMARK    7  A    between atoms: N4_16  and  C8_18 
REMARK    8  A    between atoms: C8_18  and  C9_22 
REMARK    9  A    between atoms: C10_28  and  N8_29 
REMARK   10  A    between atoms: C11_34  and  N10_35 
REMARK   11  A    between atoms: C14_39  and  N12_40 
ROOT
HETATM    1  N10 UNL     1       6.596  -5.398  40.604  1.00  0.00    -0.272 N 
HETATM    2  C12 UNL     1       7.103  -5.907  41.891  1.00  0.00     0.170 C 
HETATM    3  C13 UNL     1       7.247  -5.810  39.458  1.00  0.00     0.185 C 
HETATM    4  N11 UNL     1       7.778  -6.151  38.486  1.00  0.00    -0.172 NA
ENDROOT
BRANCH   1   5
HETATM    5  C11 UNL     1       5.481  -4.531  40.658  1.00  0.00     0.169 A 
HETATM    6  N9  UNL     1       5.568  -3.310  40.073  1.00  0.00    -0.172 N 
HETATM    7  C7  UNL     1       4.568  -2.421  40.133  1.00  0.00     0.700 A 
ATOM      8  H9  UNL     1       6.421  -3.061  39.572  1.00  0.00     0.186 HD
HETATM    9  N2  UNL     1       3.452  -2.779  40.801  1.00  0.00    -0.173 N 
HETATM   10  C6  UNL     1       3.238  -3.944  41.418  1.00  0.00     0.155 A 
ATOM     11  H2  UNL     1       2.698  -2.093  40.839  1.00  0.00     0.186 HD
HETATM   12  C14 UNL     1       4.344  -4.860  41.320  1.00  0.00     0.192 A 
BRANCH   7  13
HETATM   13  N3  UNL     1       4.684  -1.137  39.506  1.00  0.00    -0.130 N 
ATOM     14  H3  UNL     1       4.954  -0.347  40.092  1.00  0.00     0.205 HD
BRANCH  13  15
HETATM   15  N4  UNL     1       4.454  -0.890  38.159  1.00  0.00    -0.270 N 
ATOM     16  H4  UNL     1       4.416  -1.671  37.502  1.00  0.00     0.189 HD
BRANCH  15  17
HETATM   17  C8  UNL     1       4.274   0.425  37.688  1.00  0.00     0.147 C 
HETATM   18  N5  UNL     1       5.299   1.060  37.232  1.00  0.00    -0.382 N 
ATOM     19  H52 UNL     1       6.195   0.572  37.239  1.00  0.00     0.157 HD
ATOM     20  H51 UNL     1       5.168   2.012  36.892  1.00  0.00     0.157 HD
BRANCH  17  21
HETATM   21  C9  UNL     1       2.997   1.122  37.680  1.00  0.00     0.146 A 
HETATM   22  N6  UNL     1       2.312   1.507  36.556  1.00  0.00    -0.234 N 
HETATM   23  O3  UNL     1       1.235   2.090  36.934  1.00  0.00    -0.155 OA
ATOM     24  H6  UNL     1       2.607   1.356  35.591  1.00  0.00     0.197 HD
HETATM   25  N7  UNL     1       1.145   2.125  38.224  1.00  0.00    -0.224 N 
HETATM   26  C10 UNL     1       2.241   1.522  38.751  1.00  0.00     0.154 A 
ATOM     27  H7  UNL     1       0.379   2.538  38.756  1.00  0.00     0.198 HD
BRANCH  26  28
HETATM   28  N8  UNL     1       2.497   1.370  40.017  1.00  0.00    -0.382 N 
ATOM     29  H82 UNL     1       2.952   2.052  40.624  1.00  0.00     0.157 HD
ATOM     30  H81 UNL     1       2.297   0.564  40.609  1.00  0.00     0.157 HD
ENDBRANCH  26  28
ENDBRANCH  17  21
ENDBRANCH  15  17
ENDBRANCH  13  15
ENDBRANCH   7  13
BRANCH  10  31
HETATM   31  N1  UNL     1       2.238  -4.331  42.046  1.00  0.00    -0.356 N 
ATOM     32  H1  UNL     1       2.440  -4.333  43.046  1.00  0.00     0.162 HD
BRANCH  31  33
HETATM   33  C3  UNL     1       0.954  -4.756  41.832  1.00  0.00     0.112 C 
HETATM   34  C4  UNL     1       0.325  -5.763  42.763  1.00  0.00     0.049 C 
HETATM   35  C5  UNL     1       0.810  -5.338  40.410  1.00  0.00     0.049 C 
BRANCH  33  36
HETATM   36  C2  UNL     1      -0.050  -3.602  41.818  1.00  0.00     0.286 C 
HETATM   37  O2  UNL     1       0.330  -2.473  41.408  1.00  0.00    -0.262 OA
BRANCH  36  38
HETATM   38  O1  UNL     1      -1.347  -3.747  42.235  1.00  0.00    -0.325 OA
HETATM   39  C1  UNL     1      -2.416  -3.705  41.304  1.00  0.00     0.213 C 
ENDBRANCH  36  38
ENDBRANCH  33  36
ENDBRANCH  31  33
ENDBRANCH  10  31
BRANCH  12  40
HETATM   40  N12 UNL     1       4.160  -6.127  41.895  1.00  0.00    -0.108 N 
HETATM   41  O4  UNL     1       4.320  -6.321  43.130  1.00  0.00    -0.531 OA
HETATM   42  O5  UNL     1       3.802  -7.244  41.191  1.00  0.00    -0.531 OA
ENDBRANCH  12  40
ENDBRANCH   1   5
TORSDOF 11
ENDMDL
MODEL 3
REMARK VINA RESULT: -7.332424529      0.587      1.402
REMARK  11 active torsions:
REMARK  status: ('A' for Active; 'I' for Inactive)
REMARK    1  A    between atoms: O1_2  and  C2_3 
REMARK    2  A    between atoms: C2_3  and  C3_5 
REMARK    3  A    between atoms: C3_5  and  N1_8 
REMARK    4  A    between atoms: N1_8  and  C6_10 
REMARK    5  A    between atoms: C7_13  and  N3_14 
REMARK    6  A    between atoms: N3_14  and  N4_16 
REMARK    7  A    between atoms: N4_16  and  C8_18 
REMARK    8  A    between atoms: C8_18  and  C9_22 
REMARK    9  A    between atoms: C10_28  and  N8_29 
REMARK   10  A    between atoms: C11_34  and  N10_35 
REMARK   11  A    between atoms: C14_39  and  N12_40 
ROOT
HETATM    1  N10 UNL     1       5.835  -5.139  40.911  1.00  0.00    -0.272 N 
HETATM    2  C12 UNL     1       6.417  -5.184  39.558  1.00  0.00     0.170 C 
HETATM    3  C13 UNL     1       6.545  -5.749  41.927  1.00  0.00     0.185 C 
HETATM    4  N11 UNL     1       7.131  -6.249  42.793  1.00  0.00    -0.172 NA
ENDROOT
BRANCH   1   5
HETATM    5  C11 UNL     1       4.598  -4.471  41.050  1.00  0.00     0.169 A 
HETATM    6  N9  UNL     1       4.499  -3.177  40.653  1.00  0.00    -0.172 N 
HETATM    7  C7  UNL     1       3.372  -2.471  40.805  1.00  0.00     0.700 A 
ATOM      8  H9  UNL     1       5.309  -2.728  40.225  1.00  0.00     0.186 HD
HETATM    9  N2  UNL     1       2.317  -3.092  41.373  1.00  0.00    -0.173 N 
HETATM   10  C6  UNL     1       2.281  -4.354  41.805  1.00  0.00     0.155 A 
ATOM     11  H2  UNL     1       1.464  -2.543  41.483  1.00  0.00     0.186 HD
HETATM   12  C14 UNL     1       3.518  -5.065  41.615  1.00  0.00     0.192 A 
BRANCH   7  13
HETATM   13  N3  UNL     1       3.293  -1.105  40.377  1.00  0.00    -0.130 N 
ATOM     14  H3  UNL     1       2.374  -0.662  40.375  1.00  0.00     0.205 HD
BRANCH  13  15
HETATM   15  N4  UNL     1       4.377  -0.341  39.965  1.00  0.00    -0.270 N 
ATOM     16  H4  UNL     1       5.009   0.056  40.662  1.00  0.00     0.189 HD
BRANCH  15  17
HETATM   17  C8  UNL     1       4.614  -0.106  38.596  1.00  0.00     0.147 C 
HETATM   18  N5  UNL     1       5.694  -0.572  38.071  1.00  0.00    -0.382 N 
ATOM     19  H52 UNL     1       6.328  -1.089  38.681  1.00  0.00     0.157 HD
ATOM     20  H51 UNL     1       5.865  -0.402  37.080  1.00  0.00     0.157 HD
BRANCH  17  21
HETATM   21  C9  UNL     1       3.711   0.632  37.726  1.00  0.00     0.146 A 
HETATM   22  N6  UNL     1       3.674   0.537  36.359  1.00  0.00    -0.234 N 
HETATM   23  O3  UNL     1       2.759   1.328  35.936  1.00  0.00    -0.155 OA
ATOM     24  H6  UNL     1       4.269  -0.057  35.781  1.00  0.00     0.197 HD
HETATM   25  N7  UNL     1       2.180   1.946  36.913  1.00  0.00    -0.224 N 
HETATM   26  C10 UNL     1       2.746   1.540  38.079  1.00  0.00     0.154 A 
ATOM     27  H7  UNL     1       1.423   2.624  36.824  1.00  0.00     0.198 HD
BRANCH  26  28
HETATM   28  N8  UNL     1       2.422   1.948  39.270  1.00  0.00    -0.382 N 
ATOM     29  H82 UNL     1       2.467   1.396  40.127  1.00  0.00     0.157 HD
ATOM     30  H81 UNL     1       2.074   2.865  39.550  1.00  0.00     0.157 HD
ENDBRANCH  26  28
ENDBRANCH  17  21
ENDBRANCH  15  17
ENDBRANCH  13  15
ENDBRANCH   7  13
BRANCH  10  31
HETATM   31  N1  UNL     1       1.346  -4.980  42.334  1.00  0.00    -0.356 N 
ATOM     32  H1  UNL     1       1.621  -5.285  43.267  1.00  0.00     0.162 HD
BRANCH  31  33
HETATM   33  C3  UNL     1       0.066  -5.393  42.070  1.00  0.00     0.112 C 
HETATM   34  C4  UNL     1      -0.523  -6.559  42.823  1.00  0.00     0.049 C 
HETATM   35  C5  UNL     1      -0.093  -5.725  40.572  1.00  0.00     0.049 C 
BRANCH  33  36
HETATM   36  C2  UNL     1      -0.961  -4.277  42.270  1.00  0.00     0.286 C 
HETATM   37  O2  UNL     1      -0.876  -3.240  41.560  1.00  0.00    -0.262 OA
BRANCH  36  38
HETATM   38  O1  UNL     1      -1.971  -4.361  43.192  1.00  0.00    -0.325 OA
HETATM   39  C1  UNL     1      -3.296  -3.988  42.852  1.00  0.00     0.213 C 
ENDBRANCH  36  38
ENDBRANCH  33  36
ENDBRANCH  31  33
ENDBRANCH  10  31
BRANCH  12  40
HETATM   40  N12 UNL     1       3.527  -6.417  41.992  1.00  0.00    -0.108 N 
HETATM   41  O4  UNL     1       3.317  -7.337  41.156  1.00  0.00    -0.531 OA
HETATM   42  O5  UNL     1       3.755  -6.856  43.267  1.00  0.00    -0.531 OA
ENDBRANCH  12  40
ENDBRANCH   1   5
TORSDOF 11
ENDMDL
MODEL 4
REMARK VINA RESULT: -7.264345446      1.284      1.485
REMARK  11 active torsions:
REMARK  status: ('A' for Active; 'I' for Inactive)
REMARK    1  A    between atoms: O1_2  and  C2_3 
REMARK    2  A    between atoms: C2_3  and  C3_5 
REMARK    3  A    between atoms: C3_5  and  N1_8 
REMARK    4  A    between atoms: N1_8  and  C6_10 
REMARK    5  A    between atoms: C7_13  and  N3_14 
REMARK    6  A    between atoms: N3_14  and  N4_16 
REMARK    7  A    between atoms: N4_16  and  C8_18 
REMARK    8  A    between atoms: C8_18  and  C9_22 
REMARK    9  A    between atoms: C10_28  and  N8_29 
REMARK   10  A    between atoms: C11_34  and  N10_35 
REMARK   11  A    between atoms: C14_39  and  N12_40 
ROOT
HETATM    1  N10 UNL     1       6.323  -5.273  40.601  1.00  0.00    -0.272 N 
HETATM    2  C12 UNL     1       6.851  -5.443  39.236  1.00  0.00     0.170 C 
HETATM    3  C13 UNL     1       6.968  -5.946  41.620  1.00  0.00     0.185 C 
HETATM    4  N11 UNL     1       7.503  -6.498  42.488  1.00  0.00    -0.172 NA
ENDROOT
BRANCH   1   5
HETATM    5  C11 UNL     1       5.197  -4.431  40.748  1.00  0.00     0.169 A 
HETATM    6  N9  UNL     1       5.275  -3.147  40.316  1.00  0.00    -0.172 N 
HETATM    7  C7  UNL     1       4.264  -2.282  40.472  1.00  0.00     0.700 A 
ATOM      8  H9  UNL     1       6.129  -2.830  39.856  1.00  0.00     0.186 HD
HETATM    9  N2  UNL     1       3.147  -2.730  41.081  1.00  0.00    -0.173 N 
HETATM   10  C6  UNL     1       2.941  -3.963  41.550  1.00  0.00     0.155 A 
ATOM     11  H2  UNL     1       2.384  -2.061  41.194  1.00  0.00     0.186 HD
HETATM   12  C14 UNL     1       4.058  -4.849  41.354  1.00  0.00     0.192 A 
BRANCH   7  13
HETATM   13  N3  UNL     1       4.370  -0.931  40.006  1.00  0.00    -0.130 N 
ATOM     14  H3  UNL     1       5.077  -0.728  39.299  1.00  0.00     0.205 HD
BRANCH  13  15
HETATM   15  N4  UNL     1       3.579   0.123  40.446  1.00  0.00    -0.270 N 
ATOM     16  H4  UNL     1       3.887   0.689  41.237  1.00  0.00     0.189 HD
BRANCH  15  17
HETATM   17  C8  UNL     1       2.355   0.417  39.813  1.00  0.00     0.147 C 
HETATM   18  N5  UNL     1       1.279  -0.120  40.276  1.00  0.00    -0.382 N 
ATOM     19  H52 UNL     1       1.373  -0.737  41.084  1.00  0.00     0.157 HD
ATOM     20  H51 UNL     1       0.394   0.093  39.818  1.00  0.00     0.157 HD
BRANCH  17  21
HETATM   21  C9  UNL     1       2.222   1.297  38.662  1.00  0.00     0.146 A 
HETATM   22  N6  UNL     1       1.533   2.482  38.645  1.00  0.00    -0.234 N 
HETATM   23  O3  UNL     1       1.634   2.977  37.468  1.00  0.00    -0.155 OA
ATOM     24  H6  UNL     1       1.030   2.895  39.430  1.00  0.00     0.197 HD
HETATM   25  N7  UNL     1       2.337   2.217  36.694  1.00  0.00    -0.224 N 
HETATM   26  C10 UNL     1       2.739   1.131  37.402  1.00  0.00     0.154 A 
ATOM     27  H7  UNL     1       2.554   2.402  35.714  1.00  0.00     0.198 HD
BRANCH  26  28
HETATM   28  N8  UNL     1       3.462   0.147  36.953  1.00  0.00    -0.382 N 
ATOM     29  H82 UNL     1       3.684  -0.037  35.976  1.00  0.00     0.157 HD
ATOM     30  H81 UNL     1       3.920  -0.593  37.486  1.00  0.00     0.157 HD
ENDBRANCH  26  28
ENDBRANCH  17  21
ENDBRANCH  15  17
ENDBRANCH  13  15
ENDBRANCH   7  13
BRANCH  10  31
HETATM   31  N1  UNL     1       1.940  -4.434  42.117  1.00  0.00    -0.356 N 
ATOM     32  H1  UNL     1       2.146  -4.589  43.104  1.00  0.00     0.162 HD
BRANCH  31  33
HETATM   33  C3  UNL     1       0.652  -4.812  41.848  1.00  0.00     0.112 C 
HETATM   34  C4  UNL     1      -0.047  -5.807  42.741  1.00  0.00     0.049 C 
HETATM   35  C5  UNL     1       0.546  -5.374  40.415  1.00  0.00     0.049 C 
BRANCH  33  36
HETATM   36  C2  UNL     1      -0.311  -3.624  41.807  1.00  0.00     0.286 C 
HETATM   37  O2  UNL     1       0.114  -2.514  41.388  1.00  0.00    -0.262 OA
BRANCH  36  38
HETATM   38  O1  UNL     1      -1.617  -3.719  42.209  1.00  0.00    -0.325 OA
HETATM   39  C1  UNL     1      -2.673  -3.638  41.266  1.00  0.00     0.213 C 
ENDBRANCH  36  38
ENDBRANCH  33  36
ENDBRANCH  31  33
ENDBRANCH  10  31
BRANCH  12  40
HETATM   40  N12 UNL     1       3.884  -6.178  41.770  1.00  0.00    -0.108 N 
HETATM   41  O4  UNL     1       3.504  -7.075  40.971  1.00  0.00    -0.531 OA
HETATM   42  O5  UNL     1       4.100  -6.616  43.047  1.00  0.00    -0.531 OA
ENDBRANCH  12  40
ENDBRANCH   1   5
TORSDOF 11
ENDMDL
MODEL 5
REMARK VINA RESULT: -7.219146367      0.708      1.127
REMARK  11 active torsions:
REMARK  status: ('A' for Active; 'I' for Inactive)
REMARK    1  A    between atoms: O1_2  and  C2_3 
REMARK    2  A    between atoms: C2_3  and  C3_5 
REMARK    3  A    between atoms: C3_5  and  N1_8 
REMARK    4  A    between atoms: N1_8  and  C6_10 
REMARK    5  A    between atoms: C7_13  and  N3_14 
REMARK    6  A    between atoms: N3_14  and  N4_16 
REMARK    7  A    between atoms: N4_16  and  C8_18 
REMARK    8  A    between atoms: C8_18  and  C9_22 
REMARK    9  A    between atoms: C10_28  and  N8_29 
REMARK   10  A    between atoms: C11_34  and  N10_35 
REMARK   11  A    between atoms: C14_39  and  N12_40 
ROOT
HETATM    1  N10 UNL     1       5.655  -5.106  40.942  1.00  0.00    -0.272 N 
HETATM    2  C12 UNL     1       6.195  -5.115  39.571  1.00  0.00     0.170 C 
HETATM    3  C13 UNL     1       6.402  -5.729  41.922  1.00  0.00     0.185 C 
HETATM    4  N11 UNL     1       7.020  -6.241  42.759  1.00  0.00    -0.172 NA
ENDROOT
BRANCH   1   5
HETATM    5  C11 UNL     1       4.415  -4.455  41.133  1.00  0.00     0.169 A 
HETATM    6  N9  UNL     1       4.319  -3.128  40.864  1.00  0.00    -0.172 N 
HETATM    7  C7  UNL     1       3.190  -2.441  41.073  1.00  0.00     0.700 A 
ATOM      8  H9  UNL     1       5.132  -2.639  40.489  1.00  0.00     0.186 HD
HETATM    9  N2  UNL     1       2.130  -3.114  41.568  1.00  0.00    -0.173 N 
HETATM   10  C6  UNL     1       2.091  -4.413  41.875  1.00  0.00     0.155 A 
ATOM     11  H2  UNL     1       1.275  -2.579  41.723  1.00  0.00     0.186 HD
HETATM   12  C14 UNL     1       3.331  -5.101  41.628  1.00  0.00     0.192 A 
BRANCH   7  13
HETATM   13  N3  UNL     1       3.112  -1.040  40.779  1.00  0.00    -0.130 N 
ATOM     14  H3  UNL     1       3.384  -0.386  41.514  1.00  0.00     0.205 HD
BRANCH  13  15
HETATM   15  N4  UNL     1       2.696  -0.508  39.565  1.00  0.00    -0.270 N 
ATOM     16  H4  UNL     1       1.798  -0.791  39.172  1.00  0.00     0.189 HD
BRANCH  15  17
HETATM   17  C8  UNL     1       3.500   0.418  38.871  1.00  0.00     0.147 C 
HETATM   18  N5  UNL     1       3.531   1.637  39.288  1.00  0.00    -0.382 N 
ATOM     19  H52 UNL     1       2.965   1.869  40.105  1.00  0.00     0.157 HD
ATOM     20  H51 UNL     1       4.113   2.307  38.786  1.00  0.00     0.157 HD
BRANCH  17  21
HETATM   21  C9  UNL     1       4.306   0.087  37.707  1.00  0.00     0.146 A 
HETATM   22  N6  UNL     1       5.360  -0.789  37.696  1.00  0.00    -0.234 N 
HETATM   23  O3  UNL     1       5.826  -0.827  36.503  1.00  0.00    -0.155 OA
ATOM     24  H6  UNL     1       5.711  -1.317  38.495  1.00  0.00     0.197 HD
HETATM   25  N7  UNL     1       5.166  -0.045  35.713  1.00  0.00    -0.224 N 
HETATM   26  C10 UNL     1       4.184   0.564  36.427  1.00  0.00     0.154 A 
ATOM     27  H7  UNL     1       5.351   0.093  34.719  1.00  0.00     0.198 HD
BRANCH  26  28
HETATM   28  N8  UNL     1       3.321   1.421  35.967  1.00  0.00    -0.382 N 
ATOM     29  H82 UNL     1       3.024   2.281  36.428  1.00  0.00     0.157 HD
ATOM     30  H81 UNL     1       2.803   1.384  35.089  1.00  0.00     0.157 HD
ENDBRANCH  26  28
ENDBRANCH  17  21
ENDBRANCH  15  17
ENDBRANCH  13  15
ENDBRANCH   7  13
BRANCH  10  31
HETATM   31  N1  UNL     1       1.152  -5.087  42.331  1.00  0.00    -0.356 N 
ATOM     32  H1  UNL     1       1.436  -5.524  43.208  1.00  0.00     0.162 HD
BRANCH  31  33
HETATM   33  C3  UNL     1      -0.140  -5.435  42.039  1.00  0.00     0.112 C 
HETATM   34  C4  UNL     1      -0.787  -6.602  42.742  1.00  0.00     0.049 C 
HETATM   35  C5  UNL     1      -0.297  -5.704  40.528  1.00  0.00     0.049 C 
BRANCH  33  36
HETATM   36  C2  UNL     1      -1.122  -4.285  42.272  1.00  0.00     0.286 C 
HETATM   37  O2  UNL     1      -1.063  -3.276  41.519  1.00  0.00    -0.262 OA
BRANCH  36  38
HETATM   38  O1  UNL     1      -2.064  -4.308  43.266  1.00  0.00    -0.325 OA
HETATM   39  C1  UNL     1      -3.409  -3.949  43.000  1.00  0.00     0.213 C 
ENDBRANCH  36  38
ENDBRANCH  33  36
ENDBRANCH  31  33
ENDBRANCH  10  31
BRANCH  12  40
HETATM   40  N12 UNL     1       3.338  -6.484  41.872  1.00  0.00    -0.108 N 
HETATM   41  O4  UNL     1       3.076  -7.315  40.962  1.00  0.00    -0.531 OA
HETATM   42  O5  UNL     1       3.619  -7.047  43.086  1.00  0.00    -0.531 OA
ENDBRANCH  12  40
ENDBRANCH   1   5
TORSDOF 11
ENDMDL
