MODEL 1
REMARK VINA RESULT: -7.744035245      0.000      0.000
REMARK  6 active torsions:
REMARK  status: ('A' for Active; 'I' for Inactive)
REMARK    1  A    between atoms: O1_2  and  C2_3 
REMARK    2  A    between atoms: C4_7  and  N2_8 
REMARK    3  A    between atoms: N2_8  and  C5_10 
REMARK    4  A    between atoms: C11_21  and  C12_22 
REMARK    5  A    between atoms: C12_22  and  O3_24 
REMARK    6  A    between atoms: O3_24  and  C13_25 
ROOT
HETATM    1  C2  UNL     1      -5.431  14.977   1.802  1.00  0.00     0.117 A 
HETATM    2  C3  UNL     1      -6.624  14.918   1.110  1.00  0.00     0.145 A 
HETATM    3  N1  UNL     1      -7.066  13.737   0.650  1.00  0.00    -0.199 N 
ATOM      4  H1  UNL     1      -7.951  13.721   0.142  1.00  0.00     0.183 HD
HETATM    5  C4  UNL     1      -6.412  12.575   0.819  1.00  0.00     0.683 A 
HETATM    6  N3  UNL     1      -5.248  12.621   1.492  1.00  0.00    -0.183 N 
ATOM      7  H3  UNL     1      -4.723  11.758   1.640  1.00  0.00     0.184 HD
HETATM    8  C11 UNL     1      -4.759  13.784   1.975  1.00  0.00     0.159 A 
ENDROOT
BRANCH   5   9
HETATM    9  N2  UNL     1      -6.842  11.442   0.374  1.00  0.00    -0.190 N 
ATOM     10  H2  UNL     1      -6.228  10.890  -0.226  1.00  0.00     0.184 HD
BRANCH   9  11
HETATM   11  C5  UNL     1      -8.128  10.931   0.680  1.00  0.00     0.072 A 
HETATM   12  C6  UNL     1      -8.461  10.413   1.909  1.00  0.00     0.057 A 
HETATM   13  C7  UNL     1      -9.727   9.914   2.199  1.00  0.00     0.058 A 
HETATM   14 CL1  UNL     1     -10.056   9.275   3.791  1.00  0.00    -0.082 Cl
HETATM   15  C8  UNL     1     -10.702   9.929   1.237  1.00  0.00     0.057 A 
HETATM   16 CL2  UNL     1     -12.318   9.311   1.548  1.00  0.00    -0.082 Cl
HETATM   17  C9  UNL     1     -10.392  10.446  -0.012  1.00  0.00     0.051 A 
HETATM   18  C10 UNL     1      -9.134  10.937  -0.285  1.00  0.00     0.063 A 
HETATM   19 CL3  UNL     1      -8.785  11.578  -1.859  1.00  0.00    -0.082 Cl
ENDBRANCH   9  11
ENDBRANCH   5   9
BRANCH   8  20
HETATM   20  C12 UNL     1      -3.482  13.812   2.709  1.00  0.00     0.315 C 
HETATM   21  O2  UNL     1      -3.458  13.825   3.963  1.00  0.00    -0.257 OA
BRANCH  20  22
HETATM   22  O3  UNL     1      -2.266  13.825   2.041  1.00  0.00    -0.285 OA
BRANCH  22  23
HETATM   23  C13 UNL     1      -1.825  12.806   1.184  1.00  0.00     0.269 C 
HETATM   24  C14 UNL     1      -2.117  13.135  -0.273  1.00  0.00     0.063 C 
HETATM   25  C15 UNL     1      -1.030  12.320  -0.979  1.00  0.00     0.031 C 
HETATM   26  C16 UNL     1      -0.190  11.772   0.160  1.00  0.00     0.171 C 
HETATM   27  O4  UNL     1      -0.420  12.744   1.160  1.00  0.00    -0.361 OA
ENDBRANCH  22  23
ENDBRANCH  20  22
ENDBRANCH   8  20
BRANCH   1  28
HETATM   28  O1  UNL     1      -4.893  16.130   2.312  1.00  0.00    -0.352 OA
HETATM   29  C1  UNL     1      -5.459  17.402   2.223  1.00  0.00     0.210 C 
ENDBRANCH   1  28
TORSDOF 6
ENDMDL
MODEL 2
REMARK VINA RESULT: -7.497032684      3.869      6.991
REMARK  6 active torsions:
REMARK  status: ('A' for Active; 'I' for Inactive)
REMARK    1  A    between atoms: O1_2  and  C2_3 
REMARK    2  A    between atoms: C4_7  and  N2_8 
REMARK    3  A    between atoms: N2_8  and  C5_10 
REMARK    4  A    between atoms: C11_21  and  C12_22 
REMARK    5  A    between atoms: C12_22  and  O3_24 
REMARK    6  A    between atoms: O3_24  and  C13_25 
ROOT
HETATM    1  C2  UNL     1      -9.995  10.880   1.533  1.00  0.00     0.117 A 
HETATM    2  C3  UNL     1      -9.418  10.106   2.521  1.00  0.00     0.145 A 
HETATM    3  N1  UNL     1      -8.095  10.187   2.738  1.00  0.00    -0.199 N 
ATOM      4  H1  UNL     1      -7.694   9.605   3.473  1.00  0.00     0.183 HD
HETATM    5  C4  UNL     1      -7.270  10.991   2.044  1.00  0.00     0.683 A 
HETATM    6  N3  UNL     1      -7.822  11.749   1.081  1.00  0.00    -0.183 N 
ATOM      7  H3  UNL     1      -7.226  12.371   0.533  1.00  0.00     0.184 HD
HETATM    8  C11 UNL     1      -9.147  11.705   0.821  1.00  0.00     0.159 A 
ENDROOT
BRANCH   5   9
HETATM    9  N2  UNL     1      -5.999  11.064   2.258  1.00  0.00    -0.190 N 
ATOM     10  H2  UNL     1      -5.536  10.278   2.715  1.00  0.00     0.184 HD
BRANCH   9  11
HETATM   11  C5  UNL     1      -5.218  12.187   1.885  1.00  0.00     0.072 A 
HETATM   12  C6  UNL     1      -5.425  13.449   2.386  1.00  0.00     0.057 A 
HETATM   13  C7  UNL     1      -4.652  14.545   2.013  1.00  0.00     0.058 A 
HETATM   14 CL1  UNL     1      -4.992  16.113   2.704  1.00  0.00    -0.082 Cl
HETATM   15  C8  UNL     1      -3.634  14.385   1.111  1.00  0.00     0.057 A 
HETATM   16 CL2  UNL     1      -2.627  15.733   0.603  1.00  0.00    -0.082 Cl
HETATM   17  C9  UNL     1      -3.404  13.121   0.590  1.00  0.00     0.051 A 
HETATM   18  C10 UNL     1      -4.178  12.045   0.968  1.00  0.00     0.063 A 
HETATM   19 CL3  UNL     1      -3.858  10.478   0.296  1.00  0.00    -0.082 Cl
ENDBRANCH   9  11
ENDBRANCH   5   9
BRANCH   8  20
HETATM   20  C12 UNL     1      -9.732  12.543  -0.240  1.00  0.00     0.315 C 
HETATM   21  O2  UNL     1     -10.038  12.055  -1.354  1.00  0.00    -0.257 OA
BRANCH  20  22
HETATM   22  O3  UNL     1      -9.964  13.897  -0.044  1.00  0.00    -0.285 OA
BRANCH  22  23
HETATM   23  C13 UNL     1      -9.067  14.913  -0.405  1.00  0.00     0.269 C 
HETATM   24  C14 UNL     1      -9.204  16.128   0.501  1.00  0.00     0.063 C 
HETATM   25  C15 UNL     1      -7.803  16.735   0.388  1.00  0.00     0.031 C 
HETATM   26  C16 UNL     1      -7.031  15.716  -0.430  1.00  0.00     0.171 C 
HETATM   27  O4  UNL     1      -7.741  14.532  -0.129  1.00  0.00    -0.361 OA
ENDBRANCH  22  23
ENDBRANCH  20  22
ENDBRANCH   8  20
BRANCH   1  28
HETATM   28  O1  UNL     1     -11.332  10.872   1.232  1.00  0.00    -0.352 OA
HETATM   29  C1  UNL     1     -12.082   9.748   0.889  1.00  0.00     0.210 C 
ENDBRANCH   1  28
TORSDOF 6
ENDMDL
MODEL 3
REMARK VINA RESULT: -7.292078679      1.491      4.337
REMARK  6 active torsions:
REMARK  status: ('A' for Active; 'I' for Inactive)
REMARK    1  A    between atoms: O1_2  and  C2_3 
REMARK    2  A    between atoms: C4_7  and  N2_8 
REMARK    3  A    between atoms: N2_8  and  C5_10 
REMARK    4  A    between atoms: C11_21  and  C12_22 
REMARK    5  A    between atoms: C12_22  and  O3_24 
REMARK    6  A    between atoms: O3_24  and  C13_25 
ROOT
HETATM    1  C2  UNL     1      -3.156  12.402   1.396  1.00  0.00     0.117 A 
HETATM    2  C3  UNL     1      -3.425  11.222   0.731  1.00  0.00     0.145 A 
HETATM    3  N1  UNL     1      -4.620  10.630   0.887  1.00  0.00    -0.199 N 
ATOM      4  H1  UNL     1      -4.793   9.759   0.386  1.00  0.00     0.183 HD
HETATM    5  C4  UNL     1      -5.602  11.118   1.666  1.00  0.00     0.683 A 
HETATM    6  N3  UNL     1      -5.350  12.267   2.318  1.00  0.00    -0.183 N 
ATOM      7  H3  UNL     1      -6.071  12.668   2.919  1.00  0.00     0.184 HD
HETATM    8  C11 UNL     1      -4.164  12.903   2.195  1.00  0.00     0.159 A 
ENDROOT
BRANCH   5   9
HETATM    9  N2  UNL     1      -6.748  10.544   1.813  1.00  0.00    -0.190 N 
ATOM     10  H2  UNL     1      -6.809   9.725   2.418  1.00  0.00     0.184 HD
BRANCH   9  11
HETATM   11  C5  UNL     1      -7.927  11.002   1.172  1.00  0.00     0.072 A 
HETATM   12  C6  UNL     1      -7.917  11.855   0.095  1.00  0.00     0.057 A 
HETATM   13  C7  UNL     1      -9.081  12.298  -0.526  1.00  0.00     0.058 A 
HETATM   14 CL1  UNL     1      -8.968  13.383  -1.891  1.00  0.00    -0.082 Cl
HETATM   15  C8  UNL     1     -10.301  11.880  -0.066  1.00  0.00     0.057 A 
HETATM   16 CL2  UNL     1     -11.802  12.408  -0.812  1.00  0.00    -0.082 Cl
HETATM   17  C9  UNL     1     -10.339  11.019   1.020  1.00  0.00     0.051 A 
HETATM   18  C10 UNL     1      -9.179  10.589   1.626  1.00  0.00     0.063 A 
HETATM   19 CL3  UNL     1      -9.267   9.510   2.982  1.00  0.00    -0.082 Cl
ENDBRANCH   9  11
ENDBRANCH   5   9
BRANCH   8  20
HETATM   20  C12 UNL     1      -3.909  14.161   2.919  1.00  0.00     0.315 C 
HETATM   21  O2  UNL     1      -3.520  14.152   4.111  1.00  0.00    -0.257 OA
BRANCH  20  22
HETATM   22  O3  UNL     1      -4.088  15.393   2.308  1.00  0.00    -0.285 OA
BRANCH  22  23
HETATM   23  C13 UNL     1      -5.339  15.957   2.019  1.00  0.00     0.269 C 
HETATM   24  C14 UNL     1      -5.405  17.419   2.437  1.00  0.00     0.063 C 
HETATM   25  C15 UNL     1      -6.475  17.948   1.478  1.00  0.00     0.031 C 
HETATM   26  C16 UNL     1      -6.755  16.771   0.561  1.00  0.00     0.171 C 
HETATM   27  O4  UNL     1      -5.527  16.075   0.629  1.00  0.00    -0.361 OA
ENDBRANCH  22  23
ENDBRANCH  20  22
ENDBRANCH   8  20
BRANCH   1  28
HETATM   28  O1  UNL     1      -1.971  13.084   1.304  1.00  0.00    -0.352 OA
HETATM   29  C1  UNL     1      -0.786  12.588   0.762  1.00  0.00     0.210 C 
ENDBRANCH   1  28
TORSDOF 6
ENDMDL
MODEL 4
REMARK VINA RESULT: -7.248608691      2.064      3.038
REMARK  6 active torsions:
REMARK  status: ('A' for Active; 'I' for Inactive)
REMARK    1  A    between atoms: O1_2  and  C2_3 
REMARK    2  A    between atoms: C4_7  and  N2_8 
REMARK    3  A    between atoms: N2_8  and  C5_10 
REMARK    4  A    between atoms: C11_21  and  C12_22 
REMARK    5  A    between atoms: C12_22  and  O3_24 
REMARK    6  A    between atoms: O3_24  and  C13_25 
ROOT
HETATM    1  C2  UNL     1      -3.471  12.463   1.294  1.00  0.00     0.117 A 
HETATM    2  C3  UNL     1      -4.421  11.923   0.450  1.00  0.00     0.145 A 
HETATM    3  N1  UNL     1      -5.713  12.252   0.609  1.00  0.00    -0.199 N 
ATOM      4  H1  UNL     1      -6.395  11.840  -0.027  1.00  0.00     0.183 HD
HETATM    5  C4  UNL     1      -6.160  13.093   1.559  1.00  0.00     0.683 A 
HETATM    6  N3  UNL     1      -5.243  13.624   2.387  1.00  0.00    -0.183 N 
ATOM      7  H3  UNL     1      -5.545  14.266   3.120  1.00  0.00     0.184 HD
HETATM    8  C11 UNL     1      -3.931  13.325   2.269  1.00  0.00     0.159 A 
ENDROOT
BRANCH   5   9
HETATM    9  N2  UNL     1      -7.404  13.404   1.708  1.00  0.00    -0.190 N 
ATOM     10  H2  UNL     1      -7.644  14.380   1.886  1.00  0.00     0.184 HD
BRANCH   9  11
HETATM   11  C5  UNL     1      -8.451  12.452   1.634  1.00  0.00     0.072 A 
HETATM   12  C6  UNL     1      -8.456  11.278   2.349  1.00  0.00     0.057 A 
HETATM   13  C7  UNL     1      -9.490  10.351   2.268  1.00  0.00     0.058 A 
HETATM   14 CL1  UNL     1      -9.407   8.886   3.217  1.00  0.00    -0.082 Cl
HETATM   15  C8  UNL     1     -10.561  10.593   1.449  1.00  0.00     0.057 A 
HETATM   16 CL2  UNL     1     -11.894   9.455   1.308  1.00  0.00    -0.082 Cl
HETATM   17  C9  UNL     1     -10.581  11.769   0.716  1.00  0.00     0.051 A 
HETATM   18  C10 UNL     1      -9.550  12.679   0.805  1.00  0.00     0.063 A 
HETATM   19 CL3  UNL     1      -9.611  14.141  -0.127  1.00  0.00    -0.082 Cl
ENDBRANCH   9  11
ENDBRANCH   5   9
BRANCH   8  20
HETATM   20  C12 UNL     1      -2.942  13.918   3.187  1.00  0.00     0.315 C 
HETATM   21  O2  UNL     1      -3.081  13.829   4.430  1.00  0.00    -0.257 OA
BRANCH  20  22
HETATM   22  O3  UNL     1      -1.826  14.591   2.709  1.00  0.00    -0.285 OA
BRANCH  22  23
HETATM   23  C13 UNL     1      -1.874  15.821   2.038  1.00  0.00     0.269 C 
HETATM   24  C14 UNL     1      -0.662  16.682   2.361  1.00  0.00     0.063 C 
HETATM   25  C15 UNL     1      -0.583  17.557   1.107  1.00  0.00     0.031 C 
HETATM   26  C16 UNL     1      -1.648  16.979   0.193  1.00  0.00     0.171 C 
HETATM   27  O4  UNL     1      -1.704  15.643   0.652  1.00  0.00    -0.361 OA
ENDBRANCH  22  23
ENDBRANCH  20  22
ENDBRANCH   8  20
BRANCH   1  28
HETATM   28  O1  UNL     1      -2.129  12.192   1.216  1.00  0.00    -0.352 OA
HETATM   29  C1  UNL     1      -1.375  12.145   0.044  1.00  0.00     0.210 C 
ENDBRANCH   1  28
TORSDOF 6
ENDMDL
MODEL 5
REMARK VINA RESULT: -7.212319626      1.585      2.067
REMARK  6 active torsions:
REMARK  status: ('A' for Active; 'I' for Inactive)
REMARK    1  A    between atoms: O1_2  and  C2_3 
REMARK    2  A    between atoms: C4_7  and  N2_8 
REMARK    3  A    between atoms: N2_8  and  C5_10 
REMARK    4  A    between atoms: C11_21  and  C12_22 
REMARK    5  A    between atoms: C12_22  and  O3_24 
REMARK    6  A    between atoms: O3_24  and  C13_25 
ROOT
HETATM    1  C2  UNL     1      -4.453  13.465   1.724  1.00  0.00     0.117 A 
HETATM    2  C3  UNL     1      -5.290  14.548   1.906  1.00  0.00     0.145 A 
HETATM    3  N1  UNL     1      -6.555  14.490   1.461  1.00  0.00    -0.199 N 
ATOM      4  H1  UNL     1      -7.153  15.303   1.608  1.00  0.00     0.183 HD
HETATM    5  C4  UNL     1      -7.081  13.423   0.833  1.00  0.00     0.683 A 
HETATM    6  N3  UNL     1      -6.274  12.363   0.650  1.00  0.00    -0.183 N 
ATOM      7  H3  UNL     1      -6.637  11.535   0.177  1.00  0.00     0.184 HD
HETATM    8  C11 UNL     1      -4.993  12.370   1.079  1.00  0.00     0.159 A 
ENDROOT
BRANCH   5   9
HETATM    9  N2  UNL     1      -8.298  13.374   0.407  1.00  0.00    -0.190 N 
ATOM     10  H2  UNL     1      -8.704  14.215  -0.004  1.00  0.00     0.184 HD
BRANCH   9  11
HETATM   11  C5  UNL     1      -9.095  12.204   0.483  1.00  0.00     0.072 A 
HETATM   12  C6  UNL     1      -9.260  11.478   1.638  1.00  0.00     0.057 A 
HETATM   13  C7  UNL     1     -10.045  10.330   1.702  1.00  0.00     0.058 A 
HETATM   14 CL1  UNL     1     -10.195   9.474   3.216  1.00  0.00    -0.082 Cl
HETATM   15  C8  UNL     1     -10.692   9.884   0.580  1.00  0.00     0.057 A 
HETATM   16 CL2  UNL     1     -11.695   8.441   0.602  1.00  0.00    -0.082 Cl
HETATM   17  C9  UNL     1     -10.541  10.598  -0.599  1.00  0.00     0.051 A 
HETATM   18  C10 UNL     1      -9.761  11.732  -0.647  1.00  0.00     0.063 A 
HETATM   19 CL3  UNL     1      -9.598  12.600  -2.141  1.00  0.00    -0.082 Cl
ENDBRANCH   9  11
ENDBRANCH   5   9
BRANCH   8  20
HETATM   20  C12 UNL     1      -4.125  11.198   0.868  1.00  0.00     0.315 C 
HETATM   21  O2  UNL     1      -3.974  10.336   1.767  1.00  0.00    -0.257 OA
BRANCH  20  22
HETATM   22  O3  UNL     1      -3.448  11.007  -0.328  1.00  0.00    -0.285 OA
BRANCH  22  23
HETATM   23  C13 UNL     1      -2.137  11.443  -0.572  1.00  0.00     0.269 C 
HETATM   24  C14 UNL     1      -2.114  12.849  -1.154  1.00  0.00     0.063 C 
HETATM   25  C15 UNL     1      -0.729  13.325  -0.708  1.00  0.00     0.031 C 
HETATM   26  C16 UNL     1      -0.226  12.201   0.179  1.00  0.00     0.171 C 
HETATM   27  O4  UNL     1      -1.444  11.649   0.635  1.00  0.00    -0.361 OA
ENDBRANCH  22  23
ENDBRANCH  20  22
ENDBRANCH   8  20
BRANCH   1  28
HETATM   28  O1  UNL     1      -3.147  13.422   2.140  1.00  0.00    -0.352 OA
HETATM   29  C1  UNL     1      -2.366  14.526   2.483  1.00  0.00     0.210 C 
ENDBRANCH   1  28
TORSDOF 6
ENDMDL
