MODEL 1
REMARK VINA RESULT: -8.555511392      0.000      0.000
REMARK  6 active torsions:
REMARK  status: ('A' for Active; 'I' for Inactive)
REMARK    1  A    between atoms: C2_2  and  O1_3 
REMARK    2  A    between atoms: C2_2  and  C20_27 
REMARK    3  A    between atoms: O1_3  and  C3_4 
REMARK    4  A    between atoms: C11_13  and  O3_14 
REMARK    5  A    between atoms: C12_16  and  C14_18 
REMARK    6  A    between atoms: C14_18  and  C15_20 
ROOT
HETATM    1  C3  UNL     1      -8.406  12.120   1.441  1.00  0.00     0.122 C 
HETATM    2  C4  UNL     1      -8.088  13.409   0.713  1.00  0.00     0.037 C 
HETATM    3  C5  UNL     1      -6.649  13.449   0.251  1.00  0.00     0.071 C 
HETATM    4  C6  UNL     1      -5.720  12.720   1.159  1.00  0.00     0.165 C 
HETATM    5  C7  UNL     1      -6.113  11.317   1.472  1.00  0.00     0.071 C 
HETATM    6  C8  UNL     1      -7.494  11.069   0.849  1.00  0.00     0.037 C 
HETATM    7  O2  UNL     1      -5.514  13.481   2.307  1.00  0.00    -0.347 OA
HETATM    8  C9  UNL     1      -4.287  13.027   2.783  1.00  0.00     0.158 C 
HETATM    9  C10 UNL     1      -3.557  14.173   3.407  1.00  0.00     0.067 C 
HETATM   10  C11 UNL     1      -2.203  14.146   2.732  1.00  0.00     0.139 C 
HETATM   11  C12 UNL     1      -2.500  13.717   1.311  1.00  0.00     0.078 C 
HETATM   12  C13 UNL     1      -3.004  14.838   0.455  1.00  0.00     0.029 C 
HETATM   13  C19 UNL     1      -3.538  12.638   1.528  1.00  0.00     0.172 C 
HETATM   14  O6  UNL     1      -4.466  12.669   0.517  1.00  0.00    -0.346 OA
ENDROOT
BRANCH   1  15
HETATM   15  O1  UNL     1      -9.711  11.730   1.293  1.00  0.00    -0.372 OA
BRANCH  15  16
HETATM   16  C2  UNL     1      -9.902  10.361   1.175  1.00  0.00     0.225 C 
HETATM   17  C1  UNL     1     -10.576   9.879   2.450  1.00  0.00     0.049 C 
BRANCH  16  18
HETATM   18  C20 UNL     1     -10.877  10.071   0.054  1.00  0.00     0.412 C 
HETATM   19  F1  UNL     1     -12.138  10.504   0.492  1.00  0.00    -0.168 F 
HETATM   20  F2  UNL     1     -11.004   8.721  -0.207  1.00  0.00    -0.168 F 
HETATM   21  F3  UNL     1     -10.548  10.787  -1.082  1.00  0.00    -0.168 F 
ENDBRANCH  16  18
ENDBRANCH  15  16
ENDBRANCH   1  15
BRANCH  11  22
HETATM   22  C14 UNL     1      -1.302  13.095   0.742  1.00  0.00     0.196 C 
HETATM   23  O4  UNL     1      -0.567  12.337   1.410  1.00  0.00    -0.289 OA
BRANCH  22  24
HETATM   24  C15 UNL     1      -0.937  13.356  -0.659  1.00  0.00     0.121 A 
HETATM   25  C16 UNL     1      -1.501  12.806  -1.786  1.00  0.00     0.043 A 
HETATM   26  C17 UNL     1      -0.854  13.330  -2.886  1.00  0.00     0.027 A 
HETATM   27  C18 UNL     1       0.092  14.190  -2.374  1.00  0.00     0.142 A 
HETATM   28  O5  UNL     1       0.010  14.175  -1.069  1.00  0.00    -0.319 OA
ENDBRANCH  22  24
ENDBRANCH  11  22
BRANCH  10  29
HETATM   29  O3  UNL     1      -1.570  15.382   2.782  1.00  0.00    -0.394 OA
ATOM     30  H3  UNL     1      -0.681  15.316   3.111  1.00  0.00     0.210 HD
ENDBRANCH  10  29
TORSDOF 6
ENDMDL
MODEL 2
REMARK VINA RESULT: -8.406772611      1.606      2.667
REMARK  6 active torsions:
REMARK  status: ('A' for Active; 'I' for Inactive)
REMARK    1  A    between atoms: C2_2  and  O1_3 
REMARK    2  A    between atoms: C2_2  and  C20_27 
REMARK    3  A    between atoms: O1_3  and  C3_4 
REMARK    4  A    between atoms: C11_13  and  O3_14 
REMARK    5  A    between atoms: C12_16  and  C14_18 
REMARK    6  A    between atoms: C14_18  and  C15_20 
ROOT
HETATM    1  C3  UNL     1      -8.386  11.783   1.437  1.00  0.00     0.122 C 
HETATM    2  C4  UNL     1      -7.666  10.720   0.633  1.00  0.00     0.037 C 
HETATM    3  C5  UNL     1      -6.167  10.803   0.814  1.00  0.00     0.071 C 
HETATM    4  C6  UNL     1      -5.678  12.192   1.041  1.00  0.00     0.165 C 
HETATM    5  C7  UNL     1      -6.364  12.932   2.137  1.00  0.00     0.071 C 
HETATM    6  C8  UNL     1      -7.517  12.055   2.645  1.00  0.00     0.037 C 
HETATM    7  O2  UNL     1      -5.707  12.888  -0.166  1.00  0.00    -0.347 OA
HETATM    8  C9  UNL     1      -4.765  13.897   0.018  1.00  0.00     0.158 C 
HETATM    9  C10 UNL     1      -4.084  14.164  -1.285  1.00  0.00     0.067 C 
HETATM   10  C11 UNL     1      -2.612  14.070  -0.947  1.00  0.00     0.139 C 
HETATM   11  C12 UNL     1      -2.535  12.972   0.092  1.00  0.00     0.078 C 
HETATM   12  C13 UNL     1      -2.578  11.599  -0.505  1.00  0.00     0.029 C 
HETATM   13  C19 UNL     1      -3.748  13.272   0.946  1.00  0.00     0.172 C 
HETATM   14  O6  UNL     1      -4.315  12.102   1.386  1.00  0.00    -0.346 OA
ENDROOT
BRANCH   1  15
HETATM   15  O1  UNL     1      -9.632  11.389   1.849  1.00  0.00    -0.372 OA
BRANCH  15  16
HETATM   16  C2  UNL     1      -9.898  10.035   1.694  1.00  0.00     0.225 C 
HETATM   17  C1  UNL     1     -10.077   9.441   3.082  1.00  0.00     0.049 C 
BRANCH  16  18
HETATM   18  C20 UNL     1     -11.223   9.847   0.987  1.00  0.00     0.412 C 
HETATM   19  F1  UNL     1     -11.678  11.126   0.634  1.00  0.00    -0.168 F 
HETATM   20  F2  UNL     1     -12.194   9.307   1.807  1.00  0.00    -0.168 F 
HETATM   21  F3  UNL     1     -11.061   9.113  -0.173  1.00  0.00    -0.168 F 
ENDBRANCH  16  18
ENDBRANCH  15  16
ENDBRANCH   1  15
BRANCH  11  22
HETATM   22  C14 UNL     1      -1.337  13.172   0.909  1.00  0.00     0.196 C 
HETATM   23  O4  UNL     1      -0.729  12.217   1.441  1.00  0.00    -0.289 OA
BRANCH  22  24
HETATM   24  C15 UNL     1      -0.815  14.530   1.124  1.00  0.00     0.121 A 
HETATM   25  C16 UNL     1      -1.420  15.560   1.806  1.00  0.00     0.043 A 
HETATM   26  C17 UNL     1      -0.580  16.653   1.762  1.00  0.00     0.027 A 
HETATM   27  C18 UNL     1       0.518  16.236   1.044  1.00  0.00     0.142 A 
HETATM   28  O5  UNL     1       0.340  14.990   0.690  1.00  0.00    -0.319 OA
ENDBRANCH  22  24
ENDBRANCH  11  22
BRANCH  10  29
HETATM   29  O3  UNL     1      -1.836  13.787  -2.064  1.00  0.00    -0.394 OA
ATOM     30  H3  UNL     1      -1.063  13.281  -1.843  1.00  0.00     0.210 HD
ENDBRANCH  10  29
TORSDOF 6
ENDMDL
MODEL 3
REMARK VINA RESULT: -8.256986964      1.190      1.404
REMARK  6 active torsions:
REMARK  status: ('A' for Active; 'I' for Inactive)
REMARK    1  A    between atoms: C2_2  and  O1_3 
REMARK    2  A    between atoms: C2_2  and  C20_27 
REMARK    3  A    between atoms: O1_3  and  C3_4 
REMARK    4  A    between atoms: C11_13  and  O3_14 
REMARK    5  A    between atoms: C12_16  and  C14_18 
REMARK    6  A    between atoms: C14_18  and  C15_20 
ROOT
HETATM    1  C3  UNL     1      -8.290  11.502   0.903  1.00  0.00     0.122 C 
HETATM    2  C4  UNL     1      -8.041  12.843   0.246  1.00  0.00     0.037 C 
HETATM    3  C5  UNL     1      -6.588  13.020  -0.130  1.00  0.00     0.071 C 
HETATM    4  C6  UNL     1      -5.651  12.328   0.800  1.00  0.00     0.165 C 
HETATM    5  C7  UNL     1      -5.943  10.886   1.034  1.00  0.00     0.071 C 
HETATM    6  C8  UNL     1      -7.263  10.554   0.323  1.00  0.00     0.037 C 
HETATM    7  O2  UNL     1      -5.573  13.052   1.987  1.00  0.00    -0.347 OA
HETATM    8  C9  UNL     1      -4.339  12.678   2.515  1.00  0.00     0.158 C 
HETATM    9  C10 UNL     1      -3.742  13.850   3.225  1.00  0.00     0.067 C 
HETATM   10  C11 UNL     1      -2.356  13.963   2.629  1.00  0.00     0.139 C 
HETATM   11  C12 UNL     1      -2.538  13.575   1.178  1.00  0.00     0.078 C 
HETATM   12  C13 UNL     1      -3.087  14.688   0.339  1.00  0.00     0.029 C 
HETATM   13  C19 UNL     1      -3.493  12.407   1.291  1.00  0.00     0.172 C 
HETATM   14  O6  UNL     1      -4.365  12.407   0.230  1.00  0.00    -0.346 OA
ENDROOT
BRANCH   1  15
HETATM   15  O1  UNL     1      -9.548  11.014   0.665  1.00  0.00    -0.372 OA
BRANCH  15  16
HETATM   16  C2  UNL     1     -10.374  10.958   1.779  1.00  0.00     0.225 C 
HETATM   17  C1  UNL     1     -11.810  10.904   1.284  1.00  0.00     0.049 C 
BRANCH  16  18
HETATM   18  C20 UNL     1     -10.144   9.662   2.527  1.00  0.00     0.412 C 
HETATM   19  F1  UNL     1     -11.051   9.646   3.597  1.00  0.00    -0.168 F 
HETATM   20  F2  UNL     1      -8.885   9.586   3.089  1.00  0.00    -0.168 F 
HETATM   21  F3  UNL     1     -10.414   8.574   1.718  1.00  0.00    -0.168 F 
ENDBRANCH  16  18
ENDBRANCH  15  16
ENDBRANCH   1  15
BRANCH  11  22
HETATM   22  C14 UNL     1      -1.264  13.077   0.653  1.00  0.00     0.196 C 
HETATM   23  O4  UNL     1      -0.487  12.387   1.347  1.00  0.00    -0.289 OA
BRANCH  22  24
HETATM   24  C15 UNL     1      -0.869  13.389  -0.729  1.00  0.00     0.121 A 
HETATM   25  C16 UNL     1      -1.371  12.839  -1.885  1.00  0.00     0.043 A 
HETATM   26  C17 UNL     1      -0.717  13.420  -2.952  1.00  0.00     0.027 A 
HETATM   27  C18 UNL     1       0.170  14.311  -2.391  1.00  0.00     0.142 A 
HETATM   28  O5  UNL     1       0.049  14.262  -1.090  1.00  0.00    -0.319 OA
ENDBRANCH  22  24
ENDBRANCH  11  22
BRANCH  10  29
HETATM   29  O3  UNL     1      -1.831  15.243   2.765  1.00  0.00    -0.394 OA
ATOM     30  H3  UNL     1      -0.894  15.263   2.612  1.00  0.00     0.210 HD
ENDBRANCH  10  29
TORSDOF 6
ENDMDL
MODEL 4
REMARK VINA RESULT: -8.082131394      0.924      1.176
REMARK  6 active torsions:
REMARK  status: ('A' for Active; 'I' for Inactive)
REMARK    1  A    between atoms: C2_2  and  O1_3 
REMARK    2  A    between atoms: C2_2  and  C20_27 
REMARK    3  A    between atoms: O1_3  and  C3_4 
REMARK    4  A    between atoms: C11_13  and  O3_14 
REMARK    5  A    between atoms: C12_16  and  C14_18 
REMARK    6  A    between atoms: C14_18  and  C15_20 
ROOT
HETATM    1  C3  UNL     1      -8.352  12.344   1.344  1.00  0.00     0.122 C 
HETATM    2  C4  UNL     1      -7.984  13.672   0.717  1.00  0.00     0.037 C 
HETATM    3  C5  UNL     1      -6.541  13.699   0.270  1.00  0.00     0.071 C 
HETATM    4  C6  UNL     1      -5.644  12.873   1.126  1.00  0.00     0.165 C 
HETATM    5  C7  UNL     1      -6.087  11.465   1.330  1.00  0.00     0.071 C 
HETATM    6  C8  UNL     1      -7.469  11.310   0.680  1.00  0.00     0.037 C 
HETATM    7  O2  UNL     1      -5.425  13.538   2.330  1.00  0.00    -0.347 OA
HETATM    8  C9  UNL     1      -4.218  13.009   2.780  1.00  0.00     0.158 C 
HETATM    9  C10 UNL     1      -3.458  14.079   3.494  1.00  0.00     0.067 C 
HETATM   10  C11 UNL     1      -2.099  14.058   2.829  1.00  0.00     0.139 C 
HETATM   11  C12 UNL     1      -2.395  13.748   1.378  1.00  0.00     0.078 C 
HETATM   12  C13 UNL     1      -2.854  14.946   0.605  1.00  0.00     0.029 C 
HETATM   13  C19 UNL     1      -3.470  12.690   1.504  1.00  0.00     0.172 C 
HETATM   14  O6  UNL     1      -4.387  12.828   0.492  1.00  0.00    -0.346 OA
ENDROOT
BRANCH   1  15
HETATM   15  O1  UNL     1      -9.667  12.010   1.157  1.00  0.00    -0.372 OA
BRANCH  15  16
HETATM   16  C2  UNL     1      -9.949  11.398  -0.056  1.00  0.00     0.225 C 
HETATM   17  C1  UNL     1     -10.615  10.065   0.245  1.00  0.00     0.049 C 
BRANCH  16  18
HETATM   18  C20 UNL     1     -10.972  12.211  -0.819  1.00  0.00     0.412 C 
HETATM   19  F1  UNL     1     -10.814  13.545  -0.413  1.00  0.00    -0.168 F 
HETATM   20  F2  UNL     1     -12.272  11.865  -0.505  1.00  0.00    -0.168 F 
HETATM   21  F3  UNL     1     -10.736  12.145  -2.180  1.00  0.00    -0.168 F 
ENDBRANCH  16  18
ENDBRANCH  15  16
ENDBRANCH   1  15
BRANCH  11  22
HETATM   22  C14 UNL     1      -1.213  13.130   0.771  1.00  0.00     0.196 C 
HETATM   23  O4  UNL     1      -0.455  12.375   1.416  1.00  0.00    -0.289 OA
BRANCH  22  24
HETATM   24  C15 UNL     1      -0.891  13.395  -0.640  1.00  0.00     0.121 A 
HETATM   25  C16 UNL     1      -1.473  12.829  -1.750  1.00  0.00     0.043 A 
HETATM   26  C17 UNL     1      -0.868  13.364  -2.868  1.00  0.00     0.027 A 
HETATM   27  C18 UNL     1       0.072  14.245  -2.384  1.00  0.00     0.142 A 
HETATM   28  O5  UNL     1       0.026  14.233  -1.077  1.00  0.00    -0.319 OA
ENDBRANCH  22  24
ENDBRANCH  11  22
BRANCH  10  29
HETATM   29  O3  UNL     1      -1.426  15.265   2.977  1.00  0.00    -0.394 OA
ATOM     30  H3  UNL     1      -0.578  15.154   3.391  1.00  0.00     0.210 HD
ENDBRANCH  10  29
TORSDOF 6
ENDMDL
MODEL 5
REMARK VINA RESULT: -8.076108572      2.220      3.789
REMARK  6 active torsions:
REMARK  status: ('A' for Active; 'I' for Inactive)
REMARK    1  A    between atoms: C2_2  and  O1_3 
REMARK    2  A    between atoms: C2_2  and  C20_27 
REMARK    3  A    between atoms: O1_3  and  C3_4 
REMARK    4  A    between atoms: C11_13  and  O3_14 
REMARK    5  A    between atoms: C12_16  and  C14_18 
REMARK    6  A    between atoms: C14_18  and  C15_20 
ROOT
HETATM    1  C3  UNL     1      -8.536  11.113   0.137  1.00  0.00     0.122 C 
HETATM    2  C4  UNL     1      -8.291  11.216   1.627  1.00  0.00     0.037 C 
HETATM    3  C5  UNL     1      -7.538  12.477   1.984  1.00  0.00     0.071 C 
HETATM    4  C6  UNL     1      -6.590  12.917   0.922  1.00  0.00     0.165 C 
HETATM    5  C7  UNL     1      -7.182  13.046  -0.439  1.00  0.00     0.071 C 
HETATM    6  C8  UNL     1      -8.628  12.535  -0.371  1.00  0.00     0.037 C 
HETATM    7  O2  UNL     1      -5.473  12.084   0.936  1.00  0.00    -0.347 OA
HETATM    8  C9  UNL     1      -4.477  12.866   0.355  1.00  0.00     0.158 C 
HETATM    9  C10 UNL     1      -3.170  12.542   1.004  1.00  0.00     0.067 C 
HETATM   10  C11 UNL     1      -2.631  13.894   1.417  1.00  0.00     0.139 C 
HETATM   11  C12 UNL     1      -3.858  14.679   1.825  1.00  0.00     0.078 C 
HETATM   12  C13 UNL     1      -4.333  14.347   3.206  1.00  0.00     0.029 C 
HETATM   13  C19 UNL     1      -4.850  14.276   0.756  1.00  0.00     0.172 C 
HETATM   14  O6  UNL     1      -6.111  14.189   1.292  1.00  0.00    -0.346 OA
ENDROOT
BRANCH   1  15
HETATM   15  O1  UNL     1      -9.690  10.442  -0.170  1.00  0.00    -0.372 OA
BRANCH  15  16
HETATM   16  C2  UNL     1     -10.630  10.399   0.850  1.00  0.00     0.225 C 
HETATM   17  C1  UNL     1     -11.869  11.136   0.365  1.00  0.00     0.049 C 
BRANCH  16  18
HETATM   18  C20 UNL     1     -11.066   8.970   1.091  1.00  0.00     0.412 C 
HETATM   19  F1  UNL     1     -12.401   9.020   1.520  1.00  0.00    -0.168 F 
HETATM   20  F2  UNL     1     -10.358   8.359   2.107  1.00  0.00    -0.168 F 
HETATM   21  F3  UNL     1     -11.019   8.238  -0.081  1.00  0.00    -0.168 F 
ENDBRANCH  16  18
ENDBRANCH  15  16
ENDBRANCH   1  15
BRANCH  11  22
HETATM   22  C14 UNL     1      -3.580  16.110   1.677  1.00  0.00     0.196 C 
HETATM   23  O4  UNL     1      -2.415  16.561   1.666  1.00  0.00    -0.289 OA
BRANCH  22  24
HETATM   24  C15 UNL     1      -4.693  17.062   1.535  1.00  0.00     0.121 A 
HETATM   25  C16 UNL     1      -5.482  17.580   2.535  1.00  0.00     0.043 A 
HETATM   26  C17 UNL     1      -6.400  18.431   1.956  1.00  0.00     0.027 A 
HETATM   27  C18 UNL     1      -6.126  18.395   0.607  1.00  0.00     0.142 A 
HETATM   28  O5  UNL     1      -5.122  17.583   0.404  1.00  0.00    -0.319 OA
ENDBRANCH  22  24
ENDBRANCH  11  22
BRANCH  10  29
HETATM   29  O3  UNL     1      -1.708  13.794   2.452  1.00  0.00    -0.394 OA
ATOM     30  H3  UNL     1      -1.362  14.642   2.705  1.00  0.00     0.210 HD
ENDBRANCH  10  29
TORSDOF 6
ENDMDL
