MODEL 1
REMARK VINA RESULT: -8.514635820      0.000      0.000
REMARK  5 active torsions:
REMARK  status: ('A' for Active; 'I' for Inactive)
REMARK    1  A    between atoms: C8_8  and  C9_9 
REMARK    2  A    between atoms: N1_10  and  N2_12 
REMARK       I    between atoms: N2_12  and  C10_14 
REMARK    3  A    between atoms: C10_14  and  C11_16 
REMARK    4  A    between atoms: C12_22  and  C13_23 
REMARK    5  A    between atoms: C14_27  and  C16_29 
ROOT
HETATM    1  C9  UNL     1      -6.889  12.505   0.166  1.00  0.00     0.086 C 
HETATM    2  N1  UNL     1      -5.788  11.832   0.244  1.00  0.00    -0.312 N 
ATOM      3  H1  UNL     1      -5.853  10.829   0.414  1.00  0.00     0.185 HD
ENDROOT
BRANCH   1   4
HETATM    4  C8  UNL     1      -8.214  11.815   0.323  1.00  0.00     0.048 C 
HETATM    5  C6  UNL     1      -8.643  11.992   1.728  1.00  0.00    -0.004 C 
HETATM    6  C5  UNL     1      -9.557  10.951   2.268  1.00  0.00    -0.006 C 
HETATM    7  C7  UNL     1      -7.447  12.128   2.682  1.00  0.00     0.011 C 
HETATM    8  C4  UNL     1      -8.960   9.748   2.879  1.00  0.00     0.006 C 
HETATM    9  C19 UNL     1     -10.387  10.317   1.143  1.00  0.00    -0.006 C 
HETATM   10  C3  UNL     1     -10.082   8.704   2.802  1.00  0.00     0.005 C 
HETATM   11  C2  UNL     1     -11.181   9.339   1.939  1.00  0.00    -0.014 C 
HETATM   12  C1  UNL     1     -12.231   9.988   2.801  1.00  0.00     0.010 C 
HETATM   13  C18 UNL     1     -11.122  11.428   0.497  1.00  0.00     0.007 C 
HETATM   14  C17 UNL     1     -10.466  11.722  -0.817  1.00  0.00     0.021 C 
HETATM   15  C14 UNL     1      -9.092  12.287  -0.762  1.00  0.00     0.053 C 
HETATM   16  C15 UNL     1      -8.406  11.779  -2.058  1.00  0.00     0.027 C 
BRANCH  15  17
HETATM   17  C16 UNL     1      -9.197  13.757  -0.928  1.00  0.00     0.182 C 
HETATM   18  O3  UNL     1      -9.775  14.515  -0.103  1.00  0.00    -0.647 OA
HETATM   19  O4  UNL     1      -8.648  14.393  -2.029  1.00  0.00    -0.647 OA
ENDBRANCH  15  17
ENDBRANCH   1   4
BRANCH   2  20
HETATM   20  N2  UNL     1      -4.535  12.384   0.113  1.00  0.00    -0.265 N 
HETATM   21  C10 UNL     1      -3.334  11.748   0.560  1.00  0.00     0.290 C 
HETATM   22  O1  UNL     1      -3.415  10.631   1.101  1.00  0.00    -0.264 OA
ATOM     23  H2  UNL     1      -4.458  13.300  -0.329  1.00  0.00     0.190 HD
BRANCH  21  24
HETATM   24  C11 UNL     1      -2.070  12.412   0.376  1.00  0.00     0.159 A 
HETATM   25  N3  UNL     1      -1.075  12.026  -0.460  1.00  0.00    -0.234 N 
HETATM   26  O2  UNL     1      -0.077  12.852  -0.367  1.00  0.00    -0.156 OA
ATOM     27  H3  UNL     1      -1.106  11.210  -1.070  1.00  0.00     0.197 HD
HETATM   28  N4  UNL     1      -0.378  13.770   0.500  1.00  0.00    -0.234 N 
HETATM   29  C12 UNL     1      -1.623  13.536   0.998  1.00  0.00     0.174 A 
ATOM     30  H4  UNL     1       0.226  14.547   0.768  1.00  0.00     0.197 HD
BRANCH  29  31
HETATM   31  C13 UNL     1      -2.280  14.383   1.991  1.00  0.00     0.436 C 
HETATM   32  F1  UNL     1      -3.390  15.005   1.470  1.00  0.00    -0.164 F 
HETATM   33  F2  UNL     1      -1.427  15.414   2.404  1.00  0.00    -0.164 F 
HETATM   34  F3  UNL     1      -2.586  13.673   3.141  1.00  0.00    -0.164 F 
ENDBRANCH  29  31
ENDBRANCH  21  24
ENDBRANCH   2  20
TORSDOF 5
ENDMDL
MODEL 2
REMARK VINA RESULT: -8.189075748      3.965      8.212
REMARK  5 active torsions:
REMARK  status: ('A' for Active; 'I' for Inactive)
REMARK    1  A    between atoms: C8_8  and  C9_9 
REMARK    2  A    between atoms: N1_10  and  N2_12 
REMARK       I    between atoms: N2_12  and  C10_14 
REMARK    3  A    between atoms: C10_14  and  C11_16 
REMARK    4  A    between atoms: C12_22  and  C13_23 
REMARK    5  A    between atoms: C14_27  and  C16_29 
ROOT
HETATM    1  C9  UNL     1      -5.679  13.430   2.012  1.00  0.00     0.086 C 
HETATM    2  N1  UNL     1      -5.997  12.209   2.297  1.00  0.00    -0.312 N 
ATOM      3  H1  UNL     1      -5.261  11.504   2.267  1.00  0.00     0.185 HD
ENDROOT
BRANCH   1   4
HETATM    4  C8  UNL     1      -4.265  13.781   1.649  1.00  0.00     0.048 C 
HETATM    5  C6  UNL     1      -4.144  13.671   0.178  1.00  0.00    -0.004 C 
HETATM    6  C5  UNL     1      -2.782  13.382  -0.345  1.00  0.00    -0.006 C 
HETATM    7  C7  UNL     1      -5.116  12.635  -0.404  1.00  0.00     0.011 C 
HETATM    8  C4  UNL     1      -2.369  11.972  -0.472  1.00  0.00     0.006 C 
HETATM    9  C19 UNL     1      -1.706  13.911   0.613  1.00  0.00    -0.006 C 
HETATM   10  C3  UNL     1      -0.836  12.039  -0.478  1.00  0.00     0.005 C 
HETATM   11  C2  UNL     1      -0.483  13.492  -0.130  1.00  0.00    -0.014 C 
HETATM   12  C1  UNL     1      -0.241  14.300  -1.377  1.00  0.00     0.010 C 
HETATM   13  C18 UNL     1      -1.956  15.363   0.754  1.00  0.00     0.007 C 
HETATM   14  C17 UNL     1      -2.575  15.604   2.096  1.00  0.00     0.021 C 
HETATM   15  C14 UNL     1      -3.943  15.060   2.304  1.00  0.00     0.053 C 
HETATM   16  C15 UNL     1      -4.014  14.742   3.821  1.00  0.00     0.027 C 
BRANCH  15  17
HETATM   17  C16 UNL     1      -4.909  16.166   2.093  1.00  0.00     0.182 C 
HETATM   18  O3  UNL     1      -5.422  16.836   3.030  1.00  0.00    -0.647 OA
HETATM   19  O4  UNL     1      -5.309  16.532   0.819  1.00  0.00    -0.647 OA
ENDBRANCH  15  17
ENDBRANCH   1   4
BRANCH   2  20
HETATM   20  N2  UNL     1      -7.266  11.801   2.638  1.00  0.00    -0.265 N 
HETATM   21  C10 UNL     1      -8.034  10.866   1.876  1.00  0.00     0.290 C 
HETATM   22  O1  UNL     1      -7.536  10.386   0.842  1.00  0.00    -0.264 OA
ATOM     23  H2  UNL     1      -7.683  12.189   3.485  1.00  0.00     0.190 HD
BRANCH  21  24
HETATM   24  C11 UNL     1      -9.355  10.505   2.320  1.00  0.00     0.159 A 
HETATM   25  N3  UNL     1      -9.665   9.834   3.457  1.00  0.00    -0.234 N 
HETATM   26  O2  UNL     1     -10.952   9.676   3.537  1.00  0.00    -0.156 OA
ATOM     27  H3  UNL     1      -8.989   9.504   4.145  1.00  0.00     0.197 HD
HETATM   28  N4  UNL     1     -11.502  10.218   2.494  1.00  0.00    -0.234 N 
HETATM   29  C12 UNL     1     -10.538  10.754   1.696  1.00  0.00     0.174 A 
ATOM     30  H4  UNL     1     -12.504  10.240   2.302  1.00  0.00     0.197 HD
BRANCH  29  31
HETATM   31  C13 UNL     1     -10.808  11.452   0.442  1.00  0.00     0.436 C 
HETATM   32  F1  UNL     1     -10.442  12.775   0.510  1.00  0.00    -0.164 F 
HETATM   33  F2  UNL     1     -12.181  11.453   0.161  1.00  0.00    -0.164 F 
HETATM   34  F3  UNL     1     -10.212  10.813  -0.633  1.00  0.00    -0.164 F 
ENDBRANCH  29  31
ENDBRANCH  21  24
ENDBRANCH   2  20
TORSDOF 5
ENDMDL
MODEL 3
REMARK VINA RESULT: -8.183990402      1.679      1.939
REMARK  5 active torsions:
REMARK  status: ('A' for Active; 'I' for Inactive)
REMARK    1  A    between atoms: C8_8  and  C9_9 
REMARK    2  A    between atoms: N1_10  and  N2_12 
REMARK       I    between atoms: N2_12  and  C10_14 
REMARK    3  A    between atoms: C10_14  and  C11_16 
REMARK    4  A    between atoms: C12_22  and  C13_23 
REMARK    5  A    between atoms: C14_27  and  C16_29 
ROOT
HETATM    1  C9  UNL     1      -6.922  12.766   0.180  1.00  0.00     0.086 C 
HETATM    2  N1  UNL     1      -5.769  12.184   0.231  1.00  0.00    -0.312 N 
ATOM      3  H1  UNL     1      -5.750  11.173   0.367  1.00  0.00     0.185 HD
ENDROOT
BRANCH   1   4
HETATM    4  C8  UNL     1      -8.184  11.965   0.321  1.00  0.00     0.048 C 
HETATM    5  C6  UNL     1      -8.658  12.124   1.714  1.00  0.00    -0.004 C 
HETATM    6  C5  UNL     1      -9.489  11.014   2.251  1.00  0.00    -0.006 C 
HETATM    7  C7  UNL     1      -7.500  12.378   2.690  1.00  0.00     0.011 C 
HETATM    8  C4  UNL     1      -8.803   9.877   2.895  1.00  0.00     0.006 C 
HETATM    9  C19 UNL     1     -10.236  10.293   1.119  1.00  0.00    -0.006 C 
HETATM   10  C3  UNL     1      -9.827   8.737   2.811  1.00  0.00     0.005 C 
HETATM   11  C2  UNL     1     -10.959   9.261   1.915  1.00  0.00    -0.014 C 
HETATM   12  C1  UNL     1     -12.080   9.827   2.744  1.00  0.00     0.010 C 
HETATM   13  C18 UNL     1     -11.051  11.326   0.441  1.00  0.00     0.007 C 
HETATM   14  C17 UNL     1     -10.394  11.657  -0.864  1.00  0.00     0.021 C 
HETATM   15  C14 UNL     1      -9.076  12.342  -0.790  1.00  0.00     0.053 C 
HETATM   16  C15 UNL     1      -8.320  11.878  -2.062  1.00  0.00     0.027 C 
BRANCH  15  17
HETATM   17  C16 UNL     1      -9.306  13.794  -0.981  1.00  0.00     0.182 C 
HETATM   18  O3  UNL     1      -9.960  14.512  -0.178  1.00  0.00    -0.647 OA
HETATM   19  O4  UNL     1      -8.798  14.459  -2.085  1.00  0.00    -0.647 OA
ENDBRANCH  15  17
ENDBRANCH   1   4
BRANCH   2  20
HETATM   20  N2  UNL     1      -4.566  12.841   0.112  1.00  0.00    -0.265 N 
HETATM   21  C10 UNL     1      -3.721  13.162   1.219  1.00  0.00     0.290 C 
HETATM   22  O1  UNL     1      -4.084  12.833   2.363  1.00  0.00    -0.264 OA
ATOM     23  H2  UNL     1      -4.259  13.115  -0.822  1.00  0.00     0.190 HD
BRANCH  21  24
HETATM   24  C11 UNL     1      -2.480  13.854   0.988  1.00  0.00     0.159 A 
HETATM   25  N3  UNL     1      -2.253  15.177   1.169  1.00  0.00    -0.234 N 
HETATM   26  O2  UNL     1      -1.024  15.460   0.859  1.00  0.00    -0.156 OA
ATOM     27  H3  UNL     1      -2.944  15.850   1.500  1.00  0.00     0.197 HD
HETATM   28  N4  UNL     1      -0.431  14.369   0.480  1.00  0.00    -0.234 N 
HETATM   29  C12 UNL     1      -1.307  13.329   0.542  1.00  0.00     0.174 A 
ATOM     30  H4  UNL     1       0.542  14.302   0.180  1.00  0.00     0.197 HD
BRANCH  29  31
HETATM   31  C13 UNL     1      -0.968  11.951   0.194  1.00  0.00     0.436 C 
HETATM   32  F1  UNL     1      -0.846  11.162   1.314  1.00  0.00    -0.164 F 
HETATM   33  F2  UNL     1       0.278  11.894  -0.445  1.00  0.00    -0.164 F 
HETATM   34  F3  UNL     1      -1.872  11.418  -0.709  1.00  0.00    -0.164 F 
ENDBRANCH  29  31
ENDBRANCH  21  24
ENDBRANCH   2  20
TORSDOF 5
ENDMDL
MODEL 4
REMARK VINA RESULT: -8.036310111      1.803      2.050
REMARK  5 active torsions:
REMARK  status: ('A' for Active; 'I' for Inactive)
REMARK    1  A    between atoms: C8_8  and  C9_9 
REMARK    2  A    between atoms: N1_10  and  N2_12 
REMARK       I    between atoms: N2_12  and  C10_14 
REMARK    3  A    between atoms: C10_14  and  C11_16 
REMARK    4  A    between atoms: C12_22  and  C13_23 
REMARK    5  A    between atoms: C14_27  and  C16_29 
ROOT
HETATM    1  C9  UNL     1      -6.943  12.926   0.411  1.00  0.00     0.086 C 
HETATM    2  N1  UNL     1      -5.784  12.362   0.302  1.00  0.00    -0.312 N 
ATOM      3  H1  UNL     1      -5.755  11.349   0.190  1.00  0.00     0.185 HD
ENDROOT
BRANCH   1   4
HETATM    4  C8  UNL     1      -8.196  12.099   0.373  1.00  0.00     0.048 C 
HETATM    5  C6  UNL     1      -8.801  12.147   1.723  1.00  0.00    -0.004 C 
HETATM    6  C5  UNL     1      -9.655  10.990   2.097  1.00  0.00    -0.006 C 
HETATM    7  C7  UNL     1      -7.744  12.344   2.820  1.00  0.00     0.011 C 
HETATM    8  C4  UNL     1      -9.009   9.817   2.717  1.00  0.00     0.006 C 
HETATM    9  C19 UNL     1     -10.279  10.346   0.850  1.00  0.00    -0.006 C 
HETATM   10  C3  UNL     1      -9.997   8.673   2.455  1.00  0.00     0.005 C 
HETATM   11  C2  UNL     1     -11.051   9.247   1.496  1.00  0.00    -0.014 C 
HETATM   12  C1  UNL     1     -12.256   9.735   2.255  1.00  0.00     0.010 C 
HETATM   13  C18 UNL     1     -11.047  11.415   0.175  1.00  0.00     0.007 C 
HETATM   14  C17 UNL     1     -10.279  11.852  -1.035  1.00  0.00     0.021 C 
HETATM   15  C14 UNL     1      -8.988  12.546  -0.786  1.00  0.00     0.053 C 
HETATM   16  C15 UNL     1      -8.107  12.189  -2.012  1.00  0.00     0.027 C 
BRANCH  15  17
HETATM   17  C16 UNL     1      -9.228  14.006  -0.892  1.00  0.00     0.182 C 
HETATM   18  O3  UNL     1      -9.956  14.656  -0.094  1.00  0.00    -0.647 OA
HETATM   19  O4  UNL     1      -8.648  14.755  -1.903  1.00  0.00    -0.647 OA
ENDBRANCH  15  17
ENDBRANCH   1   4
BRANCH   2  20
HETATM   20  N2  UNL     1      -4.589  13.043   0.327  1.00  0.00    -0.265 N 
HETATM   21  C10 UNL     1      -3.342  12.448   0.694  1.00  0.00     0.290 C 
HETATM   22  O1  UNL     1      -3.323  11.246   1.011  1.00  0.00    -0.264 OA
ATOM     23  H2  UNL     1      -4.593  14.030   0.068  1.00  0.00     0.190 HD
BRANCH  21  24
HETATM   24  C11 UNL     1      -2.145  13.249   0.689  1.00  0.00     0.159 A 
HETATM   25  N3  UNL     1      -1.663  13.979   1.724  1.00  0.00    -0.234 N 
HETATM   26  O2  UNL     1      -0.569  14.580   1.367  1.00  0.00    -0.156 OA
ATOM     27  H3  UNL     1      -2.096  14.046   2.645  1.00  0.00     0.197 HD
HETATM   28  N4  UNL     1      -0.310  14.272   0.133  1.00  0.00    -0.234 N 
HETATM   29  C12 UNL     1      -1.275  13.436  -0.340  1.00  0.00     0.174 A 
ATOM     30  H4  UNL     1       0.492  14.605  -0.401  1.00  0.00     0.197 HD
BRANCH  29  31
HETATM   31  C13 UNL     1      -1.289  12.884  -1.692  1.00  0.00     0.436 C 
HETATM   32  F1  UNL     1      -1.362  11.511  -1.679  1.00  0.00    -0.164 F 
HETATM   33  F2  UNL     1      -0.099  13.192  -2.366  1.00  0.00    -0.164 F 
HETATM   34  F3  UNL     1      -2.301  13.441  -2.457  1.00  0.00    -0.164 F 
ENDBRANCH  29  31
ENDBRANCH  21  24
ENDBRANCH   2  20
TORSDOF 5
ENDMDL
MODEL 5
REMARK VINA RESULT: -7.974926744      4.017      8.101
REMARK  5 active torsions:
REMARK  status: ('A' for Active; 'I' for Inactive)
REMARK    1  A    between atoms: C8_8  and  C9_9 
REMARK    2  A    between atoms: N1_10  and  N2_12 
REMARK       I    between atoms: N2_12  and  C10_14 
REMARK    3  A    between atoms: C10_14  and  C11_16 
REMARK    4  A    between atoms: C12_22  and  C13_23 
REMARK    5  A    between atoms: C14_27  and  C16_29 
ROOT
HETATM    1  C9  UNL     1      -5.522  12.964   2.049  1.00  0.00     0.086 C 
HETATM    2  N1  UNL     1      -6.633  12.790   1.410  1.00  0.00    -0.312 N 
ATOM      3  H1  UNL     1      -6.673  13.081   0.434  1.00  0.00     0.185 HD
ENDROOT
BRANCH   1   4
HETATM    4  C8  UNL     1      -4.338  13.579   1.360  1.00  0.00     0.048 C 
HETATM    5  C6  UNL     1      -3.967  12.691   0.236  1.00  0.00    -0.004 C 
HETATM    6  C5  UNL     1      -2.546  12.744  -0.197  1.00  0.00    -0.006 C 
HETATM    7  C7  UNL     1      -4.333  11.226   0.516  1.00  0.00     0.011 C 
HETATM    8  C4  UNL     1      -1.578  11.857   0.477  1.00  0.00     0.006 C 
HETATM    9  C19 UNL     1      -1.933  14.119   0.108  1.00  0.00    -0.006 C 
HETATM   10  C3  UNL     1      -0.224  12.533   0.222  1.00  0.00     0.005 C 
HETATM   11  C2  UNL     1      -0.552  13.895  -0.405  1.00  0.00    -0.014 C 
HETATM   12  C1  UNL     1      -0.480  13.826  -1.907  1.00  0.00     0.010 C 
HETATM   13  C18 UNL     1      -2.773  15.110  -0.601  1.00  0.00     0.007 C 
HETATM   14  C17 UNL     1      -3.627  15.810   0.411  1.00  0.00     0.021 C 
HETATM   15  C14 UNL     1      -4.668  14.989   1.084  1.00  0.00     0.053 C 
HETATM   16  C15 UNL     1      -4.825  15.627   2.489  1.00  0.00     0.027 C 
BRANCH  15  17
HETATM   17  C16 UNL     1      -5.958  15.237   0.397  1.00  0.00     0.182 C 
HETATM   18  O3  UNL     1      -6.920  15.864   0.918  1.00  0.00    -0.647 OA
HETATM   19  O4  UNL     1      -6.182  14.781  -0.892  1.00  0.00    -0.647 OA
ENDBRANCH  15  17
ENDBRANCH   1   4
BRANCH   2  20
HETATM   20  N2  UNL     1      -7.763  12.236   1.964  1.00  0.00    -0.265 N 
HETATM   21  C10 UNL     1      -8.294  10.963   1.584  1.00  0.00     0.290 C 
HETATM   22  O1  UNL     1      -7.709  10.310   0.702  1.00  0.00    -0.264 OA
ATOM     23  H2  UNL     1      -8.251  12.764   2.688  1.00  0.00     0.190 HD
BRANCH  21  24
HETATM   24  C11 UNL     1      -9.486  10.472   2.226  1.00  0.00     0.159 A 
HETATM   25  N3  UNL     1      -9.558   9.892   3.449  1.00  0.00    -0.234 N 
HETATM   26  O2  UNL     1     -10.788   9.566   3.709  1.00  0.00    -0.156 OA
ATOM     27  H3  UNL     1      -8.766   9.736   4.071  1.00  0.00     0.197 HD
HETATM   28  N4  UNL     1     -11.531   9.910   2.701  1.00  0.00    -0.234 N 
HETATM   29  C12 UNL     1     -10.757  10.485   1.740  1.00  0.00     0.174 A 
ATOM     30  H4  UNL     1     -12.539   9.772   2.639  1.00  0.00     0.197 HD
BRANCH  29  31
HETATM   31  C13 UNL     1     -11.271  10.999   0.474  1.00  0.00     0.436 C 
HETATM   32  F1  UNL     1     -10.981  12.333   0.313  1.00  0.00    -0.164 F 
HETATM   33  F2  UNL     1     -12.669  10.909   0.434  1.00  0.00    -0.164 F 
HETATM   34  F3  UNL     1     -10.822  10.247  -0.600  1.00  0.00    -0.164 F 
ENDBRANCH  29  31
ENDBRANCH  21  24
ENDBRANCH   2  20
TORSDOF 5
ENDMDL
