MODEL 1
REMARK VINA RESULT: -7.252326746      0.000      0.000
REMARK  4 active torsions:
REMARK  status: ('A' for Active; 'I' for Inactive)
REMARK    1  A    between atoms: C2_2  and  S1_3 
REMARK    2  A    between atoms: C2_2  and  C7_13 
REMARK    3  A    between atoms: S1_3  and  C3_4 
REMARK       I    between atoms: C7_13  and  N3_15 
REMARK    4  A    between atoms: N3_15  and  C8_17 
ROOT
HETATM    1  C7  UNL     1      19.524  12.922  61.572  1.00  0.00     0.232 C 
HETATM    2  O1  UNL     1      19.518  13.481  62.692  1.00  0.00    -0.272 OA
HETATM    3  N3  UNL     1      18.795  11.770  61.213  1.00  0.00    -0.351 N 
ATOM      4  H3  UNL     1      18.876  11.404  60.265  1.00  0.00     0.163 HD
ENDROOT
BRANCH   1   5
HETATM    5  C2  UNL     1      20.373  13.497  60.470  1.00  0.00     0.143 C 
HETATM    6  C1  UNL     1      20.664  12.383  59.502  1.00  0.00     0.031 C 
BRANCH   5   7
HETATM    7  S1  UNL     1      21.825  14.292  61.114  1.00  0.00    -0.080 SA
BRANCH   7   8
HETATM    8  C3  UNL     1      22.840  13.248  62.103  1.00  0.00     0.144 A 
HETATM    9  N1  UNL     1      24.190  13.204  61.895  1.00  0.00    -0.345 N 
HETATM   10  C4  UNL     1      24.942  12.397  62.648  1.00  0.00     0.115 A 
ATOM     11  H1  UNL     1      24.619  13.781  61.172  1.00  0.00     0.167 HD
HETATM   12  C5  UNL     1      24.439  11.580  63.651  1.00  0.00     0.064 A 
HETATM   13 CL1  UNL     1      25.476  10.547  64.606  1.00  0.00    -0.081 Cl
HETATM   14  C6  UNL     1      23.079  11.643  63.841  1.00  0.00     0.115 A 
HETATM   15  N2  UNL     1      22.351  12.461  63.071  1.00  0.00    -0.345 N 
ATOM     16  H2  UNL     1      21.345  12.488  63.235  1.00  0.00     0.167 HD
ENDBRANCH   7   8
ENDBRANCH   5   7
ENDBRANCH   1   5
BRANCH   3  17
HETATM   17  C8  UNL     1      17.940  11.102  62.156  1.00  0.00     0.034 C 
HETATM   18  C9  UNL     1      18.768  10.165  62.981  1.00  0.00     0.035 C 
HETATM   19  C10 UNL     1      17.894   9.493  64.020  1.00  0.00    -0.012 C 
HETATM   20  C11 UNL     1      17.185  10.530  64.834  1.00  0.00     0.009 C 
HETATM   21  C15 UNL     1      16.905   8.629  63.234  1.00  0.00     0.009 C 
HETATM   22  C12 UNL     1      16.312  11.419  63.983  1.00  0.00    -0.012 C 
HETATM   23  C13 UNL     1      15.294  10.556  63.307  1.00  0.00     0.009 C 
HETATM   24  C17 UNL     1      17.204  12.135  62.964  1.00  0.00     0.035 C 
HETATM   25  C14 UNL     1      16.044   9.573  62.432  1.00  0.00    -0.012 C 
HETATM   26  C16 UNL     1      16.864  10.298  61.423  1.00  0.00     0.035 C 
ENDBRANCH   3  17
TORSDOF 4
ENDMDL
MODEL 2
REMARK VINA RESULT: -7.199535205      0.081      1.554
REMARK  4 active torsions:
REMARK  status: ('A' for Active; 'I' for Inactive)
REMARK    1  A    between atoms: C2_2  and  S1_3 
REMARK    2  A    between atoms: C2_2  and  C7_13 
REMARK    3  A    between atoms: S1_3  and  C3_4 
REMARK       I    between atoms: C7_13  and  N3_15 
REMARK    4  A    between atoms: N3_15  and  C8_17 
ROOT
HETATM    1  C7  UNL     1      19.539  12.918  61.529  1.00  0.00     0.232 C 
HETATM    2  O1  UNL     1      19.512  13.503  62.634  1.00  0.00    -0.272 OA
HETATM    3  N3  UNL     1      18.841  11.741  61.192  1.00  0.00    -0.351 N 
ATOM      4  H3  UNL     1      18.937  11.355  60.253  1.00  0.00     0.163 HD
ENDROOT
BRANCH   1   5
HETATM    5  C2  UNL     1      20.382  13.488  60.418  1.00  0.00     0.143 C 
HETATM    6  C1  UNL     1      20.674  12.368  59.459  1.00  0.00     0.031 C 
BRANCH   5   7
HETATM    7  S1  UNL     1      21.832  14.295  61.051  1.00  0.00    -0.080 SA
BRANCH   7   8
HETATM    8  C3  UNL     1      22.854  13.265  62.048  1.00  0.00     0.144 A 
HETATM    9  N1  UNL     1      24.202  13.220  61.834  1.00  0.00    -0.345 N 
HETATM   10  C4  UNL     1      24.959  12.424  62.594  1.00  0.00     0.115 A 
ATOM     11  H1  UNL     1      24.627  13.789  61.102  1.00  0.00     0.167 HD
HETATM   12  C5  UNL     1      24.462  11.620  63.610  1.00  0.00     0.064 A 
HETATM   13 CL1  UNL     1      25.504  10.600  64.574  1.00  0.00    -0.081 Cl
HETATM   14  C6  UNL     1      23.102  11.683  63.805  1.00  0.00     0.115 A 
HETATM   15  N2  UNL     1      22.370  12.490  63.029  1.00  0.00    -0.345 N 
ATOM     16  H2  UNL     1      21.364  12.518  63.197  1.00  0.00     0.167 HD
ENDBRANCH   7   8
ENDBRANCH   5   7
ENDBRANCH   1   5
BRANCH   3  17
HETATM   17  C8  UNL     1      17.996  11.074  62.144  1.00  0.00     0.034 C 
HETATM   18  C9  UNL     1      16.928  10.328  61.405  1.00  0.00     0.035 C 
HETATM   19  C10 UNL     1      16.060   9.571  62.390  1.00  0.00    -0.012 C 
HETATM   20  C11 UNL     1      16.915   8.688  63.244  1.00  0.00     0.009 C 
HETATM   21  C15 UNL     1      15.351  10.639  63.225  1.00  0.00     0.009 C 
HETATM   22  C12 UNL     1      17.941   9.475  64.023  1.00  0.00    -0.012 C 
HETATM   23  C13 UNL     1      17.212  10.440  64.903  1.00  0.00     0.009 C 
HETATM   24  C17 UNL     1      18.848  10.201  63.024  1.00  0.00     0.035 C 
HETATM   25  C14 UNL     1      16.422  11.366  64.002  1.00  0.00    -0.012 C 
HETATM   26  C16 UNL     1      17.335  12.092  63.076  1.00  0.00     0.035 C 
ENDBRANCH   3  17
TORSDOF 4
ENDMDL
MODEL 3
REMARK VINA RESULT: -7.127894427      2.479      2.768
REMARK  4 active torsions:
REMARK  status: ('A' for Active; 'I' for Inactive)
REMARK    1  A    between atoms: C2_2  and  S1_3 
REMARK    2  A    between atoms: C2_2  and  C7_13 
REMARK    3  A    between atoms: S1_3  and  C3_4 
REMARK       I    between atoms: C7_13  and  N3_15 
REMARK    4  A    between atoms: N3_15  and  C8_17 
ROOT
HETATM    1  C7  UNL     1      19.787  12.668  61.652  1.00  0.00     0.232 C 
HETATM    2  O1  UNL     1      20.019  12.991  62.838  1.00  0.00    -0.272 OA
HETATM    3  N3  UNL     1      18.802  11.760  61.214  1.00  0.00    -0.351 N 
ATOM      4  H3  UNL     1      18.701  11.576  60.216  1.00  0.00     0.163 HD
ENDROOT
BRANCH   1   5
HETATM    5  C2  UNL     1      20.610  13.281  60.550  1.00  0.00     0.143 C 
HETATM    6  C1  UNL     1      20.571  12.335  59.382  1.00  0.00     0.031 C 
BRANCH   5   7
HETATM    7  S1  UNL     1      22.250  13.676  61.106  1.00  0.00    -0.080 SA
BRANCH   7   8
HETATM    8  C3  UNL     1      22.318  14.989  62.277  1.00  0.00     0.144 A 
HETATM    9  N1  UNL     1      23.432  15.166  63.048  1.00  0.00    -0.345 N 
HETATM   10  C4  UNL     1      23.460  16.161  63.939  1.00  0.00     0.115 A 
ATOM     11  H1  UNL     1      24.234  14.544  62.945  1.00  0.00     0.167 HD
HETATM   12  C5  UNL     1      22.413  17.050  64.141  1.00  0.00     0.064 A 
HETATM   13 CL1  UNL     1      22.511  18.336  65.322  1.00  0.00    -0.081 Cl
HETATM   14  C6  UNL     1      21.304  16.851  63.353  1.00  0.00     0.115 A 
HETATM   15  N2  UNL     1      21.306  15.846  62.469  1.00  0.00    -0.345 N 
ATOM     16  H2  UNL     1      20.470  15.723  61.897  1.00  0.00     0.167 HD
ENDBRANCH   7   8
ENDBRANCH   5   7
ENDBRANCH   1   5
BRANCH   3  17
HETATM   17  C8  UNL     1      17.936  11.088  62.144  1.00  0.00     0.034 C 
HETATM   18  C9  UNL     1      18.741  10.094  62.923  1.00  0.00     0.035 C 
HETATM   19  C10 UNL     1      17.858   9.416  63.950  1.00  0.00    -0.012 C 
HETATM   20  C11 UNL     1      17.197  10.447  64.811  1.00  0.00     0.009 C 
HETATM   21  C15 UNL     1      16.829   8.616  63.149  1.00  0.00     0.009 C 
HETATM   22  C12 UNL     1      16.345  11.396  64.005  1.00  0.00    -0.012 C 
HETATM   23  C13 UNL     1      15.288  10.594  63.314  1.00  0.00     0.009 C 
HETATM   24  C17 UNL     1      17.249  12.117  63.000  1.00  0.00     0.035 C 
HETATM   25  C14 UNL     1      15.991   9.618  62.394  1.00  0.00    -0.012 C 
HETATM   26  C16 UNL     1      16.823  10.350  61.399  1.00  0.00     0.035 C 
ENDBRANCH   3  17
TORSDOF 4
ENDMDL
MODEL 4
REMARK VINA RESULT: -7.061953585      3.018      7.608
REMARK  4 active torsions:
REMARK  status: ('A' for Active; 'I' for Inactive)
REMARK    1  A    between atoms: C2_2  and  S1_3 
REMARK    2  A    between atoms: C2_2  and  C7_13 
REMARK    3  A    between atoms: S1_3  and  C3_4 
REMARK       I    between atoms: C7_13  and  N3_15 
REMARK    4  A    between atoms: N3_15  and  C8_17 
ROOT
HETATM    1  C7  UNL     1      22.495  13.744  63.354  1.00  0.00     0.232 C 
HETATM    2  O1  UNL     1      22.960  14.879  63.105  1.00  0.00    -0.272 OA
HETATM    3  N3  UNL     1      23.231  12.545  63.448  1.00  0.00    -0.351 N 
ATOM      4  H3  UNL     1      22.743  11.676  63.661  1.00  0.00     0.163 HD
ENDROOT
BRANCH   1   5
HETATM    5  C2  UNL     1      21.015  13.593  63.585  1.00  0.00     0.143 C 
HETATM    6  C1  UNL     1      20.453  14.970  63.803  1.00  0.00     0.031 C 
BRANCH   5   7
HETATM    7  S1  UNL     1      20.676  12.457  64.908  1.00  0.00    -0.080 SA
BRANCH   7   8
HETATM    8  C3  UNL     1      19.572  11.155  64.477  1.00  0.00     0.144 A 
HETATM    9  N1  UNL     1      18.988  11.130  63.241  1.00  0.00    -0.345 N 
HETATM   10  C4  UNL     1      18.144  10.140  62.937  1.00  0.00     0.115 A 
ATOM     11  H1  UNL     1      19.195  11.859  62.559  1.00  0.00     0.167 HD
HETATM   12  C5  UNL     1      17.810   9.111  63.806  1.00  0.00     0.064 A 
HETATM   13 CL1  UNL     1      16.700   7.840  63.348  1.00  0.00    -0.081 Cl
HETATM   14  C6  UNL     1      18.411   9.159  65.042  1.00  0.00     0.115 A 
HETATM   15  N2  UNL     1      19.252  10.163  65.318  1.00  0.00    -0.345 N 
ATOM     16  H2  UNL     1      19.684  10.172  66.242  1.00  0.00     0.167 HD
ENDBRANCH   7   8
ENDBRANCH   5   7
ENDBRANCH   1   5
BRANCH   3  17
HETATM   17  C8  UNL     1      24.654  12.523  63.250  1.00  0.00     0.034 C 
HETATM   18  C9  UNL     1      24.957  12.983  61.858  1.00  0.00     0.035 C 
HETATM   19  C10 UNL     1      26.457  13.022  61.648  1.00  0.00    -0.012 C 
HETATM   20  C11 UNL     1      27.094  13.871  62.703  1.00  0.00     0.009 C 
HETATM   21  C15 UNL     1      26.927  11.569  61.742  1.00  0.00     0.009 C 
HETATM   22  C12 UNL     1      26.823  13.347  64.092  1.00  0.00    -0.012 C 
HETATM   23  C13 UNL     1      27.383  11.963  64.182  1.00  0.00     0.009 C 
HETATM   24  C17 UNL     1      25.307  13.355  64.320  1.00  0.00     0.035 C 
HETATM   25  C14 UNL     1      26.659  11.116  63.156  1.00  0.00    -0.012 C 
HETATM   26  C16 UNL     1      25.196  11.104  63.432  1.00  0.00     0.035 C 
ENDBRANCH   3  17
TORSDOF 4
ENDMDL
MODEL 5
REMARK VINA RESULT: -7.019464467      2.485      3.180
REMARK  4 active torsions:
REMARK  status: ('A' for Active; 'I' for Inactive)
REMARK    1  A    between atoms: C2_2  and  S1_3 
REMARK    2  A    between atoms: C2_2  and  C7_13 
REMARK    3  A    between atoms: S1_3  and  C3_4 
REMARK       I    between atoms: C7_13  and  N3_15 
REMARK    4  A    between atoms: N3_15  and  C8_17 
ROOT
HETATM    1  C7  UNL     1      19.838  12.663  61.669  1.00  0.00     0.232 C 
HETATM    2  O1  UNL     1      20.111  12.927  62.860  1.00  0.00    -0.272 OA
HETATM    3  N3  UNL     1      18.824  11.791  61.221  1.00  0.00    -0.351 N 
ATOM      4  H3  UNL     1      18.689  11.655  60.219  1.00  0.00     0.163 HD
ENDROOT
BRANCH   1   5
HETATM    5  C2  UNL     1      20.636  13.314  60.571  1.00  0.00     0.143 C 
HETATM    6  C1  UNL     1      20.590  12.397  59.380  1.00  0.00     0.031 C 
BRANCH   5   7
HETATM    7  S1  UNL     1      22.280  13.714  61.112  1.00  0.00    -0.080 SA
BRANCH   7   8
HETATM    8  C3  UNL     1      22.354  15.025  62.285  1.00  0.00     0.144 A 
HETATM    9  N1  UNL     1      23.539  15.343  62.887  1.00  0.00    -0.345 N 
HETATM   10  C4  UNL     1      23.572  16.333  63.783  1.00  0.00     0.115 A 
ATOM     11  H1  UNL     1      24.389  14.830  62.654  1.00  0.00     0.167 HD
HETATM   12  C5  UNL     1      22.463  17.080  64.155  1.00  0.00     0.064 A 
HETATM   13 CL1  UNL     1      22.571  18.367  65.333  1.00  0.00    -0.081 Cl
HETATM   14  C6  UNL     1      21.283  16.740  63.535  1.00  0.00     0.115 A 
HETATM   15  N2  UNL     1      21.281  15.744  62.641  1.00  0.00    -0.345 N 
ATOM     16  H2  UNL     1      20.392  15.515  62.197  1.00  0.00     0.167 HD
ENDBRANCH   7   8
ENDBRANCH   5   7
ENDBRANCH   1   5
BRANCH   3  17
HETATM   17  C8  UNL     1      17.977  11.090  62.147  1.00  0.00     0.034 C 
HETATM   18  C9  UNL     1      16.885  10.407  61.382  1.00  0.00     0.035 C 
HETATM   19  C10 UNL     1      16.014   9.615  62.336  1.00  0.00    -0.012 C 
HETATM   20  C11 UNL     1      16.861   8.670  63.130  1.00  0.00     0.009 C 
HETATM   21  C15 UNL     1      15.337  10.650  63.237  1.00  0.00     0.009 C 
HETATM   22  C12 UNL     1      17.911   9.393  63.937  1.00  0.00    -0.012 C 
HETATM   23  C13 UNL     1      17.213  10.324  64.877  1.00  0.00     0.009 C 
HETATM   24  C17 UNL     1      18.821  10.154  62.967  1.00  0.00     0.035 C 
HETATM   25  C14 UNL     1      16.432  11.312  64.037  1.00  0.00    -0.012 C 
HETATM   26  C16 UNL     1      17.348  12.069  63.140  1.00  0.00     0.035 C 
ENDBRANCH   3  17
TORSDOF 4
ENDMDL
