MODEL 1
REMARK VINA RESULT: -7.772997098      0.000      0.000
REMARK  4 active torsions:
REMARK  status: ('A' for Active; 'I' for Inactive)
REMARK       I    between atoms: C1_2  and  N1_3 
REMARK    1  A    between atoms: C1_2  and  C13_17 
REMARK    2  A    between atoms: N1_3  and  C2_5 
REMARK    3  A    between atoms: N2_8  and  C5_9 
REMARK    4  A    between atoms: C14_21  and  C15_22 
ROOT
HETATM    1  O1  UNL     1      24.528  10.226  65.487  1.00  0.00    -0.266 OA
HETATM    2  C1  UNL     1      24.327  11.441  65.282  1.00  0.00     0.272 C 
HETATM    3  N1  UNL     1      23.103  12.119  65.211  1.00  0.00    -0.351 N 
ATOM      4  H1  UNL     1      23.165  13.131  65.100  1.00  0.00     0.163 HD
ENDROOT
BRANCH   3   5
HETATM    5  C2  UNL     1      21.807  11.595  65.272  1.00  0.00     0.088 C 
HETATM    6  C3  UNL     1      21.376  10.595  66.244  1.00  0.00     0.055 C 
HETATM    7  C4  UNL     1      20.138   9.857  65.636  1.00  0.00     0.275 C 
HETATM    8  N2  UNL     1      19.424  10.785  64.872  1.00  0.00     0.093 N 
HETATM    9  C11 UNL     1      20.100  11.053  63.603  1.00  0.00     0.275 C 
HETATM   10  C12 UNL     1      21.572  10.938  63.827  1.00  0.00     0.055 C 
BRANCH   8  11
HETATM   11  C5  UNL     1      18.034  10.450  64.522  1.00  0.00     0.223 C 
HETATM   12  C6  UNL     1      18.141   8.971  64.073  1.00  0.00     0.036 C 
HETATM   13  C7  UNL     1      16.908   8.412  63.467  1.00  0.00     0.002 C 
HETATM   14  C8  UNL     1      16.194   9.314  62.535  1.00  0.00     0.000 C 
HETATM   15  C9  UNL     1      16.099  10.722  63.085  1.00  0.00     0.002 C 
HETATM   16  C10 UNL     1      17.541  11.190  63.336  1.00  0.00     0.036 C 
ENDBRANCH   8  11
ENDBRANCH   3   5
BRANCH   2  17
HETATM   17  C13 UNL     1      25.545  12.270  65.054  1.00  0.00     0.146 A 
HETATM   18  N3  UNL     1      26.244  13.034  65.919  1.00  0.00    -0.254 N 
HETATM   19  O2  UNL     1      27.070  13.820  65.278  1.00  0.00    -0.240 OA
ATOM     20  H3  UNL     1      26.143  13.003  66.933  1.00  0.00     0.195 HD
HETATM   21  C14 UNL     1      26.979  13.636  63.962  1.00  0.00     0.104 A 
HETATM   22  C18 UNL     1      26.010  12.640  63.791  1.00  0.00     0.100 A 
HETATM   23 CL1  UNL     1      25.472  12.032  62.239  1.00  0.00    -0.079 Cl
BRANCH  21  24
HETATM   24  C15 UNL     1      27.738  14.335  62.843  1.00  0.00     0.047 A 
HETATM   25  C16 UNL     1      26.874  15.246  62.019  1.00  0.00     0.012 A 
HETATM   26  C17 UNL     1      27.678  15.870  63.102  1.00  0.00     0.012 A 
ENDBRANCH  21  24
ENDBRANCH   2  17
TORSDOF 4
ENDMDL
MODEL 2
REMARK VINA RESULT: -7.241200422      2.452      8.779
REMARK  4 active torsions:
REMARK  status: ('A' for Active; 'I' for Inactive)
REMARK       I    between atoms: C1_2  and  N1_3 
REMARK    1  A    between atoms: C1_2  and  C13_17 
REMARK    2  A    between atoms: N1_3  and  C2_5 
REMARK    3  A    between atoms: N2_8  and  C5_9 
REMARK    4  A    between atoms: C14_21  and  C15_22 
ROOT
HETATM    1  O1  UNL     1      20.875  12.699  64.775  1.00  0.00    -0.266 OA
HETATM    2  C1  UNL     1      21.148  11.494  64.954  1.00  0.00     0.272 C 
HETATM    3  N1  UNL     1      22.402  10.870  64.899  1.00  0.00    -0.351 N 
ATOM      4  H1  UNL     1      22.413   9.880  65.143  1.00  0.00     0.163 HD
ENDROOT
BRANCH   3   5
HETATM    5  C2  UNL     1      23.641  11.423  64.555  1.00  0.00     0.088 C 
HETATM    6  C3  UNL     1      24.812  10.634  64.188  1.00  0.00     0.055 C 
HETATM    7  C4  UNL     1      26.074  11.517  64.466  1.00  0.00     0.275 C 
HETATM    8  N2  UNL     1      25.726  12.847  64.211  1.00  0.00     0.093 N 
HETATM    9  C11 UNL     1      24.899  13.391  65.288  1.00  0.00     0.275 C 
HETATM   10  C12 UNL     1      24.068  12.280  65.842  1.00  0.00     0.055 C 
BRANCH   8  11
HETATM   11  C5  UNL     1      26.822  13.811  64.022  1.00  0.00     0.223 C 
HETATM   12  C6  UNL     1      26.842  14.575  65.370  1.00  0.00     0.036 C 
HETATM   13  C7  UNL     1      27.733  15.760  65.402  1.00  0.00     0.002 C 
HETATM   14  C8  UNL     1      27.706  16.607  64.186  1.00  0.00     0.000 C 
HETATM   15  C9  UNL     1      27.738  15.771  62.924  1.00  0.00     0.002 C 
HETATM   16  C10 UNL     1      26.522  14.833  62.991  1.00  0.00     0.036 C 
ENDBRANCH   8  11
ENDBRANCH   3   5
BRANCH   2  17
HETATM   17  C13 UNL     1      19.987  10.600  65.231  1.00  0.00     0.146 A 
HETATM   18  N3  UNL     1      19.887   9.549  66.070  1.00  0.00    -0.254 N 
HETATM   19  O2  UNL     1      18.806   8.858  65.820  1.00  0.00    -0.240 OA
ATOM     20  H3  UNL     1      20.563   9.324  66.800  1.00  0.00     0.195 HD
HETATM   21  C14 UNL     1      18.121   9.394  64.810  1.00  0.00     0.104 A 
HETATM   22  C18 UNL     1      18.856  10.520  64.418  1.00  0.00     0.100 A 
HETATM   23 CL1  UNL     1      18.416  11.583  63.097  1.00  0.00    -0.079 Cl
BRANCH  21  24
HETATM   24  C15 UNL     1      16.819   8.922  64.179  1.00  0.00     0.047 A 
HETATM   25  C16 UNL     1      16.861   8.901  62.678  1.00  0.00     0.012 A 
HETATM   26  C17 UNL     1      17.113   7.617  63.382  1.00  0.00     0.012 A 
ENDBRANCH  21  24
ENDBRANCH   2  17
TORSDOF 4
ENDMDL
MODEL 3
REMARK VINA RESULT: -7.003966341      4.913      5.459
REMARK  4 active torsions:
REMARK  status: ('A' for Active; 'I' for Inactive)
REMARK       I    between atoms: C1_2  and  N1_3 
REMARK    1  A    between atoms: C1_2  and  C13_17 
REMARK    2  A    between atoms: N1_3  and  C2_5 
REMARK    3  A    between atoms: N2_8  and  C5_9 
REMARK    4  A    between atoms: C14_21  and  C15_22 
ROOT
HETATM    1  O1  UNL     1      22.934  15.690  63.779  1.00  0.00    -0.266 OA
HETATM    2  C1  UNL     1      21.805  16.224  63.742  1.00  0.00     0.272 C 
HETATM    3  N1  UNL     1      20.549  15.604  63.781  1.00  0.00    -0.351 N 
ATOM      4  H1  UNL     1      19.747  16.232  63.806  1.00  0.00     0.163 HD
ENDROOT
BRANCH   3   5
HETATM    5  C2  UNL     1      20.248  14.237  63.790  1.00  0.00     0.088 C 
HETATM    6  C3  UNL     1      21.038  13.232  64.493  1.00  0.00     0.055 C 
HETATM    7  C4  UNL     1      20.768  11.856  63.797  1.00  0.00     0.275 C 
HETATM    8  N2  UNL     1      19.443  11.859  63.353  1.00  0.00     0.093 N 
HETATM    9  C11 UNL     1      19.291  12.685  62.155  1.00  0.00     0.275 C 
HETATM   10  C12 UNL     1      20.267  13.813  62.242  1.00  0.00     0.055 C 
BRANCH   8  11
HETATM   11  C5  UNL     1      18.835  10.560  63.022  1.00  0.00     0.223 C 
HETATM   12  C6  UNL     1      17.455  10.964  62.446  1.00  0.00     0.036 C 
HETATM   13  C7  UNL     1      16.526   9.834  62.202  1.00  0.00     0.002 C 
HETATM   14  C8  UNL     1      16.500   8.795  63.257  1.00  0.00     0.000 C 
HETATM   15  C9  UNL     1      17.896   8.435  63.719  1.00  0.00     0.002 C 
HETATM   16  C10 UNL     1      18.540   9.737  64.219  1.00  0.00     0.036 C 
ENDBRANCH   8  11
ENDBRANCH   3   5
BRANCH   2  17
HETATM   17  C13 UNL     1      21.794  17.709  63.610  1.00  0.00     0.146 A 
HETATM   18  N3  UNL     1      21.429  18.481  62.566  1.00  0.00    -0.254 N 
HETATM   19  O2  UNL     1      21.830  19.714  62.739  1.00  0.00    -0.240 OA
ATOM     20  H3  UNL     1      20.912  18.148  61.753  1.00  0.00     0.195 HD
HETATM   21  C14 UNL     1      22.479  19.845  63.895  1.00  0.00     0.104 A 
HETATM   22  C18 UNL     1      22.465  18.573  64.478  1.00  0.00     0.100 A 
HETATM   23 CL1  UNL     1      23.217  18.171  66.008  1.00  0.00    -0.079 Cl
BRANCH  21  24
HETATM   24  C15 UNL     1      23.121  21.087  64.496  1.00  0.00     0.047 A 
HETATM   25  C16 UNL     1      23.292  22.205  63.507  1.00  0.00     0.012 A 
HETATM   26  C17 UNL     1      22.100  22.259  64.391  1.00  0.00     0.012 A 
ENDBRANCH  21  24
ENDBRANCH   2  17
TORSDOF 4
ENDMDL
MODEL 4
REMARK VINA RESULT: -6.939490950      5.026      5.479
REMARK  4 active torsions:
REMARK  status: ('A' for Active; 'I' for Inactive)
REMARK       I    between atoms: C1_2  and  N1_3 
REMARK    1  A    between atoms: C1_2  and  C13_17 
REMARK    2  A    between atoms: N1_3  and  C2_5 
REMARK    3  A    between atoms: N2_8  and  C5_9 
REMARK    4  A    between atoms: C14_21  and  C15_22 
ROOT
HETATM    1  O1  UNL     1      19.543  16.359  63.051  1.00  0.00    -0.266 OA
HETATM    2  C1  UNL     1      20.709  16.200  63.467  1.00  0.00     0.272 C 
HETATM    3  N1  UNL     1      21.360  15.001  63.789  1.00  0.00    -0.351 N 
ATOM      4  H1  UNL     1      22.342  15.088  64.049  1.00  0.00     0.163 HD
ENDROOT
BRANCH   3   5
HETATM    5  C2  UNL     1      20.844  13.700  63.801  1.00  0.00     0.088 C 
HETATM    6  C3  UNL     1      21.412  12.604  64.578  1.00  0.00     0.055 C 
HETATM    7  C4  UNL     1      20.974  11.268  63.890  1.00  0.00     0.275 C 
HETATM    8  N2  UNL     1      19.700  11.468  63.350  1.00  0.00     0.093 N 
HETATM    9  C11 UNL     1      19.766  12.272  62.130  1.00  0.00     0.275 C 
HETATM   10  C12 UNL     1      20.902  13.232  62.267  1.00  0.00     0.055 C 
BRANCH   8  11
HETATM   11  C5  UNL     1      18.917  10.272  62.999  1.00  0.00     0.223 C 
HETATM   12  C6  UNL     1      17.649  10.874  62.343  1.00  0.00     0.036 C 
HETATM   13  C7  UNL     1      16.569   9.897  62.059  1.00  0.00     0.002 C 
HETATM   14  C8  UNL     1      16.326   8.895  63.123  1.00  0.00     0.000 C 
HETATM   15  C9  UNL     1      17.622   8.332  63.665  1.00  0.00     0.002 C 
HETATM   16  C10 UNL     1      18.434   9.528  64.187  1.00  0.00     0.036 C 
ENDBRANCH   8  11
ENDBRANCH   3   5
BRANCH   2  17
HETATM   17  C13 UNL     1      21.499  17.446  63.676  1.00  0.00     0.146 A 
HETATM   18  N3  UNL     1      22.053  17.940  64.803  1.00  0.00    -0.254 N 
HETATM   19  O2  UNL     1      22.415  19.185  64.634  1.00  0.00    -0.240 OA
ATOM     20  H3  UNL     1      22.171  17.415  65.668  1.00  0.00     0.195 HD
HETATM   21  C14 UNL     1      22.132  19.599  63.399  1.00  0.00     0.104 A 
HETATM   22  C18 UNL     1      21.549  18.499  62.760  1.00  0.00     0.100 A 
HETATM   23 CL1  UNL     1      20.954  18.505  61.113  1.00  0.00    -0.079 Cl
BRANCH  21  24
HETATM   24  C15 UNL     1      22.369  20.965  62.771  1.00  0.00     0.047 A 
HETATM   25  C16 UNL     1      21.114  21.781  62.635  1.00  0.00     0.012 A 
HETATM   26  C17 UNL     1      21.976  22.053  63.815  1.00  0.00     0.012 A 
ENDBRANCH  21  24
ENDBRANCH   2  17
TORSDOF 4
ENDMDL
MODEL 5
REMARK VINA RESULT: -6.931130071      1.671      1.817
REMARK  4 active torsions:
REMARK  status: ('A' for Active; 'I' for Inactive)
REMARK       I    between atoms: C1_2  and  N1_3 
REMARK    1  A    between atoms: C1_2  and  C13_17 
REMARK    2  A    between atoms: N1_3  and  C2_5 
REMARK    3  A    between atoms: N2_8  and  C5_9 
REMARK    4  A    between atoms: C14_21  and  C15_22 
ROOT
HETATM    1  O1  UNL     1      24.352  11.157  64.133  1.00  0.00    -0.266 OA
HETATM    2  C1  UNL     1      24.000  12.354  64.177  1.00  0.00     0.272 C 
HETATM    3  N1  UNL     1      22.727  12.877  64.440  1.00  0.00    -0.351 N 
ATOM      4  H1  UNL     1      22.670  13.893  64.493  1.00  0.00     0.163 HD
ENDROOT
BRANCH   3   5
HETATM    5  C2  UNL     1      21.523  12.191  64.640  1.00  0.00     0.088 C 
HETATM    6  C3  UNL     1      21.348  11.120  65.615  1.00  0.00     0.055 C 
HETATM    7  C4  UNL     1      20.140  10.247  65.136  1.00  0.00     0.275 C 
HETATM    8  N2  UNL     1      19.226  11.097  64.507  1.00  0.00     0.093 N 
HETATM    9  C11 UNL     1      19.694  11.482  63.176  1.00  0.00     0.275 C 
HETATM   10  C12 UNL     1      21.186  11.548  63.210  1.00  0.00     0.055 C 
BRANCH   8  11
HETATM   11  C5  UNL     1      17.854  10.598  64.320  1.00  0.00     0.223 C 
HETATM   12  C6  UNL     1      18.076   9.101  63.986  1.00  0.00     0.036 C 
HETATM   13  C7  UNL     1      16.861   8.372  63.549  1.00  0.00     0.002 C 
HETATM   14  C8  UNL     1      15.979   9.112  62.617  1.00  0.00     0.000 C 
HETATM   15  C9  UNL     1      15.785  10.548  63.054  1.00  0.00     0.002 C 
HETATM   16  C10 UNL     1      17.186  11.175  63.128  1.00  0.00     0.036 C 
ENDBRANCH   8  11
ENDBRANCH   3   5
BRANCH   2  17
HETATM   17  C13 UNL     1      25.066  13.354  63.880  1.00  0.00     0.146 A 
HETATM   18  N3  UNL     1      26.110  13.277  63.030  1.00  0.00    -0.254 N 
HETATM   19  O2  UNL     1      26.970  14.234  63.264  1.00  0.00    -0.240 OA
ATOM     20  H3  UNL     1      26.215  12.569  62.303  1.00  0.00     0.195 HD
HETATM   21  C14 UNL     1      26.562  15.003  64.273  1.00  0.00     0.104 A 
HETATM   22  C18 UNL     1      25.338  14.463  64.683  1.00  0.00     0.100 A 
HETATM   23 CL1  UNL     1      24.375  15.077  66.011  1.00  0.00    -0.079 Cl
BRANCH  21  24
HETATM   24  C15 UNL     1      27.245  16.217  64.887  1.00  0.00     0.047 A 
HETATM   25  C16 UNL     1      27.738  17.201  63.865  1.00  0.00     0.012 A 
HETATM   26  C17 UNL     1      26.424  17.482  64.499  1.00  0.00     0.012 A 
ENDBRANCH  21  24
ENDBRANCH   2  17
TORSDOF 4
ENDMDL
