MODEL 1
REMARK VINA RESULT: -6.364039036      0.000      0.000
REMARK  7 active torsions:
REMARK  status: ('A' for Active; 'I' for Inactive)
REMARK    1  A    between atoms: S1_2  and  C2_3 
REMARK    2  A    between atoms: C2_3  and  C3_4 
REMARK    3  A    between atoms: C2_3  and  C13_17 
REMARK    4  A    between atoms: C3_4  and  C4_5 
REMARK    5  A    between atoms: C4_5  and  C5_6 
REMARK    6  A    between atoms: C5_6  and  O1_7 
REMARK    7  A    between atoms: N1_12  and  C9_13 
ROOT
HETATM    1  C3  UNL     1      22.453  11.799  63.809  1.00  0.00     0.049 C 
ENDROOT
BRANCH   1   2
HETATM    2  C2  UNL     1      21.270  12.653  63.678  1.00  0.00     0.062 C 
BRANCH   2   3
HETATM    3  S1  UNL     1      21.387  14.036  62.553  1.00  0.00    -0.168 SA
HETATM    4  C1  UNL     1      22.047  13.700  60.943  1.00  0.00     0.090 C 
ENDBRANCH   2   3
BRANCH   2   5
HETATM    5  C13 UNL     1      19.978  11.916  63.418  1.00  0.00     0.033 C 
HETATM    6  C14 UNL     1      18.909  12.601  62.677  1.00  0.00     0.017 C 
HETATM    7  C15 UNL     1      17.631  11.747  62.855  1.00  0.00     0.031 C 
HETATM    8  C16 UNL     1      17.857  10.298  62.598  1.00  0.00     0.276 C 
HETATM    9  N2  UNL     1      19.081   9.791  63.192  1.00  0.00     0.122 N 
HETATM   10  C17 UNL     1      19.043  10.010  64.615  1.00  0.00     0.277 C 
HETATM   11  C19 UNL     1      20.228  10.582  62.737  1.00  0.00     0.414 C 
HETATM   12  C18 UNL     1      19.443  11.428  64.790  1.00  0.00     0.045 C 
HETATM   13  F1  UNL     1      20.138  10.670  61.351  1.00  0.00    -0.215 F 
ENDBRANCH   2   5
ENDBRANCH   1   2
BRANCH   1  14
HETATM   14  C4  UNL     1      23.138  11.464  65.039  1.00  0.00     0.051 C 
HETATM   15  C6  UNL     1      23.517   9.961  64.935  1.00  0.00     0.034 C 
HETATM   16  C7  UNL     1      24.752   9.965  64.056  1.00  0.00     0.022 C 
HETATM   17  C8  UNL     1      25.442  11.163  64.653  1.00  0.00     0.118 C 
HETATM   18  N1  UNL     1      24.448  12.051  65.158  1.00  0.00    -0.394 N 
BRANCH  14  19
HETATM   19  C5  UNL     1      22.544  11.555  66.384  1.00  0.00     0.195 C 
BRANCH  19  20
HETATM   20  O1  UNL     1      21.880  10.546  66.960  1.00  0.00    -0.398 OA
ATOM     21  H1  UNL     1      20.941  10.427  66.878  1.00  0.00     0.209 HD
ENDBRANCH  19  20
ENDBRANCH  14  19
BRANCH  18  22
HETATM   22  C9  UNL     1      24.772  13.348  64.879  1.00  0.00     0.018 C 
HETATM   23  C10 UNL     1      23.966  14.449  65.533  1.00  0.00     0.037 C 
HETATM   24  C11 UNL     1      26.171  13.529  65.575  1.00  0.00     0.037 C 
HETATM   25  C12 UNL     1      25.058  13.763  63.459  1.00  0.00     0.037 C 
ENDBRANCH  18  22
ENDBRANCH   1  14
TORSDOF 7
ENDMDL
MODEL 2
REMARK VINA RESULT: -6.324518664      1.626      2.153
REMARK  7 active torsions:
REMARK  status: ('A' for Active; 'I' for Inactive)
REMARK    1  A    between atoms: S1_2  and  C2_3 
REMARK    2  A    between atoms: C2_3  and  C3_4 
REMARK    3  A    between atoms: C2_3  and  C13_17 
REMARK    4  A    between atoms: C3_4  and  C4_5 
REMARK    5  A    between atoms: C4_5  and  C5_6 
REMARK    6  A    between atoms: C5_6  and  O1_7 
REMARK    7  A    between atoms: N1_12  and  C9_13 
ROOT
HETATM    1  C3  UNL     1      23.531  12.412  63.814  1.00  0.00     0.049 C 
ENDROOT
BRANCH   1   2
HETATM    2  C2  UNL     1      22.183  12.863  64.164  1.00  0.00     0.062 C 
BRANCH   2   3
HETATM    3  S1  UNL     1      21.758  14.549  63.753  1.00  0.00    -0.168 SA
HETATM    4  C1  UNL     1      22.758  15.346  62.526  1.00  0.00     0.090 C 
ENDBRANCH   2   3
BRANCH   2   5
HETATM    5  C13 UNL     1      21.068  11.950  63.709  1.00  0.00     0.033 C 
HETATM    6  C14 UNL     1      21.404  10.585  63.279  1.00  0.00     0.017 C 
HETATM    7  C15 UNL     1      20.146  10.022  62.575  1.00  0.00     0.031 C 
HETATM    8  C16 UNL     1      18.896  10.235  63.355  1.00  0.00     0.276 C 
HETATM    9  N2  UNL     1      18.794  11.564  63.931  1.00  0.00     0.122 N 
HETATM   10  C17 UNL     1      18.857  12.543  62.876  1.00  0.00     0.277 C 
HETATM   11  C19 UNL     1      19.973  11.849  64.755  1.00  0.00     0.414 C 
HETATM   12  C18 UNL     1      20.303  12.688  62.579  1.00  0.00     0.045 C 
HETATM   13  F1  UNL     1      20.150  10.760  65.602  1.00  0.00    -0.215 F 
ENDBRANCH   2   5
ENDBRANCH   1   2
BRANCH   1  14
HETATM   14  C4  UNL     1      24.417  11.627  64.648  1.00  0.00     0.051 C 
HETATM   15  C6  UNL     1      25.084  10.578  63.715  1.00  0.00     0.034 C 
HETATM   16  C7  UNL     1      26.173  11.367  63.016  1.00  0.00     0.022 C 
HETATM   17  C8  UNL     1      26.668  12.156  64.199  1.00  0.00     0.118 C 
HETATM   18  N1  UNL     1      25.582  12.343  65.102  1.00  0.00    -0.394 N 
BRANCH  14  19
HETATM   19  C5  UNL     1      23.987  10.810  65.796  1.00  0.00     0.195 C 
BRANCH  19  20
HETATM   20  O1  UNL     1      24.276   9.510  65.918  1.00  0.00    -0.398 OA
ATOM     21  H1  UNL     1      24.709   9.143  66.680  1.00  0.00     0.209 HD
ENDBRANCH  19  20
ENDBRANCH  14  19
BRANCH  18  22
HETATM   22  C9  UNL     1      25.593  13.610  65.614  1.00  0.00     0.018 C 
HETATM   23  C10 UNL     1      24.640  13.938  66.744  1.00  0.00     0.037 C 
HETATM   24  C11 UNL     1      26.984  13.692  66.345  1.00  0.00     0.037 C 
HETATM   25  C12 UNL     1      25.640  14.797  64.687  1.00  0.00     0.037 C 
ENDBRANCH  18  22
ENDBRANCH   1  14
TORSDOF 7
ENDMDL
MODEL 3
REMARK VINA RESULT: -6.287977217      2.303      3.243
REMARK  7 active torsions:
REMARK  status: ('A' for Active; 'I' for Inactive)
REMARK    1  A    between atoms: S1_2  and  C2_3 
REMARK    2  A    between atoms: C2_3  and  C3_4 
REMARK    3  A    between atoms: C2_3  and  C13_17 
REMARK    4  A    between atoms: C3_4  and  C4_5 
REMARK    5  A    between atoms: C4_5  and  C5_6 
REMARK    6  A    between atoms: C5_6  and  O1_7 
REMARK    7  A    between atoms: N1_12  and  C9_13 
ROOT
HETATM    1  C3  UNL     1      23.178  12.388  64.496  1.00  0.00     0.049 C 
ENDROOT
BRANCH   1   2
HETATM    2  C2  UNL     1      22.202  11.858  63.541  1.00  0.00     0.062 C 
BRANCH   2   3
HETATM    3  S1  UNL     1      21.089  10.593  64.134  1.00  0.00    -0.168 SA
HETATM    4  C1  UNL     1      20.950  10.415  65.891  1.00  0.00     0.090 C 
ENDBRANCH   2   3
BRANCH   2   5
HETATM    5  C13 UNL     1      21.406  12.905  62.798  1.00  0.00     0.033 C 
HETATM    6  C14 UNL     1      20.875  14.054  63.547  1.00  0.00     0.017 C 
HETATM    7  C15 UNL     1      19.855  14.753  62.617  1.00  0.00     0.031 C 
HETATM    8  C16 UNL     1      20.379  14.983  61.243  1.00  0.00     0.276 C 
HETATM    9  N2  UNL     1      21.095  13.842  60.701  1.00  0.00     0.122 N 
HETATM   10  C17 UNL     1      20.219  12.699  60.680  1.00  0.00     0.277 C 
HETATM   11  C19 UNL     1      22.177  13.448  61.608  1.00  0.00     0.414 C 
HETATM   12  C18 UNL     1      20.252  12.171  62.066  1.00  0.00     0.045 C 
HETATM   13  F1  UNL     1      22.888  14.602  61.921  1.00  0.00    -0.215 F 
ENDBRANCH   2   5
ENDBRANCH   1   2
BRANCH   1  14
HETATM   14  C4  UNL     1      24.464  11.809  64.820  1.00  0.00     0.051 C 
HETATM   15  C6  UNL     1      24.975  11.122  63.523  1.00  0.00     0.034 C 
HETATM   16  C7  UNL     1      25.517  12.275  62.701  1.00  0.00     0.022 C 
HETATM   17  C8  UNL     1      26.205  13.029  63.807  1.00  0.00     0.118 C 
HETATM   18  N1  UNL     1      25.509  12.779  65.025  1.00  0.00    -0.394 N 
BRANCH  14  19
HETATM   19  C5  UNL     1      24.686  10.772  65.842  1.00  0.00     0.195 C 
BRANCH  19  20
HETATM   20  O1  UNL     1      24.331   9.493  65.676  1.00  0.00    -0.398 OA
ATOM     21  H1  UNL     1      24.183   8.896  66.400  1.00  0.00     0.209 HD
ENDBRANCH  19  20
ENDBRANCH  14  19
BRANCH  18  22
HETATM   22  C9  UNL     1      25.404  13.923  65.766  1.00  0.00     0.018 C 
HETATM   23  C10 UNL     1      25.051  13.801  67.232  1.00  0.00     0.037 C 
HETATM   24  C11 UNL     1      26.889  14.438  65.844  1.00  0.00     0.037 C 
HETATM   25  C12 UNL     1      24.673  15.116  65.208  1.00  0.00     0.037 C 
ENDBRANCH  18  22
ENDBRANCH   1  14
TORSDOF 7
ENDMDL
MODEL 4
REMARK VINA RESULT: -6.168689911      1.268      1.638
REMARK  7 active torsions:
REMARK  status: ('A' for Active; 'I' for Inactive)
REMARK    1  A    between atoms: S1_2  and  C2_3 
REMARK    2  A    between atoms: C2_3  and  C3_4 
REMARK    3  A    between atoms: C2_3  and  C13_17 
REMARK    4  A    between atoms: C3_4  and  C4_5 
REMARK    5  A    between atoms: C4_5  and  C5_6 
REMARK    6  A    between atoms: C5_6  and  O1_7 
REMARK    7  A    between atoms: N1_12  and  C9_13 
ROOT
HETATM    1  C3  UNL     1      22.688  12.255  63.472  1.00  0.00     0.049 C 
ENDROOT
BRANCH   1   2
HETATM    2  C2  UNL     1      21.441  12.999  63.284  1.00  0.00     0.062 C 
BRANCH   2   3
HETATM    3  S1  UNL     1      21.385  14.163  61.930  1.00  0.00    -0.168 SA
HETATM    4  C1  UNL     1      21.920  13.572  60.348  1.00  0.00     0.090 C 
ENDBRANCH   2   3
BRANCH   2   5
HETATM    5  C13 UNL     1      20.192  12.150  63.254  1.00  0.00     0.033 C 
HETATM    6  C14 UNL     1      18.985  12.689  62.612  1.00  0.00     0.017 C 
HETATM    7  C15 UNL     1      17.815  11.763  63.022  1.00  0.00     0.031 C 
HETATM    8  C16 UNL     1      18.126  10.317  62.848  1.00  0.00     0.276 C 
HETATM    9  N2  UNL     1      19.453   9.953  63.312  1.00  0.00     0.122 N 
HETATM   10  C17 UNL     1      19.577  10.292  64.707  1.00  0.00     0.277 C 
HETATM   11  C19 UNL     1      20.465  10.784  62.650  1.00  0.00     0.414 C 
HETATM   12  C18 UNL     1      19.877  11.745  64.719  1.00  0.00     0.045 C 
HETATM   13  F1  UNL     1      20.193  10.745  61.286  1.00  0.00    -0.215 F 
ENDBRANCH   2   5
ENDBRANCH   1   2
BRANCH   1  14
HETATM   14  C4  UNL     1      23.599  12.375  64.590  1.00  0.00     0.051 C 
HETATM   15  C6  UNL     1      23.192  11.273  65.607  1.00  0.00     0.034 C 
HETATM   16  C7  UNL     1      23.806  10.012  65.031  1.00  0.00     0.022 C 
HETATM   17  C8  UNL     1      25.132  10.586  64.609  1.00  0.00     0.118 C 
HETATM   18  N1  UNL     1      24.948  11.964  64.294  1.00  0.00    -0.394 N 
BRANCH  14  19
HETATM   19  C5  UNL     1      23.731  13.568  65.443  1.00  0.00     0.195 C 
BRANCH  19  20
HETATM   20  O1  UNL     1      24.612  13.657  66.446  1.00  0.00    -0.398 OA
ATOM     21  H1  UNL     1      25.344  14.262  66.443  1.00  0.00     0.209 HD
ENDBRANCH  19  20
ENDBRANCH  14  19
BRANCH  18  22
HETATM   22  C9  UNL     1      25.661  12.304  63.179  1.00  0.00     0.018 C 
HETATM   23  C10 UNL     1      25.124  13.403  62.289  1.00  0.00     0.037 C 
HETATM   24  C11 UNL     1      26.952  12.983  63.770  1.00  0.00     0.037 C 
HETATM   25  C12 UNL     1      26.234  11.227  62.294  1.00  0.00     0.037 C 
ENDBRANCH  18  22
ENDBRANCH   1  14
TORSDOF 7
ENDMDL
MODEL 5
REMARK VINA RESULT: -6.159291647      2.210      3.375
REMARK  7 active torsions:
REMARK  status: ('A' for Active; 'I' for Inactive)
REMARK    1  A    between atoms: S1_2  and  C2_3 
REMARK    2  A    between atoms: C2_3  and  C3_4 
REMARK    3  A    between atoms: C2_3  and  C13_17 
REMARK    4  A    between atoms: C3_4  and  C4_5 
REMARK    5  A    between atoms: C4_5  and  C5_6 
REMARK    6  A    between atoms: C5_6  and  O1_7 
REMARK    7  A    between atoms: N1_12  and  C9_13 
ROOT
HETATM    1  C3  UNL     1      23.045  12.813  64.804  1.00  0.00     0.049 C 
ENDROOT
BRANCH   1   2
HETATM    2  C2  UNL     1      21.868  12.485  63.996  1.00  0.00     0.062 C 
BRANCH   2   3
HETATM    3  S1  UNL     1      20.437  11.858  64.862  1.00  0.00    -0.168 SA
HETATM    4  C1  UNL     1      20.577  10.235  65.558  1.00  0.00     0.090 C 
ENDBRANCH   2   3
BRANCH   2   5
HETATM    5  C13 UNL     1      21.429  13.571  63.042  1.00  0.00     0.033 C 
HETATM    6  C14 UNL     1      21.990  13.589  61.684  1.00  0.00     0.017 C 
HETATM    7  C15 UNL     1      21.624  14.962  61.073  1.00  0.00     0.031 C 
HETATM    8  C16 UNL     1      20.190  15.318  61.253  1.00  0.00     0.276 C 
HETATM    9  N2  UNL     1      19.687  15.030  62.584  1.00  0.00     0.122 N 
HETATM   10  C17 UNL     1      20.471  15.753  63.553  1.00  0.00     0.277 C 
HETATM   11  C19 UNL     1      19.916  13.621  62.917  1.00  0.00     0.414 C 
HETATM   12  C18 UNL     1      21.692  14.931  63.742  1.00  0.00     0.045 C 
HETATM   13  F1  UNL     1      19.450  12.869  61.844  1.00  0.00    -0.215 F 
ENDBRANCH   2   5
ENDBRANCH   1   2
BRANCH   1  14
HETATM   14  C4  UNL     1      24.186  11.956  65.045  1.00  0.00     0.051 C 
HETATM   15  C6  UNL     1      24.478  11.225  63.705  1.00  0.00     0.034 C 
HETATM   16  C7  UNL     1      25.221  12.263  62.888  1.00  0.00     0.022 C 
HETATM   17  C8  UNL     1      26.106  12.808  63.978  1.00  0.00     0.118 C 
HETATM   18  N1  UNL     1      25.427  12.669  65.222  1.00  0.00    -0.394 N 
BRANCH  14  19
HETATM   19  C5  UNL     1      24.221  10.858  66.026  1.00  0.00     0.195 C 
BRANCH  19  20
HETATM   20  O1  UNL     1      24.341   9.571  65.679  1.00  0.00    -0.398 OA
ATOM     21  H1  UNL     1      24.827   9.281  64.917  1.00  0.00     0.209 HD
ENDBRANCH  19  20
ENDBRANCH  14  19
BRANCH  18  22
HETATM   22  C9  UNL     1      25.607  13.778  65.999  1.00  0.00     0.018 C 
HETATM   23  C10 UNL     1      25.848  13.589  67.481  1.00  0.00     0.037 C 
HETATM   24  C11 UNL     1      27.002  14.328  65.523  1.00  0.00     0.037 C 
HETATM   25  C12 UNL     1      24.708  14.974  65.823  1.00  0.00     0.037 C 
ENDBRANCH  18  22
ENDBRANCH   1  14
TORSDOF 7
ENDMDL
