MODEL 1
REMARK VINA RESULT: -7.831935482      0.000      0.000
REMARK  5 active torsions:
REMARK  status: ('A' for Active; 'I' for Inactive)
REMARK    1  A    between atoms: O1_2  and  C2_3 
REMARK    2  A    between atoms: C6_7  and  O2_8 
REMARK    3  A    between atoms: C8_10  and  O3_11 
REMARK    4  A    between atoms: C15_19  and  C16_20 
REMARK    5  A    between atoms: C16_20  and  O4_23 
ROOT
HETATM    1  C2  UNL     1      21.515  14.529  63.774  1.00  0.00     0.104 A 
HETATM    2  C3  UNL     1      20.866  13.361  63.390  1.00  0.00     0.048 A 
HETATM    3  C4  UNL     1      21.495  12.161  63.542  1.00  0.00    -0.042 A 
HETATM    4  C5  UNL     1      22.787  12.124  64.084  1.00  0.00    -0.015 A 
HETATM    5  C6  UNL     1      23.454  13.262  64.473  1.00  0.00     0.111 A 
HETATM    6  C8  UNL     1      22.789  14.457  64.305  1.00  0.00     0.135 A 
HETATM    7  C10 UNL     1      23.415  10.784  64.229  1.00  0.00     0.042 C 
HETATM    8  C11 UNL     1      22.387   9.975  65.036  1.00  0.00     0.013 C 
HETATM    9  C12 UNL     1      21.053   9.944  64.396  1.00  0.00     0.028 C 
HETATM   10  C13 UNL     1      19.977  10.282  65.385  1.00  0.00     0.175 C 
HETATM   11  F1  UNL     1      20.176   9.617  66.568  1.00  0.00    -0.249 F 
HETATM   12  C14 UNL     1      18.657   9.918  64.738  1.00  0.00     0.045 C 
HETATM   13  C15 UNL     1      18.458  10.875  63.587  1.00  0.00     0.022 C 
HETATM   14  C19 UNL     1      19.573  10.859  62.598  1.00  0.00     0.017 C 
HETATM   15  C20 UNL     1      20.940  10.835  63.178  1.00  0.00     0.026 C 
ENDROOT
BRANCH  13  16
HETATM   16  C16 UNL     1      17.153  10.547  62.891  1.00  0.00     0.054 C 
HETATM   17  C17 UNL     1      16.847   9.060  63.107  1.00  0.00     0.045 C 
HETATM   18  C18 UNL     1      15.989  11.351  63.425  1.00  0.00     0.045 C 
BRANCH  16  19
HETATM   19  O4  UNL     1      17.252  10.713  61.511  1.00  0.00    -0.390 OA
ATOM     20  H4  UNL     1      16.469  11.113  61.150  1.00  0.00     0.210 HD
ENDBRANCH  16  19
ENDBRANCH  13  16
BRANCH   1  21
HETATM   21  O1  UNL     1      20.912  15.772  63.637  1.00  0.00    -0.353 OA
HETATM   22  C1  UNL     1      19.558  15.935  63.299  1.00  0.00     0.210 C 
ENDBRANCH   1  21
BRANCH   5  23
HETATM   23  O2  UNL     1      24.719  13.132  64.995  1.00  0.00    -0.352 OA
HETATM   24  C7  UNL     1      25.029  13.152  66.367  1.00  0.00     0.210 C 
ENDBRANCH   5  23
BRANCH   6  25
HETATM   25  O3  UNL     1      23.427  15.625  64.685  1.00  0.00    -0.351 OA
HETATM   26  C9  UNL     1      24.294  16.258  63.759  1.00  0.00     0.210 C 
ENDBRANCH   6  25
TORSDOF 5
ENDMDL
MODEL 2
REMARK VINA RESULT: -7.730821570      0.793      1.004
REMARK  5 active torsions:
REMARK  status: ('A' for Active; 'I' for Inactive)
REMARK    1  A    between atoms: O1_2  and  C2_3 
REMARK    2  A    between atoms: C6_7  and  O2_8 
REMARK    3  A    between atoms: C8_10  and  O3_11 
REMARK    4  A    between atoms: C15_19  and  C16_20 
REMARK    5  A    between atoms: C16_20  and  O4_23 
ROOT
HETATM    1  C2  UNL     1      20.987  14.758  63.645  1.00  0.00     0.104 A 
HETATM    2  C3  UNL     1      20.427  13.533  63.303  1.00  0.00     0.048 A 
HETATM    3  C4  UNL     1      21.181  12.400  63.391  1.00  0.00    -0.042 A 
HETATM    4  C5  UNL     1      22.511  12.490  63.825  1.00  0.00    -0.015 A 
HETATM    5  C6  UNL     1      23.092  13.687  64.169  1.00  0.00     0.111 A 
HETATM    6  C8  UNL     1      22.301  14.811  64.068  1.00  0.00     0.135 A 
HETATM    7  C10 UNL     1      23.276  11.218  63.904  1.00  0.00     0.042 C 
HETATM    8  C11 UNL     1      22.404  10.310  64.784  1.00  0.00     0.013 C 
HETATM    9  C12 UNL     1      21.030  10.149  64.256  1.00  0.00     0.028 C 
HETATM   10  C13 UNL     1      20.012  10.377  65.333  1.00  0.00     0.175 C 
HETATM   11  F1  UNL     1      20.373   9.732  66.489  1.00  0.00    -0.249 F 
HETATM   12  C14 UNL     1      18.686   9.885  64.792  1.00  0.00     0.045 C 
HETATM   13  C15 UNL     1      18.299  10.820  63.672  1.00  0.00     0.022 C 
HETATM   14  C19 UNL     1      19.324  10.916  62.594  1.00  0.00     0.017 C 
HETATM   15  C20 UNL     1      20.731  11.027  63.060  1.00  0.00     0.026 C 
ENDROOT
BRANCH  13  16
HETATM   16  C16 UNL     1      16.980  10.366  63.082  1.00  0.00     0.054 C 
HETATM   17  C17 UNL     1      16.986  10.674  61.580  1.00  0.00     0.045 C 
HETATM   18  C18 UNL     1      16.743   8.882  63.259  1.00  0.00     0.045 C 
BRANCH  16  19
HETATM   19  O4  UNL     1      15.908  11.083  63.608  1.00  0.00    -0.390 OA
ATOM     20  H4  UNL     1      15.645  10.747  64.457  1.00  0.00     0.210 HD
ENDBRANCH  16  19
ENDBRANCH  13  16
BRANCH   1  21
HETATM   21  O1  UNL     1      20.256  15.936  63.570  1.00  0.00    -0.353 OA
HETATM   22  C1  UNL     1      19.870  16.524  62.353  1.00  0.00     0.210 C 
ENDBRANCH   1  21
BRANCH   5  23
HETATM   23  O2  UNL     1      24.403  13.682  64.584  1.00  0.00    -0.352 OA
HETATM   24  C7  UNL     1      24.822  13.758  65.925  1.00  0.00     0.210 C 
ENDBRANCH   5  23
BRANCH   6  25
HETATM   25  O3  UNL     1      22.850  16.036  64.406  1.00  0.00    -0.351 OA
HETATM   26  C9  UNL     1      23.566  16.755  63.418  1.00  0.00     0.210 C 
ENDBRANCH   6  25
TORSDOF 5
ENDMDL
MODEL 3
REMARK VINA RESULT: -7.343055042      1.432      1.731
REMARK  5 active torsions:
REMARK  status: ('A' for Active; 'I' for Inactive)
REMARK    1  A    between atoms: O1_2  and  C2_3 
REMARK    2  A    between atoms: C6_7  and  O2_8 
REMARK    3  A    between atoms: C8_10  and  O3_11 
REMARK    4  A    between atoms: C15_19  and  C16_20 
REMARK    5  A    between atoms: C16_20  and  O4_23 
ROOT
HETATM    1  C2  UNL     1      21.557  14.966  63.676  1.00  0.00     0.104 A 
HETATM    2  C3  UNL     1      21.041  13.680  63.561  1.00  0.00     0.048 A 
HETATM    3  C4  UNL     1      21.891  12.620  63.452  1.00  0.00    -0.042 A 
HETATM    4  C5  UNL     1      23.275  12.844  63.457  1.00  0.00    -0.015 A 
HETATM    5  C6  UNL     1      23.815  14.104  63.569  1.00  0.00     0.111 A 
HETATM    6  C8  UNL     1      22.927  15.151  63.677  1.00  0.00     0.135 A 
HETATM    7  C10 UNL     1      24.148  11.647  63.340  1.00  0.00     0.042 C 
HETATM    8  C11 UNL     1      23.671  10.724  64.473  1.00  0.00     0.013 C 
HETATM    9  C12 UNL     1      22.225  10.421  64.394  1.00  0.00     0.028 C 
HETATM   10  C13 UNL     1      21.560  10.629  65.722  1.00  0.00     0.175 C 
HETATM   11  F1  UNL     1      22.312  10.086  66.733  1.00  0.00    -0.249 F 
HETATM   12  C14 UNL     1      20.186   9.998  65.627  1.00  0.00     0.045 C 
HETATM   13  C15 UNL     1      19.393  10.830  64.648  1.00  0.00     0.022 C 
HETATM   14  C19 UNL     1      20.033  10.945  63.307  1.00  0.00     0.017 C 
HETATM   15  C20 UNL     1      21.497  11.198  63.318  1.00  0.00     0.026 C 
ENDROOT
BRANCH  13  16
HETATM   16  C16 UNL     1      18.008  10.235  64.503  1.00  0.00     0.054 C 
HETATM   17  C17 UNL     1      17.218  11.077  63.493  1.00  0.00     0.045 C 
HETATM   18  C18 UNL     1      18.036   8.806  64.007  1.00  0.00     0.045 C 
BRANCH  16  19
HETATM   19  O4  UNL     1      17.290  10.308  65.695  1.00  0.00    -0.390 OA
ATOM     20  H4  UNL     1      16.379  10.530  65.542  1.00  0.00     0.210 HD
ENDBRANCH  16  19
ENDBRANCH  13  16
BRANCH   1  21
HETATM   21  O1  UNL     1      20.728  16.073  63.790  1.00  0.00    -0.353 OA
HETATM   22  C1  UNL     1      20.118  16.692  62.685  1.00  0.00     0.210 C 
ENDBRANCH   1  21
BRANCH   5  23
HETATM   23  O2  UNL     1      25.184  14.231  63.565  1.00  0.00    -0.352 OA
HETATM   24  C7  UNL     1      25.992  14.258  64.716  1.00  0.00     0.210 C 
ENDBRANCH   5  23
BRANCH   6  25
HETATM   25  O3  UNL     1      23.431  16.435  63.792  1.00  0.00    -0.351 OA
HETATM   26  C9  UNL     1      23.600  16.985  65.087  1.00  0.00     0.210 C 
ENDBRANCH   6  25
TORSDOF 5
ENDMDL
MODEL 4
REMARK VINA RESULT: -7.312220474      2.358      6.143
REMARK  5 active torsions:
REMARK  status: ('A' for Active; 'I' for Inactive)
REMARK    1  A    between atoms: O1_2  and  C2_3 
REMARK    2  A    between atoms: C6_7  and  O2_8 
REMARK    3  A    between atoms: C8_10  and  O3_11 
REMARK    4  A    between atoms: C15_19  and  C16_20 
REMARK    5  A    between atoms: C16_20  and  O4_23 
ROOT
HETATM    1  C2  UNL     1      19.978  11.630  61.917  1.00  0.00     0.104 A 
HETATM    2  C3  UNL     1      21.186  12.165  62.348  1.00  0.00     0.048 A 
HETATM    3  C4  UNL     1      21.517  12.104  63.670  1.00  0.00    -0.042 A 
HETATM    4  C5  UNL     1      20.631  11.501  64.574  1.00  0.00    -0.015 A 
HETATM    5  C6  UNL     1      19.429  10.964  64.177  1.00  0.00     0.111 A 
HETATM    6  C8  UNL     1      19.128  11.044  62.836  1.00  0.00     0.135 A 
HETATM    7  C10 UNL     1      21.052  11.462  65.999  1.00  0.00     0.042 C 
HETATM    8  C11 UNL     1      22.437  10.797  65.962  1.00  0.00     0.013 C 
HETATM    9  C12 UNL     1      23.388  11.505  65.076  1.00  0.00     0.028 C 
HETATM   10  C13 UNL     1      24.079  10.544  64.154  1.00  0.00     0.175 C 
HETATM   11  F1  UNL     1      24.490   9.426  64.834  1.00  0.00    -0.249 F 
HETATM   12  C14 UNL     1      25.237  11.294  63.529  1.00  0.00     0.045 C 
HETATM   13  C15 UNL     1      24.637  12.349  62.631  1.00  0.00     0.022 C 
HETATM   14  C19 UNL     1      23.707  13.275  63.337  1.00  0.00     0.017 C 
HETATM   15  C20 UNL     1      22.760  12.630  64.282  1.00  0.00     0.026 C 
ENDROOT
BRANCH  13  16
HETATM   16  C16 UNL     1      25.755  13.143  61.986  1.00  0.00     0.054 C 
HETATM   17  C17 UNL     1      26.818  12.162  61.477  1.00  0.00     0.045 C 
HETATM   18  C18 UNL     1      25.280  13.975  60.816  1.00  0.00     0.045 C 
BRANCH  16  19
HETATM   19  O4  UNL     1      26.407  13.956  62.911  1.00  0.00    -0.390 OA
ATOM     20  H4  UNL     1      26.906  13.443  63.538  1.00  0.00     0.210 HD
ENDBRANCH  16  19
ENDBRANCH  13  16
BRANCH   1  21
HETATM   21  O1  UNL     1      19.602  11.671  60.582  1.00  0.00    -0.353 OA
HETATM   22  C1  UNL     1      20.348  12.339  59.595  1.00  0.00     0.210 C 
ENDBRANCH   1  21
BRANCH   5  23
HETATM   23  O2  UNL     1      18.621  10.393  65.132  1.00  0.00    -0.352 OA
HETATM   24  C7  UNL     1      18.541   9.013  65.396  1.00  0.00     0.210 C 
ENDBRANCH   5  23
BRANCH   6  25
HETATM   25  O3  UNL     1      17.926  10.514  62.396  1.00  0.00    -0.351 OA
HETATM   26  C9  UNL     1      16.753  11.300  62.515  1.00  0.00     0.210 C 
ENDBRANCH   6  25
TORSDOF 5
ENDMDL
MODEL 5
REMARK VINA RESULT: -7.237122131      2.659      4.212
REMARK  5 active torsions:
REMARK  status: ('A' for Active; 'I' for Inactive)
REMARK    1  A    between atoms: O1_2  and  C2_3 
REMARK    2  A    between atoms: C6_7  and  O2_8 
REMARK    3  A    between atoms: C8_10  and  O3_11 
REMARK    4  A    between atoms: C15_19  and  C16_20 
REMARK    5  A    between atoms: C16_20  and  O4_23 
ROOT
HETATM    1  C2  UNL     1      23.972  11.506  63.776  1.00  0.00     0.104 A 
HETATM    2  C3  UNL     1      22.596  11.707  63.810  1.00  0.00     0.048 A 
HETATM    3  C4  UNL     1      22.045  12.713  63.072  1.00  0.00    -0.042 A 
HETATM    4  C5  UNL     1      22.875  13.529  62.291  1.00  0.00    -0.015 A 
HETATM    5  C6  UNL     1      24.238  13.354  62.238  1.00  0.00     0.111 A 
HETATM    6  C8  UNL     1      24.761  12.329  62.996  1.00  0.00     0.135 A 
HETATM    7  C10 UNL     1      22.211  14.603  61.506  1.00  0.00     0.042 C 
HETATM    8  C11 UNL     1      21.137  13.863  60.693  1.00  0.00     0.013 C 
HETATM    9  C12 UNL     1      20.210  13.084  61.545  1.00  0.00     0.028 C 
HETATM   10  C13 UNL     1      20.049  11.687  61.023  1.00  0.00     0.175 C 
HETATM   11  F1  UNL     1      19.877  11.692  59.662  1.00  0.00    -0.249 F 
HETATM   12  C14 UNL     1      18.865  11.083  61.750  1.00  0.00     0.045 C 
HETATM   13  C15 UNL     1      19.275  10.927  63.194  1.00  0.00     0.022 C 
HETATM   14  C19 UNL     1      19.712  12.201  63.832  1.00  0.00     0.017 C 
HETATM   15  C20 UNL     1      20.604  13.054  63.006  1.00  0.00     0.026 C 
ENDROOT
BRANCH  13  16
HETATM   16  C16 UNL     1      18.118  10.336  63.974  1.00  0.00     0.054 C 
HETATM   17  C17 UNL     1      16.835  11.073  63.575  1.00  0.00     0.045 C 
HETATM   18  C18 UNL     1      17.922   8.862  63.699  1.00  0.00     0.045 C 
BRANCH  16  19
HETATM   19  O4  UNL     1      18.262  10.548  65.344  1.00  0.00    -0.390 OA
ATOM     20  H4  UNL     1      18.412   9.734  65.810  1.00  0.00     0.210 HD
ENDBRANCH  16  19
ENDBRANCH  13  16
BRANCH   1  21
HETATM   21  O1  UNL     1      24.574  10.494  64.511  1.00  0.00    -0.353 OA
HETATM   22  C1  UNL     1      24.026   9.976  65.697  1.00  0.00     0.210 C 
ENDBRANCH   1  21
BRANCH   5  23
HETATM   23  O2  UNL     1      24.975  14.201  61.445  1.00  0.00    -0.352 OA
HETATM   24  C7  UNL     1      25.721  15.298  61.916  1.00  0.00     0.210 C 
ENDBRANCH   5  23
BRANCH   6  25
HETATM   25  O3  UNL     1      26.129  12.121  62.970  1.00  0.00    -0.351 OA
HETATM   26  C9  UNL     1      26.669  11.281  61.965  1.00  0.00     0.210 C 
ENDBRANCH   6  25
TORSDOF 5
ENDMDL
