MODEL 1
REMARK VINA RESULT: -7.837133391      0.000      0.000
REMARK  4 active torsions:
REMARK  status: ('A' for Active; 'I' for Inactive)
REMARK       I    between atoms: C1_2  and  N1_3 
REMARK    1  A    between atoms: C1_2  and  C8_11 
REMARK    2  A    between atoms: N1_3  and  C2_5 
REMARK    3  A    between atoms: C10_13  and  N2_14 
REMARK    4  A    between atoms: C18_23  and  N3_24 
ROOT
HETATM    1  C8  UNL     1      21.777  13.936  63.801  1.00  0.00     0.036 A 
HETATM    2  C9  UNL     1      20.563  13.299  63.661  1.00  0.00     0.049 A 
HETATM    3  C10 UNL     1      20.539  11.922  63.692  1.00  0.00     0.072 A 
HETATM    4  C17 UNL     1      21.680  11.165  63.857  1.00  0.00     0.175 A 
HETATM    5  F1  UNL     1      21.634   9.813  63.885  1.00  0.00    -0.201 F 
HETATM    6  C18 UNL     1      22.890  11.808  63.996  1.00  0.00     0.144 A 
HETATM    7  C19 UNL     1      22.930  13.212  63.967  1.00  0.00     0.056 A 
ENDROOT
BRANCH   1   8
HETATM    8  C1  UNL     1      21.788  15.389  63.772  1.00  0.00     0.252 C 
HETATM    9  O1  UNL     1      20.730  16.039  63.447  1.00  0.00    -0.268 OA
HETATM   10  N1  UNL     1      22.920  16.184  64.085  1.00  0.00    -0.352 N 
ATOM     11  H1  UNL     1      23.793  15.730  64.350  1.00  0.00     0.163 HD
BRANCH  10  12
HETATM   12  C2  UNL     1      22.855  17.641  64.036  1.00  0.00     0.084 C 
HETATM   13  C3  UNL     1      24.033  18.235  63.296  1.00  0.00     0.025 C 
HETATM   14  C4  UNL     1      25.127  18.456  64.313  1.00  0.00     0.002 C 
HETATM   15  C5  UNL     1      24.774  19.667  65.157  1.00  0.00     0.000 C 
HETATM   16  C6  UNL     1      23.353  19.526  65.628  1.00  0.00     0.002 C 
HETATM   17  C7  UNL     1      22.831  18.121  65.454  1.00  0.00     0.025 C 
ENDBRANCH  10  12
ENDBRANCH   1   8
BRANCH   3  18
HETATM   18  N2  UNL     1      19.312  11.209  63.554  1.00  0.00    -0.378 N 
HETATM   19  C11 UNL     1      18.733  10.582  64.727  1.00  0.00     0.123 C 
HETATM   20  C12 UNL     1      18.360   9.176  64.371  1.00  0.00     0.020 C 
HETATM   21  C13 UNL     1      16.925   9.201  63.862  1.00  0.00     0.002 C 
HETATM   22  C14 UNL     1      16.872   9.583  62.396  1.00  0.00     0.002 C 
HETATM   23  C15 UNL     1      17.277  11.016  62.174  1.00  0.00     0.020 C 
HETATM   24  C16 UNL     1      18.777  11.200  62.206  1.00  0.00     0.123 C 
ENDBRANCH   3  18
BRANCH   6  25
HETATM   25  N3  UNL     1      24.072  11.047  64.167  1.00  0.00    -0.112 N 
HETATM   26  O2  UNL     1      24.962  11.042  63.312  1.00  0.00    -0.532 OA
HETATM   27  O3  UNL     1      24.233  10.304  65.302  1.00  0.00    -0.532 OA
ENDBRANCH   6  25
TORSDOF 4
ENDMDL
MODEL 2
REMARK VINA RESULT: -7.814017270      1.640      7.696
REMARK  4 active torsions:
REMARK  status: ('A' for Active; 'I' for Inactive)
REMARK       I    between atoms: C1_2  and  N1_3 
REMARK    1  A    between atoms: C1_2  and  C8_11 
REMARK    2  A    between atoms: N1_3  and  C2_5 
REMARK    3  A    between atoms: C10_13  and  N2_14 
REMARK    4  A    between atoms: C18_23  and  N3_24 
ROOT
HETATM    1  C8  UNL     1      21.657  12.621  63.833  1.00  0.00     0.036 A 
HETATM    2  C9  UNL     1      22.060  13.936  63.939  1.00  0.00     0.049 A 
HETATM    3  C10 UNL     1      23.408  14.201  64.032  1.00  0.00     0.072 A 
HETATM    4  C17 UNL     1      24.361  13.205  64.024  1.00  0.00     0.175 A 
HETATM    5  F1  UNL     1      25.681  13.487  64.117  1.00  0.00    -0.201 F 
HETATM    6  C18 UNL     1      23.952  11.894  63.918  1.00  0.00     0.144 A 
HETATM    7  C19 UNL     1      22.580  11.608  63.821  1.00  0.00     0.056 A 
ENDROOT
BRANCH   1   8
HETATM    8  C1  UNL     1      20.232  12.355  63.730  1.00  0.00     0.252 C 
HETATM    9  O1  UNL     1      19.436  13.253  63.273  1.00  0.00    -0.268 OA
HETATM   10  N1  UNL     1      19.619  11.134  64.108  1.00  0.00    -0.352 N 
ATOM     11  H1  UNL     1      20.195  10.379  64.481  1.00  0.00     0.163 HD
BRANCH  10  12
HETATM   12  C2  UNL     1      18.180  10.938  63.975  1.00  0.00     0.084 C 
HETATM   13  C3  UNL     1      17.660   9.887  64.929  1.00  0.00     0.025 C 
HETATM   14  C4  UNL     1      17.766   8.557  64.222  1.00  0.00     0.002 C 
HETATM   15  C5  UNL     1      16.663   8.464  63.184  1.00  0.00     0.000 C 
HETATM   16  C6  UNL     1      16.662   9.729  62.370  1.00  0.00     0.002 C 
HETATM   17  C7  UNL     1      17.929  10.527  62.556  1.00  0.00     0.025 C 
ENDBRANCH  10  12
ENDBRANCH   1   8
BRANCH   3  18
HETATM   18  N2  UNL     1      23.883  15.541  64.143  1.00  0.00    -0.378 N 
HETATM   19  C11 UNL     1      24.007  16.130  65.463  1.00  0.00     0.123 C 
HETATM   20  C12 UNL     1      23.369  17.485  65.434  1.00  0.00     0.020 C 
HETATM   21  C13 UNL     1      24.449  18.487  65.050  1.00  0.00     0.002 C 
HETATM   22  C14 UNL     1      24.631  18.544  63.546  1.00  0.00     0.002 C 
HETATM   23  C15 UNL     1      25.222  17.270  63.004  1.00  0.00     0.020 C 
HETATM   24  C16 UNL     1      24.193  16.170  62.875  1.00  0.00     0.123 C 
ENDBRANCH   3  18
BRANCH   6  25
HETATM   25  N3  UNL     1      24.916  10.857  63.906  1.00  0.00    -0.112 N 
HETATM   26  O2  UNL     1      24.946   9.997  64.791  1.00  0.00    -0.532 OA
HETATM   27  O3  UNL     1      25.834  10.805  62.895  1.00  0.00    -0.532 OA
ENDBRANCH   6  25
TORSDOF 4
ENDMDL
MODEL 3
REMARK VINA RESULT: -7.797218675      0.865      1.619
REMARK  4 active torsions:
REMARK  status: ('A' for Active; 'I' for Inactive)
REMARK       I    between atoms: C1_2  and  N1_3 
REMARK    1  A    between atoms: C1_2  and  C8_11 
REMARK    2  A    between atoms: N1_3  and  C2_5 
REMARK    3  A    between atoms: C10_13  and  N2_14 
REMARK    4  A    between atoms: C18_23  and  N3_24 
ROOT
HETATM    1  C8  UNL     1      22.418  13.655  63.850  1.00  0.00     0.036 A 
HETATM    2  C9  UNL     1      21.258  12.915  63.944  1.00  0.00     0.049 A 
HETATM    3  C10 UNL     1      21.361  11.544  64.026  1.00  0.00     0.072 A 
HETATM    4  C17 UNL     1      22.575  10.891  64.016  1.00  0.00     0.175 A 
HETATM    5  F1  UNL     1      22.654   9.543  64.098  1.00  0.00    -0.201 F 
HETATM    6  C18 UNL     1      23.730  11.636  63.922  1.00  0.00     0.144 A 
HETATM    7  C19 UNL     1      23.641  13.036  63.839  1.00  0.00     0.056 A 
ENDROOT
BRANCH   1   8
HETATM    8  C1  UNL     1      22.296  15.101  63.770  1.00  0.00     0.252 C 
HETATM    9  O1  UNL     1      21.241  15.636  63.271  1.00  0.00    -0.268 OA
HETATM   10  N1  UNL     1      23.287  16.011  64.217  1.00  0.00    -0.352 N 
ATOM     11  H1  UNL     1      24.151  15.650  64.623  1.00  0.00     0.163 HD
BRANCH  10  12
HETATM   12  C2  UNL     1      23.094  17.452  64.106  1.00  0.00     0.084 C 
HETATM   13  C3  UNL     1      24.259  18.129  63.418  1.00  0.00     0.025 C 
HETATM   14  C4  UNL     1      25.259  18.486  64.493  1.00  0.00     0.002 C 
HETATM   15  C5  UNL     1      24.742  19.686  65.264  1.00  0.00     0.000 C 
HETATM   16  C6  UNL     1      23.311  19.429  65.650  1.00  0.00     0.002 C 
HETATM   17  C7  UNL     1      22.933  17.976  65.499  1.00  0.00     0.025 C 
ENDBRANCH  10  12
ENDBRANCH   1   8
BRANCH   3  18
HETATM   18  N2  UNL     1      20.196  10.729  64.125  1.00  0.00    -0.378 N 
HETATM   19  C11 UNL     1      19.553  10.279  62.905  1.00  0.00     0.123 C 
HETATM   20  C12 UNL     1      18.083  10.543  63.024  1.00  0.00     0.020 C 
HETATM   21  C13 UNL     1      17.447   9.303  63.638  1.00  0.00     0.002 C 
HETATM   22  C14 UNL     1      17.569   9.319  65.149  1.00  0.00     0.002 C 
HETATM   23  C15 UNL     1      18.997   9.157  65.599  1.00  0.00     0.020 C 
HETATM   24  C16 UNL     1      19.783  10.443  65.485  1.00  0.00     0.123 C 
ENDBRANCH   3  18
BRANCH   6  25
HETATM   25  N3  UNL     1      24.987  10.983  63.912  1.00  0.00    -0.112 N 
HETATM   26  O2  UNL     1      25.395  10.359  64.896  1.00  0.00    -0.532 OA
HETATM   27  O3  UNL     1      25.765  11.043  62.791  1.00  0.00    -0.532 OA
ENDBRANCH   6  25
TORSDOF 4
ENDMDL
MODEL 4
REMARK VINA RESULT: -7.663565743      1.643      7.771
REMARK  4 active torsions:
REMARK  status: ('A' for Active; 'I' for Inactive)
REMARK       I    between atoms: C1_2  and  N1_3 
REMARK    1  A    between atoms: C1_2  and  C8_11 
REMARK    2  A    between atoms: N1_3  and  C2_5 
REMARK    3  A    between atoms: C10_13  and  N2_14 
REMARK    4  A    between atoms: C18_23  and  N3_24 
ROOT
HETATM    1  C8  UNL     1      21.580  12.608  63.737  1.00  0.00     0.036 A 
HETATM    2  C9  UNL     1      21.961  13.933  63.771  1.00  0.00     0.049 A 
HETATM    3  C10 UNL     1      23.306  14.225  63.824  1.00  0.00     0.072 A 
HETATM    4  C17 UNL     1      24.277  13.247  63.845  1.00  0.00     0.175 A 
HETATM    5  F1  UNL     1      25.592  13.557  63.898  1.00  0.00    -0.201 F 
HETATM    6  C18 UNL     1      23.890  11.925  63.811  1.00  0.00     0.144 A 
HETATM    7  C19 UNL     1      22.521  11.611  63.755  1.00  0.00     0.056 A 
ENDROOT
BRANCH   1   8
HETATM    8  C1  UNL     1      20.159  12.312  63.675  1.00  0.00     0.252 C 
HETATM    9  O1  UNL     1      19.335  13.182  63.213  1.00  0.00    -0.268 OA
HETATM   10  N1  UNL     1      19.579  11.091  64.101  1.00  0.00    -0.352 N 
ATOM     11  H1  UNL     1      20.178  10.357  64.480  1.00  0.00     0.163 HD
BRANCH  10  12
HETATM   12  C2  UNL     1      18.141  10.864  64.007  1.00  0.00     0.084 C 
HETATM   13  C3  UNL     1      17.679   9.764  64.936  1.00  0.00     0.025 C 
HETATM   14  C4  UNL     1      17.793   8.465  64.173  1.00  0.00     0.002 C 
HETATM   15  C5  UNL     1      16.658   8.386  63.169  1.00  0.00     0.000 C 
HETATM   16  C6  UNL     1      16.599   9.681  62.406  1.00  0.00     0.002 C 
HETATM   17  C7  UNL     1      17.853  10.503  62.583  1.00  0.00     0.025 C 
ENDBRANCH  10  12
ENDBRANCH   1   8
BRANCH   3  18
HETATM   18  N2  UNL     1      23.758  15.577  63.861  1.00  0.00    -0.378 N 
HETATM   19  C11 UNL     1      24.083  16.238  62.611  1.00  0.00     0.123 C 
HETATM   20  C12 UNL     1      25.416  16.905  62.766  1.00  0.00     0.020 C 
HETATM   21  C13 UNL     1      25.161  18.318  63.272  1.00  0.00     0.002 C 
HETATM   22  C14 UNL     1      24.981  18.335  64.778  1.00  0.00     0.002 C 
HETATM   23  C15 UNL     1      23.709  17.648  65.199  1.00  0.00     0.020 C 
HETATM   24  C16 UNL     1      23.840  16.143  65.193  1.00  0.00     0.123 C 
ENDBRANCH   3  18
BRANCH   6  25
HETATM   25  N3  UNL     1      24.873  10.906  63.830  1.00  0.00    -0.112 N 
HETATM   26  O2  UNL     1      25.714  10.807  62.933  1.00  0.00    -0.532 OA
HETATM   27  O3  UNL     1      24.892  10.013  64.864  1.00  0.00    -0.532 OA
ENDBRANCH   6  25
TORSDOF 4
ENDMDL
MODEL 5
REMARK VINA RESULT: -7.541529999      2.543      7.445
REMARK  4 active torsions:
REMARK  status: ('A' for Active; 'I' for Inactive)
REMARK       I    between atoms: C1_2  and  N1_3 
REMARK    1  A    between atoms: C1_2  and  C8_11 
REMARK    2  A    between atoms: N1_3  and  C2_5 
REMARK    3  A    between atoms: C10_13  and  N2_14 
REMARK    4  A    between atoms: C18_23  and  N3_24 
ROOT
HETATM    1  C8  UNL     1      22.984  12.622  64.919  1.00  0.00     0.036 A 
HETATM    2  C9  UNL     1      22.702  13.802  64.265  1.00  0.00     0.049 A 
HETATM    3  C10 UNL     1      23.506  14.894  64.510  1.00  0.00     0.072 A 
HETATM    4  C17 UNL     1      24.574  14.847  65.380  1.00  0.00     0.175 A 
HETATM    5  F1  UNL     1      25.350  15.931  65.606  1.00  0.00    -0.201 F 
HETATM    6  C18 UNL     1      24.850  13.664  66.030  1.00  0.00     0.144 A 
HETATM    7  C19 UNL     1      24.040  12.542  65.790  1.00  0.00     0.056 A 
ENDROOT
BRANCH   1   8
HETATM    8  C1  UNL     1      22.132  11.476  64.648  1.00  0.00     0.252 C 
HETATM    9  O1  UNL     1      22.618  10.288  64.667  1.00  0.00    -0.268 OA
HETATM   10  N1  UNL     1      20.749  11.563  64.349  1.00  0.00    -0.352 N 
ATOM     11  H1  UNL     1      20.301  12.479  64.317  1.00  0.00     0.163 HD
BRANCH  10  12
HETATM   12  C2  UNL     1      19.956  10.367  64.088  1.00  0.00     0.084 C 
HETATM   13  C3  UNL     1      19.692  10.173  62.612  1.00  0.00     0.025 C 
HETATM   14  C4  UNL     1      18.418  10.919  62.290  1.00  0.00     0.002 C 
HETATM   15  C5  UNL     1      17.239  10.127  62.822  1.00  0.00     0.000 C 
HETATM   16  C6  UNL     1      17.522   9.743  64.248  1.00  0.00     0.002 C 
HETATM   17  C7  UNL     1      18.667  10.532  64.834  1.00  0.00     0.025 C 
ENDBRANCH  10  12
ENDBRANCH   1   8
BRANCH   3  18
HETATM   18  N2  UNL     1      23.262  16.140  63.862  1.00  0.00    -0.378 N 
HETATM   19  C11 UNL     1      22.403  17.109  64.514  1.00  0.00     0.123 C 
HETATM   20  C12 UNL     1      21.406  17.604  63.511  1.00  0.00     0.020 C 
HETATM   21  C13 UNL     1      22.012  18.824  62.831  1.00  0.00     0.002 C 
HETATM   22  C14 UNL     1      22.940  18.416  61.703  1.00  0.00     0.002 C 
HETATM   23  C15 UNL     1      24.179  17.731  62.216  1.00  0.00     0.020 C 
HETATM   24  C16 UNL     1      23.927  16.287  62.582  1.00  0.00     0.123 C 
ENDBRANCH   3  18
BRANCH   6  25
HETATM   25  N3  UNL     1      25.944  13.597  66.927  1.00  0.00    -0.112 N 
HETATM   26  O2  UNL     1      25.777  13.645  68.149  1.00  0.00    -0.532 OA
HETATM   27  O3  UNL     1      27.211  13.474  66.432  1.00  0.00    -0.532 OA
ENDBRANCH   6  25
TORSDOF 4
ENDMDL
