MODEL 1
REMARK VINA RESULT: -5.733079685      0.000      0.000
REMARK  4 active torsions:
REMARK  status: ('A' for Active; 'I' for Inactive)
REMARK    1  A    between atoms: C6_7  and  O2_8 
REMARK    2  A    between atoms: C6_7  and  C7_10 
REMARK    3  A    between atoms: C7_10  and  C8_11 
REMARK    4  A    between atoms: C10_13  and  O3_14 
ROOT
HETATM    1  C1  UNL     1      22.855   4.526  12.077  1.00  0.00     0.042 C 
HETATM    2  C2  UNL     1      23.799   5.661  12.354  1.00  0.00     0.156 C 
HETATM    3  O1  UNL     1      23.708   6.753  11.515  1.00  0.00    -0.370 OA
HETATM    4  C3  UNL     1      23.141   7.520  12.534  1.00  0.00     0.087 C 
HETATM    5  C4  UNL     1      23.761   8.871  12.680  1.00  0.00     0.049 C 
HETATM    6  C5  UNL     1      21.644   7.678  12.243  1.00  0.00     0.049 C 
HETATM    7  C6  UNL     1      23.469   6.495  13.563  1.00  0.00     0.116 C 
ENDROOT
BRANCH   7   8
HETATM    8  O2  UNL     1      22.384   6.009  14.293  1.00  0.00    -0.384 OA
ATOM      9  H2  UNL     1      21.682   6.641  14.393  1.00  0.00     0.210 HD
ENDBRANCH   7   8
BRANCH   7  10
HETATM   10  C7  UNL     1      24.671   6.715  14.409  1.00  0.00     0.075 C 
BRANCH  10  11
HETATM   11  C8  UNL     1      24.366   6.847  15.879  1.00  0.00     0.130 C 
HETATM   12  C9  UNL     1      25.173   7.983  16.473  1.00  0.00     0.069 C 
HETATM   13  C10 UNL     1      25.665   7.354  17.783  1.00  0.00     0.180 C 
HETATM   14  C11 UNL     1      24.669   6.206  17.918  1.00  0.00     0.336 C 
HETATM   15  F1  UNL     1      25.073   5.270  18.823  1.00  0.00    -0.217 F 
HETATM   16  O4  UNL     1      24.661   5.718  16.602  1.00  0.00    -0.349 OA
BRANCH  13  17
HETATM   17  O3  UNL     1      25.560   8.261  18.819  1.00  0.00    -0.390 OA
ATOM     18  H3  UNL     1      26.287   8.158  19.422  1.00  0.00     0.210 HD
ENDBRANCH  13  17
ENDBRANCH  10  11
ENDBRANCH   7  10
TORSDOF 4
ENDMDL
MODEL 2
REMARK VINA RESULT: -5.674773399      4.110      6.651
REMARK  4 active torsions:
REMARK  status: ('A' for Active; 'I' for Inactive)
REMARK    1  A    between atoms: C6_7  and  O2_8 
REMARK    2  A    between atoms: C6_7  and  C7_10 
REMARK    3  A    between atoms: C7_10  and  C8_11 
REMARK    4  A    between atoms: C10_13  and  O3_14 
ROOT
HETATM    1  C1  UNL     1      24.893   5.806  13.432  1.00  0.00     0.042 C 
HETATM    2  C2  UNL     1      23.841   5.713  12.363  1.00  0.00     0.156 C 
HETATM    3  O1  UNL     1      22.561   5.418  12.787  1.00  0.00    -0.370 OA
HETATM    4  C3  UNL     1      22.141   6.719  12.508  1.00  0.00     0.087 C 
HETATM    5  C4  UNL     1      20.861   6.784  11.742  1.00  0.00     0.049 C 
HETATM    6  C5  UNL     1      21.975   7.468  13.836  1.00  0.00     0.049 C 
HETATM    7  C6  UNL     1      23.400   7.028  11.775  1.00  0.00     0.116 C 
ENDROOT
BRANCH   7   8
HETATM    8  O2  UNL     1      24.122   8.120  12.255  1.00  0.00    -0.384 OA
ATOM      9  H2  UNL     1      23.740   8.514  13.031  1.00  0.00     0.210 HD
ENDBRANCH   7   8
BRANCH   7  10
HETATM   10  C7  UNL     1      23.375   6.970  10.290  1.00  0.00     0.075 C 
BRANCH  10  11
HETATM   11  C8  UNL     1      24.064   8.133   9.624  1.00  0.00     0.130 C 
HETATM   12  C9  UNL     1      23.715   8.165   8.150  1.00  0.00     0.069 C 
HETATM   13  C10 UNL     1      25.084   8.446   7.519  1.00  0.00     0.180 C 
HETATM   14  C11 UNL     1      25.828   9.001   8.731  1.00  0.00     0.336 C 
HETATM   15  F1  UNL     1      27.179   9.026   8.546  1.00  0.00    -0.217 F 
HETATM   16  O4  UNL     1      25.433   8.081   9.715  1.00  0.00    -0.349 OA
BRANCH  13  17
HETATM   17  O3  UNL     1      24.964   9.379   6.508  1.00  0.00    -0.390 OA
ATOM     18  H3  UNL     1      24.948   8.948   5.661  1.00  0.00     0.210 HD
ENDBRANCH  13  17
ENDBRANCH  10  11
ENDBRANCH   7  10
TORSDOF 4
ENDMDL
MODEL 3
REMARK VINA RESULT: -5.559565718      2.434      3.553
REMARK  4 active torsions:
REMARK  status: ('A' for Active; 'I' for Inactive)
REMARK    1  A    between atoms: C6_7  and  O2_8 
REMARK    2  A    between atoms: C6_7  and  C7_10 
REMARK    3  A    between atoms: C7_10  and  C8_11 
REMARK    4  A    between atoms: C10_13  and  O3_14 
ROOT
HETATM    1  C1  UNL     1      19.464   7.262  11.535  1.00  0.00     0.042 C 
HETATM    2  C2  UNL     1      20.300   6.258  12.276  1.00  0.00     0.156 C 
HETATM    3  O1  UNL     1      20.388   5.000  11.715  1.00  0.00    -0.370 OA
HETATM    4  C3  UNL     1      21.718   5.226  11.355  1.00  0.00     0.087 C 
HETATM    5  C4  UNL     1      22.633   4.101  11.711  1.00  0.00     0.049 C 
HETATM    6  C5  UNL     1      21.774   5.465   9.841  1.00  0.00     0.049 C 
HETATM    7  C6  UNL     1      21.790   6.462  12.182  1.00  0.00     0.116 C 
ENDROOT
BRANCH   7   8
HETATM    8  O2  UNL     1      22.147   7.623  11.496  1.00  0.00    -0.384 OA
ATOM      9  H2  UNL     1      22.454   8.318  12.066  1.00  0.00     0.210 HD
ENDBRANCH   7   8
BRANCH   7  10
HETATM   10  C7  UNL     1      22.430   6.371  13.519  1.00  0.00     0.075 C 
BRANCH  10  11
HETATM   11  C8  UNL     1      23.626   7.273  13.685  1.00  0.00     0.130 C 
HETATM   12  C9  UNL     1      24.846   6.451  14.046  1.00  0.00     0.069 C 
HETATM   13  C10 UNL     1      25.466   7.300  15.163  1.00  0.00     0.180 C 
HETATM   14  C11 UNL     1      24.787   8.639  14.888  1.00  0.00     0.336 C 
HETATM   15  F1  UNL     1      24.897   9.503  15.937  1.00  0.00    -0.217 F 
HETATM   16  O4  UNL     1      23.467   8.216  14.670  1.00  0.00    -0.349 OA
BRANCH  13  17
HETATM   17  O3  UNL     1      26.837   7.367  15.009  1.00  0.00    -0.390 OA
ATOM     18  H3  UNL     1      27.227   6.513  15.152  1.00  0.00     0.210 HD
ENDBRANCH  13  17
ENDBRANCH  10  11
ENDBRANCH   7  10
TORSDOF 4
ENDMDL
MODEL 4
REMARK VINA RESULT: -5.555219616      5.902      8.384
REMARK  4 active torsions:
REMARK  status: ('A' for Active; 'I' for Inactive)
REMARK    1  A    between atoms: C6_7  and  O2_8 
REMARK    2  A    between atoms: C6_7  and  C7_10 
REMARK    3  A    between atoms: C7_10  and  C8_11 
REMARK    4  A    between atoms: C10_13  and  O3_14 
ROOT
HETATM    1  C1  UNL     1      23.415   6.370  10.781  1.00  0.00     0.042 C 
HETATM    2  C2  UNL     1      22.594   6.385   9.523  1.00  0.00     0.156 C 
HETATM    3  O1  UNL     1      21.233   6.211   9.676  1.00  0.00    -0.370 OA
HETATM    4  C3  UNL     1      21.001   7.549   9.353  1.00  0.00     0.087 C 
HETATM    5  C4  UNL     1      19.911   7.741   8.350  1.00  0.00     0.049 C 
HETATM    6  C5  UNL     1      20.643   8.302  10.641  1.00  0.00     0.049 C 
HETATM    7  C6  UNL     1      22.404   7.740   8.892  1.00  0.00     0.116 C 
ENDROOT
BRANCH   7   8
HETATM    8  O2  UNL     1      23.114   8.754   9.534  1.00  0.00    -0.384 OA
ATOM      9  H2  UNL     1      23.638   9.281   8.942  1.00  0.00     0.210 HD
ENDBRANCH   7   8
BRANCH   7  10
HETATM   10  C7  UNL     1      22.671   7.694   7.431  1.00  0.00     0.075 C 
BRANCH  10  11
HETATM   11  C8  UNL     1      23.870   8.502   7.006  1.00  0.00     0.130 C 
HETATM   12  C9  UNL     1      24.061   8.393   5.507  1.00  0.00     0.069 C 
HETATM   13  C10 UNL     1      25.577   8.185   5.408  1.00  0.00     0.180 C 
HETATM   14  C11 UNL     1      26.008   8.701   6.778  1.00  0.00     0.336 C 
HETATM   15  F1  UNL     1      27.279   8.327   7.100  1.00  0.00    -0.217 F 
HETATM   16  O4  UNL     1      25.041   8.094   7.594  1.00  0.00    -0.349 OA
BRANCH  13  17
HETATM   17  O3  UNL     1      26.099   8.942   4.377  1.00  0.00    -0.390 OA
ATOM     18  H3  UNL     1      26.995   8.684   4.199  1.00  0.00     0.210 HD
ENDBRANCH  13  17
ENDBRANCH  10  11
ENDBRANCH   7  10
TORSDOF 4
ENDMDL
MODEL 5
REMARK VINA RESULT: -5.507277601      5.310      8.077
REMARK  4 active torsions:
REMARK  status: ('A' for Active; 'I' for Inactive)
REMARK    1  A    between atoms: C6_7  and  O2_8 
REMARK    2  A    between atoms: C6_7  and  C7_10 
REMARK    3  A    between atoms: C7_10  and  C8_11 
REMARK    4  A    between atoms: C10_13  and  O3_14 
ROOT
HETATM    1  C1  UNL     1      24.078   6.045  11.992  1.00  0.00     0.042 C 
HETATM    2  C2  UNL     1      23.032   6.668  11.112  1.00  0.00     0.156 C 
HETATM    3  O1  UNL     1      22.065   7.421  11.748  1.00  0.00    -0.370 OA
HETATM    4  C3  UNL     1      22.610   8.599  11.235  1.00  0.00     0.087 C 
HETATM    5  C4  UNL     1      21.593   9.518  10.640  1.00  0.00     0.049 C 
HETATM    6  C5  UNL     1      23.346   9.324  12.368  1.00  0.00     0.049 C 
HETATM    7  C6  UNL     1      23.493   7.850  10.300  1.00  0.00     0.116 C 
ENDROOT
BRANCH   7   8
HETATM    8  O2  UNL     1      24.858   8.110  10.425  1.00  0.00    -0.384 OA
ATOM      9  H2  UNL     1      25.177   8.032  11.316  1.00  0.00     0.210 HD
ENDBRANCH   7   8
BRANCH   7  10
HETATM   10  C7  UNL     1      23.065   7.727   8.883  1.00  0.00     0.075 C 
BRANCH  10  11
HETATM   11  C8  UNL     1      23.876   8.563   7.926  1.00  0.00     0.130 C 
HETATM   12  C9  UNL     1      23.007   9.016   6.771  1.00  0.00     0.069 C 
HETATM   13  C10 UNL     1      23.936   8.771   5.576  1.00  0.00     0.180 C 
HETATM   14  C11 UNL     1      25.282   8.705   6.293  1.00  0.00     0.336 C 
HETATM   15  F1  UNL     1      26.261   8.161   5.515  1.00  0.00    -0.217 F 
HETATM   16  O4  UNL     1      24.947   7.893   7.389  1.00  0.00    -0.349 OA
BRANCH  13  17
HETATM   17  O3  UNL     1      23.868   9.828   4.690  1.00  0.00    -0.390 OA
ATOM     18  H3  UNL     1      24.733  10.190   4.541  1.00  0.00     0.210 HD
ENDBRANCH  13  17
ENDBRANCH  10  11
ENDBRANCH   7  10
TORSDOF 4
ENDMDL
