MODEL 1
REMARK VINA RESULT: -6.210207011      0.000      0.000
REMARK  6 active torsions:
REMARK  status: ('A' for Active; 'I' for Inactive)
REMARK    1  A    between atoms: C2_2  and  O1_3 
REMARK    2  A    between atoms: C2_2  and  N1_6 
REMARK    3  A    between atoms: N1_6  and  C3_8 
REMARK    4  A    between atoms: C3_8  and  N2_10 
REMARK    5  A    between atoms: N2_10  and  N3_12 
REMARK    6  A    between atoms: C4_14  and  C5_15 
ROOT
HETATM    1  N2  UNL     1      25.587   6.496  14.432  1.00  0.00    -0.277 N 
ATOM      2  H2  UNL     1      26.541   6.135  14.410  1.00  0.00     0.189 HD
ENDROOT
BRANCH   1   3
HETATM    3  C3  UNL     1      25.229   7.489  15.358  1.00  0.00     0.190 C 
HETATM    4  S1  UNL     1      24.603   8.891  14.836  1.00  0.00    -0.039 SA
BRANCH   3   5
HETATM    5  N1  UNL     1      25.406   7.282  16.739  1.00  0.00    -0.308 N 
ATOM      6  H1  UNL     1      26.100   7.846  17.230  1.00  0.00     0.167 HD
BRANCH   5   7
HETATM    7  C2  UNL     1      24.650   6.307  17.500  1.00  0.00     0.282 C 
HETATM    8  C1  UNL     1      25.266   5.987  18.822  1.00  0.00     0.111 C 
HETATM    9  F1  UNL     1      23.364   6.784  17.643  1.00  0.00    -0.188 F 
BRANCH   7  10
HETATM   10  O1  UNL     1      24.590   5.153  16.688  1.00  0.00    -0.345 OA
ATOM     11  H1  UNL     1      24.882   4.389  17.171  1.00  0.00     0.215 HD
ENDBRANCH   7  10
ENDBRANCH   5   7
ENDBRANCH   3   5
ENDBRANCH   1   3
BRANCH   1  12
HETATM   12  N3  UNL     1      24.642   6.012  13.552  1.00  0.00    -0.308 N 
HETATM   13  C4  UNL     1      24.531   6.304  12.328  1.00  0.00     0.136 C 
ATOM     14  H3  UNL     1      23.962   5.350  13.927  1.00  0.00     0.186 HD
BRANCH  13  15
HETATM   15  C5  UNL     1      23.480   5.712  11.524  1.00  0.00     0.049 A 
HETATM   16  C6  UNL     1      22.805   4.560  11.920  1.00  0.00     0.031 A 
HETATM   17  C7  UNL     1      21.806   4.004  11.149  1.00  0.00     0.004 A 
HETATM   18  C8  UNL     1      21.482   4.605   9.974  1.00  0.00     0.017 A 
HETATM   19  C9  UNL     1      22.147   5.731   9.594  1.00  0.00     0.088 A 
HETATM   20  N4  UNL     1      23.103   6.257  10.340  1.00  0.00    -0.365 N 
ATOM     21  H4  UNL     1      23.574   7.102  10.015  1.00  0.00     0.165 HD
ENDBRANCH  13  15
ENDBRANCH   1  12
TORSDOF 6
ENDMDL
MODEL 2
REMARK VINA RESULT: -6.204190847      2.045      2.576
REMARK  6 active torsions:
REMARK  status: ('A' for Active; 'I' for Inactive)
REMARK    1  A    between atoms: C2_2  and  O1_3 
REMARK    2  A    between atoms: C2_2  and  N1_6 
REMARK    3  A    between atoms: N1_6  and  C3_8 
REMARK    4  A    between atoms: C3_8  and  N2_10 
REMARK    5  A    between atoms: N2_10  and  N3_12 
REMARK    6  A    between atoms: C4_14  and  C5_15 
ROOT
HETATM    1  N2  UNL     1      24.853   5.743  15.537  1.00  0.00    -0.277 N 
ATOM      2  H2  UNL     1      25.648   5.127  15.706  1.00  0.00     0.189 HD
ENDROOT
BRANCH   1   3
HETATM    3  C3  UNL     1      24.472   6.686  16.505  1.00  0.00     0.190 C 
HETATM    4  S1  UNL     1      24.673   6.352  18.079  1.00  0.00    -0.039 SA
BRANCH   3   5
HETATM    5  N1  UNL     1      23.916   7.923  16.125  1.00  0.00    -0.308 N 
ATOM      6  H1  UNL     1      22.935   8.100  16.342  1.00  0.00     0.167 HD
BRANCH   5   7
HETATM    7  C2  UNL     1      24.669   8.956  15.443  1.00  0.00     0.282 C 
HETATM    8  C1  UNL     1      23.972   9.488  14.234  1.00  0.00     0.111 C 
HETATM    9  F1  UNL     1      24.938   9.957  16.353  1.00  0.00    -0.188 F 
BRANCH   7  10
HETATM   10  O1  UNL     1      25.898   8.360  15.086  1.00  0.00    -0.345 OA
ATOM     11  H1  UNL     1      26.106   7.644  15.675  1.00  0.00     0.215 HD
ENDBRANCH   7  10
ENDBRANCH   5   7
ENDBRANCH   3   5
ENDBRANCH   1   3
BRANCH   1  12
HETATM   12  N3  UNL     1      24.145   5.654  14.356  1.00  0.00    -0.308 N 
HETATM   13  C4  UNL     1      24.607   5.790  13.188  1.00  0.00     0.136 C 
ATOM     14  H3  UNL     1      23.147   5.459  14.434  1.00  0.00     0.186 HD
BRANCH  13  15
HETATM   15  C5  UNL     1      23.736   5.668  12.036  1.00  0.00     0.049 A 
HETATM   16  C6  UNL     1      22.811   4.634  11.912  1.00  0.00     0.031 A 
HETATM   17  C7  UNL     1      21.986   4.526  10.813  1.00  0.00     0.004 A 
HETATM   18  C8  UNL     1      22.087   5.460   9.831  1.00  0.00     0.017 A 
HETATM   19  C9  UNL     1      22.994   6.469   9.959  1.00  0.00     0.088 A 
HETATM   20  N4  UNL     1      23.781   6.563  11.018  1.00  0.00    -0.365 N 
ATOM     21  H4  UNL     1      24.444   7.336  11.071  1.00  0.00     0.165 HD
ENDBRANCH  13  15
ENDBRANCH   1  12
TORSDOF 6
ENDMDL
MODEL 3
REMARK VINA RESULT: -6.171768726      2.190      2.840
REMARK  6 active torsions:
REMARK  status: ('A' for Active; 'I' for Inactive)
REMARK    1  A    between atoms: C2_2  and  O1_3 
REMARK    2  A    between atoms: C2_2  and  N1_6 
REMARK    3  A    between atoms: N1_6  and  C3_8 
REMARK    4  A    between atoms: C3_8  and  N2_10 
REMARK    5  A    between atoms: N2_10  and  N3_12 
REMARK    6  A    between atoms: C4_14  and  C5_15 
ROOT
HETATM    1  N2  UNL     1      24.888   5.810  15.942  1.00  0.00    -0.277 N 
ATOM      2  H2  UNL     1      25.700   5.221  16.131  1.00  0.00     0.189 HD
ENDROOT
BRANCH   1   3
HETATM    3  C3  UNL     1      24.467   6.757  16.888  1.00  0.00     0.190 C 
HETATM    4  S1  UNL     1      24.622   6.440  18.471  1.00  0.00    -0.039 SA
BRANCH   3   5
HETATM    5  N1  UNL     1      23.912   7.985  16.479  1.00  0.00    -0.308 N 
ATOM      6  H1  UNL     1      22.936   8.175  16.708  1.00  0.00     0.167 HD
BRANCH   5   7
HETATM    7  C2  UNL     1      24.658   8.991  15.751  1.00  0.00     0.282 C 
HETATM    8  C1  UNL     1      23.991   9.413  14.483  1.00  0.00     0.111 C 
HETATM    9  F1  UNL     1      24.863  10.062  16.596  1.00  0.00    -0.188 F 
BRANCH   7  10
HETATM   10  O1  UNL     1      25.917   8.412  15.481  1.00  0.00    -0.345 OA
ATOM     11  H1  UNL     1      26.431   8.978  14.917  1.00  0.00     0.215 HD
ENDBRANCH   7  10
ENDBRANCH   5   7
ENDBRANCH   3   5
ENDBRANCH   1   3
BRANCH   1  12
HETATM   12  N3  UNL     1      24.198   5.678  14.754  1.00  0.00    -0.308 N 
HETATM   13  C4  UNL     1      24.681   5.742  13.590  1.00  0.00     0.136 C 
ATOM     14  H3  UNL     1      23.193   5.513  14.825  1.00  0.00     0.186 HD
BRANCH  13  15
HETATM   15  C5  UNL     1      23.826   5.584  12.430  1.00  0.00     0.049 A 
HETATM   16  C6  UNL     1      23.860   6.474  11.359  1.00  0.00     0.031 A 
HETATM   17  C7  UNL     1      23.043   6.315  10.259  1.00  0.00     0.004 A 
HETATM   18  C8  UNL     1      22.188   5.260  10.232  1.00  0.00     0.017 A 
HETATM   19  C9  UNL     1      22.160   4.394  11.283  1.00  0.00     0.088 A 
HETATM   20  N4  UNL     1      22.948   4.555  12.333  1.00  0.00    -0.365 N 
ATOM     21  H4  UNL     1      22.894   3.881  13.097  1.00  0.00     0.165 HD
ENDBRANCH  13  15
ENDBRANCH   1  12
TORSDOF 6
ENDMDL
MODEL 4
REMARK VINA RESULT: -6.015560037      6.080      8.201
REMARK  6 active torsions:
REMARK  status: ('A' for Active; 'I' for Inactive)
REMARK    1  A    between atoms: C2_2  and  O1_3 
REMARK    2  A    between atoms: C2_2  and  N1_6 
REMARK    3  A    between atoms: N1_6  and  C3_8 
REMARK    4  A    between atoms: C3_8  and  N2_10 
REMARK    5  A    between atoms: N2_10  and  N3_12 
REMARK    6  A    between atoms: C4_14  and  C5_15 
ROOT
HETATM    1  N2  UNL     1      24.654   8.909   7.814  1.00  0.00    -0.277 N 
ATOM      2  H2  UNL     1      24.242   9.839   7.896  1.00  0.00     0.189 HD
ENDROOT
BRANCH   1   3
HETATM    3  C3  UNL     1      25.796   8.711   7.022  1.00  0.00     0.190 C 
HETATM    4  S1  UNL     1      27.211   8.345   7.726  1.00  0.00    -0.039 SA
BRANCH   3   5
HETATM    5  N1  UNL     1      25.730   8.826   5.621  1.00  0.00    -0.308 N 
ATOM      6  H1  UNL     1      26.599   8.956   5.103  1.00  0.00     0.167 HD
BRANCH   5   7
HETATM    7  C2  UNL     1      24.487   8.769   4.877  1.00  0.00     0.282 C 
HETATM    8  C1  UNL     1      24.682   8.871   3.400  1.00  0.00     0.111 C 
HETATM    9  F1  UNL     1      23.839   7.601   5.222  1.00  0.00    -0.188 F 
BRANCH   7  10
HETATM   10  O1  UNL     1      23.708   9.847   5.351  1.00  0.00    -0.345 OA
ATOM     11  H1  UNL     1      23.169   9.573   6.084  1.00  0.00     0.215 HD
ENDBRANCH   7  10
ENDBRANCH   5   7
ENDBRANCH   3   5
ENDBRANCH   1   3
BRANCH   1  12
HETATM   12  N3  UNL     1      24.092   7.839   8.479  1.00  0.00    -0.308 N 
HETATM   13  C4  UNL     1      23.900   7.741   9.723  1.00  0.00     0.136 C 
ATOM     14  H3  UNL     1      23.801   7.046   7.907  1.00  0.00     0.186 HD
BRANCH  13  15
HETATM   15  C5  UNL     1      23.295   6.548  10.281  1.00  0.00     0.049 A 
HETATM   16  C6  UNL     1      23.670   6.039  11.523  1.00  0.00     0.031 A 
HETATM   17  C7  UNL     1      23.089   4.904  12.047  1.00  0.00     0.004 A 
HETATM   18  C8  UNL     1      22.126   4.274  11.323  1.00  0.00     0.017 A 
HETATM   19  C9  UNL     1      21.765   4.777  10.110  1.00  0.00     0.088 A 
HETATM   20  N4  UNL     1      22.328   5.867   9.616  1.00  0.00    -0.365 N 
ATOM     21  H4  UNL     1      22.026   6.208   8.704  1.00  0.00     0.165 HD
ENDBRANCH  13  15
ENDBRANCH   1  12
TORSDOF 6
ENDMDL
MODEL 5
REMARK VINA RESULT: -5.777654795      5.969      8.129
REMARK  6 active torsions:
REMARK  status: ('A' for Active; 'I' for Inactive)
REMARK    1  A    between atoms: C2_2  and  O1_3 
REMARK    2  A    between atoms: C2_2  and  N1_6 
REMARK    3  A    between atoms: N1_6  and  C3_8 
REMARK    4  A    between atoms: C3_8  and  N2_10 
REMARK    5  A    between atoms: N2_10  and  N3_12 
REMARK    6  A    between atoms: C4_14  and  C5_15 
ROOT
HETATM    1  N2  UNL     1      24.481   8.883   7.947  1.00  0.00    -0.277 N 
ATOM      2  H2  UNL     1      25.472   9.111   8.031  1.00  0.00     0.189 HD
ENDROOT
BRANCH   1   3
HETATM    3  C3  UNL     1      23.640   9.675   7.150  1.00  0.00     0.190 C 
HETATM    4  S1  UNL     1      22.509  10.606   7.849  1.00  0.00    -0.039 SA
BRANCH   3   5
HETATM    5  N1  UNL     1      23.764   9.673   5.748  1.00  0.00    -0.308 N 
ATOM      6  H1  UNL     1      23.676  10.560   5.252  1.00  0.00     0.167 HD
BRANCH   5   7
HETATM    7  C2  UNL     1      24.012   8.473   4.975  1.00  0.00     0.282 C 
HETATM    8  C1  UNL     1      23.377   8.504   3.623  1.00  0.00     0.111 C 
HETATM    9  F1  UNL     1      25.377   8.297   4.888  1.00  0.00    -0.188 F 
BRANCH   7  10
HETATM   10  O1  UNL     1      23.491   7.409   5.744  1.00  0.00    -0.345 OA
ATOM     11  H1  UNL     1      23.170   7.727   6.580  1.00  0.00     0.215 HD
ENDBRANCH   7  10
ENDBRANCH   5   7
ENDBRANCH   3   5
ENDBRANCH   1   3
BRANCH   1  12
HETATM   12  N3  UNL     1      23.960   7.795   8.617  1.00  0.00    -0.308 N 
HETATM   13  C4  UNL     1      23.855   7.659   9.868  1.00  0.00     0.136 C 
ATOM     14  H3  UNL     1      23.626   7.021   8.042  1.00  0.00     0.186 HD
BRANCH  13  15
HETATM   15  C5  UNL     1      23.284   6.451  10.430  1.00  0.00     0.049 A 
HETATM   16  C6  UNL     1      23.670   5.959  11.674  1.00  0.00     0.031 A 
HETATM   17  C7  UNL     1      23.121   4.809  12.202  1.00  0.00     0.004 A 
HETATM   18  C8  UNL     1      22.179   4.149  11.478  1.00  0.00     0.017 A 
HETATM   19  C9  UNL     1      21.806   4.637  10.263  1.00  0.00     0.088 A 
HETATM   20  N4  UNL     1      22.339   5.740   9.766  1.00  0.00    -0.365 N 
ATOM     21  H4  UNL     1      22.028   6.069   8.851  1.00  0.00     0.165 HD
ENDBRANCH  13  15
ENDBRANCH   1  12
TORSDOF 6
ENDMDL
