MODEL 1
REMARK VINA RESULT: -6.497017710      0.000      0.000
REMARK  8 active torsions:
REMARK  status: ('A' for Active; 'I' for Inactive)
REMARK    1  A    between atoms: C2_2  and  O1_3 
REMARK    2  A    between atoms: C2_2  and  C3_5 
REMARK    3  A    between atoms: C3_5  and  C4_6 
REMARK    4  A    between atoms: C4_6  and  C5_7 
REMARK    5  A    between atoms: C10_12  and  C11_13 
REMARK    6  A    between atoms: C11_13  and  C12_14 
REMARK    7  A    between atoms: C12_14  and  C13_15 
REMARK    8  A    between atoms: C13_15  and  N1_16 
ROOT
HETATM    1  C5  UNL     1      79.714   7.012  27.180  1.00  0.00     0.016 C 
HETATM    2  C6  UNL     1      80.447   6.041  26.289  1.00  0.00     0.042 C 
HETATM    3  C7  UNL     1      79.374   5.614  25.317  1.00  0.00     0.224 C 
HETATM    4  C8  UNL     1      78.756   4.291  25.674  1.00  0.00     0.038 C 
HETATM    5  C9  UNL     1      77.347   4.401  25.135  1.00  0.00     0.038 C 
HETATM    6  C10 UNL     1      77.124   5.867  24.953  1.00  0.00     0.223 C 
HETATM    7  N2  UNL     1      78.287   6.554  25.440  1.00  0.00     0.098 N 
HETATM    8  C14 UNL     1      78.245   6.805  26.867  1.00  0.00     0.278 C 
ENDROOT
BRANCH   6   9
HETATM    9  C11 UNL     1      76.993   6.188  23.470  1.00  0.00     0.037 C 
BRANCH   9  10
HETATM   10  C12 UNL     1      75.619   6.744  23.159  1.00  0.00     0.029 C 
BRANCH  10  11
HETATM   11  C13 UNL     1      74.782   5.753  22.375  1.00  0.00     0.229 C 
BRANCH  11  12
HETATM   12  N1  UNL     1      73.698   6.406  21.669  1.00  0.00    -0.079 N 
ATOM     13  H13 UNL     1      74.042   7.165  21.080  1.00  0.00     0.274 HD
ATOM     14  H12 UNL     1      73.311   5.804  20.942  1.00  0.00     0.274 HD
ATOM     15  H11 UNL     1      72.973   6.730  22.308  1.00  0.00     0.274 HD
ENDBRANCH  11  12
ENDBRANCH  10  11
ENDBRANCH   9  10
ENDBRANCH   6   9
BRANCH   1  16
HETATM   16  C4  UNL     1      80.019   6.743  28.639  1.00  0.00     0.009 C 
BRANCH  16  17
HETATM   17  C3  UNL     1      79.155   5.611  29.155  1.00  0.00     0.032 C 
BRANCH  17  18
HETATM   18  C2  UNL     1      78.409   6.090  30.384  1.00  0.00     0.114 C 
HETATM   19  C1  UNL     1      78.612   5.047  31.487  1.00  0.00     0.039 C 
BRANCH  18  20
HETATM   20  O1  UNL     1      77.042   6.158  30.162  1.00  0.00    -0.396 OA
ATOM     21  H1  UNL     1      76.882   5.691  29.351  1.00  0.00     0.210 HD
ENDBRANCH  18  20
ENDBRANCH  17  18
ENDBRANCH  16  17
ENDBRANCH   1  16
TORSDOF 8
ENDMDL
MODEL 2
REMARK VINA RESULT: -6.317892930      2.714      6.408
REMARK  8 active torsions:
REMARK  status: ('A' for Active; 'I' for Inactive)
REMARK    1  A    between atoms: C2_2  and  O1_3 
REMARK    2  A    between atoms: C2_2  and  C3_5 
REMARK    3  A    between atoms: C3_5  and  C4_6 
REMARK    4  A    between atoms: C4_6  and  C5_7 
REMARK    5  A    between atoms: C10_12  and  C11_13 
REMARK    6  A    between atoms: C11_13  and  C12_14 
REMARK    7  A    between atoms: C12_14  and  C13_15 
REMARK    8  A    between atoms: C13_15  and  N1_16 
ROOT
HETATM    1  C5  UNL     1      77.052   5.871  24.859  1.00  0.00     0.016 C 
HETATM    2  C6  UNL     1      77.406   4.413  25.012  1.00  0.00     0.042 C 
HETATM    3  C7  UNL     1      78.560   4.456  25.983  1.00  0.00     0.224 C 
HETATM    4  C8  UNL     1      79.898   4.358  25.305  1.00  0.00     0.038 C 
HETATM    5  C9  UNL     1      80.819   5.131  26.223  1.00  0.00     0.038 C 
HETATM    6  C10 UNL     1      79.907   5.973  27.054  1.00  0.00     0.223 C 
HETATM    7  N2  UNL     1      78.566   5.768  26.583  1.00  0.00     0.098 N 
HETATM    8  C14 UNL     1      78.216   6.627  25.468  1.00  0.00     0.278 C 
ENDROOT
BRANCH   6   9
HETATM    9  C11 UNL     1      79.956   5.511  28.504  1.00  0.00     0.037 C 
BRANCH   9  10
HETATM   10  C12 UNL     1      78.895   6.210  29.327  1.00  0.00     0.029 C 
BRANCH  10  11
HETATM   11  C13 UNL     1      78.749   5.581  30.699  1.00  0.00     0.229 C 
BRANCH  11  12
HETATM   12  N1  UNL     1      78.340   4.193  30.613  1.00  0.00    -0.079 N 
ATOM     13  H13 UNL     1      78.597   3.785  29.715  1.00  0.00     0.274 HD
ATOM     14  H12 UNL     1      78.902   3.602  31.225  1.00  0.00     0.274 HD
ATOM     15  H11 UNL     1      77.344   4.081  30.800  1.00  0.00     0.274 HD
ENDBRANCH  11  12
ENDBRANCH  10  11
ENDBRANCH   9  10
ENDBRANCH   6   9
BRANCH   1  16
HETATM   16  C4  UNL     1      76.853   6.229  23.401  1.00  0.00     0.009 C 
BRANCH  16  17
HETATM   17  C3  UNL     1      75.502   6.882  23.202  1.00  0.00     0.032 C 
BRANCH  17  18
HETATM   18  C2  UNL     1      74.724   6.086  22.172  1.00  0.00     0.114 C 
HETATM   19  C1  UNL     1      73.715   7.033  21.518  1.00  0.00     0.039 C 
BRANCH  18  20
HETATM   20  O1  UNL     1      73.981   5.074  22.760  1.00  0.00    -0.396 OA
ATOM     21  H1  UNL     1      73.711   4.500  22.054  1.00  0.00     0.210 HD
ENDBRANCH  18  20
ENDBRANCH  17  18
ENDBRANCH  16  17
ENDBRANCH   1  16
TORSDOF 8
ENDMDL
MODEL 3
REMARK VINA RESULT: -6.166322697      3.128      6.988
REMARK  8 active torsions:
REMARK  status: ('A' for Active; 'I' for Inactive)
REMARK    1  A    between atoms: C2_2  and  O1_3 
REMARK    2  A    between atoms: C2_2  and  C3_5 
REMARK    3  A    between atoms: C3_5  and  C4_6 
REMARK    4  A    between atoms: C4_6  and  C5_7 
REMARK    5  A    between atoms: C10_12  and  C11_13 
REMARK    6  A    between atoms: C11_13  and  C12_14 
REMARK    7  A    between atoms: C12_14  and  C13_15 
REMARK    8  A    between atoms: C13_15  and  N1_16 
ROOT
HETATM    1  C5  UNL     1      79.679   7.098  26.956  1.00  0.00     0.016 C 
HETATM    2  C6  UNL     1      79.060   8.222  27.745  1.00  0.00     0.042 C 
HETATM    3  C7  UNL     1      78.994   7.648  29.140  1.00  0.00     0.224 C 
HETATM    4  C8  UNL     1      77.634   7.111  29.486  1.00  0.00     0.038 C 
HETATM    5  C9  UNL     1      77.931   6.000  30.468  1.00  0.00     0.038 C 
HETATM    6  C10 UNL     1      79.374   5.680  30.254  1.00  0.00     0.223 C 
HETATM    7  N2  UNL     1      79.847   6.485  29.163  1.00  0.00     0.098 N 
HETATM    8  C14 UNL     1      79.603   5.887  27.865  1.00  0.00     0.278 C 
ENDROOT
BRANCH   6   9
HETATM    9  C11 UNL     1      80.177   6.068  31.488  1.00  0.00     0.037 C 
BRANCH   9  10
HETATM   10  C12 UNL     1      79.604   5.419  32.730  1.00  0.00     0.029 C 
BRANCH  10  11
HETATM   11  C13 UNL     1      80.111   4.000  32.902  1.00  0.00     0.229 C 
BRANCH  11  12
HETATM   12  N1  UNL     1      81.000   3.882  34.040  1.00  0.00    -0.079 N 
ATOM     13  H13 UNL     1      81.640   4.674  34.096  1.00  0.00     0.274 HD
ATOM     14  H12 UNL     1      80.499   4.020  34.918  1.00  0.00     0.274 HD
ATOM     15  H11 UNL     1      81.504   2.996  34.035  1.00  0.00     0.274 HD
ENDBRANCH  11  12
ENDBRANCH  10  11
ENDBRANCH   9  10
ENDBRANCH   6   9
BRANCH   1  16
HETATM   16  C4  UNL     1      78.932   6.872  25.659  1.00  0.00     0.009 C 
BRANCH  16  17
HETATM   17  C3  UNL     1      77.670   6.075  25.913  1.00  0.00     0.032 C 
BRANCH  17  18
HETATM   18  C2  UNL     1      77.263   5.385  24.626  1.00  0.00     0.114 C 
HETATM   19  C1  UNL     1      76.434   6.378  23.807  1.00  0.00     0.039 C 
BRANCH  18  20
HETATM   20  O1  UNL     1      76.437   4.297  24.865  1.00  0.00    -0.396 OA
ATOM     21  H1  UNL     1      76.159   4.370  25.770  1.00  0.00     0.210 HD
ENDBRANCH  18  20
ENDBRANCH  17  18
ENDBRANCH  16  17
ENDBRANCH   1  16
TORSDOF 8
ENDMDL
MODEL 4
REMARK VINA RESULT: -6.141265686      3.019      6.157
REMARK  8 active torsions:
REMARK  status: ('A' for Active; 'I' for Inactive)
REMARK    1  A    between atoms: C2_2  and  O1_3 
REMARK    2  A    between atoms: C2_2  and  C3_5 
REMARK    3  A    between atoms: C3_5  and  C4_6 
REMARK    4  A    between atoms: C4_6  and  C5_7 
REMARK    5  A    between atoms: C10_12  and  C11_13 
REMARK    6  A    between atoms: C11_13  and  C12_14 
REMARK    7  A    between atoms: C12_14  and  C13_15 
REMARK    8  A    between atoms: C13_15  and  N1_16 
ROOT
HETATM    1  C5  UNL     1      79.526   4.553  25.952  1.00  0.00     0.016 C 
HETATM    2  C6  UNL     1      80.437   5.722  25.679  1.00  0.00     0.042 C 
HETATM    3  C7  UNL     1      80.280   6.560  26.924  1.00  0.00     0.224 C 
HETATM    4  C8  UNL     1      79.321   7.702  26.741  1.00  0.00     0.038 C 
HETATM    5  C9  UNL     1      78.748   7.909  28.127  1.00  0.00     0.038 C 
HETATM    6  C10 UNL     1      79.038   6.636  28.851  1.00  0.00     0.223 C 
HETATM    7  N2  UNL     1      79.650   5.729  27.921  1.00  0.00     0.098 N 
HETATM    8  C14 UNL     1      78.687   4.975  27.142  1.00  0.00     0.278 C 
ENDROOT
BRANCH   6   9
HETATM    9  C11 UNL     1      80.044   6.893  29.965  1.00  0.00     0.037 C 
BRANCH   9  10
HETATM   10  C12 UNL     1      79.957   5.818  31.028  1.00  0.00     0.029 C 
BRANCH  10  11
HETATM   11  C13 UNL     1      78.527   5.366  31.247  1.00  0.00     0.229 C 
BRANCH  11  12
HETATM   12  N1  UNL     1      78.355   3.961  30.934  1.00  0.00    -0.079 N 
ATOM     13  H13 UNL     1      79.252   3.499  30.792  1.00  0.00     0.274 HD
ATOM     14  H12 UNL     1      78.032   3.437  31.747  1.00  0.00     0.274 HD
ATOM     15  H11 UNL     1      77.736   3.826  30.135  1.00  0.00     0.274 HD
ENDBRANCH  11  12
ENDBRANCH  10  11
ENDBRANCH   9  10
ENDBRANCH   6   9
BRANCH   1  16
HETATM   16  C4  UNL     1      78.667   4.241  24.745  1.00  0.00     0.009 C 
BRANCH  16  17
HETATM   17  C3  UNL     1      77.348   4.979  24.836  1.00  0.00     0.032 C 
BRANCH  17  18
HETATM   18  C2  UNL     1      77.308   6.039  23.753  1.00  0.00     0.114 C 
HETATM   19  C1  UNL     1      75.840   6.266  23.379  1.00  0.00     0.039 C 
BRANCH  18  20
HETATM   20  O1  UNL     1      77.940   5.615  22.595  1.00  0.00    -0.396 OA
ATOM     21  H1  UNL     1      78.478   4.873  22.843  1.00  0.00     0.210 HD
ENDBRANCH  18  20
ENDBRANCH  17  18
ENDBRANCH  16  17
ENDBRANCH   1  16
TORSDOF 8
ENDMDL
MODEL 5
REMARK VINA RESULT: -6.089490313      2.921      6.641
REMARK  8 active torsions:
REMARK  status: ('A' for Active; 'I' for Inactive)
REMARK    1  A    between atoms: C2_2  and  O1_3 
REMARK    2  A    between atoms: C2_2  and  C3_5 
REMARK    3  A    between atoms: C3_5  and  C4_6 
REMARK    4  A    between atoms: C4_6  and  C5_7 
REMARK    5  A    between atoms: C10_12  and  C11_13 
REMARK    6  A    between atoms: C11_13  and  C12_14 
REMARK    7  A    between atoms: C12_14  and  C13_15 
REMARK    8  A    between atoms: C13_15  and  N1_16 
ROOT
HETATM    1  C5  UNL     1      80.034   5.651  26.381  1.00  0.00     0.016 C 
HETATM    2  C6  UNL     1      80.483   7.057  26.686  1.00  0.00     0.042 C 
HETATM    3  C7  UNL     1      79.976   7.266  28.092  1.00  0.00     0.224 C 
HETATM    4  C8  UNL     1      78.684   8.033  28.138  1.00  0.00     0.038 C 
HETATM    5  C9  UNL     1      78.006   7.511  29.385  1.00  0.00     0.038 C 
HETATM    6  C10 UNL     1      78.691   6.216  29.676  1.00  0.00     0.223 C 
HETATM    7  N2  UNL     1      79.632   5.968  28.620  1.00  0.00     0.098 N 
HETATM    8  C14 UNL     1      79.040   5.307  27.473  1.00  0.00     0.278 C 
ENDROOT
BRANCH   6   9
HETATM    9  C11 UNL     1      79.482   6.331  30.972  1.00  0.00     0.037 C 
BRANCH   9  10
HETATM   10  C12 UNL     1      78.836   5.514  32.071  1.00  0.00     0.029 C 
BRANCH  10  11
HETATM   11  C13 UNL     1      79.863   4.998  33.060  1.00  0.00     0.229 C 
BRANCH  11  12
HETATM   12  N1  UNL     1      80.148   3.593  32.854  1.00  0.00    -0.079 N 
ATOM     13  H13 UNL     1      80.579   3.176  33.680  1.00  0.00     0.274 HD
ATOM     14  H12 UNL     1      79.291   3.040  32.826  1.00  0.00     0.274 HD
ATOM     15  H11 UNL     1      80.717   3.440  32.022  1.00  0.00     0.274 HD
ENDBRANCH  11  12
ENDBRANCH  10  11
ENDBRANCH   9  10
ENDBRANCH   6   9
BRANCH   1  16
HETATM   16  C4  UNL     1      79.404   5.571  25.006  1.00  0.00     0.009 C 
BRANCH  16  17
HETATM   17  C3  UNL     1      78.042   6.232  25.014  1.00  0.00     0.032 C 
BRANCH  17  18
HETATM   18  C2  UNL     1      77.108   5.433  24.127  1.00  0.00     0.114 C 
HETATM   19  C1  UNL     1      76.059   6.398  23.568  1.00  0.00     0.039 C 
BRANCH  18  20
HETATM   20  O1  UNL     1      76.409   4.476  24.847  1.00  0.00    -0.396 OA
ATOM     21  H1  UNL     1      77.053   3.844  25.143  1.00  0.00     0.210 HD
ENDBRANCH  18  20
ENDBRANCH  17  18
ENDBRANCH  16  17
ENDBRANCH   1  16
TORSDOF 8
ENDMDL
