MODEL 1
REMARK VINA RESULT: -6.170278343      0.000      0.000
REMARK  7 active torsions:
REMARK  status: ('A' for Active; 'I' for Inactive)
REMARK    1  A    between atoms: C5_5  and  C6_6 
REMARK    2  A    between atoms: C6_6  and  O1_7 
REMARK    3  A    between atoms: C6_6  and  C7_9 
REMARK    4  A    between atoms: C7_9  and  O2_10 
REMARK    5  A    between atoms: N1_12  and  C8_13 
REMARK    6  A    between atoms: C8_13  and  C9_14 
REMARK    7  A    between atoms: C9_14  and  C11_16 
ROOT
HETATM    1  C1  UNL     1      81.268   9.402  28.595  1.00  0.00     0.011 C 
HETATM    2  C2  UNL     1      80.640   8.336  27.692  1.00  0.00    -0.001 C 
HETATM    3  C3  UNL     1      81.138   6.967  28.108  1.00  0.00     0.008 C 
HETATM    4  C4  UNL     1      80.252   6.376  29.181  1.00  0.00     0.028 C 
HETATM    5  C5  UNL     1      78.812   6.229  28.685  1.00  0.00     0.114 C 
HETATM    6  N1  UNL     1      78.481   7.154  27.686  1.00  0.00    -0.385 N 
HETATM    7  C14 UNL     1      79.162   8.421  27.873  1.00  0.00     0.126 C 
ENDROOT
BRANCH   5   8
HETATM    8  C6  UNL     1      77.967   6.554  29.931  1.00  0.00     0.164 C 
BRANCH   8   9
HETATM    9  O1  UNL     1      76.623   6.696  29.636  1.00  0.00    -0.391 OA
ATOM     10  H1  UNL     1      76.145   7.139  30.327  1.00  0.00     0.210 HD
ENDBRANCH   8   9
BRANCH   8  11
HETATM   11  C7  UNL     1      78.129   5.451  30.960  1.00  0.00     0.197 C 
BRANCH  11  12
HETATM   12  O2  UNL     1      76.862   5.047  31.338  1.00  0.00    -0.398 OA
ATOM     13  H2  UNL     1      76.349   5.830  31.500  1.00  0.00     0.209 HD
ENDBRANCH  11  12
ENDBRANCH   8  11
ENDBRANCH   5   8
BRANCH   6  14
HETATM   14  C8  UNL     1      78.279   6.798  26.350  1.00  0.00     0.063 C 
BRANCH  14  15
HETATM   15  C9  UNL     1      77.867   5.439  25.971  1.00  0.00     0.024 C 
HETATM   16  C10 UNL     1      78.974   4.455  25.967  1.00  0.00     0.016 C 
BRANCH  15  17
HETATM   17  C11 UNL     1      77.106   5.348  24.679  1.00  0.00    -0.006 A 
HETATM   18  C12 UNL     1      77.618   5.736  23.383  1.00  0.00     0.005 A 
HETATM   19  C13 UNL     1      76.587   6.634  24.083  1.00  0.00     0.005 A 
ENDBRANCH  15  17
ENDBRANCH  14  15
ENDBRANCH   6  14
TORSDOF 7
ENDMDL
MODEL 2
REMARK VINA RESULT: -6.159615899      0.897      1.077
REMARK  7 active torsions:
REMARK  status: ('A' for Active; 'I' for Inactive)
REMARK    1  A    between atoms: C5_5  and  C6_6 
REMARK    2  A    between atoms: C6_6  and  O1_7 
REMARK    3  A    between atoms: C6_6  and  C7_9 
REMARK    4  A    between atoms: C7_9  and  O2_10 
REMARK    5  A    between atoms: N1_12  and  C8_13 
REMARK    6  A    between atoms: C8_13  and  C9_14 
REMARK    7  A    between atoms: C9_14  and  C11_16 
ROOT
HETATM    1  C1  UNL     1      81.359   9.611  29.683  1.00  0.00     0.011 C 
HETATM    2  C2  UNL     1      80.946   8.644  28.570  1.00  0.00    -0.001 C 
HETATM    3  C3  UNL     1      81.431   7.249  28.910  1.00  0.00     0.008 C 
HETATM    4  C4  UNL     1      80.404   6.511  29.738  1.00  0.00     0.028 C 
HETATM    5  C5  UNL     1      79.079   6.383  28.984  1.00  0.00     0.114 C 
HETATM    6  N1  UNL     1      78.878   7.411  28.053  1.00  0.00    -0.385 N 
HETATM    7  C14 UNL     1      79.456   8.665  28.499  1.00  0.00     0.126 C 
ENDROOT
BRANCH   5   8
HETATM    8  C6  UNL     1      78.019   6.535  30.093  1.00  0.00     0.164 C 
BRANCH   8   9
HETATM    9  O1  UNL     1      76.736   6.638  29.586  1.00  0.00    -0.391 OA
ATOM     10  H1  UNL     1      76.279   7.405  29.909  1.00  0.00     0.210 HD
ENDBRANCH   8   9
BRANCH   8  11
HETATM   11  C7  UNL     1      78.082   5.341  31.026  1.00  0.00     0.197 C 
BRANCH  11  12
HETATM   12  O2  UNL     1      76.783   4.990  31.341  1.00  0.00    -0.398 OA
ATOM     13  H2  UNL     1      76.251   5.773  31.273  1.00  0.00     0.209 HD
ENDBRANCH  11  12
ENDBRANCH   8  11
ENDBRANCH   5   8
BRANCH   6  14
HETATM   14  C8  UNL     1      78.924   7.212  26.672  1.00  0.00     0.063 C 
BRANCH  14  15
HETATM   15  C9  UNL     1      79.219   5.892  26.095  1.00  0.00     0.024 C 
HETATM   16  C10 UNL     1      80.653   5.675  25.794  1.00  0.00     0.016 C 
BRANCH  15  17
HETATM   17  C11 UNL     1      78.391   5.528  24.896  1.00  0.00    -0.006 A 
HETATM   18  C12 UNL     1      77.169   6.192  24.496  1.00  0.00     0.005 A 
HETATM   19  C13 UNL     1      77.090   4.800  25.142  1.00  0.00     0.005 A 
ENDBRANCH  15  17
ENDBRANCH  14  15
ENDBRANCH   6  14
TORSDOF 7
ENDMDL
MODEL 3
REMARK VINA RESULT: -6.142302347      1.268      1.607
REMARK  7 active torsions:
REMARK  status: ('A' for Active; 'I' for Inactive)
REMARK    1  A    between atoms: C5_5  and  C6_6 
REMARK    2  A    between atoms: C6_6  and  O1_7 
REMARK    3  A    between atoms: C6_6  and  C7_9 
REMARK    4  A    between atoms: C7_9  and  O2_10 
REMARK    5  A    between atoms: N1_12  and  C8_13 
REMARK    6  A    between atoms: C8_13  and  C9_14 
REMARK    7  A    between atoms: C9_14  and  C11_16 
ROOT
HETATM    1  C1  UNL     1      80.926   9.578  29.801  1.00  0.00     0.011 C 
HETATM    2  C2  UNL     1      80.682   8.436  28.810  1.00  0.00    -0.001 C 
HETATM    3  C3  UNL     1      81.406   7.193  29.286  1.00  0.00     0.008 C 
HETATM    4  C4  UNL     1      80.530   6.384  30.215  1.00  0.00     0.028 C 
HETATM    5  C5  UNL     1      79.243   5.946  29.514  1.00  0.00     0.114 C 
HETATM    6  N1  UNL     1      78.859   6.814  28.483  1.00  0.00    -0.385 N 
HETATM    7  C14 UNL     1      79.212   8.191  28.775  1.00  0.00     0.126 C 
ENDROOT
BRANCH   5   8
HETATM    8  C6  UNL     1      78.180   6.033  30.626  1.00  0.00     0.164 C 
BRANCH   8   9
HETATM    9  O1  UNL     1      76.897   6.154  30.123  1.00  0.00    -0.391 OA
ATOM     10  H1  UNL     1      76.765   6.973  29.661  1.00  0.00     0.210 HD
ENDBRANCH   8   9
BRANCH   8  11
HETATM   11  C7  UNL     1      78.250   4.792  31.496  1.00  0.00     0.197 C 
BRANCH  11  12
HETATM   12  O2  UNL     1      78.188   3.693  30.659  1.00  0.00    -0.398 OA
ATOM     13  H2  UNL     1      77.396   3.216  30.874  1.00  0.00     0.209 HD
ENDBRANCH  11  12
ENDBRANCH   8  11
ENDBRANCH   5   8
BRANCH   6  14
HETATM   14  C8  UNL     1      78.931   6.475  27.130  1.00  0.00     0.063 C 
BRANCH  14  15
HETATM   15  C9  UNL     1      79.690   5.302  26.672  1.00  0.00     0.024 C 
HETATM   16  C10 UNL     1      80.815   5.631  25.766  1.00  0.00     0.016 C 
BRANCH  15  17
HETATM   17  C11 UNL     1      78.857   4.208  26.066  1.00  0.00    -0.006 A 
HETATM   18  C12 UNL     1      78.872   3.829  24.669  1.00  0.00     0.005 A 
HETATM   19  C13 UNL     1      77.676   4.619  25.220  1.00  0.00     0.005 A 
ENDBRANCH  15  17
ENDBRANCH  14  15
ENDBRANCH   6  14
TORSDOF 7
ENDMDL
MODEL 4
REMARK VINA RESULT: -6.104300148      1.311      1.744
REMARK  7 active torsions:
REMARK  status: ('A' for Active; 'I' for Inactive)
REMARK    1  A    between atoms: C5_5  and  C6_6 
REMARK    2  A    between atoms: C6_6  and  O1_7 
REMARK    3  A    between atoms: C6_6  and  C7_9 
REMARK    4  A    between atoms: C7_9  and  O2_10 
REMARK    5  A    between atoms: N1_12  and  C8_13 
REMARK    6  A    between atoms: C8_13  and  C9_14 
REMARK    7  A    between atoms: C9_14  and  C11_16 
ROOT
HETATM    1  C1  UNL     1      82.242   7.366  28.289  1.00  0.00     0.011 C 
HETATM    2  C2  UNL     1      81.238   6.739  27.318  1.00  0.00    -0.001 C 
HETATM    3  C3  UNL     1      80.772   5.405  27.866  1.00  0.00     0.008 C 
HETATM    4  C4  UNL     1      79.572   5.584  28.768  1.00  0.00     0.028 C 
HETATM    5  C5  UNL     1      78.405   6.221  28.010  1.00  0.00     0.114 C 
HETATM    6  N1  UNL     1      78.821   7.020  26.937  1.00  0.00    -0.385 N 
HETATM    7  C14 UNL     1      80.085   7.679  27.210  1.00  0.00     0.126 C 
ENDROOT
BRANCH   5   8
HETATM    8  C6  UNL     1      77.754   7.141  29.061  1.00  0.00     0.164 C 
BRANCH   8   9
HETATM    9  O1  UNL     1      76.599   6.598  29.595  1.00  0.00    -0.391 OA
ATOM     10  H1  UNL     1      76.321   7.043  30.386  1.00  0.00     0.210 HD
ENDBRANCH   8   9
BRANCH   8  11
HETATM   11  C7  UNL     1      78.735   7.406  30.186  1.00  0.00     0.197 C 
BRANCH  11  12
HETATM   12  O2  UNL     1      78.556   8.715  30.594  1.00  0.00    -0.398 OA
ATOM     13  H2  UNL     1      77.960   8.704  31.334  1.00  0.00     0.209 HD
ENDBRANCH  11  12
ENDBRANCH   8  11
ENDBRANCH   5   8
BRANCH   6  14
HETATM   14  C8  UNL     1      78.633   6.663  25.600  1.00  0.00     0.063 C 
BRANCH  14  15
HETATM   15  C9  UNL     1      77.416   5.969  25.154  1.00  0.00     0.024 C 
HETATM   16  C10 UNL     1      77.466   4.498  25.327  1.00  0.00     0.016 C 
BRANCH  15  17
HETATM   17  C11 UNL     1      76.979   6.297  23.755  1.00  0.00    -0.006 A 
HETATM   18  C12 UNL     1      75.977   7.282  23.407  1.00  0.00     0.005 A 
HETATM   19  C13 UNL     1      75.628   5.789  23.309  1.00  0.00     0.005 A 
ENDBRANCH  15  17
ENDBRANCH  14  15
ENDBRANCH   6  14
TORSDOF 7
ENDMDL
MODEL 5
REMARK VINA RESULT: -6.076052001      1.104      1.830
REMARK  7 active torsions:
REMARK  status: ('A' for Active; 'I' for Inactive)
REMARK    1  A    between atoms: C5_5  and  C6_6 
REMARK    2  A    between atoms: C6_6  and  O1_7 
REMARK    3  A    between atoms: C6_6  and  C7_9 
REMARK    4  A    between atoms: C7_9  and  O2_10 
REMARK    5  A    between atoms: N1_12  and  C8_13 
REMARK    6  A    between atoms: C8_13  and  C9_14 
REMARK    7  A    between atoms: C9_14  and  C11_16 
ROOT
HETATM    1  C1  UNL     1      80.767   8.936  27.736  1.00  0.00     0.011 C 
HETATM    2  C2  UNL     1      80.280   7.572  27.241  1.00  0.00    -0.001 C 
HETATM    3  C3  UNL     1      81.085   6.477  27.910  1.00  0.00     0.008 C 
HETATM    4  C4  UNL     1      80.451   6.069  29.221  1.00  0.00     0.028 C 
HETATM    5  C5  UNL     1      79.028   5.549  29.004  1.00  0.00     0.114 C 
HETATM    6  N1  UNL     1      78.415   6.090  27.866  1.00  0.00    -0.385 N 
HETATM    7  C14 UNL     1      78.842   7.455  27.619  1.00  0.00     0.126 C 
ENDROOT
BRANCH   5   8
HETATM    8  C6  UNL     1      78.266   6.063  30.242  1.00  0.00     0.164 C 
BRANCH   8   9
HETATM    9  O1  UNL     1      76.934   6.323  29.972  1.00  0.00    -0.391 OA
ATOM     10  H1  UNL     1      76.431   6.490  30.759  1.00  0.00     0.210 HD
ENDBRANCH   8   9
BRANCH   8  11
HETATM   11  C7  UNL     1      78.348   5.035  31.355  1.00  0.00     0.197 C 
BRANCH  11  12
HETATM   12  O2  UNL     1      78.206   3.787  30.779  1.00  0.00    -0.398 OA
ATOM     13  H2  UNL     1      78.346   3.140  31.460  1.00  0.00     0.209 HD
ENDBRANCH  11  12
ENDBRANCH   8  11
ENDBRANCH   5   8
BRANCH   6  14
HETATM   14  C8  UNL     1      78.155   5.348  26.712  1.00  0.00     0.063 C 
BRANCH  14  15
HETATM   15  C9  UNL     1      78.384   5.907  25.372  1.00  0.00     0.024 C 
HETATM   16  C10 UNL     1      77.142   6.289  24.660  1.00  0.00     0.016 C 
BRANCH  15  17
HETATM   17  C11 UNL     1      79.241   5.062  24.473  1.00  0.00    -0.006 A 
HETATM   18  C12 UNL     1      79.520   3.656  24.671  1.00  0.00     0.005 A 
HETATM   19  C13 UNL     1      80.617   4.689  24.971  1.00  0.00     0.005 A 
ENDBRANCH  15  17
ENDBRANCH  14  15
ENDBRANCH   6  14
TORSDOF 7
ENDMDL
