MODEL 1
REMARK VINA RESULT: -6.200831738      0.000      0.000
REMARK  5 active torsions:
REMARK  status: ('A' for Active; 'I' for Inactive)
REMARK    1  A    between atoms: N1_5  and  C5_6 
REMARK    2  A    between atoms: C5_6  and  C6_7 
REMARK    3  A    between atoms: C6_7  and  N2_8 
REMARK    4  A    between atoms: N2_8  and  C7_11 
REMARK    5  A    between atoms: C7_11  and  C8_12 
ROOT
HETATM    1  N2  UNL     1      77.904   6.513  29.095  1.00  0.00    -0.073 N 
ATOM      2  H21 UNL     1      76.967   6.906  29.173  1.00  0.00     0.277 HD
ATOM      3  H22 UNL     1      77.650   5.531  29.203  1.00  0.00     0.277 HD
ENDROOT
BRANCH   1   4
HETATM    4  C6  UNL     1      78.820   6.991  30.166  1.00  0.00     0.262 C 
BRANCH   4   5
HETATM    5  C5  UNL     1      80.028   6.110  30.092  1.00  0.00     0.299 C 
BRANCH   5   6
HETATM    6  N1  UNL     1      80.615   5.864  31.396  1.00  0.00     0.090 N 
HETATM    7  C4  UNL     1      79.757   5.042  32.219  1.00  0.00     0.272 C 
HETATM    8  C3  UNL     1      79.866   5.554  33.639  1.00  0.00     0.030 C 
HETATM    9  C2  UNL     1      80.866   4.754  34.431  1.00  0.00     0.002 C 
HETATM   10  C1  UNL     1      82.065   4.327  33.608  1.00  0.00     0.002 C 
HETATM   11  C14 UNL     1      82.551   5.426  32.711  1.00  0.00     0.030 C 
HETATM   12  C13 UNL     1      81.929   5.315  31.313  1.00  0.00     0.272 C 
ENDBRANCH   5   6
ENDBRANCH   4   5
ENDBRANCH   1   4
BRANCH   1  13
HETATM   13  C7  UNL     1      78.529   6.796  27.806  1.00  0.00     0.237 C 
BRANCH  13  14
HETATM   14  C8  UNL     1      78.073   5.765  26.832  1.00  0.00     0.014 C 
HETATM   15  C9  UNL     1      79.009   4.608  26.647  1.00  0.00     0.034 C 
HETATM   16  C10 UNL     1      78.897   4.035  25.244  1.00  0.00     0.232 C 
HETATM   17  N3  UNL     1      77.590   4.117  24.675  1.00  0.00    -0.075 N 
HETATM   18  C11 UNL     1      77.023   5.436  24.662  1.00  0.00     0.232 C 
ATOM     19  H32 UNL     1      77.587   3.722  23.735  1.00  0.00     0.277 HD
ATOM     20  H31 UNL     1      76.959   3.465  25.142  1.00  0.00     0.277 HD
HETATM   21  C12 UNL     1      77.900   6.382  25.439  1.00  0.00     0.034 C 
ENDBRANCH  13  14
ENDBRANCH   1  13
TORSDOF 5
ENDMDL
MODEL 2
REMARK VINA RESULT: -6.183141205      0.498      1.437
REMARK  5 active torsions:
REMARK  status: ('A' for Active; 'I' for Inactive)
REMARK    1  A    between atoms: N1_5  and  C5_6 
REMARK    2  A    between atoms: C5_6  and  C6_7 
REMARK    3  A    between atoms: C6_7  and  N2_8 
REMARK    4  A    between atoms: N2_8  and  C7_11 
REMARK    5  A    between atoms: C7_11  and  C8_12 
ROOT
HETATM    1  N2  UNL     1      77.796   6.683  28.974  1.00  0.00    -0.073 N 
ATOM      2  H21 UNL     1      76.902   7.170  28.920  1.00  0.00     0.277 HD
ATOM      3  H22 UNL     1      77.431   5.743  29.125  1.00  0.00     0.277 HD
ENDROOT
BRANCH   1   4
HETATM    4  C6  UNL     1      78.642   7.158  30.102  1.00  0.00     0.262 C 
BRANCH   4   5
HETATM    5  C5  UNL     1      79.993   6.550  29.883  1.00  0.00     0.299 C 
BRANCH   5   6
HETATM    6  N1  UNL     1      80.410   5.715  30.993  1.00  0.00     0.090 N 
HETATM    7  C4  UNL     1      81.518   6.300  31.714  1.00  0.00     0.272 C 
HETATM    8  C3  UNL     1      82.435   5.172  32.131  1.00  0.00     0.030 C 
HETATM    9  C2  UNL     1      82.154   4.735  33.544  1.00  0.00     0.002 C 
HETATM   10  C1  UNL     1      80.679   4.779  33.893  1.00  0.00     0.002 C 
HETATM   11  C14 UNL     1      79.822   4.255  32.780  1.00  0.00     0.030 C 
HETATM   12  C13 UNL     1      79.336   5.393  31.874  1.00  0.00     0.272 C 
ENDBRANCH   5   6
ENDBRANCH   4   5
ENDBRANCH   1   4
BRANCH   1  13
HETATM   13  C7  UNL     1      78.576   6.797  27.745  1.00  0.00     0.237 C 
BRANCH  13  14
HETATM   14  C8  UNL     1      78.080   5.772  26.784  1.00  0.00     0.014 C 
HETATM   15  C9  UNL     1      78.982   4.590  26.593  1.00  0.00     0.034 C 
HETATM   16  C10 UNL     1      78.836   4.012  25.195  1.00  0.00     0.232 C 
HETATM   17  N3  UNL     1      77.523   4.125  24.644  1.00  0.00    -0.075 N 
HETATM   18  C11 UNL     1      76.992   5.459  24.630  1.00  0.00     0.232 C 
ATOM     19  H32 UNL     1      77.498   3.725  23.706  1.00  0.00     0.277 HD
ATOM     20  H31 UNL     1      76.882   3.493  25.123  1.00  0.00     0.277 HD
HETATM   21  C12 UNL     1      77.904   6.386  25.389  1.00  0.00     0.034 C 
ENDBRANCH  13  14
ENDBRANCH   1  13
TORSDOF 5
ENDMDL
MODEL 3
REMARK VINA RESULT: -6.091872954      0.833      1.417
REMARK  5 active torsions:
REMARK  status: ('A' for Active; 'I' for Inactive)
REMARK    1  A    between atoms: N1_5  and  C5_6 
REMARK    2  A    between atoms: C5_6  and  C6_7 
REMARK    3  A    between atoms: C6_7  and  N2_8 
REMARK    4  A    between atoms: N2_8  and  C7_11 
REMARK    5  A    between atoms: C7_11  and  C8_12 
ROOT
HETATM    1  N2  UNL     1      79.044   4.955  28.719  1.00  0.00    -0.073 N 
ATOM      2  H21 UNL     1      78.188   4.473  28.446  1.00  0.00     0.277 HD
ATOM      3  H22 UNL     1      79.695   4.190  28.542  1.00  0.00     0.277 HD
ENDROOT
BRANCH   1   4
HETATM    4  C6  UNL     1      79.034   5.383  30.144  1.00  0.00     0.262 C 
BRANCH   4   5
HETATM    5  C5  UNL     1      80.329   6.102  30.362  1.00  0.00     0.299 C 
BRANCH   5   6
HETATM    6  N1  UNL     1      80.894   5.839  31.672  1.00  0.00     0.090 N 
HETATM    7  C4  UNL     1      80.016   5.019  32.477  1.00  0.00     0.272 C 
HETATM    8  C3  UNL     1      80.110   5.517  33.902  1.00  0.00     0.030 C 
HETATM    9  C2  UNL     1      81.090   4.700  34.701  1.00  0.00     0.002 C 
HETATM   10  C1  UNL     1      82.296   4.267  33.891  1.00  0.00     0.002 C 
HETATM   11  C14 UNL     1      82.807   5.369  33.010  1.00  0.00     0.030 C 
HETATM   12  C13 UNL     1      82.203   5.277  31.604  1.00  0.00     0.272 C 
ENDBRANCH   5   6
ENDBRANCH   4   5
ENDBRANCH   1   4
BRANCH   1  13
HETATM   13  C7  UNL     1      79.316   6.129  27.896  1.00  0.00     0.237 C 
BRANCH  13  14
HETATM   14  C8  UNL     1      79.087   5.761  26.470  1.00  0.00     0.014 C 
HETATM   15  C9  UNL     1      77.940   6.465  25.809  1.00  0.00     0.034 C 
HETATM   16  C10 UNL     1      77.323   5.600  24.722  1.00  0.00     0.232 C 
HETATM   17  N3  UNL     1      78.251   4.752  24.045  1.00  0.00    -0.075 N 
HETATM   18  C11 UNL     1      79.023   3.900  24.904  1.00  0.00     0.232 C 
ATOM     19  H32 UNL     1      77.771   4.198  23.336  1.00  0.00     0.277 HD
ATOM     20  H31 UNL     1      78.867   5.306  23.449  1.00  0.00     0.277 HD
HETATM   21  C12 UNL     1      78.780   4.264  26.345  1.00  0.00     0.034 C 
ENDBRANCH  13  14
ENDBRANCH   1  13
TORSDOF 5
ENDMDL
MODEL 4
REMARK VINA RESULT: -6.066531579      1.078      2.023
REMARK  5 active torsions:
REMARK  status: ('A' for Active; 'I' for Inactive)
REMARK    1  A    between atoms: N1_5  and  C5_6 
REMARK    2  A    between atoms: C5_6  and  C6_7 
REMARK    3  A    between atoms: C6_7  and  N2_8 
REMARK    4  A    between atoms: N2_8  and  C7_11 
REMARK    5  A    between atoms: C7_11  and  C8_12 
ROOT
HETATM    1  N2  UNL     1      79.066   4.917  28.654  1.00  0.00    -0.073 N 
ATOM      2  H21 UNL     1      78.226   4.670  28.133  1.00  0.00     0.277 HD
ATOM      3  H22 UNL     1      79.355   3.971  28.905  1.00  0.00     0.277 HD
ENDROOT
BRANCH   1   4
HETATM    4  C6  UNL     1      78.777   5.764  29.843  1.00  0.00     0.262 C 
BRANCH   4   5
HETATM    5  C5  UNL     1      80.105   6.272  30.313  1.00  0.00     0.299 C 
BRANCH   5   6
HETATM    6  N1  UNL     1      80.645   5.483  31.404  1.00  0.00     0.090 N 
HETATM    7  C4  UNL     1      81.667   6.204  32.129  1.00  0.00     0.272 C 
HETATM    8  C3  UNL     1      82.736   5.208  32.517  1.00  0.00     0.030 C 
HETATM    9  C2  UNL     1      82.533   4.710  33.924  1.00  0.00     0.002 C 
HETATM   10  C1  UNL     1      81.070   4.540  34.283  1.00  0.00     0.002 C 
HETATM   11  C14 UNL     1      80.284   3.921  33.165  1.00  0.00     0.030 C 
HETATM   12  C13 UNL     1      79.635   4.997  32.285  1.00  0.00     0.272 C 
ENDBRANCH   5   6
ENDBRANCH   4   5
ENDBRANCH   1   4
BRANCH   1  13
HETATM   13  C7  UNL     1      80.055   5.611  27.834  1.00  0.00     0.237 C 
BRANCH  13  14
HETATM   14  C8  UNL     1      79.592   5.576  26.418  1.00  0.00     0.014 C 
HETATM   15  C9  UNL     1      78.568   6.610  26.060  1.00  0.00     0.034 C 
HETATM   16  C10 UNL     1      77.655   6.111  24.951  1.00  0.00     0.232 C 
HETATM   17  N3  UNL     1      78.287   5.239  24.014  1.00  0.00    -0.075 N 
HETATM   18  C11 UNL     1      78.937   4.100  24.598  1.00  0.00     0.232 C 
ATOM     19  H32 UNL     1      77.619   4.939  23.304  1.00  0.00     0.277 HD
ATOM     20  H31 UNL     1      78.942   5.760  23.430  1.00  0.00     0.277 HD
HETATM   21  C12 UNL     1      78.943   4.224  26.099  1.00  0.00     0.034 C 
ENDBRANCH  13  14
ENDBRANCH   1  13
TORSDOF 5
ENDMDL
MODEL 5
REMARK VINA RESULT: -6.052414365      1.293      1.942
REMARK  5 active torsions:
REMARK  status: ('A' for Active; 'I' for Inactive)
REMARK    1  A    between atoms: N1_5  and  C5_6 
REMARK    2  A    between atoms: C5_6  and  C6_7 
REMARK    3  A    between atoms: C6_7  and  N2_8 
REMARK    4  A    between atoms: N2_8  and  C7_11 
REMARK    5  A    between atoms: C7_11  and  C8_12 
ROOT
HETATM    1  N2  UNL     1      78.650   7.956  27.232  1.00  0.00    -0.073 N 
ATOM      2  H21 UNL     1      78.290   8.806  26.800  1.00  0.00     0.277 HD
ATOM      3  H22 UNL     1      77.811   7.385  27.130  1.00  0.00     0.277 HD
ENDROOT
BRANCH   1   4
HETATM    4  C6  UNL     1      79.040   8.155  28.654  1.00  0.00     0.262 C 
BRANCH   4   5
HETATM    5  C5  UNL     1      78.503   6.968  29.393  1.00  0.00     0.299 C 
BRANCH   5   6
HETATM    6  N1  UNL     1      79.347   6.583  30.509  1.00  0.00     0.090 N 
HETATM    7  C4  UNL     1      78.888   5.359  31.126  1.00  0.00     0.272 C 
HETATM    8  C3  UNL     1      79.099   5.496  32.617  1.00  0.00     0.030 C 
HETATM    9  C2  UNL     1      80.394   4.857  33.046  1.00  0.00     0.002 C 
HETATM   10  C1  UNL     1      81.505   5.036  32.030  1.00  0.00     0.002 C 
HETATM   11  C14 UNL     1      81.525   6.423  31.458  1.00  0.00     0.030 C 
HETATM   12  C13 UNL     1      80.725   6.494  30.151  1.00  0.00     0.272 C 
ENDBRANCH   5   6
ENDBRANCH   4   5
ENDBRANCH   1   4
BRANCH   1  13
HETATM   13  C7  UNL     1      79.799   7.404  26.520  1.00  0.00     0.237 C 
BRANCH  13  14
HETATM   14  C8  UNL     1      79.318   6.290  25.655  1.00  0.00     0.014 C 
HETATM   15  C9  UNL     1      77.828   6.164  25.551  1.00  0.00     0.034 C 
HETATM   16  C10 UNL     1      77.418   4.719  25.316  1.00  0.00     0.232 C 
HETATM   17  N3  UNL     1      78.350   3.959  24.546  1.00  0.00    -0.075 N 
HETATM   18  C11 UNL     1      79.692   3.962  25.055  1.00  0.00     0.232 C 
ATOM     19  H32 UNL     1      78.017   3.002  24.432  1.00  0.00     0.277 HD
ATOM     20  H31 UNL     1      78.340   4.267  23.573  1.00  0.00     0.277 HD
HETATM   21  C12 UNL     1      79.810   4.942  26.193  1.00  0.00     0.034 C 
ENDBRANCH  13  14
ENDBRANCH   1  13
TORSDOF 5
ENDMDL
