MODEL 1
REMARK VINA RESULT: -7.112271959      0.000      0.000
REMARK  5 active torsions:
REMARK  status: ('A' for Active; 'I' for Inactive)
REMARK    1  A    between atoms: C2_2  and  C3_3 
REMARK    2  A    between atoms: C3_3  and  N1_4 
REMARK    3  A    between atoms: N1_4  and  C4_6 
REMARK    4  A    between atoms: C6_12  and  N4_13 
REMARK    5  A    between atoms: N4_13  and  C7_15 
ROOT
HETATM    1  C4  UNL     1      78.925   5.308  27.872  1.00  0.00     0.693 A 
HETATM    2  N2  UNL     1      80.237   5.612  27.830  1.00  0.00    -0.187 N 
ATOM      3  H2  UNL     1      80.716   5.603  26.930  1.00  0.00     0.185 HD
HETATM    4  C5  UNL     1      80.945   5.929  28.941  1.00  0.00     0.215 A 
HETATM    5  N3  UNL     1      80.324   5.943  30.126  1.00  0.00    -0.187 N 
ATOM      6  H3  UNL     1      80.845   6.181  30.970  1.00  0.00     0.185 HD
HETATM    7  C6  UNL     1      79.016   5.646  30.210  1.00  0.00     0.698 A 
HETATM    8  N5  UNL     1      78.340   5.334  29.085  1.00  0.00    -0.022 N 
ATOM      9  H5  UNL     1      77.348   5.110  29.156  1.00  0.00     0.203 HD
ENDROOT
BRANCH   7  10
HETATM   10  N4  UNL     1      78.460   5.672  31.369  1.00  0.00    -0.191 N 
ATOM     11  H4  UNL     1      77.443   5.703  31.436  1.00  0.00     0.184 HD
BRANCH  10  12
HETATM   12  C7  UNL     1      79.235   5.660  32.557  1.00  0.00     0.049 A 
HETATM   13  C8  UNL     1      79.946   4.547  32.959  1.00  0.00     0.030 A 
HETATM   14  C9  UNL     1      80.702   4.530  34.116  1.00  0.00     0.002 A 
HETATM   15  C10 UNL     1      80.779   5.643  34.926  1.00  0.00     0.000 A 
HETATM   16  C11 UNL     1      80.074   6.761  34.534  1.00  0.00     0.002 A 
HETATM   17  C12 UNL     1      79.315   6.785  33.380  1.00  0.00     0.030 A 
ENDBRANCH  10  12
ENDBRANCH   7  10
BRANCH   1  18
HETATM   18  N1  UNL     1      78.260   5.007  26.806  1.00  0.00    -0.222 N 
ATOM     19  H1  UNL     1      78.348   4.085  26.380  1.00  0.00     0.178 HD
BRANCH  18  20
HETATM   20  C3  UNL     1      77.386   6.009  26.231  1.00  0.00     0.164 C 
BRANCH  20  21
HETATM   21  C2  UNL     1      76.668   5.476  25.049  1.00  0.00    -0.017 C 
HETATM   22  C1  UNL     1      76.269   6.269  24.059  1.00  0.00     0.008 C 
ENDBRANCH  20  21
ENDBRANCH  18  20
ENDBRANCH   1  18
TORSDOF 5
ENDMDL
MODEL 2
REMARK VINA RESULT: -7.093975541      1.019      1.532
REMARK  5 active torsions:
REMARK  status: ('A' for Active; 'I' for Inactive)
REMARK    1  A    between atoms: C2_2  and  C3_3 
REMARK    2  A    between atoms: C3_3  and  N1_4 
REMARK    3  A    between atoms: N1_4  and  C4_6 
REMARK    4  A    between atoms: C6_12  and  N4_13 
REMARK    5  A    between atoms: N4_13  and  C7_15 
ROOT
HETATM    1  C4  UNL     1      78.448   6.717  27.598  1.00  0.00     0.693 A 
HETATM    2  N2  UNL     1      79.772   6.580  27.383  1.00  0.00    -0.187 N 
ATOM      3  H2  UNL     1      80.168   6.934  26.513  1.00  0.00     0.185 HD
HETATM    4  C5  UNL     1      80.596   5.988  28.281  1.00  0.00     0.215 A 
HETATM    5  N3  UNL     1      80.084   5.522  29.425  1.00  0.00    -0.187 N 
ATOM      6  H3  UNL     1      80.694   5.075  30.110  1.00  0.00     0.185 HD
HETATM    7  C6  UNL     1      78.769   5.639  29.678  1.00  0.00     0.698 A 
HETATM    8  N5  UNL     1      77.975   6.233  28.763  1.00  0.00    -0.022 N 
ATOM      9  H5  UNL     1      76.978   6.318  28.961  1.00  0.00     0.203 HD
ENDROOT
BRANCH   7  10
HETATM   10  N4  UNL     1      78.320   5.177  30.790  1.00  0.00    -0.191 N 
ATOM     11  H4  UNL     1      77.466   4.620  30.793  1.00  0.00     0.184 HD
BRANCH  10  12
HETATM   12  C7  UNL     1      78.992   5.427  32.015  1.00  0.00     0.049 A 
HETATM   13  C8  UNL     1      78.942   6.655  32.642  1.00  0.00     0.030 A 
HETATM   14  C9  UNL     1      79.594   6.904  33.836  1.00  0.00     0.002 A 
HETATM   15  C10 UNL     1      80.332   5.918  34.456  1.00  0.00     0.000 A 
HETATM   16  C11 UNL     1      80.388   4.687  33.838  1.00  0.00     0.002 A 
HETATM   17  C12 UNL     1      79.740   4.431  32.646  1.00  0.00     0.030 A 
ENDBRANCH  10  12
ENDBRANCH   7  10
BRANCH   1  18
HETATM   18  N1  UNL     1      77.672   7.282  26.735  1.00  0.00    -0.222 N 
ATOM     19  H1  UNL     1      76.942   7.929  27.035  1.00  0.00     0.178 HD
BRANCH  18  20
HETATM   20  C3  UNL     1      77.860   6.977  25.332  1.00  0.00     0.164 C 
BRANCH  20  21
HETATM   21  C2  UNL     1      76.702   6.230  24.787  1.00  0.00    -0.017 C 
HETATM   22  C1  UNL     1      76.017   6.674  23.737  1.00  0.00     0.008 C 
ENDBRANCH  20  21
ENDBRANCH  18  20
ENDBRANCH   1  18
TORSDOF 5
ENDMDL
MODEL 3
REMARK VINA RESULT: -7.090811388      1.015      1.027
REMARK  5 active torsions:
REMARK  status: ('A' for Active; 'I' for Inactive)
REMARK    1  A    between atoms: C2_2  and  C3_3 
REMARK    2  A    between atoms: C3_3  and  N1_4 
REMARK    3  A    between atoms: N1_4  and  C4_6 
REMARK    4  A    between atoms: C6_12  and  N4_13 
REMARK    5  A    between atoms: N4_13  and  C7_15 
ROOT
HETATM    1  C4  UNL     1      78.458   6.724  27.611  1.00  0.00     0.693 A 
HETATM    2  N2  UNL     1      79.782   6.593  27.398  1.00  0.00    -0.187 N 
ATOM      3  H2  UNL     1      80.179   6.951  26.529  1.00  0.00     0.185 HD
HETATM    4  C5  UNL     1      80.607   6.002  28.295  1.00  0.00     0.215 A 
HETATM    5  N3  UNL     1      80.094   5.529  29.437  1.00  0.00    -0.187 N 
ATOM      6  H3  UNL     1      80.704   5.083  30.121  1.00  0.00     0.185 HD
HETATM    7  C6  UNL     1      78.778   5.640  29.687  1.00  0.00     0.698 A 
HETATM    8  N5  UNL     1      77.984   6.234  28.772  1.00  0.00    -0.022 N 
ATOM      9  H5  UNL     1      76.986   6.315  28.968  1.00  0.00     0.203 HD
ENDROOT
BRANCH   7  10
HETATM   10  N4  UNL     1      78.329   5.173  30.797  1.00  0.00    -0.191 N 
ATOM     11  H4  UNL     1      77.472   4.621  30.797  1.00  0.00     0.184 HD
BRANCH  10  12
HETATM   12  C7  UNL     1      79.004   5.410  32.022  1.00  0.00     0.049 A 
HETATM   13  C8  UNL     1      79.747   4.433  32.653  1.00  0.00     0.030 A 
HETATM   14  C9  UNL     1      80.406   4.659  33.846  1.00  0.00     0.002 A 
HETATM   15  C10 UNL     1      80.347   5.891  34.464  1.00  0.00     0.000 A 
HETATM   16  C11 UNL     1      79.608   6.875  33.842  1.00  0.00     0.002 A 
HETATM   17  C12 UNL     1      78.946   6.656  32.650  1.00  0.00     0.030 A 
ENDBRANCH  10  12
ENDBRANCH   7  10
BRANCH   1  18
HETATM   18  N1  UNL     1      77.681   7.289  26.747  1.00  0.00    -0.222 N 
ATOM     19  H1  UNL     1      76.948   7.932  27.048  1.00  0.00     0.178 HD
BRANCH  18  20
HETATM   20  C3  UNL     1      77.873   6.989  25.343  1.00  0.00     0.164 C 
BRANCH  20  21
HETATM   21  C2  UNL     1      76.719   6.237  24.794  1.00  0.00    -0.017 C 
HETATM   22  C1  UNL     1      76.037   6.678  23.742  1.00  0.00     0.008 C 
ENDBRANCH  20  21
ENDBRANCH  18  20
ENDBRANCH   1  18
TORSDOF 5
ENDMDL
MODEL 4
REMARK VINA RESULT: -7.008524326      1.594      2.003
REMARK  5 active torsions:
REMARK  status: ('A' for Active; 'I' for Inactive)
REMARK    1  A    between atoms: C2_2  and  C3_3 
REMARK    2  A    between atoms: C3_3  and  N1_4 
REMARK    3  A    between atoms: N1_4  and  C4_6 
REMARK    4  A    between atoms: C6_12  and  N4_13 
REMARK    5  A    between atoms: N4_13  and  C7_15 
ROOT
HETATM    1  C4  UNL     1      79.537   6.140  27.805  1.00  0.00     0.693 A 
HETATM    2  N2  UNL     1      78.669   7.148  27.590  1.00  0.00    -0.187 N 
ATOM      3  H2  UNL     1      78.767   7.709  26.744  1.00  0.00     0.185 HD
HETATM    4  C5  UNL     1      77.670   7.443  28.456  1.00  0.00     0.215 A 
HETATM    5  N3  UNL     1      77.535   6.710  29.567  1.00  0.00    -0.187 N 
ATOM      6  H3  UNL     1      76.787   6.922  30.227  1.00  0.00     0.185 HD
HETATM    7  C6  UNL     1      78.381   5.696  29.818  1.00  0.00     0.698 A 
HETATM    8  N5  UNL     1      79.365   5.428  28.935  1.00  0.00    -0.022 N 
ATOM      9  H5  UNL     1      80.004   4.658  29.132  1.00  0.00     0.203 HD
ENDROOT
BRANCH   7  10
HETATM   10  N4  UNL     1      78.214   5.019  30.898  1.00  0.00    -0.191 N 
ATOM     11  H4  UNL     1      77.536   4.258  30.911  1.00  0.00     0.184 HD
BRANCH  10  12
HETATM   12  C7  UNL     1      78.956   5.310  32.072  1.00  0.00     0.049 A 
HETATM   13  C8  UNL     1      79.776   4.378  32.673  1.00  0.00     0.030 A 
HETATM   14  C9  UNL     1      80.500   4.657  33.817  1.00  0.00     0.002 A 
HETATM   15  C10 UNL     1      80.431   5.900  34.411  1.00  0.00     0.000 A 
HETATM   16  C11 UNL     1      79.615   6.840  33.818  1.00  0.00     0.002 A 
HETATM   17  C12 UNL     1      78.888   6.567  32.676  1.00  0.00     0.030 A 
ENDBRANCH  10  12
ENDBRANCH   7  10
BRANCH   1  18
HETATM   18  N1  UNL     1      80.486   5.867  26.972  1.00  0.00    -0.222 N 
ATOM     19  H1  UNL     1      81.407   5.583  27.305  1.00  0.00     0.178 HD
BRANCH  18  20
HETATM   20  C3  UNL     1      80.213   5.975  25.553  1.00  0.00     0.164 C 
BRANCH  20  21
HETATM   21  C2  UNL     1      79.893   4.651  24.969  1.00  0.00    -0.017 C 
HETATM   22  C1  UNL     1      78.638   4.267  24.758  1.00  0.00     0.008 C 
ENDBRANCH  20  21
ENDBRANCH  18  20
ENDBRANCH   1  18
TORSDOF 5
ENDMDL
MODEL 5
REMARK VINA RESULT: -7.002755605      1.580      2.289
REMARK  5 active torsions:
REMARK  status: ('A' for Active; 'I' for Inactive)
REMARK    1  A    between atoms: C2_2  and  C3_3 
REMARK    2  A    between atoms: C3_3  and  N1_4 
REMARK    3  A    between atoms: N1_4  and  C4_6 
REMARK    4  A    between atoms: C6_12  and  N4_13 
REMARK    5  A    between atoms: N4_13  and  C7_15 
ROOT
HETATM    1  C4  UNL     1      79.569   6.135  27.855  1.00  0.00     0.693 A 
HETATM    2  N2  UNL     1      78.711   7.151  27.638  1.00  0.00    -0.187 N 
ATOM      3  H2  UNL     1      78.813   7.710  26.791  1.00  0.00     0.185 HD
HETATM    4  C5  UNL     1      77.716   7.459  28.505  1.00  0.00     0.215 A 
HETATM    5  N3  UNL     1      77.575   6.730  29.618  1.00  0.00    -0.187 N 
ATOM      6  H3  UNL     1      76.830   6.950  30.278  1.00  0.00     0.185 HD
HETATM    7  C6  UNL     1      78.411   5.708  29.870  1.00  0.00     0.698 A 
HETATM    8  N5  UNL     1      79.392   5.429  28.987  1.00  0.00    -0.022 N 
ATOM      9  H5  UNL     1      80.023   4.653  29.185  1.00  0.00     0.203 HD
ENDROOT
BRANCH   7  10
HETATM   10  N4  UNL     1      78.239   5.035  30.952  1.00  0.00    -0.191 N 
ATOM     11  H4  UNL     1      77.557   4.277  30.966  1.00  0.00     0.184 HD
BRANCH  10  12
HETATM   12  C7  UNL     1      78.979   5.327  32.126  1.00  0.00     0.049 A 
HETATM   13  C8  UNL     1      78.938   6.567  32.732  1.00  0.00     0.030 A 
HETATM   14  C9  UNL     1      79.658   6.856  33.876  1.00  0.00     0.002 A 
HETATM   15  C10 UNL     1      80.458   5.901  34.468  1.00  0.00     0.000 A 
HETATM   16  C11 UNL     1      80.506   4.659  33.872  1.00  0.00     0.002 A 
HETATM   17  C12 UNL     1      79.790   4.363  32.728  1.00  0.00     0.030 A 
ENDBRANCH  10  12
ENDBRANCH   7  10
BRANCH   1  18
HETATM   18  N1  UNL     1      80.515   5.852  27.021  1.00  0.00    -0.222 N 
ATOM     19  H1  UNL     1      81.430   5.550  27.355  1.00  0.00     0.178 HD
BRANCH  18  20
HETATM   20  C3  UNL     1      80.246   5.972  25.603  1.00  0.00     0.164 C 
BRANCH  20  21
HETATM   21  C2  UNL     1      79.911   4.656  25.009  1.00  0.00    -0.017 C 
HETATM   22  C1  UNL     1      78.657   4.318  24.725  1.00  0.00     0.008 C 
ENDBRANCH  20  21
ENDBRANCH  18  20
ENDBRANCH   1  18
TORSDOF 5
ENDMDL
