MODEL 1
REMARK VINA RESULT: -6.867502419      0.000      0.000
REMARK  4 active torsions:
REMARK  status: ('A' for Active; 'I' for Inactive)
REMARK    1  A    between atoms: N1_1  and  C1_4 
REMARK    2  A    between atoms: C4_7  and  S1_8 
REMARK    3  A    between atoms: S1_8  and  C5_10 
REMARK    4  A    between atoms: C5_10  and  C6_11 
ROOT
HETATM    1  C1  UNL     1      78.190   5.472  25.531  1.00  0.00     0.098 A 
HETATM    2  C2  UNL     1      77.625   6.678  25.878  1.00  0.00     0.049 A 
HETATM    3  C3  UNL     1      77.738   7.098  27.182  1.00  0.00     0.026 A 
HETATM    4  C4  UNL     1      78.391   6.360  28.146  1.00  0.00     0.047 A 
HETATM    5  C11 UNL     1      78.942   5.158  27.755  1.00  0.00     0.110 A 
HETATM    6  N3  UNL     1      78.828   4.747  26.465  1.00  0.00    -0.351 N 
ATOM      7  H3  UNL     1      79.244   3.855  26.195  1.00  0.00     0.166 HD
ENDROOT
BRANCH   4   8
HETATM    8  S1  UNL     1      78.535   6.883  29.787  1.00  0.00     0.056 S 
HETATM    9  O1  UNL     1      77.644   8.238  30.139  1.00  0.00    -0.252 OA
BRANCH   8  10
HETATM   10  C5  UNL     1      78.239   5.564  30.903  1.00  0.00     0.171 C 
BRANCH  10  11
HETATM   11  C6  UNL     1      78.963   5.777  32.182  1.00  0.00     0.021 A 
HETATM   12  C7  UNL     1      79.730   4.726  32.669  1.00  0.00     0.026 A 
HETATM   13  C8  UNL     1      80.440   4.819  33.846  1.00  0.00     0.003 A 
HETATM   14  C9  UNL     1      80.377   6.000  34.554  1.00  0.00     0.017 A 
HETATM   15  C10 UNL     1      79.599   7.026  34.031  1.00  0.00     0.088 A 
HETATM   16  N2  UNL     1      78.916   6.903  32.878  1.00  0.00    -0.368 N 
ATOM     17  H2  UNL     1      78.357   7.685  32.537  1.00  0.00     0.165 HD
ENDBRANCH  10  11
ENDBRANCH   8  10
ENDBRANCH   4   8
BRANCH   1  18
HETATM   18  N1  UNL     1      78.111   5.028  24.302  1.00  0.00    -0.385 N 
ATOM     19  H12 UNL     1      77.256   5.172  23.764  1.00  0.00     0.157 HD
ATOM     20  H11 UNL     1      78.897   4.537  23.876  1.00  0.00     0.157 HD
ENDBRANCH   1  18
TORSDOF 4
ENDMDL
MODEL 2
REMARK VINA RESULT: -6.802656865      0.765      1.211
REMARK  4 active torsions:
REMARK  status: ('A' for Active; 'I' for Inactive)
REMARK    1  A    between atoms: N1_1  and  C1_4 
REMARK    2  A    between atoms: C4_7  and  S1_8 
REMARK    3  A    between atoms: S1_8  and  C5_10 
REMARK    4  A    between atoms: C5_10  and  C6_11 
ROOT
HETATM    1  C1  UNL     1      78.161   5.557  25.447  1.00  0.00     0.098 A 
HETATM    2  C2  UNL     1      77.599   6.758  25.814  1.00  0.00     0.049 A 
HETATM    3  C3  UNL     1      77.687   7.143  27.131  1.00  0.00     0.026 A 
HETATM    4  C4  UNL     1      78.312   6.374  28.089  1.00  0.00     0.047 A 
HETATM    5  C11 UNL     1      78.861   5.177  27.678  1.00  0.00     0.110 A 
HETATM    6  N3  UNL     1      78.772   4.802  26.375  1.00  0.00    -0.351 N 
ATOM      7  H3  UNL     1      79.185   3.913  26.090  1.00  0.00     0.166 HD
ENDROOT
BRANCH   4   8
HETATM    8  S1  UNL     1      78.425   6.852  29.746  1.00  0.00     0.056 S 
HETATM    9  O1  UNL     1      77.650   8.279  30.085  1.00  0.00    -0.252 OA
BRANCH   8  10
HETATM   10  C5  UNL     1      77.951   5.547  30.816  1.00  0.00     0.171 C 
BRANCH  10  11
HETATM   11  C6  UNL     1      78.855   5.470  31.993  1.00  0.00     0.021 A 
HETATM   12  C7  UNL     1      78.962   6.600  32.794  1.00  0.00     0.026 A 
HETATM   13  C8  UNL     1      79.773   6.635  33.908  1.00  0.00     0.003 A 
HETATM   14  C9  UNL     1      80.495   5.504  34.225  1.00  0.00     0.017 A 
HETATM   15  C10 UNL     1      80.357   4.397  33.397  1.00  0.00     0.088 A 
HETATM   16  N2  UNL     1      79.557   4.395  32.315  1.00  0.00    -0.368 N 
ATOM     17  H2  UNL     1      79.491   3.556  31.738  1.00  0.00     0.165 HD
ENDBRANCH  10  11
ENDBRANCH   8  10
ENDBRANCH   4   8
BRANCH   1  18
HETATM   18  N1  UNL     1      78.105   5.146  24.205  1.00  0.00    -0.385 N 
ATOM     19  H12 UNL     1      77.600   5.696  23.510  1.00  0.00     0.157 HD
ATOM     20  H11 UNL     1      78.562   4.278  23.924  1.00  0.00     0.157 HD
ENDBRANCH   1  18
TORSDOF 4
ENDMDL
MODEL 3
REMARK VINA RESULT: -6.592134891      1.618      7.032
REMARK  4 active torsions:
REMARK  status: ('A' for Active; 'I' for Inactive)
REMARK    1  A    between atoms: N1_1  and  C1_4 
REMARK    2  A    between atoms: C4_7  and  S1_8 
REMARK    3  A    between atoms: S1_8  and  C5_10 
REMARK    4  A    between atoms: C5_10  and  C6_11 
ROOT
HETATM    1  C1  UNL     1      80.586   5.800  34.851  1.00  0.00     0.098 A 
HETATM    2  C2  UNL     1      80.653   4.646  34.105  1.00  0.00     0.049 A 
HETATM    3  C3  UNL     1      79.971   4.602  32.912  1.00  0.00     0.026 A 
HETATM    4  C4  UNL     1      79.230   5.664  32.441  1.00  0.00     0.047 A 
HETATM    5  C11 UNL     1      79.190   6.801  33.220  1.00  0.00     0.110 A 
HETATM    6  N3  UNL     1      79.865   6.840  34.399  1.00  0.00    -0.351 N 
ATOM      7  H3  UNL     1      79.823   7.690  34.961  1.00  0.00     0.166 HD
ENDROOT
BRANCH   4   8
HETATM    8  S1  UNL     1      78.371   5.615  30.941  1.00  0.00     0.056 S 
HETATM    9  O1  UNL     1      76.722   5.566  31.116  1.00  0.00    -0.252 OA
BRANCH   8  10
HETATM   10  C5  UNL     1      78.905   6.888  29.862  1.00  0.00     0.171 C 
BRANCH  10  11
HETATM   11  C6  UNL     1      78.579   6.559  28.450  1.00  0.00     0.021 A 
HETATM   12  C7  UNL     1      78.188   7.604  27.622  1.00  0.00     0.026 A 
HETATM   13  C8  UNL     1      77.863   7.407  26.297  1.00  0.00     0.003 A 
HETATM   14  C9  UNL     1      77.932   6.127  25.791  1.00  0.00     0.017 A 
HETATM   15  C10 UNL     1      78.328   5.112  26.654  1.00  0.00     0.088 A 
HETATM   16  N2  UNL     1      78.639   5.337  27.944  1.00  0.00    -0.368 N 
ATOM     17  H2  UNL     1      78.923   4.558  28.538  1.00  0.00     0.165 HD
ENDBRANCH  10  11
ENDBRANCH   8  10
ENDBRANCH   4   8
BRANCH   1  18
HETATM   18  N1  UNL     1      81.217   5.893  35.994  1.00  0.00    -0.385 N 
ATOM     19  H12 UNL     1      81.244   5.092  36.626  1.00  0.00     0.157 HD
ATOM     20  H11 UNL     1      81.683   6.760  36.261  1.00  0.00     0.157 HD
ENDBRANCH   1  18
TORSDOF 4
ENDMDL
MODEL 4
REMARK VINA RESULT: -6.574063375      1.037      1.691
REMARK  4 active torsions:
REMARK  status: ('A' for Active; 'I' for Inactive)
REMARK    1  A    between atoms: N1_1  and  C1_4 
REMARK    2  A    between atoms: C4_7  and  S1_8 
REMARK    3  A    between atoms: S1_8  and  C5_10 
REMARK    4  A    between atoms: C5_10  and  C6_11 
ROOT
HETATM    1  C1  UNL     1      78.115   5.665  25.426  1.00  0.00     0.098 A 
HETATM    2  C2  UNL     1      78.772   4.822  26.293  1.00  0.00     0.049 A 
HETATM    3  C3  UNL     1      78.865   5.190  27.614  1.00  0.00     0.026 A 
HETATM    4  C4  UNL     1      78.328   6.365  28.097  1.00  0.00     0.047 A 
HETATM    5  C11 UNL     1      77.679   7.180  27.194  1.00  0.00     0.110 A 
HETATM    6  N3  UNL     1      77.589   6.811  25.889  1.00  0.00    -0.351 N 
ATOM      7  H3  UNL     1      77.104   7.427  25.236  1.00  0.00     0.166 HD
ENDROOT
BRANCH   4   8
HETATM    8  S1  UNL     1      78.443   6.833  29.757  1.00  0.00     0.056 S 
HETATM    9  O1  UNL     1      77.657   8.252  30.107  1.00  0.00    -0.252 OA
BRANCH   8  10
HETATM   10  C5  UNL     1      77.982   5.518  30.820  1.00  0.00     0.171 C 
BRANCH  10  11
HETATM   11  C6  UNL     1      78.880   5.452  32.002  1.00  0.00     0.021 A 
HETATM   12  C7  UNL     1      78.976   6.585  32.799  1.00  0.00     0.026 A 
HETATM   13  C8  UNL     1      79.780   6.630  33.918  1.00  0.00     0.003 A 
HETATM   14  C9  UNL     1      80.508   5.506  34.243  1.00  0.00     0.017 A 
HETATM   15  C10 UNL     1      80.382   4.394  33.419  1.00  0.00     0.088 A 
HETATM   16  N2  UNL     1      79.588   4.382  32.333  1.00  0.00    -0.368 N 
ATOM     17  H2  UNL     1      79.532   3.542  31.758  1.00  0.00     0.165 HD
ENDBRANCH  10  11
ENDBRANCH   8  10
ENDBRANCH   4   8
BRANCH   1  18
HETATM   18  N1  UNL     1      77.999   5.359  24.158  1.00  0.00    -0.385 N 
ATOM     19  H12 UNL     1      77.095   5.065  23.788  1.00  0.00     0.157 HD
ATOM     20  H11 UNL     1      78.804   5.413  23.535  1.00  0.00     0.157 HD
ENDBRANCH   1  18
TORSDOF 4
ENDMDL
MODEL 5
REMARK VINA RESULT: -6.543170707      1.471      1.679
REMARK  4 active torsions:
REMARK  status: ('A' for Active; 'I' for Inactive)
REMARK    1  A    between atoms: N1_1  and  C1_4 
REMARK    2  A    between atoms: C4_7  and  S1_8 
REMARK    3  A    between atoms: S1_8  and  C5_10 
REMARK    4  A    between atoms: C5_10  and  C6_11 
ROOT
HETATM    1  C1  UNL     1      77.431   5.303  25.844  1.00  0.00     0.098 A 
HETATM    2  C2  UNL     1      77.286   6.661  26.015  1.00  0.00     0.049 A 
HETATM    3  C3  UNL     1      77.914   7.253  27.085  1.00  0.00     0.026 A 
HETATM    4  C4  UNL     1      78.679   6.541  27.985  1.00  0.00     0.047 A 
HETATM    5  C11 UNL     1      78.797   5.183  27.775  1.00  0.00     0.110 A 
HETATM    6  N3  UNL     1      78.175   4.602  26.716  1.00  0.00    -0.351 N 
ATOM      7  H3  UNL     1      78.275   3.596  26.578  1.00  0.00     0.166 HD
ENDROOT
BRANCH   4   8
HETATM    8  S1  UNL     1      79.471   7.280  29.331  1.00  0.00     0.056 S 
HETATM    9  O1  UNL     1      78.473   7.547  30.630  1.00  0.00    -0.252 OA
BRANCH   8  10
HETATM   10  C5  UNL     1      80.933   6.413  29.761  1.00  0.00     0.171 C 
BRANCH  10  11
HETATM   11  C6  UNL     1      80.797   5.772  31.095  1.00  0.00     0.021 A 
HETATM   12  C7  UNL     1      81.892   5.830  31.948  1.00  0.00     0.026 A 
HETATM   13  C8  UNL     1      81.871   5.267  33.206  1.00  0.00     0.003 A 
HETATM   14  C9  UNL     1      80.721   4.629  33.617  1.00  0.00     0.017 A 
HETATM   15  C10 UNL     1      79.650   4.596  32.732  1.00  0.00     0.088 A 
HETATM   16  N2  UNL     1      79.701   5.155  31.509  1.00  0.00    -0.368 N 
ATOM     17  H2  UNL     1      78.888   5.102  30.895  1.00  0.00     0.165 HD
ENDBRANCH  10  11
ENDBRANCH   8  10
ENDBRANCH   4   8
BRANCH   1  18
HETATM   18  N1  UNL     1      76.853   4.691  24.841  1.00  0.00    -0.385 N 
ATOM     19  H12 UNL     1      75.839   4.587  24.827  1.00  0.00     0.157 HD
ATOM     20  H11 UNL     1      77.409   4.317  24.072  1.00  0.00     0.157 HD
ENDBRANCH   1  18
TORSDOF 4
ENDMDL
