MODEL 1
REMARK VINA RESULT: -7.813333790      0.000      0.000
REMARK  4 active torsions:
REMARK  status: ('A' for Active; 'I' for Inactive)
REMARK    1  A    between atoms: C6_7  and  C7_8 
REMARK    2  A    between atoms: C7_8  and  N2_9 
REMARK    3  A    between atoms: N2_9  and  C8_11 
REMARK    4  A    between atoms: C10_13  and  C11_14 
ROOT
HETATM    1  N1  UNL     1      77.682   6.122  30.735  1.00  0.00    -0.191 NA
HETATM    2  C1  UNL     1      78.395   5.956  31.632  1.00  0.00     0.099 C 
HETATM    3  C2  UNL     1      79.282   5.736  32.751  1.00  0.00     0.045 A 
HETATM    4  C3  UNL     1      79.938   4.519  32.918  1.00  0.00     0.022 A 
HETATM    5  C4  UNL     1      80.787   4.302  33.984  1.00  0.00     0.002 A 
HETATM    6  C5  UNL     1      81.014   5.289  34.925  1.00  0.00     0.009 A 
HETATM    7  C6  UNL     1      80.379   6.494  34.779  1.00  0.00    -0.039 A 
HETATM    8  C12 UNL     1      79.531   6.695  33.704  1.00  0.00     0.031 A 
ENDROOT
BRANCH   7   9
HETATM    9  C7  UNL     1      80.583   7.601  35.759  1.00  0.00     0.160 C 
BRANCH   9  10
HETATM   10  N2  UNL     1      79.519   8.545  35.627  1.00  0.00    -0.371 N 
ATOM     11  H2  UNL     1      79.260   8.853  34.689  1.00  0.00     0.161 HD
BRANCH  10  12
HETATM   12  C8  UNL     1      78.868   9.031  36.629  1.00  0.00     0.118 A 
HETATM   13  C9  UNL     1      79.413   9.345  37.856  1.00  0.00     0.083 A 
HETATM   14  C10 UNL     1      78.407   9.845  38.691  1.00  0.00     0.089 A 
HETATM   15  N3  UNL     1      77.295   9.812  37.934  1.00  0.00    -0.296 N 
HETATM   16  N4  UNL     1      77.563   9.337  36.734  1.00  0.00    -0.285 N 
ATOM     17  H3  UNL     1      76.372  10.112  38.246  1.00  0.00     0.187 HD
ATOM     18  H4  UNL     1      76.876   9.219  35.989  1.00  0.00     0.188 HD
BRANCH  14  19
HETATM   19  C11 UNL     1      78.562  10.293  40.067  1.00  0.00     0.289 C 
HETATM   20  O1  UNL     1      77.580  10.653  40.754  1.00  0.00    -0.300 OA
ENDBRANCH  14  19
ENDBRANCH  10  12
ENDBRANCH   9  10
ENDBRANCH   7   9
TORSDOF 4
ENDMDL
MODEL 2
REMARK VINA RESULT: -7.374659206      4.963      8.655
REMARK  4 active torsions:
REMARK  status: ('A' for Active; 'I' for Inactive)
REMARK    1  A    between atoms: C6_7  and  C7_8 
REMARK    2  A    between atoms: C7_8  and  N2_9 
REMARK    3  A    between atoms: N2_9  and  C8_11 
REMARK    4  A    between atoms: C10_13  and  C11_14 
ROOT
HETATM    1  N1  UNL     1      80.125   8.651  36.160  1.00  0.00    -0.191 NA
HETATM    2  C1  UNL     1      80.052   7.772  35.411  1.00  0.00     0.099 C 
HETATM    3  C2  UNL     1      79.973   6.672  34.478  1.00  0.00     0.045 A 
HETATM    4  C3  UNL     1      80.656   5.480  34.714  1.00  0.00     0.022 A 
HETATM    5  C4  UNL     1      80.584   4.425  33.828  1.00  0.00     0.002 A 
HETATM    6  C5  UNL     1      79.832   4.516  32.673  1.00  0.00     0.009 A 
HETATM    7  C6  UNL     1      79.153   5.679  32.421  1.00  0.00    -0.039 A 
HETATM    8  C12 UNL     1      79.234   6.728  33.320  1.00  0.00     0.031 A 
ENDROOT
BRANCH   7   9
HETATM    9  C7  UNL     1      78.321   5.840  31.192  1.00  0.00     0.160 C 
BRANCH   9  10
HETATM   10  N2  UNL     1      79.178   5.887  30.049  1.00  0.00    -0.371 N 
ATOM     11  H2  UNL     1      80.183   5.975  30.203  1.00  0.00     0.161 HD
BRANCH  10  12
HETATM   12  C8  UNL     1      78.751   5.823  28.834  1.00  0.00     0.118 A 
HETATM   13  C9  UNL     1      79.386   5.169  27.799  1.00  0.00     0.083 A 
HETATM   14  C10 UNL     1      78.630   5.316  26.631  1.00  0.00     0.089 A 
HETATM   15  N3  UNL     1      77.569   6.053  27.007  1.00  0.00    -0.296 N 
HETATM   16  N4  UNL     1      77.639   6.348  28.290  1.00  0.00    -0.285 N 
ATOM     17  H3  UNL     1      76.814   6.343  26.386  1.00  0.00     0.187 HD
ATOM     18  H4  UNL     1      76.947   6.899  28.798  1.00  0.00     0.188 HD
BRANCH  14  19
HETATM   19  C11 UNL     1      78.948   4.779  25.316  1.00  0.00     0.289 C 
HETATM   20  O1  UNL     1      78.079   4.227  24.605  1.00  0.00    -0.300 OA
ENDBRANCH  14  19
ENDBRANCH  10  12
ENDBRANCH   9  10
ENDBRANCH   7   9
TORSDOF 4
ENDMDL
MODEL 3
REMARK VINA RESULT: -7.367908541      1.115      1.209
REMARK  4 active torsions:
REMARK  status: ('A' for Active; 'I' for Inactive)
REMARK    1  A    between atoms: C6_7  and  C7_8 
REMARK    2  A    between atoms: C7_8  and  N2_9 
REMARK    3  A    between atoms: N2_9  and  C8_11 
REMARK    4  A    between atoms: C10_13  and  C11_14 
ROOT
HETATM    1  N1  UNL     1      77.416   6.053  30.380  1.00  0.00    -0.191 NA
HETATM    2  C1  UNL     1      78.144   5.959  31.275  1.00  0.00     0.099 C 
HETATM    3  C2  UNL     1      79.048   5.829  32.394  1.00  0.00     0.045 A 
HETATM    4  C3  UNL     1      79.609   4.598  32.725  1.00  0.00     0.022 A 
HETATM    5  C4  UNL     1      80.473   4.467  33.792  1.00  0.00     0.002 A 
HETATM    6  C5  UNL     1      80.811   5.557  34.572  1.00  0.00     0.009 A 
HETATM    7  C6  UNL     1      80.271   6.777  34.264  1.00  0.00    -0.039 A 
HETATM    8  C12 UNL     1      79.405   6.892  33.190  1.00  0.00     0.031 A 
ENDROOT
BRANCH   7   9
HETATM    9  C7  UNL     1      80.597   7.994  35.066  1.00  0.00     0.160 C 
BRANCH   9  10
HETATM   10  N2  UNL     1      79.442   8.388  35.810  1.00  0.00    -0.371 N 
ATOM     11  H2  UNL     1      78.546   8.424  35.325  1.00  0.00     0.161 HD
BRANCH  10  12
HETATM   12  C8  UNL     1      79.472   8.700  37.061  1.00  0.00     0.118 A 
HETATM   13  C9  UNL     1      78.665   9.640  37.667  1.00  0.00     0.083 A 
HETATM   14  C10 UNL     1      78.982   9.707  39.028  1.00  0.00     0.089 A 
HETATM   15  N3  UNL     1      79.967   8.806  39.189  1.00  0.00    -0.296 N 
HETATM   16  N4  UNL     1      80.253   8.219  38.044  1.00  0.00    -0.285 N 
ATOM     17  H3  UNL     1      80.430   8.604  40.075  1.00  0.00     0.187 HD
ATOM     18  H4  UNL     1      80.967   7.502  37.921  1.00  0.00     0.188 HD
BRANCH  14  19
HETATM   19  C11 UNL     1      78.364  10.572  40.023  1.00  0.00     0.289 C 
HETATM   20  O1  UNL     1      77.127  10.570  40.216  1.00  0.00    -0.300 OA
ENDBRANCH  14  19
ENDBRANCH  10  12
ENDBRANCH   9  10
ENDBRANCH   7   9
TORSDOF 4
ENDMDL
MODEL 4
REMARK VINA RESULT: -7.167103634      4.724      8.393
REMARK  4 active torsions:
REMARK  status: ('A' for Active; 'I' for Inactive)
REMARK    1  A    between atoms: C6_7  and  C7_8 
REMARK    2  A    between atoms: C7_8  and  N2_9 
REMARK    3  A    between atoms: N2_9  and  C8_11 
REMARK    4  A    between atoms: C10_13  and  C11_14 
ROOT
HETATM    1  N1  UNL     1      80.037   8.930  36.031  1.00  0.00    -0.191 NA
HETATM    2  C1  UNL     1      80.012   7.987  35.361  1.00  0.00     0.099 C 
HETATM    3  C2  UNL     1      79.992   6.807  34.528  1.00  0.00     0.045 A 
HETATM    4  C3  UNL     1      80.725   5.673  34.873  1.00  0.00     0.022 A 
HETATM    5  C4  UNL     1      80.711   4.542  34.083  1.00  0.00     0.002 A 
HETATM    6  C5  UNL     1      79.968   4.497  32.919  1.00  0.00     0.009 A 
HETATM    7  C6  UNL     1      79.240   5.601  32.561  1.00  0.00    -0.039 A 
HETATM    8  C12 UNL     1      79.265   6.728  33.365  1.00  0.00     0.031 A 
ENDROOT
BRANCH   7   9
HETATM    9  C7  UNL     1      78.415   5.616  31.316  1.00  0.00     0.160 C 
BRANCH   9  10
HETATM   10  N2  UNL     1      79.261   5.892  30.198  1.00  0.00    -0.371 N 
ATOM     11  H2  UNL     1      80.221   6.184  30.379  1.00  0.00     0.161 HD
BRANCH  10  12
HETATM   12  C8  UNL     1      78.875   5.792  28.971  1.00  0.00     0.118 A 
HETATM   13  C9  UNL     1      78.713   6.848  28.098  1.00  0.00     0.083 A 
HETATM   14  C10 UNL     1      78.285   6.358  26.860  1.00  0.00     0.089 A 
HETATM   15  N3  UNL     1      78.205   5.026  27.034  1.00  0.00    -0.296 N 
HETATM   16  N4  UNL     1      78.548   4.697  28.264  1.00  0.00    -0.285 N 
ATOM     17  H3  UNL     1      77.918   4.363  26.315  1.00  0.00     0.187 HD
ATOM     18  H4  UNL     1      78.563   3.744  28.627  1.00  0.00     0.188 HD
BRANCH  14  19
HETATM   19  C11 UNL     1      77.998   7.141  25.667  1.00  0.00     0.289 C 
HETATM   20  O1  UNL     1      77.163   6.761  24.817  1.00  0.00    -0.300 OA
ENDBRANCH  14  19
ENDBRANCH  10  12
ENDBRANCH   9  10
ENDBRANCH   7   9
TORSDOF 4
ENDMDL
MODEL 5
REMARK VINA RESULT: -7.113903578      7.632     11.415
REMARK  4 active torsions:
REMARK  status: ('A' for Active; 'I' for Inactive)
REMARK    1  A    between atoms: C6_7  and  C7_8 
REMARK    2  A    between atoms: C7_8  and  N2_9 
REMARK    3  A    between atoms: N2_9  and  C8_11 
REMARK    4  A    between atoms: C10_13  and  C11_14 
ROOT
HETATM    1  N1  UNL     1      77.380   5.857  31.226  1.00  0.00    -0.191 NA
HETATM    2  C1  UNL     1      77.800   6.297  30.241  1.00  0.00     0.099 C 
HETATM    3  C2  UNL     1      78.315   6.856  29.013  1.00  0.00     0.045 A 
HETATM    4  C3  UNL     1      78.296   8.230  28.786  1.00  0.00     0.022 A 
HETATM    5  C4  UNL     1      78.788   8.770  27.615  1.00  0.00     0.002 A 
HETATM    6  C5  UNL     1      79.315   7.964  26.625  1.00  0.00     0.009 A 
HETATM    7  C6  UNL     1      79.342   6.609  26.828  1.00  0.00    -0.039 A 
HETATM    8  C12 UNL     1      78.846   6.082  28.008  1.00  0.00     0.031 A 
ENDROOT
BRANCH   7   9
HETATM    9  C7  UNL     1      79.900   5.683  25.798  1.00  0.00     0.160 C 
BRANCH   9  10
HETATM   10  N2  UNL     1      79.232   5.907  24.555  1.00  0.00    -0.371 N 
ATOM     11  H2  UNL     1      79.781   6.251  23.768  1.00  0.00     0.161 HD
BRANCH  10  12
HETATM   12  C8  UNL     1      77.972   5.699  24.375  1.00  0.00     0.118 A 
HETATM   13  C9  UNL     1      77.134   6.489  23.616  1.00  0.00     0.083 A 
HETATM   14  C10 UNL     1      75.842   5.955  23.652  1.00  0.00     0.089 A 
HETATM   15  N3  UNL     1      75.951   4.865  24.433  1.00  0.00    -0.296 N 
HETATM   16  N4  UNL     1      77.190   4.716  24.854  1.00  0.00    -0.285 N 
ATOM     17  H3  UNL     1      75.179   4.239  24.667  1.00  0.00     0.187 HD
ATOM     18  H4  UNL     1      77.511   3.960  25.459  1.00  0.00     0.188 HD
BRANCH  14  19
HETATM   19  C11 UNL     1      74.663   6.486  22.984  1.00  0.00     0.289 C 
HETATM   20  O1  UNL     1      73.758   5.735  22.556  1.00  0.00    -0.300 OA
ENDBRANCH  14  19
ENDBRANCH  10  12
ENDBRANCH   9  10
ENDBRANCH   7   9
TORSDOF 4
ENDMDL
