MODEL 1
REMARK VINA RESULT: -6.841837559      0.000      0.000
REMARK  5 active torsions:
REMARK  status: ('A' for Active; 'I' for Inactive)
REMARK    1  A    between atoms: C2_2  and  N1_3 
REMARK    2  A    between atoms: N1_3  and  C3_5 
REMARK    3  A    between atoms: C6_10  and  N3_11 
REMARK    4  A    between atoms: N3_11  and  C7_13 
REMARK    5  A    between atoms: C10_16  and  O1_17 
ROOT
HETATM    1  C3  UNL     1      78.857   5.426  27.989  1.00  0.00     0.118 A 
HETATM    2  C4  UNL     1      79.821   6.379  27.740  1.00  0.00     0.066 A 
HETATM    3  C5  UNL     1      80.275   7.147  28.801  1.00  0.00     0.110 A 
HETATM    4  N2  UNL     1      79.748   6.920  30.028  1.00  0.00    -0.202 N 
ATOM      5  H2  UNL     1      80.082   7.484  30.809  1.00  0.00     0.183 HD
HETATM    6  C6  UNL     1      78.821   6.005  30.267  1.00  0.00     0.684 A 
HETATM    7  N4  UNL     1      78.369   5.252  29.252  1.00  0.00    -0.177 N 
ATOM      8  H4  UNL     1      77.656   4.544  29.426  1.00  0.00     0.186 HD
ENDROOT
BRANCH   6   9
HETATM    9  N3  UNL     1      78.346   5.823  31.454  1.00  0.00    -0.192 N 
ATOM     10  H3  UNL     1      77.337   5.730  31.573  1.00  0.00     0.184 HD
BRANCH   9  11
HETATM   11  C7  UNL     1      79.185   5.747  32.604  1.00  0.00     0.049 A 
HETATM   12  C8  UNL     1      79.319   6.788  33.491  1.00  0.00     0.033 A 
HETATM   13  C9  UNL     1      80.149   6.633  34.577  1.00  0.00     0.039 A 
HETATM   14  C10 UNL     1      80.866   5.485  34.838  1.00  0.00     0.068 A 
HETATM   15  C12 UNL     1      80.708   4.459  33.928  1.00  0.00     0.039 A 
HETATM   16  C13 UNL     1      79.886   4.585  32.833  1.00  0.00     0.033 A 
BRANCH  14  17
HETATM   17  O1  UNL     1      81.692   5.371  35.946  1.00  0.00    -0.356 OA
HETATM   18  C11 UNL     1      81.212   5.830  37.191  1.00  0.00     0.210 C 
ENDBRANCH  14  17
ENDBRANCH   9  11
ENDBRANCH   6   9
BRANCH   1  19
HETATM   19  N1  UNL     1      78.434   4.715  27.012  1.00  0.00    -0.376 N 
ATOM     20  H1  UNL     1      78.041   3.798  27.227  1.00  0.00     0.161 HD
BRANCH  19  21
HETATM   21  C2  UNL     1      78.476   5.116  25.645  1.00  0.00     0.116 C 
HETATM   22  C1  UNL     1      79.089   4.067  24.743  1.00  0.00     0.026 C 
ENDBRANCH  19  21
ENDBRANCH   1  19
TORSDOF 5
ENDMDL
MODEL 2
REMARK VINA RESULT: -6.836306480      0.121      1.115
REMARK  5 active torsions:
REMARK  status: ('A' for Active; 'I' for Inactive)
REMARK    1  A    between atoms: C2_2  and  N1_3 
REMARK    2  A    between atoms: N1_3  and  C3_5 
REMARK    3  A    between atoms: C6_10  and  N3_11 
REMARK    4  A    between atoms: N3_11  and  C7_13 
REMARK    5  A    between atoms: C10_16  and  O1_17 
ROOT
HETATM    1  C3  UNL     1      78.885   5.377  28.017  1.00  0.00     0.118 A 
HETATM    2  C4  UNL     1      79.889   6.280  27.740  1.00  0.00     0.066 A 
HETATM    3  C5  UNL     1      80.376   7.059  28.778  1.00  0.00     0.110 A 
HETATM    4  N2  UNL     1      79.841   6.892  30.010  1.00  0.00    -0.202 N 
ATOM      5  H2  UNL     1      80.200   7.464  30.774  1.00  0.00     0.183 HD
HETATM    6  C6  UNL     1      78.876   6.025  30.277  1.00  0.00     0.684 A 
HETATM    7  N4  UNL     1      78.392   5.263  29.285  1.00  0.00    -0.177 N 
ATOM      8  H4  UNL     1      77.649   4.592  29.479  1.00  0.00     0.186 HD
ENDROOT
BRANCH   6   9
HETATM    9  N3  UNL     1      78.395   5.900  31.469  1.00  0.00    -0.192 N 
ATOM     10  H3  UNL     1      77.383   5.921  31.597  1.00  0.00     0.184 HD
BRANCH   9  11
HETATM   11  C7  UNL     1      79.230   5.733  32.611  1.00  0.00     0.049 A 
HETATM   12  C8  UNL     1      79.927   4.575  32.854  1.00  0.00     0.033 A 
HETATM   13  C9  UNL     1      80.713   4.495  33.980  1.00  0.00     0.039 A 
HETATM   14  C10 UNL     1      80.848   5.516  34.896  1.00  0.00     0.068 A 
HETATM   15  C12 UNL     1      80.135   6.666  34.622  1.00  0.00     0.039 A 
HETATM   16  C13 UNL     1      79.341   6.775  33.504  1.00  0.00     0.033 A 
BRANCH  14  17
HETATM   17  O1  UNL     1      81.651   5.394  36.019  1.00  0.00    -0.356 OA
HETATM   18  C11 UNL     1      81.180   5.919  37.241  1.00  0.00     0.210 C 
ENDBRANCH  14  17
ENDBRANCH   9  11
ENDBRANCH   6   9
BRANCH   1  19
HETATM   19  N1  UNL     1      78.432   4.655  27.062  1.00  0.00    -0.376 N 
ATOM     20  H1  UNL     1      78.195   3.686  27.270  1.00  0.00     0.161 HD
BRANCH  19  21
HETATM   21  C2  UNL     1      78.235   5.115  25.727  1.00  0.00     0.116 C 
HETATM   22  C1  UNL     1      78.803   4.170  24.690  1.00  0.00     0.026 C 
ENDBRANCH  19  21
ENDBRANCH   1  19
TORSDOF 5
ENDMDL
MODEL 3
REMARK VINA RESULT: -6.758357662      1.181      1.279
REMARK  5 active torsions:
REMARK  status: ('A' for Active; 'I' for Inactive)
REMARK    1  A    between atoms: C2_2  and  N1_3 
REMARK    2  A    between atoms: N1_3  and  C3_5 
REMARK    3  A    between atoms: C6_10  and  N3_11 
REMARK    4  A    between atoms: N3_11  and  C7_13 
REMARK    5  A    between atoms: C10_16  and  O1_17 
ROOT
HETATM    1  C3  UNL     1      79.067   5.907  27.656  1.00  0.00     0.118 A 
HETATM    2  C4  UNL     1      78.346   7.070  27.492  1.00  0.00     0.066 A 
HETATM    3  C5  UNL     1      77.544   7.500  28.538  1.00  0.00     0.110 A 
HETATM    4  N2  UNL     1      77.513   6.755  29.668  1.00  0.00    -0.202 N 
ATOM      5  H2  UNL     1      76.925   7.071  30.439  1.00  0.00     0.183 HD
HETATM    6  C6  UNL     1      78.206   5.638  29.828  1.00  0.00     0.684 A 
HETATM    7  N4  UNL     1      78.987   5.206  28.825  1.00  0.00    -0.177 N 
ATOM      8  H4  UNL     1      79.525   4.347  28.937  1.00  0.00     0.186 HD
ENDROOT
BRANCH   6   9
HETATM    9  N3  UNL     1      78.145   4.959  30.924  1.00  0.00    -0.192 N 
ATOM     10  H3  UNL     1      77.529   4.146  30.967  1.00  0.00     0.184 HD
BRANCH   9  11
HETATM   11  C7  UNL     1      78.909   5.306  32.076  1.00  0.00     0.049 A 
HETATM   12  C8  UNL     1      78.878   6.562  32.632  1.00  0.00     0.033 A 
HETATM   13  C9  UNL     1      79.645   6.815  33.745  1.00  0.00     0.039 A 
HETATM   14  C10 UNL     1      80.457   5.878  34.348  1.00  0.00     0.068 A 
HETATM   15  C12 UNL     1      80.465   4.627  33.764  1.00  0.00     0.039 A 
HETATM   16  C13 UNL     1      79.708   4.344  32.651  1.00  0.00     0.033 A 
BRANCH  14  17
HETATM   17  O1  UNL     1      81.215   6.175  35.469  1.00  0.00    -0.356 OA
HETATM   18  C11 UNL     1      80.793   7.233  36.303  1.00  0.00     0.210 C 
ENDBRANCH  14  17
ENDBRANCH   9  11
ENDBRANCH   6   9
BRANCH   1  19
HETATM   19  N1  UNL     1      79.809   5.507  26.693  1.00  0.00    -0.376 N 
ATOM     20  H1  UNL     1      80.734   5.144  26.924  1.00  0.00     0.161 HD
BRANCH  19  21
HETATM   21  C2  UNL     1      79.430   5.532  25.319  1.00  0.00     0.116 C 
HETATM   22  C1  UNL     1      78.911   4.198  24.828  1.00  0.00     0.026 C 
ENDBRANCH  19  21
ENDBRANCH   1  19
TORSDOF 5
ENDMDL
MODEL 4
REMARK VINA RESULT: -6.701751569      1.169      1.662
REMARK  5 active torsions:
REMARK  status: ('A' for Active; 'I' for Inactive)
REMARK    1  A    between atoms: C2_2  and  N1_3 
REMARK    2  A    between atoms: N1_3  and  C3_5 
REMARK    3  A    between atoms: C6_10  and  N3_11 
REMARK    4  A    between atoms: N3_11  and  C7_13 
REMARK    5  A    between atoms: C10_16  and  O1_17 
ROOT
HETATM    1  C3  UNL     1      79.082   5.860  27.709  1.00  0.00     0.118 A 
HETATM    2  C4  UNL     1      78.404   7.044  27.512  1.00  0.00     0.066 A 
HETATM    3  C5  UNL     1      77.599   7.519  28.535  1.00  0.00     0.110 A 
HETATM    4  N2  UNL     1      77.521   6.795  29.677  1.00  0.00    -0.202 N 
ATOM      5  H2  UNL     1      76.930   7.145  30.431  1.00  0.00     0.183 HD
HETATM    6  C6  UNL     1      78.172   5.658  29.868  1.00  0.00     0.684 A 
HETATM    7  N4  UNL     1      78.956   5.182  28.888  1.00  0.00    -0.177 N 
ATOM      8  H4  UNL     1      79.462   4.308  29.025  1.00  0.00     0.186 HD
ENDROOT
BRANCH   6   9
HETATM    9  N3  UNL     1      78.067   5.000  30.974  1.00  0.00    -0.192 N 
ATOM     10  H3  UNL     1      77.367   4.262  31.045  1.00  0.00     0.184 HD
BRANCH   9  11
HETATM   11  C7  UNL     1      78.898   5.272  32.100  1.00  0.00     0.049 A 
HETATM   12  C8  UNL     1      79.721   4.323  32.657  1.00  0.00     0.033 A 
HETATM   13  C9  UNL     1      80.493   4.667  33.742  1.00  0.00     0.039 A 
HETATM   14  C10 UNL     1      80.494   5.919  34.318  1.00  0.00     0.068 A 
HETATM   15  C12 UNL     1      79.657   6.848  33.735  1.00  0.00     0.039 A 
HETATM   16  C13 UNL     1      78.873   6.534  32.648  1.00  0.00     0.033 A 
BRANCH  14  17
HETATM   17  O1  UNL     1      81.288   6.224  35.413  1.00  0.00    -0.356 OA
HETATM   18  C11 UNL     1      80.828   7.197  36.325  1.00  0.00     0.210 C 
ENDBRANCH  14  17
ENDBRANCH   9  11
ENDBRANCH   6   9
BRANCH   1  19
HETATM   19  N1  UNL     1      79.827   5.417  26.767  1.00  0.00    -0.376 N 
ATOM     20  H1  UNL     1      80.709   4.976  27.026  1.00  0.00     0.161 HD
BRANCH  19  21
HETATM   21  C2  UNL     1      79.507   5.500  25.380  1.00  0.00     0.116 C 
HETATM   22  C1  UNL     1      78.945   4.207  24.829  1.00  0.00     0.026 C 
ENDBRANCH  19  21
ENDBRANCH   1  19
TORSDOF 5
ENDMDL
MODEL 5
REMARK VINA RESULT: -6.594946086      1.384      1.797
REMARK  5 active torsions:
REMARK  status: ('A' for Active; 'I' for Inactive)
REMARK    1  A    between atoms: C2_2  and  N1_3 
REMARK    2  A    between atoms: N1_3  and  C3_5 
REMARK    3  A    between atoms: C6_10  and  N3_11 
REMARK    4  A    between atoms: N3_11  and  C7_13 
REMARK    5  A    between atoms: C10_16  and  O1_17 
ROOT
HETATM    1  C3  UNL     1      78.522   6.590  27.556  1.00  0.00     0.118 A 
HETATM    2  C4  UNL     1      79.860   6.430  27.266  1.00  0.00     0.066 A 
HETATM    3  C5  UNL     1      80.675   5.849  28.225  1.00  0.00     0.110 A 
HETATM    4  N2  UNL     1      80.114   5.466  29.396  1.00  0.00    -0.202 N 
ATOM      5  H2  UNL     1      80.713   5.036  30.101  1.00  0.00     0.183 HD
HETATM    6  C6  UNL     1      78.828   5.619  29.676  1.00  0.00     0.684 A 
HETATM    7  N4  UNL     1      78.024   6.181  28.760  1.00  0.00    -0.177 N 
ATOM      8  H4  UNL     1      77.033   6.303  28.965  1.00  0.00     0.186 HD
ENDROOT
BRANCH   6   9
HETATM    9  N3  UNL     1      78.336   5.239  30.807  1.00  0.00    -0.192 N 
ATOM     10  H3  UNL     1      77.423   4.785  30.820  1.00  0.00     0.184 HD
BRANCH   9  11
HETATM   11  C7  UNL     1      79.027   5.433  32.039  1.00  0.00     0.049 A 
HETATM   12  C8  UNL     1      79.743   4.433  32.650  1.00  0.00     0.033 A 
HETATM   13  C9  UNL     1      80.382   4.702  33.838  1.00  0.00     0.039 A 
HETATM   14  C10 UNL     1      80.349   5.929  34.466  1.00  0.00     0.068 A 
HETATM   15  C12 UNL     1      79.621   6.911  33.826  1.00  0.00     0.039 A 
HETATM   16  C13 UNL     1      78.972   6.671  32.637  1.00  0.00     0.033 A 
BRANCH  14  17
HETATM   17  O1  UNL     1      81.008   6.159  35.664  1.00  0.00    -0.356 OA
HETATM   18  C11 UNL     1      80.729   7.351  36.365  1.00  0.00     0.210 C 
ENDBRANCH  14  17
ENDBRANCH   9  11
ENDBRANCH   6   9
BRANCH   1  19
HETATM   19  N1  UNL     1      77.765   7.127  26.675  1.00  0.00    -0.376 N 
ATOM     20  H1  UNL     1      77.036   7.762  26.998  1.00  0.00     0.161 HD
BRANCH  19  21
HETATM   21  C2  UNL     1      77.873   6.898  25.272  1.00  0.00     0.116 C 
HETATM   22  C1  UNL     1      76.675   6.170  24.702  1.00  0.00     0.026 C 
ENDBRANCH  19  21
ENDBRANCH   1  19
TORSDOF 5
ENDMDL
