MODEL 1
REMARK VINA RESULT: -6.800589992      0.000      0.000
REMARK  3 active torsions:
REMARK  status: ('A' for Active; 'I' for Inactive)
REMARK    1  A    between atoms: O1_2  and  C2_3 
REMARK    2  A    between atoms: C6_7  and  C7_8 
REMARK    3  A    between atoms: C8_9  and  C9_10 
ROOT
HETATM    1  C7  UNL     1      26.747   7.370  19.876  1.00  0.00    -0.058 C 
HETATM    2  C8  UNL     1      27.636   7.447  20.694  1.00  0.00    -0.023 C 
ENDROOT
BRANCH   1   3
HETATM    3  C6  UNL     1      25.681   7.276  18.923  1.00  0.00     0.020 A 
HETATM    4  C5  UNL     1      24.416   7.748  19.164  1.00  0.00     0.021 A 
HETATM    5  C4  UNL     1      23.389   7.656  18.242  1.00  0.00     0.004 A 
HETATM    6  C3  UNL     1      23.689   7.062  17.048  1.00  0.00     0.037 A 
HETATM    7  C2  UNL     1      24.950   6.575  16.768  1.00  0.00     0.069 A 
HETATM    8  C11 UNL     1      25.948   6.685  17.715  1.00  0.00     0.057 A 
BRANCH   7   9
HETATM    9  O1  UNL     1      25.213   5.982  15.551  1.00  0.00    -0.356 OA
HETATM   10  C1  UNL     1      25.475   6.780  14.435  1.00  0.00     0.210 C 
ENDBRANCH   7   9
ENDBRANCH   1   3
BRANCH   2  11
HETATM   11  C9  UNL     1      28.707   7.519  21.662  1.00  0.00     0.177 A 
HETATM   12  N1  UNL     1      29.567   8.531  21.817  1.00  0.00    -0.329 N 
HETATM   13  C10 UNL     1      30.414   8.226  22.817  1.00  0.00     0.199 A 
ATOM     14  H1  UNL     1      29.579   9.390  21.268  1.00  0.00     0.168 HD
HETATM   15  N2  UNL     1      30.088   7.020  23.297  1.00  0.00    -0.294 N 
HETATM   16  N3  UNL     1      29.048   6.600  22.585  1.00  0.00    -0.277 N 
ATOM     17  H2  UNL     1      30.547   6.521  24.059  1.00  0.00     0.187 HD
ATOM     18  H3  UNL     1      28.574   5.707  22.720  1.00  0.00     0.189 HD
ENDBRANCH   2  11
TORSDOF 3
ENDMDL
MODEL 2
REMARK VINA RESULT: -6.673569312      1.610      2.510
REMARK  3 active torsions:
REMARK  status: ('A' for Active; 'I' for Inactive)
REMARK    1  A    between atoms: O1_2  and  C2_3 
REMARK    2  A    between atoms: C6_7  and  C7_8 
REMARK    3  A    between atoms: C8_9  and  C9_10 
ROOT
HETATM    1  C7  UNL     1      26.624   7.497  19.983  1.00  0.00    -0.058 C 
HETATM    2  C8  UNL     1      27.572   7.506  20.736  1.00  0.00    -0.023 C 
ENDROOT
BRANCH   1   3
HETATM    3  C6  UNL     1      25.509   7.503  19.083  1.00  0.00     0.020 A 
HETATM    4  C5  UNL     1      25.598   7.927  17.781  1.00  0.00     0.021 A 
HETATM    5  C4  UNL     1      24.520   7.931  16.915  1.00  0.00     0.004 A 
HETATM    6  C3  UNL     1      23.329   7.485  17.416  1.00  0.00     0.037 A 
HETATM    7  C2  UNL     1      23.199   7.050  18.719  1.00  0.00     0.069 A 
HETATM    8  C11 UNL     1      24.299   7.062  19.554  1.00  0.00     0.057 A 
BRANCH   7   9
HETATM    9  O1  UNL     1      21.980   6.607  19.188  1.00  0.00    -0.356 OA
HETATM   10  C1  UNL     1      21.883   6.091  20.481  1.00  0.00     0.210 C 
ENDBRANCH   7   9
ENDBRANCH   1   3
BRANCH   2  11
HETATM   11  C9  UNL     1      28.688   7.521  21.654  1.00  0.00     0.177 A 
HETATM   12  N1  UNL     1      29.533   8.537  21.855  1.00  0.00    -0.329 N 
HETATM   13  C10 UNL     1      30.435   8.168  22.783  1.00  0.00     0.199 A 
ATOM     14  H1  UNL     1      29.500   9.441  21.382  1.00  0.00     0.168 HD
HETATM   15  N2  UNL     1      30.158   6.918  23.172  1.00  0.00    -0.294 N 
HETATM   16  N3  UNL     1      29.093   6.536  22.477  1.00  0.00    -0.277 N 
ATOM     17  H2  UNL     1      30.665   6.367  23.864  1.00  0.00     0.187 HD
ATOM     18  H3  UNL     1      28.645   5.623  22.555  1.00  0.00     0.189 HD
ENDBRANCH   2  11
TORSDOF 3
ENDMDL
MODEL 3
REMARK VINA RESULT: -6.614081032      1.165      1.267
REMARK  3 active torsions:
REMARK  status: ('A' for Active; 'I' for Inactive)
REMARK    1  A    between atoms: O1_2  and  C2_3 
REMARK    2  A    between atoms: C6_7  and  C7_8 
REMARK    3  A    between atoms: C8_9  and  C9_10 
ROOT
HETATM    1  C7  UNL     1      26.969   7.033  19.867  1.00  0.00    -0.058 C 
HETATM    2  C8  UNL     1      27.799   7.201  20.733  1.00  0.00    -0.023 C 
ENDROOT
BRANCH   1   3
HETATM    3  C6  UNL     1      25.989   6.815  18.846  1.00  0.00     0.020 A 
HETATM    4  C5  UNL     1      25.201   5.692  18.790  1.00  0.00     0.021 A 
HETATM    5  C4  UNL     1      24.255   5.484  17.803  1.00  0.00     0.004 A 
HETATM    6  C3  UNL     1      24.128   6.465  16.860  1.00  0.00     0.037 A 
HETATM    7  C2  UNL     1      24.900   7.609  16.882  1.00  0.00     0.069 A 
HETATM    8  C11 UNL     1      25.835   7.780  17.884  1.00  0.00     0.057 A 
BRANCH   7   9
HETATM    9  O1  UNL     1      24.741   8.577  15.912  1.00  0.00    -0.356 OA
HETATM   10  C1  UNL     1      25.352   8.414  14.668  1.00  0.00     0.210 C 
ENDBRANCH   7   9
ENDBRANCH   1   3
BRANCH   2  11
HETATM   11  C9  UNL     1      28.806   7.410  21.749  1.00  0.00     0.177 A 
HETATM   12  N1  UNL     1      29.605   8.475  21.862  1.00  0.00    -0.329 N 
HETATM   13  C10 UNL     1      30.404   8.302  22.931  1.00  0.00     0.199 A 
ATOM     14  H1  UNL     1      29.609   9.286  21.242  1.00  0.00     0.168 HD
HETATM   15  N2  UNL     1      30.108   7.124  23.496  1.00  0.00    -0.294 N 
HETATM   16  N3  UNL     1      29.134   6.592  22.766  1.00  0.00    -0.277 N 
ATOM     17  H2  UNL     1      30.545   6.717  24.322  1.00  0.00     0.187 HD
ATOM     18  H3  UNL     1      28.697   5.690  22.951  1.00  0.00     0.189 HD
ENDBRANCH   2  11
TORSDOF 3
ENDMDL
MODEL 4
REMARK VINA RESULT: -6.495189357      1.530      2.269
REMARK  3 active torsions:
REMARK  status: ('A' for Active; 'I' for Inactive)
REMARK    1  A    between atoms: O1_2  and  C2_3 
REMARK    2  A    between atoms: C6_7  and  C7_8 
REMARK    3  A    between atoms: C8_9  and  C9_10 
ROOT
HETATM    1  C7  UNL     1      26.714   7.244  19.968  1.00  0.00    -0.058 C 
HETATM    2  C8  UNL     1      27.635   7.375  20.744  1.00  0.00    -0.023 C 
ENDROOT
BRANCH   1   3
HETATM    3  C6  UNL     1      25.618   7.108  19.057  1.00  0.00     0.020 A 
HETATM    4  C5  UNL     1      25.502   6.063  18.174  1.00  0.00     0.021 A 
HETATM    5  C4  UNL     1      24.442   5.934  17.295  1.00  0.00     0.004 A 
HETATM    6  C3  UNL     1      23.486   6.910  17.339  1.00  0.00     0.037 A 
HETATM    7  C2  UNL     1      23.566   7.975  18.213  1.00  0.00     0.069 A 
HETATM    8  C11 UNL     1      24.641   8.070  19.074  1.00  0.00     0.057 A 
BRANCH   7   9
HETATM    9  O1  UNL     1      22.581   8.941  18.227  1.00  0.00    -0.356 OA
HETATM   10  C1  UNL     1      21.276   8.600  17.867  1.00  0.00     0.210 C 
ENDBRANCH   7   9
ENDBRANCH   1   3
BRANCH   2  11
HETATM   11  C9  UNL     1      28.725   7.511  21.683  1.00  0.00     0.177 A 
HETATM   12  N1  UNL     1      29.565   8.546  21.774  1.00  0.00    -0.329 N 
HETATM   13  C10 UNL     1      30.441   8.303  22.767  1.00  0.00     0.199 A 
ATOM     14  H1  UNL     1      29.546   9.382  21.189  1.00  0.00     0.168 HD
HETATM   15  N2  UNL     1      30.153   7.112  23.305  1.00  0.00    -0.294 N 
HETATM   16  N3  UNL     1      29.107   6.641  22.636  1.00  0.00    -0.277 N 
ATOM     17  H2  UNL     1      30.640   6.657  24.077  1.00  0.00     0.187 HD
ATOM     18  H3  UNL     1      28.656   5.744  22.820  1.00  0.00     0.189 HD
ENDBRANCH   2  11
TORSDOF 3
ENDMDL
MODEL 5
REMARK VINA RESULT: -6.277507621      5.313      7.709
REMARK  3 active torsions:
REMARK  status: ('A' for Active; 'I' for Inactive)
REMARK    1  A    between atoms: O1_2  and  C2_3 
REMARK    2  A    between atoms: C6_7  and  C7_8 
REMARK    3  A    between atoms: C8_9  and  C9_10 
ROOT
HETATM    1  C7  UNL     1      23.879   5.599  13.118  1.00  0.00    -0.058 C 
HETATM    2  C8  UNL     1      24.324   5.739  14.235  1.00  0.00    -0.023 C 
ENDROOT
BRANCH   1   3
HETATM    3  C6  UNL     1      23.350   5.453  11.794  1.00  0.00     0.020 A 
HETATM    4  C5  UNL     1      22.434   4.488  11.455  1.00  0.00     0.021 A 
HETATM    5  C4  UNL     1      21.925   4.350  10.176  1.00  0.00     0.004 A 
HETATM    6  C3  UNL     1      22.378   5.233   9.237  1.00  0.00     0.037 A 
HETATM    7  C2  UNL     1      23.297   6.217   9.539  1.00  0.00     0.069 A 
HETATM    8  C11 UNL     1      23.783   6.323  10.827  1.00  0.00     0.057 A 
BRANCH   7   9
HETATM    9  O1  UNL     1      23.730   7.091   8.563  1.00  0.00    -0.356 OA
HETATM   10  C1  UNL     1      22.935   7.318   7.438  1.00  0.00     0.210 C 
ENDBRANCH   7   9
ENDBRANCH   1   3
BRANCH   2  11
HETATM   11  C9  UNL     1      24.835   5.894  15.577  1.00  0.00     0.177 A 
HETATM   12  N1  UNL     1      24.458   5.196  16.653  1.00  0.00    -0.329 N 
HETATM   13  C10 UNL     1      25.161   5.631  17.716  1.00  0.00     0.199 A 
ATOM     14  H1  UNL     1      23.755   4.458  16.667  1.00  0.00     0.168 HD
HETATM   15  N2  UNL     1      25.985   6.604  17.311  1.00  0.00    -0.294 N 
HETATM   16  N3  UNL     1      25.777   6.755  16.008  1.00  0.00    -0.277 N 
ATOM     17  H2  UNL     1      26.643   7.127  17.888  1.00  0.00     0.187 HD
ATOM     18  H3  UNL     1      26.263   7.429  15.416  1.00  0.00     0.189 HD
ENDBRANCH   2  11
TORSDOF 3
ENDMDL
