MODEL 1
REMARK VINA RESULT: -6.863205380      0.000      0.000
REMARK  2 active torsions:
REMARK  status: ('A' for Active; 'I' for Inactive)
REMARK    1  A    between atoms: C6_7  and  C7_8 
REMARK    2  A    between atoms: C8_9  and  C9_10 
ROOT
HETATM    1  N1  UNL     1      25.878   7.420  14.310  1.00  0.00    -0.190 NA
HETATM    2  C1  UNL     1      25.690   7.098  15.409  1.00  0.00     0.117 C 
HETATM    3  C2  UNL     1      25.455   6.682  16.768  1.00  0.00     0.114 A 
HETATM    4  C3  UNL     1      24.287   6.012  17.072  1.00  0.00     0.041 A 
HETATM    5  C4  UNL     1      24.034   5.598  18.381  1.00  0.00     0.006 A 
HETATM    6  C5  UNL     1      24.971   5.869  19.364  1.00  0.00     0.039 A 
HETATM    7  C6  UNL     1      26.129   6.541  19.026  1.00  0.00     0.088 A 
HETATM    8  N4  UNL     1      26.357   6.934  17.757  1.00  0.00    -0.341 N 
ATOM      9  H4  UNL     1      27.221   7.428  17.534  1.00  0.00     0.167 HD
ENDROOT
BRANCH   7  10
HETATM   10  C7  UNL     1      27.097   6.819  20.052  1.00  0.00    -0.043 C 
HETATM   11  C8  UNL     1      27.924   7.042  20.904  1.00  0.00    -0.057 C 
BRANCH  11  12
HETATM   12  C9  UNL     1      28.925   7.300  21.897  1.00  0.00     0.051 A 
HETATM   13  C10 UNL     1      29.139   6.556  23.035  1.00  0.00     0.129 A 
HETATM   14  N2  UNL     1      30.175   7.114  23.724  1.00  0.00    -0.311 N 
HETATM   15  N3  UNL     1      30.612   8.169  23.065  1.00  0.00    -0.311 N 
ATOM     16  H2  UNL     1      30.552   6.770  24.607  1.00  0.00     0.186 HD
HETATM   17  C11 UNL     1      29.870   8.302  21.954  1.00  0.00     0.129 A 
ATOM     18  H3  UNL     1      31.379   8.779  23.349  1.00  0.00     0.186 HD
ENDBRANCH  11  12
ENDBRANCH   7  10
TORSDOF 2
ENDMDL
MODEL 2
REMARK VINA RESULT: -6.708381478      2.016      2.982
REMARK  2 active torsions:
REMARK  status: ('A' for Active; 'I' for Inactive)
REMARK    1  A    between atoms: C6_7  and  C7_8 
REMARK    2  A    between atoms: C8_9  and  C9_10 
ROOT
HETATM    1  N1  UNL     1      21.100   5.884  20.727  1.00  0.00    -0.190 NA
HETATM    2  C1  UNL     1      22.140   6.003  20.228  1.00  0.00     0.117 C 
HETATM    3  C2  UNL     1      23.425   6.164  19.597  1.00  0.00     0.114 A 
HETATM    4  C3  UNL     1      23.530   5.984  18.233  1.00  0.00     0.041 A 
HETATM    5  C4  UNL     1      24.763   6.134  17.596  1.00  0.00     0.006 A 
HETATM    6  C5  UNL     1      25.874   6.464  18.354  1.00  0.00     0.039 A 
HETATM    7  C6  UNL     1      25.735   6.636  19.717  1.00  0.00     0.088 A 
HETATM    8  N4  UNL     1      24.536   6.489  20.315  1.00  0.00    -0.341 N 
ATOM      9  H4  UNL     1      24.460   6.622  21.323  1.00  0.00     0.167 HD
ENDROOT
BRANCH   7  10
HETATM   10  C7  UNL     1      26.893   6.979  20.497  1.00  0.00    -0.043 C 
HETATM   11  C8  UNL     1      27.854   7.268  21.169  1.00  0.00    -0.057 C 
BRANCH  11  12
HETATM   12  C9  UNL     1      28.981   7.605  21.988  1.00  0.00     0.051 A 
HETATM   13  C10 UNL     1      29.371   6.944  23.131  1.00  0.00     0.129 A 
HETATM   14  N2  UNL     1      30.483   7.559  23.624  1.00  0.00    -0.311 N 
HETATM   15  N3  UNL     1      30.799   8.571  22.840  1.00  0.00    -0.311 N 
ATOM     16  H2  UNL     1      30.990   7.282  24.465  1.00  0.00     0.186 HD
HETATM   17  C11 UNL     1      29.904   8.618  21.841  1.00  0.00     0.129 A 
ATOM     18  H3  UNL     1      31.587   9.207  22.969  1.00  0.00     0.186 HD
ENDBRANCH  11  12
ENDBRANCH   7  10
TORSDOF 2
ENDMDL
MODEL 3
REMARK VINA RESULT: -6.646411719      1.799      2.273
REMARK  2 active torsions:
REMARK  status: ('A' for Active; 'I' for Inactive)
REMARK    1  A    between atoms: C6_7  and  C7_8 
REMARK    2  A    between atoms: C8_9  and  C9_10 
ROOT
HETATM    1  N1  UNL     1      22.159   9.621  17.981  1.00  0.00    -0.190 NA
HETATM    2  C1  UNL     1      22.944   8.783  18.150  1.00  0.00     0.117 C 
HETATM    3  C2  UNL     1      23.923   7.744  18.342  1.00  0.00     0.114 A 
HETATM    4  C3  UNL     1      23.805   6.571  17.624  1.00  0.00     0.041 A 
HETATM    5  C4  UNL     1      24.739   5.548  17.791  1.00  0.00     0.006 A 
HETATM    6  C5  UNL     1      25.781   5.728  18.686  1.00  0.00     0.039 A 
HETATM    7  C6  UNL     1      25.869   6.913  19.389  1.00  0.00     0.088 A 
HETATM    8  N4  UNL     1      24.958   7.892  19.215  1.00  0.00    -0.341 N 
ATOM      9  H4  UNL     1      25.047   8.758  19.746  1.00  0.00     0.167 HD
ENDROOT
BRANCH   7  10
HETATM   10  C7  UNL     1      26.953   7.094  20.316  1.00  0.00    -0.043 C 
HETATM   11  C8  UNL     1      27.850   7.251  21.110  1.00  0.00    -0.057 C 
BRANCH  11  12
HETATM   12  C9  UNL     1      28.897   7.433  22.071  1.00  0.00     0.051 A 
HETATM   13  C10 UNL     1      29.920   8.351  21.982  1.00  0.00     0.129 A 
HETATM   14  N2  UNL     1      30.711   8.220  23.085  1.00  0.00    -0.311 N 
HETATM   15  N3  UNL     1      30.225   7.263  23.852  1.00  0.00    -0.311 N 
ATOM     16  H2  UNL     1      31.544   8.773  23.285  1.00  0.00     0.186 HD
HETATM   17  C11 UNL     1      29.126   6.772  23.259  1.00  0.00     0.129 A 
ATOM     18  H3  UNL     1      30.617   6.951  24.741  1.00  0.00     0.186 HD
ENDBRANCH  11  12
ENDBRANCH   7  10
TORSDOF 2
ENDMDL
MODEL 4
REMARK VINA RESULT: -6.446848871      3.421      5.573
REMARK  2 active torsions:
REMARK  status: ('A' for Active; 'I' for Inactive)
REMARK    1  A    between atoms: C6_7  and  C7_8 
REMARK    2  A    between atoms: C8_9  and  C9_10 
ROOT
HETATM    1  N1  UNL     1      19.902   5.499  12.285  1.00  0.00    -0.190 NA
HETATM    2  C1  UNL     1      21.009   5.550  12.629  1.00  0.00     0.117 C 
HETATM    3  C2  UNL     1      22.385   5.628  13.048  1.00  0.00     0.114 A 
HETATM    4  C3  UNL     1      23.371   5.758  12.091  1.00  0.00     0.041 A 
HETATM    5  C4  UNL     1      24.712   5.836  12.470  1.00  0.00     0.006 A 
HETATM    6  C5  UNL     1      25.035   5.781  13.815  1.00  0.00     0.039 A 
HETATM    7  C6  UNL     1      24.024   5.649  14.746  1.00  0.00     0.088 A 
HETATM    8  N4  UNL     1      22.734   5.576  14.364  1.00  0.00    -0.341 N 
ATOM      9  H4  UNL     1      22.006   5.481  15.072  1.00  0.00     0.167 HD
ENDROOT
BRANCH   7  10
HETATM   10  C7  UNL     1      24.367   5.592  16.142  1.00  0.00    -0.043 C 
HETATM   11  C8  UNL     1      24.655   5.523  17.313  1.00  0.00    -0.057 C 
BRANCH  11  12
HETATM   12  C9  UNL     1      25.008   5.418  18.698  1.00  0.00     0.051 A 
HETATM   13  C10 UNL     1      26.275   5.551  19.218  1.00  0.00     0.129 A 
HETATM   14  N2  UNL     1      26.204   5.386  20.570  1.00  0.00    -0.311 N 
HETATM   15  N3  UNL     1      24.951   5.157  20.910  1.00  0.00    -0.311 N 
ATOM     16  H2  UNL     1      26.993   5.434  21.214  1.00  0.00     0.186 HD
HETATM   17  C11 UNL     1      24.207   5.172  19.793  1.00  0.00     0.129 A 
ATOM     18  H3  UNL     1      24.606   4.996  21.857  1.00  0.00     0.186 HD
ENDBRANCH  11  12
ENDBRANCH   7  10
TORSDOF 2
ENDMDL
MODEL 5
REMARK VINA RESULT: -6.343004580      3.389      5.504
REMARK  2 active torsions:
REMARK  status: ('A' for Active; 'I' for Inactive)
REMARK    1  A    between atoms: C6_7  and  C7_8 
REMARK    2  A    between atoms: C8_9  and  C9_10 
ROOT
HETATM    1  N1  UNL     1      22.148   3.597  11.192  1.00  0.00    -0.190 NA
HETATM    2  C1  UNL     1      22.653   4.409  11.850  1.00  0.00     0.117 C 
HETATM    3  C2  UNL     1      23.266   5.427  12.663  1.00  0.00     0.114 A 
HETATM    4  C3  UNL     1      23.552   6.654  12.099  1.00  0.00     0.041 A 
HETATM    5  C4  UNL     1      24.146   7.659  12.865  1.00  0.00     0.006 A 
HETATM    6  C5  UNL     1      24.443   7.404  14.193  1.00  0.00     0.039 A 
HETATM    7  C6  UNL     1      24.145   6.166  14.726  1.00  0.00     0.088 A 
HETATM    8  N4  UNL     1      23.570   5.207  13.973  1.00  0.00    -0.341 N 
ATOM      9  H4  UNL     1      23.360   4.301  14.391  1.00  0.00     0.167 HD
ENDROOT
BRANCH   7  10
HETATM   10  C7  UNL     1      24.456   5.908  16.106  1.00  0.00    -0.043 C 
HETATM   11  C8  UNL     1      24.713   5.712  17.270  1.00  0.00    -0.057 C 
BRANCH  11  12
HETATM   12  C9  UNL     1      25.002   5.500  18.657  1.00  0.00     0.051 A 
HETATM   13  C10 UNL     1      26.245   5.586  19.242  1.00  0.00     0.129 A 
HETATM   14  N2  UNL     1      26.113   5.320  20.573  1.00  0.00    -0.311 N 
HETATM   15  N3  UNL     1      24.845   5.071  20.839  1.00  0.00    -0.311 N 
ATOM     16  H2  UNL     1      26.872   5.314  21.254  1.00  0.00     0.186 HD
HETATM   17  C11 UNL     1      24.153   5.175  19.693  1.00  0.00     0.129 A 
ATOM     18  H3  UNL     1      24.459   4.840  21.754  1.00  0.00     0.186 HD
ENDBRANCH  11  12
ENDBRANCH   7  10
TORSDOF 2
ENDMDL
