MODEL 1
REMARK VINA RESULT: -6.882734766      0.000      0.000
REMARK  1 active torsions:
REMARK  status: ('A' for Active; 'I' for Inactive)
REMARK    1  A    between atoms: N3_9  and  C4_10 
ROOT
HETATM    1  C1  UNL     1      -9.075  36.461  -4.178  1.00  0.00     0.091 C 
HETATM    2  C2  UNL     1      -8.023  37.459  -3.942  1.00  0.00     0.097 A 
HETATM    3  N1  UNL     1      -7.564  37.860  -2.715  1.00  0.00    -0.287 N 
ATOM      4  H1  UNL     1      -7.916  37.511  -1.824  1.00  0.00     0.188 HD
HETATM    5  N2  UNL     1      -6.611  38.751  -2.841  1.00  0.00    -0.275 N 
ATOM      6  H2  UNL     1      -6.101  39.210  -2.085  1.00  0.00     0.189 HD
HETATM    7  C3  UNL     1      -6.438  38.944  -4.154  1.00  0.00     0.195 A 
HETATM    8  S1  UNL     1      -5.321  39.975  -4.727  1.00  0.00    -0.039 SA
HETATM    9  N3  UNL     1      -7.310  38.146  -4.847  1.00  0.00    -0.302 N 
ENDROOT
BRANCH   9  10
HETATM   10  C4  UNL     1      -7.342  38.151  -6.272  1.00  0.00     0.038 C 
HETATM   11  C5  UNL     1      -7.907  39.496  -6.741  1.00  0.00     0.039 C 
HETATM   12  C6  UNL     1      -8.246  37.125  -6.904  1.00  0.00     0.031 C 
HETATM   13  C7  UNL     1      -8.377  37.297  -8.406  1.00  0.00     0.008 C 
HETATM   14  C8  UNL     1      -7.115  37.659  -9.071  1.00  0.00    -0.005 A 
HETATM   15  C9  UNL     1      -6.056  36.618  -9.115  1.00  0.00     0.015 A 
HETATM   16  C10 UNL     1      -5.919  37.896  -8.324  1.00  0.00    -0.038 A 
HETATM   17  C11 UNL     1      -4.887  38.851  -8.935  1.00  0.00     0.015 C 
HETATM   18  C12 UNL     1      -5.964  37.901  -6.842  1.00  0.00     0.040 C 
ENDBRANCH   9  10
TORSDOF 1
ENDMDL
MODEL 2
REMARK VINA RESULT: -6.672262514      1.338      2.048
REMARK  1 active torsions:
REMARK  status: ('A' for Active; 'I' for Inactive)
REMARK    1  A    between atoms: N3_9  and  C4_10 
ROOT
HETATM    1  C1  UNL     1      -5.063  40.003  -4.544  1.00  0.00     0.091 C 
HETATM    2  C2  UNL     1      -6.147  39.114  -4.105  1.00  0.00     0.097 A 
HETATM    3  N1  UNL     1      -6.484  38.848  -2.803  1.00  0.00    -0.287 N 
ATOM      4  H1  UNL     1      -6.005  39.236  -1.991  1.00  0.00     0.188 HD
HETATM    5  N2  UNL     1      -7.505  38.028  -2.743  1.00  0.00    -0.275 N 
ATOM      6  H2  UNL     1      -7.952  37.673  -1.897  1.00  0.00     0.189 HD
HETATM    7  C3  UNL     1      -7.847  37.749  -4.006  1.00  0.00     0.195 A 
HETATM    8  S1  UNL     1      -9.094  36.769  -4.358  1.00  0.00    -0.039 SA
HETATM    9  N3  UNL     1      -7.010  38.418  -4.860  1.00  0.00    -0.302 N 
ENDROOT
BRANCH   9  10
HETATM   10  C4  UNL     1      -7.148  38.299  -6.274  1.00  0.00     0.038 C 
HETATM   11  C5  UNL     1      -7.795  39.580  -6.809  1.00  0.00     0.039 C 
HETATM   12  C6  UNL     1      -8.059  37.195  -6.745  1.00  0.00     0.031 C 
HETATM   13  C7  UNL     1      -8.308  37.232  -8.241  1.00  0.00     0.008 C 
HETATM   14  C8  UNL     1      -7.113  37.573  -9.030  1.00  0.00    -0.005 A 
HETATM   15  C9  UNL     1      -6.023  36.564  -9.069  1.00  0.00     0.015 A 
HETATM   16  C10 UNL     1      -5.874  37.910  -8.401  1.00  0.00    -0.038 A 
HETATM   17  C11 UNL     1      -4.927  38.839  -9.169  1.00  0.00     0.015 C 
HETATM   18  C12 UNL     1      -5.808  38.042  -6.926  1.00  0.00     0.040 C 
ENDBRANCH   9  10
TORSDOF 1
ENDMDL
MODEL 3
REMARK VINA RESULT: -6.242749304      2.266      3.214
REMARK  1 active torsions:
REMARK  status: ('A' for Active; 'I' for Inactive)
REMARK    1  A    between atoms: N3_9  and  C4_10 
ROOT
HETATM    1  C1  UNL     1      -5.482  40.013  -5.916  1.00  0.00     0.091 C 
HETATM    2  C2  UNL     1      -6.569  39.040  -6.088  1.00  0.00     0.097 A 
HETATM    3  N1  UNL     1      -7.302  38.476  -5.077  1.00  0.00    -0.287 N 
ATOM      4  H1  UNL     1      -7.162  38.666  -4.085  1.00  0.00     0.188 HD
HETATM    5  N2  UNL     1      -8.209  37.659  -5.556  1.00  0.00    -0.275 N 
ATOM      6  H2  UNL     1      -8.884  37.113  -5.019  1.00  0.00     0.189 HD
HETATM    7  C3  UNL     1      -8.077  37.680  -6.888  1.00  0.00     0.195 A 
HETATM    8  S1  UNL     1      -9.042  36.802  -7.857  1.00  0.00    -0.039 SA
HETATM    9  N3  UNL     1      -7.061  38.534  -7.229  1.00  0.00    -0.302 N 
ENDROOT
BRANCH   9  10
HETATM   10  C4  UNL     1      -6.702  38.747  -8.592  1.00  0.00     0.038 C 
HETATM   11  C5  UNL     1      -6.989  40.209  -8.947  1.00  0.00     0.039 C 
HETATM   12  C6  UNL     1      -7.491  37.955  -9.601  1.00  0.00     0.031 C 
HETATM   13  C7  UNL     1      -7.190  38.356 -11.033  1.00  0.00     0.008 C 
HETATM   14  C8  UNL     1      -5.766  38.634 -11.282  1.00  0.00    -0.005 A 
HETATM   15  C9  UNL     1      -4.838  37.475 -11.236  1.00  0.00     0.015 A 
HETATM   16  C10 UNL     1      -4.803  38.596 -10.226  1.00  0.00    -0.038 A 
HETATM   17  C11 UNL     1      -3.559  39.479 -10.379  1.00  0.00     0.015 C 
HETATM   18  C12 UNL     1      -5.250  38.395  -8.826  1.00  0.00     0.040 C 
ENDBRANCH   9  10
TORSDOF 1
ENDMDL
MODEL 4
REMARK VINA RESULT: -5.885151653      1.719      3.116
REMARK  1 active torsions:
REMARK  status: ('A' for Active; 'I' for Inactive)
REMARK    1  A    between atoms: N3_9  and  C4_10 
ROOT
HETATM    1  C1  UNL     1      -9.065  36.608  -8.206  1.00  0.00     0.091 C 
HETATM    2  C2  UNL     1      -8.392  37.415  -7.180  1.00  0.00     0.097 A 
HETATM    3  N1  UNL     1      -8.825  37.590  -5.892  1.00  0.00    -0.287 N 
ATOM      4  H1  UNL     1      -9.676  37.182  -5.507  1.00  0.00     0.188 HD
HETATM    5  N2  UNL     1      -7.996  38.352  -5.219  1.00  0.00    -0.275 N 
ATOM      6  H2  UNL     1      -8.085  38.636  -4.243  1.00  0.00     0.189 HD
HETATM    7  C3  UNL     1      -7.012  38.685  -6.063  1.00  0.00     0.195 A 
HETATM    8  S1  UNL     1      -5.766  39.618  -5.598  1.00  0.00    -0.039 SA
HETATM    9  N3  UNL     1      -7.248  38.108  -7.284  1.00  0.00    -0.302 N 
ENDROOT
BRANCH   9  10
HETATM   10  C4  UNL     1      -6.353  38.299  -8.376  1.00  0.00     0.038 C 
HETATM   11  C5  UNL     1      -4.931  37.988  -7.900  1.00  0.00     0.039 C 
HETATM   12  C6  UNL     1      -6.269  39.706  -8.907  1.00  0.00     0.031 C 
HETATM   13  C7  UNL     1      -5.174  39.884  -9.942  1.00  0.00     0.008 C 
HETATM   14  C8  UNL     1      -5.051  38.750 -10.872  1.00  0.00    -0.005 A 
HETATM   15  C9  UNL     1      -6.161  38.550 -11.839  1.00  0.00     0.015 A 
HETATM   16  C10 UNL     1      -5.853  37.576 -10.727  1.00  0.00    -0.038 A 
HETATM   17  C11 UNL     1      -5.271  36.258 -11.252  1.00  0.00     0.015 C 
HETATM   18  C12 UNL     1      -6.745  37.432  -9.551  1.00  0.00     0.040 C 
ENDBRANCH   9  10
TORSDOF 1
ENDMDL
MODEL 5
REMARK VINA RESULT: -5.855273376      2.291      3.260
REMARK  1 active torsions:
REMARK  status: ('A' for Active; 'I' for Inactive)
REMARK    1  A    between atoms: N3_9  and  C4_10 
ROOT
HETATM    1  C1  UNL     1      -7.139  41.586  -7.922  1.00  0.00     0.091 C 
HETATM    2  C2  UNL     1      -6.480  40.774  -6.890  1.00  0.00     0.097 A 
HETATM    3  N1  UNL     1      -6.093  41.218  -5.653  1.00  0.00    -0.287 N 
ATOM      4  H1  UNL     1      -6.212  42.173  -5.317  1.00  0.00     0.188 HD
HETATM    5  N2  UNL     1      -5.548  40.249  -4.958  1.00  0.00    -0.275 N 
ATOM      6  H2  UNL     1      -5.178  40.312  -4.009  1.00  0.00     0.189 HD
HETATM    7  C3  UNL     1      -5.574  39.160  -5.736  1.00  0.00     0.195 A 
HETATM    8  S1  UNL     1      -4.999  37.729  -5.222  1.00  0.00    -0.039 SA
HETATM    9  N3  UNL     1      -6.150  39.475  -6.938  1.00  0.00    -0.302 N 
ENDROOT
BRANCH   9  10
HETATM   10  C4  UNL     1      -6.304  38.496  -7.962  1.00  0.00     0.038 C 
HETATM   11  C5  UNL     1      -7.717  37.913  -7.869  1.00  0.00     0.039 C 
HETATM   12  C6  UNL     1      -5.398  37.298  -7.855  1.00  0.00     0.031 C 
HETATM   13  C7  UNL     1      -5.730  36.212  -8.862  1.00  0.00     0.008 C 
HETATM   14  C8  UNL     1      -6.092  36.731 -10.191  1.00  0.00    -0.005 A 
HETATM   15  C9  UNL     1      -5.006  37.365 -10.983  1.00  0.00     0.015 A 
HETATM   16  C10 UNL     1      -6.188  38.135 -10.443  1.00  0.00    -0.038 A 
HETATM   17  C11 UNL     1      -7.145  38.585 -11.553  1.00  0.00     0.015 C 
HETATM   18  C12 UNL     1      -6.042  39.097  -9.325  1.00  0.00     0.040 C 
ENDBRANCH   9  10
TORSDOF 1
ENDMDL
