MODEL 1
REMARK VINA RESULT: -5.184026885      0.000      0.000
REMARK  3 active torsions:
REMARK  status: ('A' for Active; 'I' for Inactive)
REMARK    1  A    between atoms: C2_2  and  C3_4 
REMARK    2  A    between atoms: C12_13  and  N1_14 
REMARK    3  A    between atoms: N1_14  and  C13_16 
ROOT
HETATM    1  C3  UNL     1      -6.896  38.558  -5.897  1.00  0.00     0.059 C 
HETATM    2  C4  UNL     1      -5.593  37.725  -5.987  1.00  0.00     0.013 C 
HETATM    3  C5  UNL     1      -5.349  37.502  -4.473  1.00  0.00     0.006 C 
HETATM    4  C6  UNL     1      -6.682  37.050  -4.094  1.00  0.00    -0.003 C 
HETATM    5  C7  UNL     1      -7.644  38.005  -4.769  1.00  0.00     0.001 C 
HETATM    6  C8  UNL     1      -8.861  37.189  -4.992  1.00  0.00     0.007 C 
HETATM    7  C9  UNL     1      -9.130  36.240  -3.856  1.00  0.00     0.012 C 
HETATM    8  C10 UNL     1      -8.433  36.512  -2.559  1.00  0.00    -0.018 C 
HETATM    9  C11 UNL     1      -8.313  35.104  -1.910  1.00  0.00     0.018 C 
HETATM   10  C12 UNL     1      -9.388  37.231  -1.654  1.00  0.00     0.092 C 
HETATM   11  C14 UNL     1      -8.708  38.046  -0.589  1.00  0.00     0.027 C 
HETATM   12  C15 UNL     1      -7.863  39.055  -1.302  1.00  0.00     0.022 C 
HETATM   13  C16 UNL     1      -6.769  38.366  -2.012  1.00  0.00     0.087 C 
HETATM   14 CL1  UNL     1      -5.384  38.284  -0.854  1.00  0.00    -0.125 Cl
HETATM   15  C17 UNL     1      -7.057  37.044  -2.630  1.00  0.00     0.018 C 
ENDROOT
BRANCH  10  16
HETATM   16  N1  UNL     1     -10.306  38.110  -2.351  1.00  0.00    -0.363 N 
ATOM     17  H1  UNL     1      -9.976  38.539  -3.216  1.00  0.00     0.162 HD
BRANCH  16  18
HETATM   18  C13 UNL     1     -11.466  38.386  -1.984  1.00  0.00     0.348 C 
HETATM   19  O2  UNL     1     -12.649  38.797  -1.867  1.00  0.00    -0.284 OA
ENDBRANCH  16  18
ENDBRANCH  10  16
BRANCH   1  20
HETATM   20  C2  UNL     1      -7.542  38.773  -7.172  1.00  0.00     0.127 C 
HETATM   21  C1  UNL     1      -7.524  37.723  -8.218  1.00  0.00     0.091 C 
HETATM   22  O1  UNL     1      -8.110  39.802  -7.431  1.00  0.00    -0.298 OA
ENDBRANCH   1  20
TORSDOF 3
ENDMDL
MODEL 2
REMARK VINA RESULT: -5.167578104      1.126      1.227
REMARK  3 active torsions:
REMARK  status: ('A' for Active; 'I' for Inactive)
REMARK    1  A    between atoms: C2_2  and  C3_4 
REMARK    2  A    between atoms: C12_13  and  N1_14 
REMARK    3  A    between atoms: N1_14  and  C13_16 
ROOT
HETATM    1  C3  UNL     1      -7.253  38.456  -5.192  1.00  0.00     0.059 C 
HETATM    2  C4  UNL     1      -5.832  37.902  -4.925  1.00  0.00     0.013 C 
HETATM    3  C5  UNL     1      -5.938  37.709  -3.391  1.00  0.00     0.006 C 
HETATM    4  C6  UNL     1      -7.206  36.993  -3.340  1.00  0.00    -0.003 C 
HETATM    5  C7  UNL     1      -8.137  37.747  -4.268  1.00  0.00     0.001 C 
HETATM    6  C8  UNL     1      -9.073  36.707  -4.759  1.00  0.00     0.007 C 
HETATM    7  C9  UNL     1      -9.425  35.706  -3.692  1.00  0.00     0.012 C 
HETATM    8  C10 UNL     1      -9.145  36.093  -2.273  1.00  0.00    -0.018 C 
HETATM    9  C11 UNL     1      -8.917  34.727  -1.564  1.00  0.00     0.018 C 
HETATM   10  C12 UNL     1     -10.420  36.591  -1.661  1.00  0.00     0.092 C 
HETATM   11  C14 UNL     1     -10.205  37.509  -0.490  1.00  0.00     0.027 C 
HETATM   12  C15 UNL     1      -9.424  38.679  -1.005  1.00  0.00     0.022 C 
HETATM   13  C16 UNL     1      -8.072  38.233  -1.395  1.00  0.00     0.087 C 
HETATM   14 CL1  UNL     1      -7.036  38.412   0.075  1.00  0.00    -0.125 Cl
HETATM   15  C17 UNL     1      -7.929  36.890  -2.017  1.00  0.00     0.018 C 
ENDROOT
BRANCH  10  16
HETATM   16  N1  UNL     1     -11.288  37.279  -2.596  1.00  0.00    -0.363 N 
ATOM     17  H1  UNL     1     -10.844  37.890  -3.282  1.00  0.00     0.162 HD
BRANCH  16  18
HETATM   18  C13 UNL     1     -12.532  37.188  -2.634  1.00  0.00     0.348 C 
HETATM   19  O2  UNL     1     -13.750  37.170  -2.946  1.00  0.00    -0.284 OA
ENDBRANCH  16  18
ENDBRANCH  10  16
BRANCH   1  20
HETATM   20  C2  UNL     1      -7.587  38.557  -6.595  1.00  0.00     0.127 C 
HETATM   21  C1  UNL     1      -7.052  37.581  -7.574  1.00  0.00     0.091 C 
HETATM   22  O1  UNL     1      -8.301  39.428  -7.017  1.00  0.00    -0.298 OA
ENDBRANCH   1  20
TORSDOF 3
ENDMDL
MODEL 3
REMARK VINA RESULT: -5.090931728      3.211      4.482
REMARK  3 active torsions:
REMARK  status: ('A' for Active; 'I' for Inactive)
REMARK    1  A    between atoms: C2_2  and  C3_4 
REMARK    2  A    between atoms: C12_13  and  N1_14 
REMARK    3  A    between atoms: N1_14  and  C13_16 
ROOT
HETATM    1  C3  UNL     1      -7.160  37.601  -5.572  1.00  0.00     0.059 C 
HETATM    2  C4  UNL     1      -8.650  38.019  -5.494  1.00  0.00     0.013 C 
HETATM    3  C5  UNL     1      -8.991  37.420  -4.106  1.00  0.00     0.006 C 
HETATM    4  C6  UNL     1      -7.866  37.952  -3.347  1.00  0.00    -0.003 C 
HETATM    5  C7  UNL     1      -6.643  37.713  -4.209  1.00  0.00     0.001 C 
HETATM    6  C8  UNL     1      -5.721  38.811  -3.834  1.00  0.00     0.007 C 
HETATM    7  C9  UNL     1      -5.781  39.132  -2.366  1.00  0.00     0.012 C 
HETATM    8  C10 UNL     1      -6.400  38.106  -1.467  1.00  0.00    -0.018 C 
HETATM    9  C11 UNL     1      -6.954  38.950  -0.283  1.00  0.00     0.018 C 
HETATM   10  C12 UNL     1      -5.299  37.308  -0.837  1.00  0.00     0.092 C 
HETATM   11  C14 UNL     1      -5.733  35.942  -0.383  1.00  0.00     0.027 C 
HETATM   12  C15 UNL     1      -6.217  35.222  -1.604  1.00  0.00     0.022 C 
HETATM   13  C16 UNL     1      -7.447  35.869  -2.099  1.00  0.00     0.087 C 
HETATM   14 CL1  UNL     1      -8.825  35.036  -1.277  1.00  0.00    -0.125 Cl
HETATM   15  C17 UNL     1      -7.551  37.350  -1.998  1.00  0.00     0.018 C 
ENDROOT
BRANCH  10  16
HETATM   16  N1  UNL     1      -4.141  37.132  -1.691  1.00  0.00    -0.363 N 
ATOM     17  H1  UNL     1      -4.243  37.386  -2.673  1.00  0.00     0.162 HD
BRANCH  16  18
HETATM   18  C13 UNL     1      -3.030  36.697  -1.326  1.00  0.00     0.348 C 
HETATM   19  O2  UNL     1      -2.068  36.063  -0.822  1.00  0.00    -0.284 OA
ENDBRANCH  16  18
ENDBRANCH  10  16
BRANCH   1  20
HETATM   20  C2  UNL     1      -6.445  38.192  -6.679  1.00  0.00     0.127 C 
HETATM   21  C1  UNL     1      -6.803  39.540  -7.182  1.00  0.00     0.091 C 
HETATM   22  O1  UNL     1      -5.542  37.619  -7.231  1.00  0.00    -0.298 OA
ENDBRANCH   1  20
TORSDOF 3
ENDMDL
MODEL 4
REMARK VINA RESULT: -4.771774843      3.067      4.786
REMARK  3 active torsions:
REMARK  status: ('A' for Active; 'I' for Inactive)
REMARK    1  A    between atoms: C2_2  and  C3_4 
REMARK    2  A    between atoms: C12_13  and  N1_14 
REMARK    3  A    between atoms: N1_14  and  C13_16 
ROOT
HETATM    1  C3  UNL     1      -8.487  37.223  -4.806  1.00  0.00     0.059 C 
HETATM    2  C4  UNL     1      -9.553  37.966  -3.964  1.00  0.00     0.013 C 
HETATM    3  C5  UNL     1      -9.059  37.565  -2.550  1.00  0.00     0.006 C 
HETATM    4  C6  UNL     1      -7.647  37.892  -2.704  1.00  0.00    -0.003 C 
HETATM    5  C7  UNL     1      -7.240  37.321  -4.048  1.00  0.00     0.001 C 
HETATM    6  C8  UNL     1      -6.146  38.213  -4.499  1.00  0.00     0.007 C 
HETATM    7  C9  UNL     1      -5.261  38.652  -3.364  1.00  0.00     0.012 C 
HETATM    8  C10 UNL     1      -5.336  37.861  -2.094  1.00  0.00    -0.018 C 
HETATM    9  C11 UNL     1      -4.943  38.895  -1.000  1.00  0.00     0.018 C 
HETATM   10  C12 UNL     1      -4.195  36.889  -2.077  1.00  0.00     0.092 C 
HETATM   11  C14 UNL     1      -4.440  35.692  -1.201  1.00  0.00     0.027 C 
HETATM   12  C15 UNL     1      -5.654  35.006  -1.747  1.00  0.00     0.022 C 
HETATM   13  C16 UNL     1      -6.835  35.869  -1.553  1.00  0.00     0.087 C 
HETATM   14 CL1  UNL     1      -7.527  35.429   0.058  1.00  0.00    -0.125 Cl
HETATM   15  C17 UNL     1      -6.660  37.340  -1.701  1.00  0.00     0.018 C 
ENDROOT
BRANCH  10  16
HETATM   16  N1  UNL     1      -3.827  36.395  -3.389  1.00  0.00    -0.363 N 
ATOM     17  H1  UNL     1      -4.170  36.916  -4.197  1.00  0.00     0.162 HD
BRANCH  16  18
HETATM   18  C13 UNL     1      -3.127  35.388  -3.615  1.00  0.00     0.348 C 
HETATM   19  O2  UNL     1      -2.493  34.424  -4.115  1.00  0.00    -0.284 OA
ENDBRANCH  16  18
ENDBRANCH  10  16
BRANCH   1  20
HETATM   20  C2  UNL     1      -8.518  37.554  -6.212  1.00  0.00     0.127 C 
HETATM   21  C1  UNL     1      -8.000  38.855  -6.698  1.00  0.00     0.091 C 
HETATM   22  O1  UNL     1      -8.963  36.796  -7.034  1.00  0.00    -0.298 OA
ENDBRANCH   1  20
TORSDOF 3
ENDMDL
MODEL 5
REMARK VINA RESULT: -4.462539784      4.275      6.085
REMARK  3 active torsions:
REMARK  status: ('A' for Active; 'I' for Inactive)
REMARK    1  A    between atoms: C2_2  and  C3_4 
REMARK    2  A    between atoms: C12_13  and  N1_14 
REMARK    3  A    between atoms: N1_14  and  C13_16 
ROOT
HETATM    1  C3  UNL     1      -3.577  34.810  -1.466  1.00  0.00     0.059 C 
HETATM    2  C4  UNL     1      -4.811  33.875  -1.490  1.00  0.00     0.013 C 
HETATM    3  C5  UNL     1      -5.918  34.937  -1.272  1.00  0.00     0.006 C 
HETATM    4  C6  UNL     1      -5.503  35.906  -2.280  1.00  0.00    -0.003 C 
HETATM    5  C7  UNL     1      -4.004  36.049  -2.114  1.00  0.00     0.001 C 
HETATM    6  C8  UNL     1      -3.526  36.399  -3.473  1.00  0.00     0.007 C 
HETATM    7  C9  UNL     1      -4.478  37.312  -4.197  1.00  0.00     0.012 C 
HETATM    8  C10 UNL     1      -5.497  38.033  -3.368  1.00  0.00    -0.018 C 
HETATM    9  C11 UNL     1      -6.676  38.256  -4.357  1.00  0.00     0.018 C 
HETATM   10  C12 UNL     1      -4.995  39.422  -3.109  1.00  0.00     0.092 C 
HETATM   11  C14 UNL     1      -5.587  40.055  -1.881  1.00  0.00     0.027 C 
HETATM   12  C15 UNL     1      -5.209  39.178  -0.727  1.00  0.00     0.022 C 
HETATM   13  C16 UNL     1      -5.892  37.877  -0.853  1.00  0.00     0.087 C 
HETATM   14 CL1  UNL     1      -7.468  38.044   0.017  1.00  0.00    -0.125 Cl
HETATM   15  C17 UNL     1      -6.067  37.306  -2.216  1.00  0.00     0.018 C 
ENDROOT
BRANCH  10  16
HETATM   16  N1  UNL     1      -3.553  39.510  -2.988  1.00  0.00    -0.363 N 
ATOM     17  H1  UNL     1      -3.023  38.644  -3.082  1.00  0.00     0.162 HD
BRANCH  16  18
HETATM   18  C13 UNL     1      -2.905  40.555  -2.778  1.00  0.00     0.348 C 
HETATM   19  O2  UNL     1      -2.234  41.505  -2.300  1.00  0.00    -0.284 OA
ENDBRANCH  16  18
ENDBRANCH  10  16
BRANCH   1  20
HETATM   20  C2  UNL     1      -2.346  34.163  -1.858  1.00  0.00     0.127 C 
HETATM   21  C1  UNL     1      -2.347  33.074  -2.864  1.00  0.00     0.091 C 
HETATM   22  O1  UNL     1      -1.284  34.479  -1.388  1.00  0.00    -0.298 OA
ENDBRANCH   1  20
TORSDOF 3
ENDMDL
