MODEL 1
REMARK VINA RESULT: -7.638625829      0.000      0.000
REMARK  3 active torsions:
REMARK  status: ('A' for Active; 'I' for Inactive)
REMARK    1  A    between atoms: C1_2  and  O1_3 
REMARK    2  A    between atoms: C1_2  and  N1_15 
REMARK    3  A    between atoms: O1_3  and  C2_4 
ROOT
HETATM    1  C2  UNL     1      -6.190  37.549 -10.462  1.00  0.00     0.088 C 
HETATM    2  C3  UNL     1      -7.544  38.298 -10.583  1.00  0.00     0.045 C 
HETATM    3  C4  UNL     1      -8.111  38.612  -9.248  1.00  0.00    -0.011 C 
HETATM    4  C5  UNL     1      -8.248  37.459  -8.309  1.00  0.00     0.009 C 
HETATM    5  C6  UNL     1      -6.897  36.787  -8.170  1.00  0.00    -0.011 C 
HETATM    6  C7  UNL     1      -5.951  37.753  -7.523  1.00  0.00     0.011 C 
HETATM    7  C8  UNL     1      -5.808  38.941  -8.459  1.00  0.00     0.008 C 
HETATM    8  C9  UNL     1      -7.149  39.606  -8.583  1.00  0.00     0.011 C 
HETATM    9  C10 UNL     1      -5.232  38.470  -9.751  1.00  0.00     0.121 C 
HETATM   10 CL1  UNL     1      -4.859  39.911 -10.728  1.00  0.00    -0.121 Cl
HETATM   11  C11 UNL     1      -6.487  36.378  -9.555  1.00  0.00     0.045 C 
ENDROOT
BRANCH   1  12
HETATM   12  O1  UNL     1      -5.866  37.147 -11.682  1.00  0.00    -0.314 OA
BRANCH  12  13
HETATM   13  C1  UNL     1      -6.050  36.542 -12.816  1.00  0.00     0.213 C 
HETATM   14  S1  UNL     1      -5.087  35.169 -13.038  1.00  0.00    -0.033 SA
BRANCH  13  15
HETATM   15  N1  UNL     1      -6.926  36.869 -13.868  1.00  0.00    -0.352 N 
HETATM   16  C12 UNL     1      -7.800  38.032 -13.892  1.00  0.00     0.126 C 
HETATM   17  C13 UNL     1      -7.546  38.555 -15.308  1.00  0.00     0.021 C 
HETATM   18  C14 UNL     1      -6.888  37.404 -16.070  1.00  0.00     0.021 C 
HETATM   19  C15 UNL     1      -7.217  36.240 -15.124  1.00  0.00     0.126 C 
ENDBRANCH  13  15
ENDBRANCH  12  13
ENDBRANCH   1  12
TORSDOF 3
ENDMDL
MODEL 2
REMARK VINA RESULT: -7.278795935      1.422      1.741
REMARK  3 active torsions:
REMARK  status: ('A' for Active; 'I' for Inactive)
REMARK    1  A    between atoms: C1_2  and  O1_3 
REMARK    2  A    between atoms: C1_2  and  N1_15 
REMARK    3  A    between atoms: O1_3  and  C2_4 
ROOT
HETATM    1  C2  UNL     1      -6.361  37.602 -10.821  1.00  0.00     0.088 C 
HETATM    2  C3  UNL     1      -7.688  38.400 -10.717  1.00  0.00     0.045 C 
HETATM    3  C4  UNL     1      -8.060  38.651  -9.302  1.00  0.00    -0.011 C 
HETATM    4  C5  UNL     1      -8.115  37.449  -8.418  1.00  0.00     0.009 C 
HETATM    5  C6  UNL     1      -6.786  36.727  -8.501  1.00  0.00    -0.011 C 
HETATM    6  C7  UNL     1      -5.724  37.622  -7.935  1.00  0.00     0.011 C 
HETATM    7  C8  UNL     1      -5.660  38.859  -8.815  1.00  0.00     0.008 C 
HETATM    8  C9  UNL     1      -6.979  39.572  -8.720  1.00  0.00     0.011 C 
HETATM    9  C10 UNL     1      -5.281  38.447 -10.198  1.00  0.00     0.121 C 
HETATM   10 CL1  UNL     1      -4.985  39.931 -11.135  1.00  0.00    -0.121 Cl
HETATM   11  C11 UNL     1      -6.581  36.388  -9.949  1.00  0.00     0.045 C 
ENDROOT
BRANCH   1  12
HETATM   12  O1  UNL     1      -6.219  37.263 -12.095  1.00  0.00    -0.314 OA
BRANCH  12  13
HETATM   13  C1  UNL     1      -6.593  37.119 -13.329  1.00  0.00     0.213 C 
HETATM   14  S1  UNL     1      -7.619  38.339 -13.893  1.00  0.00    -0.033 SA
BRANCH  13  15
HETATM   15  N1  UNL     1      -6.267  36.102 -14.246  1.00  0.00    -0.352 N 
HETATM   16  C12 UNL     1      -6.926  35.892 -15.526  1.00  0.00     0.126 C 
HETATM   17  C13 UNL     1      -5.718  35.694 -16.445  1.00  0.00     0.021 C 
HETATM   18  C14 UNL     1      -4.535  35.392 -15.524  1.00  0.00     0.021 C 
HETATM   19  C15 UNL     1      -5.289  35.053 -14.229  1.00  0.00     0.126 C 
ENDBRANCH  13  15
ENDBRANCH  12  13
ENDBRANCH   1  12
TORSDOF 3
ENDMDL
MODEL 3
REMARK VINA RESULT: -6.573516437      4.849      7.622
REMARK  3 active torsions:
REMARK  status: ('A' for Active; 'I' for Inactive)
REMARK    1  A    between atoms: C1_2  and  O1_3 
REMARK    2  A    between atoms: C1_2  and  N1_15 
REMARK    3  A    between atoms: O1_3  and  C2_4 
ROOT
HETATM    1  C2  UNL     1      -7.417  37.869  -6.706  1.00  0.00     0.088 C 
HETATM    2  C3  UNL     1      -6.105  37.200  -7.196  1.00  0.00     0.045 C 
HETATM    3  C4  UNL     1      -5.912  37.391  -8.655  1.00  0.00    -0.011 C 
HETATM    4  C5  UNL     1      -7.053  36.978  -9.525  1.00  0.00     0.009 C 
HETATM    5  C6  UNL     1      -8.302  37.692  -9.054  1.00  0.00    -0.011 C 
HETATM    6  C7  UNL     1      -8.117  39.165  -9.269  1.00  0.00     0.011 C 
HETATM    7  C8  UNL     1      -6.950  39.604  -8.400  1.00  0.00     0.008 C 
HETATM    8  C9  UNL     1      -5.714  38.896  -8.879  1.00  0.00     0.011 C 
HETATM    9  C10 UNL     1      -7.290  39.347  -6.971  1.00  0.00     0.121 C 
HETATM   10 CL1  UNL     1      -6.013  40.086  -5.976  1.00  0.00    -0.121 Cl
HETATM   11  C11 UNL     1      -8.488  37.311  -7.614  1.00  0.00     0.045 C 
ENDROOT
BRANCH   1  12
HETATM   12  O1  UNL     1      -7.597  37.482  -5.451  1.00  0.00    -0.314 OA
BRANCH  12  13
HETATM   13  C1  UNL     1      -7.661  37.635  -4.164  1.00  0.00     0.213 C 
HETATM   14  S1  UNL     1      -9.224  37.537  -3.526  1.00  0.00    -0.033 SA
BRANCH  13  15
HETATM   15  N1  UNL     1      -6.623  37.869  -3.242  1.00  0.00    -0.352 N 
HETATM   16  C12 UNL     1      -5.242  37.447  -3.419  1.00  0.00     0.126 C 
HETATM   17  C13 UNL     1      -4.496  38.723  -3.023  1.00  0.00     0.021 C 
HETATM   18  C14 UNL     1      -5.508  39.584  -2.266  1.00  0.00     0.021 C 
HETATM   19  C15 UNL     1      -6.581  38.527  -1.968  1.00  0.00     0.126 C 
ENDBRANCH  13  15
ENDBRANCH  12  13
ENDBRANCH   1  12
TORSDOF 3
ENDMDL
MODEL 4
REMARK VINA RESULT: -6.460089310      5.042      7.752
REMARK  3 active torsions:
REMARK  status: ('A' for Active; 'I' for Inactive)
REMARK    1  A    between atoms: C1_2  and  O1_3 
REMARK    2  A    between atoms: C1_2  and  N1_15 
REMARK    3  A    between atoms: O1_3  and  C2_4 
ROOT
HETATM    1  C2  UNL     1      -6.845  38.185  -6.595  1.00  0.00     0.088 C 
HETATM    2  C3  UNL     1      -7.514  39.493  -7.097  1.00  0.00     0.045 C 
HETATM    3  C4  UNL     1      -7.715  39.468  -8.568  1.00  0.00    -0.011 C 
HETATM    4  C5  UNL     1      -6.504  39.166  -9.388  1.00  0.00     0.009 C 
HETATM    5  C6  UNL     1      -5.911  37.858  -8.909  1.00  0.00    -0.011 C 
HETATM    6  C7  UNL     1      -6.895  36.761  -9.185  1.00  0.00     0.011 C 
HETATM    7  C8  UNL     1      -8.141  37.056  -8.367  1.00  0.00     0.008 C 
HETATM    8  C9  UNL     1      -8.727  38.351  -8.855  1.00  0.00     0.011 C 
HETATM    9  C10 UNL     1      -7.781  37.050  -6.920  1.00  0.00     0.121 C 
HETATM   10 CL1  UNL     1      -9.296  37.162  -5.991  1.00  0.00    -0.121 Cl
HETATM   11  C11 UNL     1      -5.607  38.043  -7.450  1.00  0.00     0.045 C 
ENDROOT
BRANCH   1  12
HETATM   12  O1  UNL     1      -6.533  38.381  -5.322  1.00  0.00    -0.314 OA
BRANCH  12  13
HETATM   13  C1  UNL     1      -6.122  38.040  -4.139  1.00  0.00     0.213 C 
HETATM   14  S1  UNL     1      -7.356  37.851  -2.999  1.00  0.00    -0.033 SA
BRANCH  13  15
HETATM   15  N1  UNL     1      -4.809  37.810  -3.685  1.00  0.00    -0.352 N 
HETATM   16  C12 UNL     1      -4.132  38.597  -2.665  1.00  0.00     0.126 C 
HETATM   17  C13 UNL     1      -3.530  37.489  -1.797  1.00  0.00     0.021 C 
HETATM   18  C14 UNL     1      -3.574  36.219  -2.648  1.00  0.00     0.021 C 
HETATM   19  C15 UNL     1      -3.814  36.837  -4.033  1.00  0.00     0.126 C 
ENDBRANCH  13  15
ENDBRANCH  12  13
ENDBRANCH   1  12
TORSDOF 3
ENDMDL
MODEL 5
REMARK VINA RESULT: -6.361567046      5.035      7.623
REMARK  3 active torsions:
REMARK  status: ('A' for Active; 'I' for Inactive)
REMARK    1  A    between atoms: C1_2  and  O1_3 
REMARK    2  A    between atoms: C1_2  and  N1_15 
REMARK    3  A    between atoms: O1_3  and  C2_4 
ROOT
HETATM    1  C2  UNL     1      -7.442  38.047  -6.343  1.00  0.00     0.088 C 
HETATM    2  C3  UNL     1      -6.146  37.292  -6.743  1.00  0.00     0.045 C 
HETATM    3  C4  UNL     1      -5.999  37.212  -8.218  1.00  0.00    -0.011 C 
HETATM    4  C5  UNL     1      -7.167  36.653  -8.962  1.00  0.00     0.009 C 
HETATM    5  C6  UNL     1      -8.401  37.449  -8.591  1.00  0.00    -0.011 C 
HETATM    6  C7  UNL     1      -8.223  38.856  -9.077  1.00  0.00     0.011 C 
HETATM    7  C8  UNL     1      -7.029  39.440  -8.339  1.00  0.00     0.008 C 
HETATM    8  C9  UNL     1      -5.809  38.650  -8.720  1.00  0.00     0.011 C 
HETATM    9  C10 UNL     1      -7.324  39.451  -6.878  1.00  0.00     0.121 C 
HETATM   10 CL1  UNL     1      -6.016  40.352  -6.074  1.00  0.00    -0.121 Cl
HETATM   11  C11 UNL     1      -8.541  37.338  -7.100  1.00  0.00     0.045 C 
ENDROOT
BRANCH   1  12
HETATM   12  O1  UNL     1      -7.582  37.897  -5.034  1.00  0.00    -0.314 OA
BRANCH  12  13
HETATM   13  C1  UNL     1      -7.268  37.458  -3.853  1.00  0.00     0.213 C 
HETATM   14  S1  UNL     1      -8.566  36.817  -2.979  1.00  0.00    -0.033 SA
BRANCH  13  15
HETATM   15  N1  UNL     1      -6.014  37.446  -3.212  1.00  0.00    -0.352 N 
HETATM   16  C12 UNL     1      -5.622  36.510  -2.170  1.00  0.00     0.126 C 
HETATM   17  C13 UNL     1      -4.230  36.102  -2.657  1.00  0.00     0.021 C 
HETATM   18  C14 UNL     1      -3.816  37.158  -3.682  1.00  0.00     0.021 C 
HETATM   19  C15 UNL     1      -4.840  38.256  -3.355  1.00  0.00     0.126 C 
ENDBRANCH  13  15
ENDBRANCH  12  13
ENDBRANCH   1  12
TORSDOF 3
ENDMDL
