MODEL 1
REMARK VINA RESULT: -6.169876065      0.000      0.000
REMARK  1 active torsions:
REMARK  status: ('A' for Active; 'I' for Inactive)
REMARK    1  A    between atoms: N1_2  and  C3_4 
ROOT
HETATM    1  C3  UNL     1     -10.234  37.373  -2.566  1.00  0.00    -0.016 C 
HETATM    2  C4  UNL     1      -9.585  36.405  -1.718  1.00  0.00    -0.003 C 
HETATM    3  C5  UNL     1      -8.370  35.635  -2.074  1.00  0.00     0.010 C 
HETATM    4  C6  UNL     1      -6.999  36.163  -1.653  1.00  0.00     0.013 C 
HETATM    5  C7  UNL     1      -6.510  37.030  -2.866  1.00  0.00    -0.008 C 
HETATM    6  C8  UNL     1      -5.587  38.095  -2.448  1.00  0.00     0.024 C 
HETATM    7  C9  UNL     1      -5.463  39.068  -3.599  1.00  0.00     0.119 C 
HETATM    8  N2  UNL     1      -5.655  38.444  -4.879  1.00  0.00    -0.396 N 
ATOM      9  H2  UNL     1      -4.750  38.214  -5.290  1.00  0.00     0.159 HD
HETATM   10  C10 UNL     1      -6.583  38.088  -5.662  1.00  0.00    -0.014 C 
HETATM   11  C11 UNL     1      -5.903  37.496  -6.821  1.00  0.00     0.052 C 
HETATM   12  C12 UNL     1      -6.764  37.859  -8.033  1.00  0.00     0.006 C 
HETATM   13  C13 UNL     1      -8.119  37.256  -7.939  1.00  0.00     0.001 C 
HETATM   14  C14 UNL     1      -8.688  37.130  -6.549  1.00  0.00     0.011 C 
HETATM   15  C15 UNL     1      -8.070  38.141  -5.658  1.00  0.00     0.036 C 
HETATM   16  C16 UNL     1      -8.497  38.191  -4.246  1.00  0.00     0.005 C 
HETATM   17  C17 UNL     1      -9.942  37.753  -3.959  1.00  0.00     0.056 C 
HETATM   18  C18 UNL     1      -7.821  37.381  -3.304  1.00  0.00    -0.005 C 
HETATM   19  C19 UNL     1      -8.244  35.956  -3.550  1.00  0.00     0.014 C 
ENDROOT
BRANCH   1  20
HETATM   20  N1  UNL     1     -11.709  37.201  -2.548  1.00  0.00    -0.295 NA
HETATM   21  C1  UNL     1     -12.129  35.853  -2.518  1.00  0.00     0.116 C 
HETATM   22  C2  UNL     1     -12.351  38.101  -1.651  1.00  0.00     0.116 C 
ENDBRANCH   1  20
TORSDOF 1
ENDMDL
MODEL 2
REMARK VINA RESULT: -5.989826735      1.182      1.507
REMARK  1 active torsions:
REMARK  status: ('A' for Active; 'I' for Inactive)
REMARK    1  A    between atoms: N1_2  and  C3_4 
ROOT
HETATM    1  C3  UNL     1     -10.786  36.171  -2.070  1.00  0.00    -0.016 C 
HETATM    2  C4  UNL     1     -10.083  35.098  -1.413  1.00  0.00    -0.003 C 
HETATM    3  C5  UNL     1      -8.746  34.588  -1.801  1.00  0.00     0.010 C 
HETATM    4  C6  UNL     1      -7.504  35.142  -1.106  1.00  0.00     0.013 C 
HETATM    5  C7  UNL     1      -7.038  36.341  -2.006  1.00  0.00    -0.008 C 
HETATM    6  C8  UNL     1      -6.312  37.361  -1.238  1.00  0.00     0.024 C 
HETATM    7  C9  UNL     1      -6.227  38.604  -2.095  1.00  0.00     0.119 C 
HETATM    8  N2  UNL     1      -6.221  38.311  -3.502  1.00  0.00    -0.396 N 
ATOM      9  H2  UNL     1      -5.262  38.297  -3.848  1.00  0.00     0.159 HD
HETATM   10  C10 UNL     1      -7.021  38.064  -4.451  1.00  0.00    -0.014 C 
HETATM   11  C11 UNL     1      -6.169  37.870  -5.631  1.00  0.00     0.052 C 
HETATM   12  C12 UNL     1      -6.967  38.431  -6.811  1.00  0.00     0.006 C 
HETATM   13  C13 UNL     1      -8.228  37.675  -7.025  1.00  0.00     0.001 C 
HETATM   14  C14 UNL     1      -8.890  37.133  -5.784  1.00  0.00     0.011 C 
HETATM   15  C15 UNL     1      -8.496  37.945  -4.608  1.00  0.00     0.036 C 
HETATM   16  C16 UNL     1      -9.043  37.584  -3.286  1.00  0.00     0.005 C 
HETATM   17  C17 UNL     1     -10.433  36.926  -3.285  1.00  0.00     0.056 C 
HETATM   18  C18 UNL     1      -8.344  36.642  -2.497  1.00  0.00    -0.005 C 
HETATM   19  C19 UNL     1      -8.542  35.288  -3.129  1.00  0.00     0.014 C 
ENDROOT
BRANCH   1  20
HETATM   20  N1  UNL     1     -12.219  35.835  -2.267  1.00  0.00    -0.295 NA
HETATM   21  C1  UNL     1     -12.953  36.829  -2.949  1.00  0.00     0.116 C 
HETATM   22  C2  UNL     1     -12.409  34.488  -2.684  1.00  0.00     0.116 C 
ENDBRANCH   1  20
TORSDOF 1
ENDMDL
MODEL 3
REMARK VINA RESULT: -5.785049086      2.044      4.892
REMARK  1 active torsions:
REMARK  status: ('A' for Active; 'I' for Inactive)
REMARK    1  A    between atoms: N1_2  and  C3_4 
ROOT
HETATM    1  C3  UNL     1      -7.690  38.125  -5.319  1.00  0.00    -0.016 C 
HETATM    2  C4  UNL     1      -8.923  37.480  -4.943  1.00  0.00    -0.003 C 
HETATM    3  C5  UNL     1      -9.107  36.617  -3.752  1.00  0.00     0.010 C 
HETATM    4  C6  UNL     1      -9.631  37.232  -2.456  1.00  0.00     0.013 C 
HETATM    5  C7  UNL     1      -8.345  37.644  -1.656  1.00  0.00    -0.008 C 
HETATM    6  C8  UNL     1      -8.595  38.773  -0.748  1.00  0.00     0.024 C 
HETATM    7  C9  UNL     1      -7.252  39.310  -0.308  1.00  0.00     0.119 C 
HETATM    8  N2  UNL     1      -6.227  38.303  -0.289  1.00  0.00    -0.396 N 
ATOM      9  H2  UNL     1      -6.121  37.935   0.656  1.00  0.00     0.159 HD
HETATM   10  C10 UNL     1      -5.414  37.723  -1.066  1.00  0.00    -0.014 C 
HETATM   11  C11 UNL     1      -4.684  36.772  -0.219  1.00  0.00     0.052 C 
HETATM   12  C12 UNL     1      -3.260  36.729  -0.780  1.00  0.00     0.006 C 
HETATM   13  C13 UNL     1      -3.239  36.212  -2.174  1.00  0.00     0.001 C 
HETATM   14  C14 UNL     1      -4.436  36.560  -3.022  1.00  0.00     0.011 C 
HETATM   15  C15 UNL     1      -5.073  37.798  -2.513  1.00  0.00     0.036 C 
HETATM   16  C16 UNL     1      -6.264  38.317  -3.211  1.00  0.00     0.005 C 
HETATM   17  C17 UNL     1      -6.349  38.020  -4.718  1.00  0.00     0.056 C 
HETATM   18  C18 UNL     1      -7.539  37.852  -2.815  1.00  0.00    -0.005 C 
HETATM   19  C19 UNL     1      -7.673  36.432  -3.302  1.00  0.00     0.014 C 
ENDROOT
BRANCH   1  20
HETATM   20  N1  UNL     1      -7.436  37.992  -6.775  1.00  0.00    -0.295 NA
HETATM   21  C1  UNL     1      -6.101  37.663  -7.097  1.00  0.00     0.116 C 
HETATM   22  C2  UNL     1      -8.461  37.266  -7.443  1.00  0.00     0.116 C 
ENDBRANCH   1  20
TORSDOF 1
ENDMDL
MODEL 4
REMARK VINA RESULT: -5.685338669      1.516      5.197
REMARK  1 active torsions:
REMARK  status: ('A' for Active; 'I' for Inactive)
REMARK    1  A    between atoms: N1_2  and  C3_4 
ROOT
HETATM    1  C3  UNL     1      -7.448  37.694  -5.442  1.00  0.00    -0.016 C 
HETATM    2  C4  UNL     1      -6.161  38.029  -4.886  1.00  0.00    -0.003 C 
HETATM    3  C5  UNL     1      -5.883  38.249  -3.447  1.00  0.00     0.010 C 
HETATM    4  C6  UNL     1      -5.376  37.086  -2.596  1.00  0.00     0.013 C 
HETATM    5  C7  UNL     1      -6.670  36.431  -1.996  1.00  0.00    -0.008 C 
HETATM    6  C8  UNL     1      -6.484  35.003  -1.706  1.00  0.00     0.024 C 
HETATM    7  C9  UNL     1      -7.853  34.401  -1.480  1.00  0.00     0.119 C 
HETATM    8  N2  UNL     1      -8.798  35.348  -0.954  1.00  0.00    -0.396 N 
ATOM      9  H2  UNL     1      -8.852  35.254   0.060  1.00  0.00     0.159 HD
HETATM   10  C10 UNL     1      -9.584  36.261  -1.342  1.00  0.00    -0.014 C 
HETATM   11  C11 UNL     1     -10.219  36.766  -0.118  1.00  0.00     0.052 C 
HETATM   12  C12 UNL     1     -11.648  37.139  -0.520  1.00  0.00     0.006 C 
HETATM   13  C13 UNL     1     -11.663  38.229  -1.530  1.00  0.00     0.001 C 
HETATM   14  C14 UNL     1     -10.518  38.235  -2.509  1.00  0.00     0.011 C 
HETATM   15  C15 UNL     1      -9.964  36.867  -2.646  1.00  0.00     0.036 C 
HETATM   16  C16 UNL     1      -8.833  36.653  -3.569  1.00  0.00     0.005 C 
HETATM   17  C17 UNL     1      -8.762  37.592  -4.784  1.00  0.00     0.056 C 
HETATM   18  C18 UNL     1      -7.517  36.815  -3.077  1.00  0.00    -0.005 C 
HETATM   19  C19 UNL     1      -7.288  38.292  -2.882  1.00  0.00     0.014 C 
ENDROOT
BRANCH   1  20
HETATM   20  N1  UNL     1      -7.727  38.485  -6.667  1.00  0.00    -0.295 NA
HETATM   21  C1  UNL     1      -6.711  39.407  -6.999  1.00  0.00     0.116 C 
HETATM   22  C2  UNL     1      -8.248  37.686  -7.724  1.00  0.00     0.116 C 
ENDBRANCH   1  20
TORSDOF 1
ENDMDL
MODEL 5
REMARK VINA RESULT: -5.414821933      2.351      5.070
REMARK  1 active torsions:
REMARK  status: ('A' for Active; 'I' for Inactive)
REMARK    1  A    between atoms: N1_2  and  C3_4 
ROOT
HETATM    1  C3  UNL     1      -7.168  38.121  -4.801  1.00  0.00    -0.016 C 
HETATM    2  C4  UNL     1      -8.446  37.779  -4.226  1.00  0.00    -0.003 C 
HETATM    3  C5  UNL     1      -8.641  37.079  -2.934  1.00  0.00     0.010 C 
HETATM    4  C6  UNL     1      -8.866  37.900  -1.665  1.00  0.00     0.013 C 
HETATM    5  C7  UNL     1      -7.434  38.106  -1.058  1.00  0.00    -0.008 C 
HETATM    6  C8  UNL     1      -7.342  39.336  -0.260  1.00  0.00     0.024 C 
HETATM    7  C9  UNL     1      -5.876  39.621  -0.028  1.00  0.00     0.119 C 
HETATM    8  N2  UNL     1      -5.073  38.430  -0.007  1.00  0.00    -0.396 N 
ATOM      9  H2  UNL     1      -4.921  38.132   0.957  1.00  0.00     0.159 HD
HETATM   10  C10 UNL     1      -4.493  37.630  -0.797  1.00  0.00    -0.014 C 
HETATM   11  C11 UNL     1      -3.860  36.626   0.068  1.00  0.00     0.052 C 
HETATM   12  C12 UNL     1      -2.555  36.242  -0.634  1.00  0.00     0.006 C 
HETATM   13  C13 UNL     1      -2.812  35.613  -1.956  1.00  0.00     0.001 C 
HETATM   14  C14 UNL     1      -4.015  36.124  -2.705  1.00  0.00     0.011 C 
HETATM   15  C15 UNL     1      -4.330  37.506  -2.271  1.00  0.00     0.036 C 
HETATM   16  C16 UNL     1      -5.476  38.197  -2.892  1.00  0.00     0.005 C 
HETATM   17  C17 UNL     1      -5.808  37.794  -4.339  1.00  0.00     0.056 C 
HETATM   18  C18 UNL     1      -6.757  38.041  -2.312  1.00  0.00    -0.005 C 
HETATM   19  C19 UNL     1      -7.224  36.642  -2.622  1.00  0.00     0.014 C 
ENDROOT
BRANCH   1  20
HETATM   20  N1  UNL     1      -7.132  37.812  -6.252  1.00  0.00    -0.295 NA
HETATM   21  C1  UNL     1      -8.387  37.465  -6.798  1.00  0.00     0.116 C 
HETATM   22  C2  UNL     1      -6.340  38.739  -6.986  1.00  0.00     0.116 C 
ENDBRANCH   1  20
TORSDOF 1
ENDMDL
