MODEL 1
REMARK VINA RESULT: -8.248790244      0.000      0.000
REMARK  1 active torsions:
REMARK  status: ('A' for Active; 'I' for Inactive)
REMARK    1  A    between atoms: N1_8  and  C6_9 
ROOT
HETATM    1  F1  UNL     1      -7.104  38.281 -16.270  1.00  0.00    -0.247 F 
HETATM    2  C1  UNL     1      -6.264  37.485 -15.532  1.00  0.00     0.198 C 
HETATM    3  C2  UNL     1      -6.173  36.066 -16.014  1.00  0.00     0.113 C 
HETATM    4  S1  UNL     1      -7.722  35.720 -15.158  1.00  0.00    -0.153 SA
HETATM    5  C3  UNL     1      -6.843  37.005 -14.205  1.00  0.00     0.045 C 
HETATM    6  C4  UNL     1      -7.792  37.970 -13.578  1.00  0.00     0.043 C 
HETATM    7  C5  UNL     1      -7.364  38.483 -12.243  1.00  0.00     0.124 C 
HETATM    8  N1  UNL     1      -6.843  37.510 -11.348  1.00  0.00    -0.388 N 
HETATM    9  C16 UNL     1      -6.016  36.507 -11.859  1.00  0.00     0.060 C 
HETATM   10  C17 UNL     1      -5.771  36.484 -13.329  1.00  0.00     0.067 C 
ENDROOT
BRANCH   8  11
HETATM   11  C6  UNL     1      -6.631  38.028 -10.059  1.00  0.00     0.091 C 
HETATM   12  C7  UNL     1      -6.323  37.080  -8.954  1.00  0.00     0.009 C 
HETATM   13  C8  UNL     1      -7.501  36.432  -8.303  1.00  0.00     0.011 C 
HETATM   14  C12 UNL     1      -5.690  37.932  -7.849  1.00  0.00     0.011 C 
HETATM   15  C9  UNL     1      -8.521  37.434  -7.827  1.00  0.00    -0.013 C 
HETATM   16  C10 UNL     1      -7.890  38.250  -6.736  1.00  0.00     0.009 C 
HETATM   17  C15 UNL     1      -8.919  38.247  -9.030  1.00  0.00     0.011 C 
HETATM   18  C11 UNL     1      -6.679  38.935  -7.323  1.00  0.00    -0.013 C 
HETATM   19  C13 UNL     1      -7.158  39.814  -8.441  1.00  0.00     0.011 C 
HETATM   20  C14 UNL     1      -7.725  38.971  -9.573  1.00  0.00     0.009 C 
ENDBRANCH   8  11
TORSDOF 1
ENDMDL
MODEL 2
REMARK VINA RESULT: -7.490762240      5.387      8.464
REMARK  1 active torsions:
REMARK  status: ('A' for Active; 'I' for Inactive)
REMARK    1  A    between atoms: N1_8  and  C6_9 
ROOT
HETATM    1  F1  UNL     1      -5.754  38.660  -0.918  1.00  0.00    -0.247 F 
HETATM    2  C1  UNL     1      -7.011  38.300  -1.337  1.00  0.00     0.198 C 
HETATM    3  C2  UNL     1      -7.589  37.116  -0.618  1.00  0.00     0.113 C 
HETATM    4  S1  UNL     1      -6.611  36.042  -1.685  1.00  0.00    -0.153 SA
HETATM    5  C3  UNL     1      -7.047  37.527  -2.652  1.00  0.00     0.045 C 
HETATM    6  C4  UNL     1      -5.959  37.903  -3.601  1.00  0.00     0.043 C 
HETATM    7  C5  UNL     1      -6.436  38.473  -4.896  1.00  0.00     0.124 C 
HETATM    8  N1  UNL     1      -7.532  37.799  -5.499  1.00  0.00    -0.388 N 
HETATM    9  C16 UNL     1      -8.558  37.326  -4.679  1.00  0.00     0.060 C 
HETATM   10  C17 UNL     1      -8.417  37.508  -3.207  1.00  0.00     0.067 C 
ENDROOT
BRANCH   8  11
HETATM   11  C6  UNL     1      -7.808  38.277  -6.792  1.00  0.00     0.091 C 
HETATM   12  C7  UNL     1      -8.380  37.334  -7.791  1.00  0.00     0.009 C 
HETATM   13  C8  UNL     1      -7.397  36.474  -8.515  1.00  0.00     0.011 C 
HETATM   14  C12 UNL     1      -8.997  38.217  -8.880  1.00  0.00     0.011 C 
HETATM   15  C9  UNL     1      -6.297  37.274  -9.163  1.00  0.00    -0.013 C 
HETATM   16  C10 UNL     1      -6.916  38.123 -10.235  1.00  0.00     0.009 C 
HETATM   17  C15 UNL     1      -5.646  38.075  -8.067  1.00  0.00     0.011 C 
HETATM   18  C11 UNL     1      -7.933  39.022  -9.574  1.00  0.00    -0.013 C 
HETATM   19  C13 UNL     1      -7.202  39.870  -8.575  1.00  0.00     0.011 C 
HETATM   20  C14 UNL     1      -6.645  39.007  -7.453  1.00  0.00     0.009 C 
ENDBRANCH   8  11
TORSDOF 1
ENDMDL
MODEL 3
REMARK VINA RESULT: -7.406723587      5.542      8.598
REMARK  1 active torsions:
REMARK  status: ('A' for Active; 'I' for Inactive)
REMARK    1  A    between atoms: N1_8  and  C6_9 
ROOT
HETATM    1  F1  UNL     1      -7.462  37.717  -0.425  1.00  0.00    -0.247 F 
HETATM    2  C1  UNL     1      -8.571  37.404  -1.171  1.00  0.00     0.198 C 
HETATM    3  C2  UNL     1      -9.249  36.128  -0.767  1.00  0.00     0.113 C 
HETATM    4  S1  UNL     1      -8.007  35.218  -1.704  1.00  0.00    -0.153 SA
HETATM    5  C3  UNL     1      -8.269  36.816  -2.546  1.00  0.00     0.045 C 
HETATM    6  C4  UNL     1      -7.008  37.329  -3.157  1.00  0.00     0.043 C 
HETATM    7  C5  UNL     1      -7.196  38.064  -4.442  1.00  0.00     0.124 C 
HETATM    8  N1  UNL     1      -8.094  37.466  -5.368  1.00  0.00    -0.388 N 
HETATM    9  C16 UNL     1      -9.260  36.875  -4.880  1.00  0.00     0.060 C 
HETATM   10  C17 UNL     1      -9.472  36.858  -3.405  1.00  0.00     0.067 C 
ENDROOT
BRANCH   8  11
HETATM   11  C6  UNL     1      -8.082  38.112  -6.617  1.00  0.00     0.091 C 
HETATM   12  C7  UNL     1      -8.516  37.346  -7.816  1.00  0.00     0.009 C 
HETATM   13  C8  UNL     1      -7.474  36.487  -8.454  1.00  0.00     0.011 C 
HETATM   14  C12 UNL     1      -8.851  38.401  -8.876  1.00  0.00     0.011 C 
HETATM   15  C9  UNL     1      -6.217  37.252  -8.782  1.00  0.00    -0.013 C 
HETATM   16  C10 UNL     1      -6.560  38.271  -9.830  1.00  0.00     0.009 C 
HETATM   17  C15 UNL     1      -5.735  37.859  -7.492  1.00  0.00     0.011 C 
HETATM   18  C11 UNL     1      -7.620  39.178  -9.255  1.00  0.00    -0.013 C 
HETATM   19  C13 UNL     1      -7.038  39.836  -8.039  1.00  0.00     0.011 C 
HETATM   20  C14 UNL     1      -6.767  38.803  -6.955  1.00  0.00     0.009 C 
ENDBRANCH   8  11
TORSDOF 1
ENDMDL
MODEL 4
REMARK VINA RESULT: -7.380621223      5.389      8.279
REMARK  1 active torsions:
REMARK  status: ('A' for Active; 'I' for Inactive)
REMARK    1  A    between atoms: N1_8  and  C6_9 
ROOT
HETATM    1  F1  UNL     1      -8.067  35.520  -1.498  1.00  0.00    -0.247 F 
HETATM    2  C1  UNL     1      -6.971  36.080  -2.106  1.00  0.00     0.198 C 
HETATM    3  C2  UNL     1      -6.062  36.830  -1.176  1.00  0.00     0.113 C 
HETATM    4  S1  UNL     1      -7.190  38.233  -1.271  1.00  0.00    -0.153 SA
HETATM    5  C3  UNL     1      -7.256  37.366  -2.876  1.00  0.00     0.045 C 
HETATM    6  C4  UNL     1      -8.622  37.420  -3.473  1.00  0.00     0.043 C 
HETATM    7  C5  UNL     1      -8.643  37.518  -4.963  1.00  0.00     0.124 C 
HETATM    8  N1  UNL     1      -7.718  38.434  -5.533  1.00  0.00    -0.388 N 
HETATM    9  C16 UNL     1      -6.440  38.523  -4.980  1.00  0.00     0.060 C 
HETATM   10  C17 UNL     1      -6.134  37.688  -3.784  1.00  0.00     0.067 C 
ENDROOT
BRANCH   8  11
HETATM   11  C6  UNL     1      -7.918  38.605  -6.914  1.00  0.00     0.091 C 
HETATM   12  C7  UNL     1      -8.411  37.448  -7.709  1.00  0.00     0.009 C 
HETATM   13  C8  UNL     1      -7.370  36.478  -8.164  1.00  0.00     0.011 C 
HETATM   14  C12 UNL     1      -8.970  38.050  -9.002  1.00  0.00     0.011 C 
HETATM   15  C9  UNL     1      -6.243  37.148  -8.909  1.00  0.00    -0.013 C 
HETATM   16  C10 UNL     1      -6.806  37.720 -10.178  1.00  0.00     0.009 C 
HETATM   17  C15 UNL     1      -5.676  38.190  -7.983  1.00  0.00     0.011 C 
HETATM   18  C11 UNL     1      -7.877  38.712  -9.795  1.00  0.00    -0.013 C 
HETATM   19  C13 UNL     1      -7.224  39.781  -8.969  1.00  0.00     0.011 C 
HETATM   20  C14 UNL     1      -6.726  39.205  -7.651  1.00  0.00     0.009 C 
ENDBRANCH   8  11
TORSDOF 1
ENDMDL
MODEL 5
REMARK VINA RESULT: -7.327254077      5.333      8.368
REMARK  1 active torsions:
REMARK  status: ('A' for Active; 'I' for Inactive)
REMARK    1  A    between atoms: N1_8  and  C6_9 
ROOT
HETATM    1  F1  UNL     1      -6.898  38.079  -0.683  1.00  0.00    -0.247 F 
HETATM    2  C1  UNL     1      -7.998  38.010  -1.502  1.00  0.00     0.198 C 
HETATM    3  C2  UNL     1      -8.968  36.921  -1.147  1.00  0.00     0.113 C 
HETATM    4  S1  UNL     1      -7.899  35.748  -2.003  1.00  0.00    -0.153 SA
HETATM    5  C3  UNL     1      -7.745  37.354  -2.856  1.00  0.00     0.045 C 
HETATM    6  C4  UNL     1      -6.365  37.568  -3.380  1.00  0.00     0.043 C 
HETATM    7  C5  UNL     1      -6.301  38.312  -4.673  1.00  0.00     0.124 C 
HETATM    8  N1  UNL     1      -7.247  37.917  -5.658  1.00  0.00    -0.388 N 
HETATM    9  C16 UNL     1      -8.545  37.605  -5.250  1.00  0.00     0.060 C 
HETATM   10  C17 UNL     1      -8.851  37.652  -3.792  1.00  0.00     0.067 C 
ENDROOT
BRANCH   8  11
HETATM   11  C6  UNL     1      -7.012  38.530  -6.901  1.00  0.00     0.091 C 
HETATM   12  C7  UNL     1      -8.171  38.782  -7.799  1.00  0.00     0.009 C 
HETATM   13  C8  UNL     1      -8.598  37.632  -8.652  1.00  0.00     0.011 C 
HETATM   14  C12 UNL     1      -7.693  39.845  -8.794  1.00  0.00     0.011 C 
HETATM   15  C9  UNL     1      -7.461  37.058  -9.458  1.00  0.00    -0.013 C 
HETATM   16  C10 UNL     1      -7.015  38.106 -10.435  1.00  0.00     0.009 C 
HETATM   17  C15 UNL     1      -6.392  36.663  -8.473  1.00  0.00     0.011 C 
HETATM   18  C11 UNL     1      -6.571  39.310  -9.641  1.00  0.00    -0.013 C 
HETATM   19  C13 UNL     1      -5.433  38.876  -8.764  1.00  0.00     0.011 C 
HETATM   20  C14 UNL     1      -5.914  37.871  -7.728  1.00  0.00     0.009 C 
ENDBRANCH   8  11
TORSDOF 1
ENDMDL
