MODEL 1
REMARK VINA RESULT: -7.923540844      0.000      0.000
REMARK  4 active torsions:
REMARK  status: ('A' for Active; 'I' for Inactive)
REMARK    1  A    between atoms: C2_2  and  C3_3 
REMARK    2  A    between atoms: C4_4  and  C5_5 
REMARK    3  A    between atoms: C9_9  and  C10_10 
REMARK    4  A    between atoms: C17_17  and  O1_18 
ROOT
HETATM    1  C10 UNL     1     -23.234 -13.414  13.053  1.00  0.00    -0.005 C 
HETATM    2  C11 UNL     1     -23.570 -14.532  12.063  1.00  0.00     0.013 C 
HETATM    3  C12 UNL     1     -25.063 -14.670  12.085  1.00  0.00     0.001 C 
HETATM    4  C13 UNL     1     -25.502 -13.238  12.340  1.00  0.00     0.005 C 
HETATM    5  C14 UNL     1     -24.528 -12.845  13.461  1.00  0.00    -0.003 C 
HETATM    6  C15 UNL     1     -25.110 -13.339  14.734  1.00  0.00     0.008 C 
HETATM    7  C16 UNL     1     -24.125 -13.666  15.799  1.00  0.00     0.032 C 
HETATM    8  C17 UNL     1     -23.177 -14.699  15.212  1.00  0.00     0.119 C 
HETATM    9  C18 UNL     1     -22.401 -14.007  14.131  1.00  0.00     0.044 C 
ENDROOT
BRANCH   1  10
HETATM   10  C9  UNL     1     -22.348 -12.429  12.318  1.00  0.00     0.155 C 
HETATM   11  C8  UNL     1     -21.982 -12.881  10.967  1.00  0.00     0.005 C 
HETATM   12  C7  UNL     1     -20.796 -12.352  10.682  1.00  0.00     0.013 C 
HETATM   13  C5  UNL     1     -20.433 -11.556  11.896  1.00  0.00     0.094 C 
HETATM   14  C6  UNL     1     -20.941 -10.142  11.804  1.00  0.00     0.055 C 
HETATM   15  O2  UNL     1     -21.134 -12.229  12.925  1.00  0.00    -0.363 OA
BRANCH  13  16
HETATM   16  C4  UNL     1     -18.983 -11.556  12.123  1.00  0.00     0.014 C 
HETATM   17  C3  UNL     1     -18.150 -10.939  11.279  1.00  0.00    -0.002 C 
BRANCH  17  18
HETATM   18  C2  UNL     1     -16.725 -10.946  11.511  1.00  0.00    -0.010 C 
HETATM   19  C1  UNL     1     -15.888 -11.013  10.501  1.00  0.00     0.011 C 
ENDBRANCH  17  18
ENDBRANCH  13  16
ENDBRANCH   1  10
BRANCH   8  20
HETATM   20  O1  UNL     1     -22.282 -15.059  16.218  1.00  0.00    -0.396 OA
ATOM     21  H1  UNL     1     -21.419 -15.105  15.825  1.00  0.00     0.210 HD
ENDBRANCH   8  20
TORSDOF 4
ENDMDL
MODEL 2
REMARK VINA RESULT: -7.753457651      4.488     10.311
REMARK  4 active torsions:
REMARK  status: ('A' for Active; 'I' for Inactive)
REMARK    1  A    between atoms: C2_2  and  C3_3 
REMARK    2  A    between atoms: C4_4  and  C5_5 
REMARK    3  A    between atoms: C9_9  and  C10_10 
REMARK    4  A    between atoms: C17_17  and  O1_18 
ROOT
HETATM    1  C10 UNL     1     -13.453  -8.696  10.474  1.00  0.00    -0.005 C 
HETATM    2  C11 UNL     1     -13.613  -8.289   9.007  1.00  0.00     0.013 C 
HETATM    3  C12 UNL     1     -12.266  -8.477   8.376  1.00  0.00     0.001 C 
HETATM    4  C13 UNL     1     -11.726  -9.668   9.149  1.00  0.00     0.005 C 
HETATM    5  C14 UNL     1     -12.099  -9.260  10.582  1.00  0.00    -0.003 C 
HETATM    6  C15 UNL     1     -11.029  -8.353  11.068  1.00  0.00     0.008 C 
HETATM    7  C16 UNL     1     -11.453  -7.356  12.086  1.00  0.00     0.032 C 
HETATM    8  C17 UNL     1     -12.587  -6.555  11.464  1.00  0.00     0.119 C 
HETATM    9  C18 UNL     1     -13.742  -7.498  11.304  1.00  0.00     0.044 C 
ENDROOT
BRANCH   1  10
HETATM   10  C9  UNL     1     -14.550  -9.699  10.772  1.00  0.00     0.155 C 
HETATM   11  C8  UNL     1     -14.576 -10.822   9.824  1.00  0.00     0.005 C 
HETATM   12  C7  UNL     1     -15.834 -11.246   9.750  1.00  0.00     0.013 C 
HETATM   13  C5  UNL     1     -16.592 -10.353  10.681  1.00  0.00     0.094 C 
HETATM   14  C6  UNL     1     -16.623 -10.910  12.079  1.00  0.00     0.055 C 
HETATM   15  O2  UNL     1     -15.812  -9.172  10.676  1.00  0.00    -0.363 OA
BRANCH  13  16
HETATM   16  C4  UNL     1     -17.959 -10.117  10.203  1.00  0.00     0.014 C 
HETATM   17  C3  UNL     1     -19.000 -10.767  10.731  1.00  0.00    -0.002 C 
BRANCH  17  18
HETATM   18  C2  UNL     1     -20.341 -10.527  10.252  1.00  0.00    -0.010 C 
HETATM   19  C1  UNL     1     -21.345 -11.245  10.702  1.00  0.00     0.011 C 
ENDBRANCH  17  18
ENDBRANCH  13  16
ENDBRANCH   1  10
BRANCH   8  20
HETATM   20  O1  UNL     1     -12.956  -5.578  12.386  1.00  0.00    -0.396 OA
ATOM     21  H1  UNL     1     -13.200  -6.025  13.189  1.00  0.00     0.210 HD
ENDBRANCH   8  20
TORSDOF 4
ENDMDL
MODEL 3
REMARK VINA RESULT: -7.185234024      4.117      9.808
REMARK  4 active torsions:
REMARK  status: ('A' for Active; 'I' for Inactive)
REMARK    1  A    between atoms: C2_2  and  C3_3 
REMARK    2  A    between atoms: C4_4  and  C5_5 
REMARK    3  A    between atoms: C9_9  and  C10_10 
REMARK    4  A    between atoms: C17_17  and  O1_18 
ROOT
HETATM    1  C10 UNL     1     -13.867  -9.168   9.778  1.00  0.00    -0.005 C 
HETATM    2  C11 UNL     1     -13.115  -8.784   8.500  1.00  0.00     0.013 C 
HETATM    3  C12 UNL     1     -11.933  -9.703   8.424  1.00  0.00     0.001 C 
HETATM    4  C13 UNL     1     -12.484 -10.970   9.054  1.00  0.00     0.005 C 
HETATM    5  C14 UNL     1     -13.202 -10.381  10.278  1.00  0.00    -0.003 C 
HETATM    6  C15 UNL     1     -12.178 -10.201  11.337  1.00  0.00     0.008 C 
HETATM    7  C16 UNL     1     -12.449  -9.105  12.304  1.00  0.00     0.032 C 
HETATM    8  C17 UNL     1     -12.600  -7.831  11.487  1.00  0.00     0.119 C 
HETATM    9  C18 UNL     1     -13.852  -7.985  10.676  1.00  0.00     0.044 C 
ENDROOT
BRANCH   1  10
HETATM   10  C9  UNL     1     -15.313  -9.390   9.385  1.00  0.00     0.155 C 
HETATM   11  C8  UNL     1     -16.099  -8.149   9.354  1.00  0.00     0.005 C 
HETATM   12  C7  UNL     1     -17.358  -8.471   9.635  1.00  0.00     0.013 C 
HETATM   13  C5  UNL     1     -17.333  -9.953   9.843  1.00  0.00     0.094 C 
HETATM   14  C6  UNL     1     -17.567 -10.697   8.555  1.00  0.00     0.055 C 
HETATM   15  O2  UNL     1     -16.003 -10.181  10.269  1.00  0.00    -0.363 OA
BRANCH  13  16
HETATM   16  C4  UNL     1     -18.316 -10.369  10.850  1.00  0.00     0.014 C 
HETATM   17  C3  UNL     1     -19.609 -10.509  10.540  1.00  0.00    -0.002 C 
BRANCH  17  18
HETATM   18  C2  UNL     1     -20.567 -10.919  11.540  1.00  0.00    -0.010 C 
HETATM   19  C1  UNL     1     -21.710 -11.457  11.181  1.00  0.00     0.011 C 
ENDBRANCH  17  18
ENDBRANCH  13  16
ENDBRANCH   1  10
BRANCH   8  20
HETATM   20  O1  UNL     1     -12.797  -6.785  12.387  1.00  0.00    -0.396 OA
ATOM     21  H1  UNL     1     -11.942  -6.530  12.715  1.00  0.00     0.210 HD
ENDBRANCH   8  20
TORSDOF 4
ENDMDL
MODEL 4
REMARK VINA RESULT: -7.032123442      4.830     10.865
REMARK  4 active torsions:
REMARK  status: ('A' for Active; 'I' for Inactive)
REMARK    1  A    between atoms: C2_2  and  C3_3 
REMARK    2  A    between atoms: C4_4  and  C5_5 
REMARK    3  A    between atoms: C9_9  and  C10_10 
REMARK    4  A    between atoms: C17_17  and  O1_18 
ROOT
HETATM    1  C10 UNL     1     -12.593  -8.593  10.177  1.00  0.00    -0.005 C 
HETATM    2  C11 UNL     1     -11.648  -8.714   8.979  1.00  0.00     0.013 C 
HETATM    3  C12 UNL     1     -10.299  -9.038   9.547  1.00  0.00     0.001 C 
HETATM    4  C13 UNL     1     -10.667  -9.870  10.764  1.00  0.00     0.005 C 
HETATM    5  C14 UNL     1     -11.807  -9.020  11.345  1.00  0.00    -0.003 C 
HETATM    6  C15 UNL     1     -11.179  -7.951  12.161  1.00  0.00     0.008 C 
HETATM    7  C16 UNL     1     -11.961  -6.690  12.269  1.00  0.00     0.032 C 
HETATM    8  C17 UNL     1     -12.199  -6.204  10.848  1.00  0.00     0.119 C 
HETATM    9  C18 UNL     1     -13.112  -7.201  10.198  1.00  0.00     0.044 C 
ENDROOT
BRANCH   1  10
HETATM   10  C9  UNL     1     -13.781  -9.489   9.890  1.00  0.00     0.155 C 
HETATM   11  C8  UNL     1     -14.820  -8.829   9.085  1.00  0.00     0.005 C 
HETATM   12  C7  UNL     1     -15.984  -9.380   9.415  1.00  0.00     0.013 C 
HETATM   13  C5  UNL     1     -15.640 -10.404  10.450  1.00  0.00     0.094 C 
HETATM   14  C6  UNL     1     -15.332 -11.740   9.827  1.00  0.00     0.055 C 
HETATM   15  O2  UNL     1     -14.455  -9.880  11.019  1.00  0.00    -0.363 OA
BRANCH  13  16
HETATM   16  C4  UNL     1     -16.714 -10.547  11.440  1.00  0.00     0.014 C 
HETATM   17  C3  UNL     1     -17.917 -11.017  11.095  1.00  0.00    -0.002 C 
BRANCH  17  18
HETATM   18  C2  UNL     1     -18.966 -11.152  12.078  1.00  0.00    -0.010 C 
HETATM   19  C1  UNL     1     -20.203 -10.828  11.777  1.00  0.00     0.011 C 
ENDBRANCH  17  18
ENDBRANCH  13  16
ENDBRANCH   1  10
BRANCH   8  20
HETATM   20  O1  UNL     1     -12.880  -4.992  10.935  1.00  0.00    -0.396 OA
ATOM     21  H1  UNL     1     -12.466  -4.484  11.623  1.00  0.00     0.210 HD
ENDBRANCH   8  20
TORSDOF 4
ENDMDL
MODEL 5
REMARK VINA RESULT: -7.032117819      4.313      9.698
REMARK  4 active torsions:
REMARK  status: ('A' for Active; 'I' for Inactive)
REMARK    1  A    between atoms: C2_2  and  C3_3 
REMARK    2  A    between atoms: C4_4  and  C5_5 
REMARK    3  A    between atoms: C9_9  and  C10_10 
REMARK    4  A    between atoms: C17_17  and  O1_18 
ROOT
HETATM    1  C10 UNL     1     -13.100 -12.406   9.440  1.00  0.00    -0.005 C 
HETATM    2  C11 UNL     1     -12.720 -12.436   7.957  1.00  0.00     0.013 C 
HETATM    3  C12 UNL     1     -12.747 -13.879   7.551  1.00  0.00     0.001 C 
HETATM    4  C13 UNL     1     -13.862 -14.426   8.427  1.00  0.00     0.005 C 
HETATM    5  C14 UNL     1     -13.496 -13.784   9.774  1.00  0.00    -0.003 C 
HETATM    6  C15 UNL     1     -12.465 -14.648  10.401  1.00  0.00     0.008 C 
HETATM    7  C16 UNL     1     -11.523 -13.951  11.317  1.00  0.00     0.032 C 
HETATM    8  C17 UNL     1     -10.867 -12.844  10.506  1.00  0.00     0.119 C 
HETATM    9  C18 UNL     1     -11.943 -11.849  10.186  1.00  0.00     0.044 C 
ENDROOT
BRANCH   1  10
HETATM   10  C9  UNL     1     -14.227 -11.403   9.584  1.00  0.00     0.155 C 
HETATM   11  C8  UNL     1     -13.844 -10.215  10.359  1.00  0.00     0.005 C 
HETATM   12  C7  UNL     1     -14.945  -9.759  10.951  1.00  0.00     0.013 C 
HETATM   13  C5  UNL     1     -16.026 -10.699  10.520  1.00  0.00     0.094 C 
HETATM   14  C6  UNL     1     -16.679 -10.244   9.242  1.00  0.00     0.055 C 
HETATM   15  O2  UNL     1     -15.310 -11.894  10.268  1.00  0.00    -0.363 OA
BRANCH  13  16
HETATM   16  C4  UNL     1     -17.036 -10.870  11.569  1.00  0.00     0.014 C 
HETATM   17  C3  UNL     1     -18.317 -11.104  11.267  1.00  0.00    -0.002 C 
BRANCH  17  18
HETATM   18  C2  UNL     1     -19.304 -11.271  12.308  1.00  0.00    -0.010 C 
HETATM   19  C1  UNL     1     -20.584 -11.259  12.017  1.00  0.00     0.011 C 
ENDBRANCH  17  18
ENDBRANCH  13  16
ENDBRANCH   1  10
BRANCH   8  20
HETATM   20  O1  UNL     1      -9.938 -12.220  11.335  1.00  0.00    -0.396 OA
ATOM     21  H1  UNL     1     -10.199 -11.309  11.417  1.00  0.00     0.210 HD
ENDBRANCH   8  20
TORSDOF 4
ENDMDL
