MODEL 1
REMARK VINA RESULT: -8.198055283      0.000      0.000
REMARK  3 active torsions:
REMARK  status: ('A' for Active; 'I' for Inactive)
REMARK       I    between atoms: C2_2  and  N1_4 
REMARK    1  A    between atoms: N1_4  and  C3_6 
REMARK    2  A    between atoms: C3_6  and  C4_7 
REMARK    3  A    between atoms: C7_11  and  C8_12 
ROOT
HETATM    1  C3  UNL     1     -13.180  -8.638  10.736  1.00  0.00     0.121 C 
HETATM    2  C6  UNL     1     -14.643  -8.518  10.529  1.00  0.00     0.074 C 
HETATM    3  C7  UNL     1     -14.863  -9.457   9.357  1.00  0.00     0.129 C 
HETATM    4  O3  UNL     1     -13.876 -10.425   9.499  1.00  0.00    -0.378 OA
HETATM    5  C14 UNL     1     -12.728  -9.763   9.897  1.00  0.00     0.153 C 
HETATM    6  C15 UNL     1     -11.950  -9.450   8.657  1.00  0.00     0.042 C 
ENDROOT
BRANCH   1   7
HETATM    7  N1  UNL     1     -12.471  -7.391  10.601  1.00  0.00    -0.343 N 
HETATM    8  C2  UNL     1     -12.710  -6.185  11.253  1.00  0.00     0.214 C 
HETATM    9  C1  UNL     1     -11.836  -4.996  10.939  1.00  0.00     0.117 C 
HETATM   10  O1  UNL     1     -13.602  -5.943  12.113  1.00  0.00    -0.274 OA
ATOM     11  H1  UNL     1     -11.694  -7.392   9.940  1.00  0.00     0.163 HD
ENDBRANCH   1   7
BRANCH   1  12
HETATM   12  C4  UNL     1     -12.970  -9.117  12.176  1.00  0.00     0.153 C 
HETATM   13  C5  UNL     1     -11.663  -9.659  12.605  1.00  0.00     0.093 C 
HETATM   14  O2  UNL     1     -13.875  -9.059  12.983  1.00  0.00    -0.296 OA
ENDBRANCH   1  12
BRANCH   3  15
HETATM   15  C8  UNL     1     -16.195 -10.182   9.462  1.00  0.00     0.015 C 
HETATM   16  C9  UNL     1     -16.242 -11.151  10.584  1.00  0.00     0.007 C 
HETATM   17  C10 UNL     1     -17.351 -10.961  11.551  1.00  0.00     0.000 C 
HETATM   18  C11 UNL     1     -18.672 -10.620  10.947  1.00  0.00     0.000 C 
HETATM   19  C12 UNL     1     -18.614  -9.672   9.803  1.00  0.00     0.000 C 
HETATM   20  C13 UNL     1     -17.251  -9.099   9.562  1.00  0.00     0.007 C 
ENDBRANCH   3  15
TORSDOF 3
ENDMDL
MODEL 2
REMARK VINA RESULT: -7.865453556      8.052     11.688
REMARK  3 active torsions:
REMARK  status: ('A' for Active; 'I' for Inactive)
REMARK       I    between atoms: C2_2  and  N1_4 
REMARK    1  A    between atoms: N1_4  and  C3_6 
REMARK    2  A    between atoms: C3_6  and  C4_7 
REMARK    3  A    between atoms: C7_11  and  C8_12 
ROOT
HETATM    1  C3  UNL     1     -24.592 -14.140  13.091  1.00  0.00     0.121 C 
HETATM    2  C6  UNL     1     -23.782 -13.738  11.915  1.00  0.00     0.074 C 
HETATM    3  C7  UNL     1     -22.948 -12.609  12.491  1.00  0.00     0.129 C 
HETATM    4  O3  UNL     1     -22.800 -12.938  13.833  1.00  0.00    -0.378 OA
HETATM    5  C14 UNL     1     -24.019 -13.439  14.254  1.00  0.00     0.153 C 
HETATM    6  C15 UNL     1     -24.787 -12.293  14.835  1.00  0.00     0.042 C 
ENDROOT
BRANCH   1   7
HETATM    7  N1  UNL     1     -26.013 -14.020  12.884  1.00  0.00    -0.343 N 
HETATM    8  C2  UNL     1     -26.757 -14.373  11.763  1.00  0.00     0.214 C 
HETATM    9  C1  UNL     1     -28.248 -14.142  11.769  1.00  0.00     0.117 C 
HETATM   10  O1  UNL     1     -26.331 -14.884  10.690  1.00  0.00    -0.274 OA
ATOM     11  H1  UNL     1     -26.542 -13.625  13.661  1.00  0.00     0.163 HD
ENDBRANCH   1   7
BRANCH   1  12
HETATM   12  C4  UNL     1     -24.301 -15.623  13.346  1.00  0.00     0.153 C 
HETATM   13  C5  UNL     1     -24.478 -16.200  14.696  1.00  0.00     0.093 C 
HETATM   14  O2  UNL     1     -23.920 -16.341  12.445  1.00  0.00    -0.296 OA
ENDBRANCH   1  12
BRANCH   3  15
HETATM   15  C8  UNL     1     -21.550 -12.585  11.896  1.00  0.00     0.015 C 
HETATM   16  C9  UNL     1     -21.469 -11.808  10.634  1.00  0.00     0.007 C 
HETATM   17  C10 UNL     1     -20.465 -10.716  10.616  1.00  0.00     0.000 C 
HETATM   18  C11 UNL     1     -19.155 -11.044  11.248  1.00  0.00     0.000 C 
HETATM   19  C12 UNL     1     -19.242 -11.848  12.496  1.00  0.00     0.000 C 
HETATM   20  C13 UNL     1     -20.644 -12.049  12.987  1.00  0.00     0.007 C 
ENDBRANCH   3  15
TORSDOF 3
ENDMDL
MODEL 3
REMARK VINA RESULT: -7.754399426      7.795     11.319
REMARK  3 active torsions:
REMARK  status: ('A' for Active; 'I' for Inactive)
REMARK       I    between atoms: C2_2  and  N1_4 
REMARK    1  A    between atoms: N1_4  and  C3_6 
REMARK    2  A    between atoms: C3_6  and  C4_7 
REMARK    3  A    between atoms: C7_11  and  C8_12 
ROOT
HETATM    1  C3  UNL     1     -23.901 -14.013  13.324  1.00  0.00     0.121 C 
HETATM    2  C6  UNL     1     -23.208 -12.940  12.571  1.00  0.00     0.074 C 
HETATM    3  C7  UNL     1     -21.800 -13.037  13.127  1.00  0.00     0.129 C 
HETATM    4  O3  UNL     1     -21.652 -14.378  13.463  1.00  0.00    -0.378 OA
HETATM    5  C14 UNL     1     -22.852 -14.779  14.022  1.00  0.00     0.153 C 
HETATM    6  C15 UNL     1     -22.724 -14.609  15.504  1.00  0.00     0.042 C 
ENDROOT
BRANCH   1   7
HETATM    7  N1  UNL     1     -25.010 -13.544  14.115  1.00  0.00    -0.343 N 
HETATM    8  C2  UNL     1     -25.952 -14.291  14.815  1.00  0.00     0.214 C 
HETATM    9  C1  UNL     1     -27.042 -13.575  15.571  1.00  0.00     0.117 C 
HETATM   10  O1  UNL     1     -26.018 -15.549  14.905  1.00  0.00    -0.274 OA
ATOM     11  H1  UNL     1     -25.119 -12.531  14.169  1.00  0.00     0.163 HD
ENDBRANCH   1   7
BRANCH   1  12
HETATM   12  C4  UNL     1     -24.471 -14.988  12.289  1.00  0.00     0.153 C 
HETATM   13  C5  UNL     1     -25.524 -14.551  11.347  1.00  0.00     0.093 C 
HETATM   14  O2  UNL     1     -24.067 -16.131  12.229  1.00  0.00    -0.296 OA
ENDBRANCH   1  12
BRANCH   3  15
HETATM   15  C8  UNL     1     -20.756 -12.743  12.063  1.00  0.00     0.015 C 
HETATM   16  C9  UNL     1     -21.326 -12.108  10.849  1.00  0.00     0.007 C 
HETATM   17  C10 UNL     1     -20.715 -10.816  10.452  1.00  0.00     0.000 C 
HETATM   18  C11 UNL     1     -19.229 -10.752  10.566  1.00  0.00     0.000 C 
HETATM   19  C12 UNL     1     -18.662 -11.417  11.770  1.00  0.00     0.000 C 
HETATM   20  C13 UNL     1     -19.699 -11.894  12.740  1.00  0.00     0.007 C 
ENDBRANCH   3  15
TORSDOF 3
ENDMDL
MODEL 4
REMARK VINA RESULT: -7.556748123      1.706      3.045
REMARK  3 active torsions:
REMARK  status: ('A' for Active; 'I' for Inactive)
REMARK       I    between atoms: C2_2  and  N1_4 
REMARK    1  A    between atoms: N1_4  and  C3_6 
REMARK    2  A    between atoms: C3_6  and  C4_7 
REMARK    3  A    between atoms: C7_11  and  C8_12 
ROOT
HETATM    1  C3  UNL     1     -15.008  -9.827   9.951  1.00  0.00     0.121 C 
HETATM    2  C6  UNL     1     -16.002 -10.239  10.972  1.00  0.00     0.074 C 
HETATM    3  C7  UNL     1     -17.309  -9.889  10.285  1.00  0.00     0.129 C 
HETATM    4  O3  UNL     1     -17.038 -10.039   8.929  1.00  0.00    -0.378 OA
HETATM    5  C14 UNL     1     -15.767  -9.533   8.722  1.00  0.00     0.153 C 
HETATM    6  C15 UNL     1     -15.927  -8.100   8.318  1.00  0.00     0.042 C 
ENDROOT
BRANCH   1   7
HETATM    7  N1  UNL     1     -14.087  -8.821  10.412  1.00  0.00    -0.343 N 
HETATM    8  C2  UNL     1     -13.726  -8.512  11.720  1.00  0.00     0.214 C 
HETATM    9  C1  UNL     1     -12.740  -7.397  11.965  1.00  0.00     0.117 C 
HETATM   10  O1  UNL     1     -14.133  -9.067  12.779  1.00  0.00    -0.274 OA
ATOM     11  H1  UNL     1     -13.641  -8.261   9.685  1.00  0.00     0.163 HD
ENDBRANCH   1   7
BRANCH   1  12
HETATM   12  C4  UNL     1     -14.179 -11.070   9.609  1.00  0.00     0.153 C 
HETATM   13  C5  UNL     1     -12.832 -10.933   9.016  1.00  0.00     0.093 C 
HETATM   14  O2  UNL     1     -14.618 -12.181   9.819  1.00  0.00    -0.296 OA
ENDBRANCH   1  12
BRANCH   3  15
HETATM   15  C8  UNL     1     -18.403 -10.888  10.618  1.00  0.00     0.015 C 
HETATM   16  C9  UNL     1     -18.358 -11.350  12.028  1.00  0.00     0.007 C 
HETATM   17  C10 UNL     1     -19.607 -11.163  12.806  1.00  0.00     0.000 C 
HETATM   18  C11 UNL     1     -20.868 -11.477  12.072  1.00  0.00     0.000 C 
HETATM   19  C12 UNL     1     -20.895 -11.038  10.652  1.00  0.00     0.000 C 
HETATM   20  C13 UNL     1     -19.709 -10.212  10.253  1.00  0.00     0.007 C 
ENDBRANCH   3  15
TORSDOF 3
ENDMDL
MODEL 5
REMARK VINA RESULT: -7.445004176      1.776      3.815
REMARK  3 active torsions:
REMARK  status: ('A' for Active; 'I' for Inactive)
REMARK       I    between atoms: C2_2  and  N1_4 
REMARK    1  A    between atoms: N1_4  and  C3_6 
REMARK    2  A    between atoms: C3_6  and  C4_7 
REMARK    3  A    between atoms: C7_11  and  C8_12 
ROOT
HETATM    1  C3  UNL     1     -12.841  -9.631   9.999  1.00  0.00     0.121 C 
HETATM    2  C6  UNL     1     -14.186 -10.216   9.779  1.00  0.00     0.074 C 
HETATM    3  C7  UNL     1     -14.860  -9.941  11.110  1.00  0.00     0.129 C 
HETATM    4  O3  UNL     1     -14.259  -8.774  11.568  1.00  0.00    -0.378 OA
HETATM    5  C14 UNL     1     -12.914  -8.876  11.263  1.00  0.00     0.153 C 
HETATM    6  C15 UNL     1     -12.234  -9.451  12.467  1.00  0.00     0.042 C 
ENDROOT
BRANCH   1   7
HETATM    7  N1  UNL     1     -11.767 -10.581   9.861  1.00  0.00    -0.343 N 
HETATM    8  C2  UNL     1     -11.709 -11.710   9.048  1.00  0.00     0.214 C 
HETATM    9  C1  UNL     1     -10.472 -12.573   9.079  1.00  0.00     0.117 C 
HETATM   10  O1  UNL     1     -12.595 -12.127   8.252  1.00  0.00    -0.274 OA
ATOM     11  H1  UNL     1     -10.941 -10.404  10.433  1.00  0.00     0.163 HD
ENDBRANCH   1   7
BRANCH   1  12
HETATM   12  C4  UNL     1     -12.636  -8.564   8.919  1.00  0.00     0.153 C 
HETATM   13  C5  UNL     1     -11.305  -7.954   8.709  1.00  0.00     0.093 C 
HETATM   14  O2  UNL     1     -13.563  -8.204   8.223  1.00  0.00    -0.296 OA
ENDBRANCH   1  12
BRANCH   3  15
HETATM   15  C8  UNL     1     -16.336  -9.627  10.937  1.00  0.00     0.015 C 
HETATM   16  C9  UNL     1     -16.698  -9.287   9.539  1.00  0.00     0.007 C 
HETATM   17  C10 UNL     1     -17.778 -10.107   8.937  1.00  0.00     0.000 C 
HETATM   18  C11 UNL     1     -18.928 -10.406   9.838  1.00  0.00     0.000 C 
HETATM   19  C12 UNL     1     -18.560 -10.716  11.246  1.00  0.00     0.000 C 
HETATM   20  C13 UNL     1     -17.084 -10.832  11.472  1.00  0.00     0.007 C 
ENDBRANCH   3  15
TORSDOF 3
ENDMDL
