MODEL 1
REMARK VINA RESULT: -6.905645787      0.000      0.000
REMARK  4 active torsions:
REMARK  status: ('A' for Active; 'I' for Inactive)
REMARK    1  A    between atoms: C2_2  and  O1_3 
REMARK    2  A    between atoms: C7_9  and  C8_10 
REMARK    3  A    between atoms: C8_10  and  C9_11 
REMARK    4  A    between atoms: C10_12  and  C11_13 
ROOT
HETATM    1  C1  UNL     1     -20.414 -12.787  12.265  1.00  0.00     0.045 C 
HETATM    2  C2  UNL     1     -20.799 -13.029  13.689  1.00  0.00     0.055 C 
HETATM    3  C3  UNL     1     -20.976 -14.537  13.952  1.00  0.00     0.042 C 
HETATM    4  C4  UNL     1     -22.448 -14.654  13.800  1.00  0.00    -0.007 C 
HETATM    5  C5  UNL     1     -23.151 -15.831  14.305  1.00  0.00     0.006 C 
HETATM    6  C6  UNL     1     -24.630 -15.665  13.889  1.00  0.00     0.013 C 
HETATM    7  C7  UNL     1     -25.128 -14.298  14.063  1.00  0.00    -0.010 C 
HETATM    8  C13 UNL     1     -26.365 -14.158  14.971  1.00  0.00     0.177 C 
HETATM    9  O3  UNL     1     -26.338 -12.795  15.284  1.00  0.00    -0.390 OA
HETATM   10  C14 UNL     1     -25.046 -12.334  15.258  1.00  0.00     0.173 C 
HETATM   11  C15 UNL     1     -24.206 -13.547  15.030  1.00  0.00     0.025 C 
HETATM   12  C16 UNL     1     -22.832 -13.469  14.716  1.00  0.00    -0.001 C 
HETATM   13  C17 UNL     1     -22.183 -12.399  13.954  1.00  0.00     0.043 C 
ENDROOT
BRANCH   7  14
HETATM   14  C8  UNL     1     -25.468 -13.520  12.840  1.00  0.00     0.039 C 
BRANCH  14  15
HETATM   15  C9  UNL     1     -26.292 -14.370  11.930  1.00  0.00    -0.027 C 
HETATM   16  C10 UNL     1     -27.116 -13.857  11.024  1.00  0.00     0.003 C 
BRANCH  16  17
HETATM   17  C11 UNL     1     -27.922 -14.695  10.134  1.00  0.00     0.167 A 
HETATM   18  C12 UNL     1     -28.101 -14.295   8.728  1.00  0.00     0.204 A 
HETATM   19  O2  UNL     1     -27.177 -15.377   9.100  1.00  0.00    -0.377 OA
ENDBRANCH  16  17
ENDBRANCH  14  15
ENDBRANCH   7  14
BRANCH   2  20
HETATM   20  O1  UNL     1     -19.920 -12.504  14.608  1.00  0.00    -0.390 OA
ATOM     21  H1  UNL     1     -19.537 -13.148  15.192  1.00  0.00     0.210 HD
ENDBRANCH   2  20
TORSDOF 4
ENDMDL
MODEL 2
REMARK VINA RESULT: -6.781245422      1.812      4.657
REMARK  4 active torsions:
REMARK  status: ('A' for Active; 'I' for Inactive)
REMARK    1  A    between atoms: C2_2  and  O1_3 
REMARK    2  A    between atoms: C7_9  and  C8_10 
REMARK    3  A    between atoms: C8_10  and  C9_11 
REMARK    4  A    between atoms: C10_12  and  C11_13 
ROOT
HETATM    1  C1  UNL     1     -28.818 -15.238  14.593  1.00  0.00     0.045 C 
HETATM    2  C2  UNL     1     -27.809 -15.089  15.686  1.00  0.00     0.055 C 
HETATM    3  C3  UNL     1     -27.425 -13.608  15.868  1.00  0.00     0.042 C 
HETATM    4  C4  UNL     1     -26.181 -13.563  15.060  1.00  0.00    -0.007 C 
HETATM    5  C5  UNL     1     -25.243 -12.452  15.209  1.00  0.00     0.006 C 
HETATM    6  C6  UNL     1     -24.133 -12.678  14.158  1.00  0.00     0.013 C 
HETATM    7  C7  UNL     1     -23.709 -14.077  14.056  1.00  0.00    -0.010 C 
HETATM    8  C13 UNL     1     -22.208 -14.328  14.292  1.00  0.00     0.177 C 
HETATM    9  O3  UNL     1     -22.185 -15.701  14.555  1.00  0.00    -0.390 OA
HETATM   10  C14 UNL     1     -23.375 -16.091  15.117  1.00  0.00     0.173 C 
HETATM   11  C15 UNL     1     -24.139 -14.824  15.324  1.00  0.00     0.025 C 
HETATM   12  C16 UNL     1     -25.506 -14.811  15.674  1.00  0.00    -0.001 C 
HETATM   13  C17 UNL     1     -26.505 -15.805  15.274  1.00  0.00     0.043 C 
ENDROOT
BRANCH   7  14
HETATM   14  C8  UNL     1     -24.022 -14.809  12.798  1.00  0.00     0.039 C 
BRANCH  14  15
HETATM   15  C9  UNL     1     -25.072 -14.063  12.043  1.00  0.00    -0.027 C 
HETATM   16  C10 UNL     1     -26.200 -14.631  11.638  1.00  0.00     0.003 C 
BRANCH  16  17
HETATM   17  C11 UNL     1     -27.227 -13.895  10.897  1.00  0.00     0.167 A 
HETATM   18  C12 UNL     1     -27.741 -14.443   9.631  1.00  0.00     0.204 A 
HETATM   19  O2  UNL     1     -28.528 -14.524  10.872  1.00  0.00    -0.377 OA
ENDBRANCH  16  17
ENDBRANCH  14  15
ENDBRANCH   7  14
BRANCH   2  20
HETATM   20  O1  UNL     1     -28.207 -15.611  16.895  1.00  0.00    -0.390 OA
ATOM     21  H1  UNL     1     -27.491 -15.807  17.488  1.00  0.00     0.210 HD
ENDBRANCH   2  20
TORSDOF 4
ENDMDL
MODEL 3
REMARK VINA RESULT: -6.672484816      6.234     10.638
REMARK  4 active torsions:
REMARK  status: ('A' for Active; 'I' for Inactive)
REMARK    1  A    between atoms: C2_2  and  O1_3 
REMARK    2  A    between atoms: C7_9  and  C8_10 
REMARK    3  A    between atoms: C8_10  and  C9_11 
REMARK    4  A    between atoms: C10_12  and  C11_13 
ROOT
HETATM    1  C1  UNL     1     -19.896 -12.579  11.482  1.00  0.00     0.045 C 
HETATM    2  C2  UNL     1     -19.473 -11.155  11.650  1.00  0.00     0.055 C 
HETATM    3  C3  UNL     1     -19.569 -10.403  10.308  1.00  0.00     0.042 C 
HETATM    4  C4  UNL     1     -18.158 -10.503   9.856  1.00  0.00    -0.007 C 
HETATM    5  C5  UNL     1     -17.660  -9.631   8.795  1.00  0.00     0.006 C 
HETATM    6  C6  UNL     1     -16.206 -10.074   8.517  1.00  0.00     0.013 C 
HETATM    7  C7  UNL     1     -15.447 -10.365   9.736  1.00  0.00    -0.010 C 
HETATM    8  C13 UNL     1     -14.151  -9.553   9.916  1.00  0.00     0.177 C 
HETATM    9  O3  UNL     1     -13.899  -9.713  11.282  1.00  0.00    -0.390 OA
HETATM   10  C14 UNL     1     -15.080  -9.895  11.958  1.00  0.00     0.173 C 
HETATM   11  C15 UNL     1     -16.147  -9.708  10.931  1.00  0.00     0.025 C 
HETATM   12  C16 UNL     1     -17.499 -10.034  11.174  1.00  0.00    -0.001 C 
HETATM   13  C17 UNL     1     -17.981 -11.112  12.041  1.00  0.00     0.043 C 
ENDROOT
BRANCH   7  14
HETATM   14  C8  UNL     1     -15.045 -11.777   9.985  1.00  0.00     0.039 C 
BRANCH  14  15
HETATM   15  C9  UNL     1     -14.017 -12.180   8.980  1.00  0.00    -0.027 C 
HETATM   16  C10 UNL     1     -13.849 -13.438   8.594  1.00  0.00     0.003 C 
BRANCH  16  17
HETATM   17  C11 UNL     1     -12.839 -13.828   7.608  1.00  0.00     0.167 A 
HETATM   18  C12 UNL     1     -12.806 -15.215   7.114  1.00  0.00     0.204 A 
HETATM   19  O2  UNL     1     -13.357 -14.126   6.292  1.00  0.00    -0.377 OA
ENDBRANCH  16  17
ENDBRANCH  14  15
ENDBRANCH   7  14
BRANCH   2  20
HETATM   20  O1  UNL     1     -20.177 -10.468  12.611  1.00  0.00    -0.390 OA
ATOM     21  H1  UNL     1     -19.659 -10.214  13.365  1.00  0.00     0.210 HD
ENDBRANCH   2  20
TORSDOF 4
ENDMDL
MODEL 4
REMARK VINA RESULT: -6.491244826      2.856      5.641
REMARK  4 active torsions:
REMARK  status: ('A' for Active; 'I' for Inactive)
REMARK    1  A    between atoms: C2_2  and  O1_3 
REMARK    2  A    between atoms: C7_9  and  C8_10 
REMARK    3  A    between atoms: C8_10  and  C9_11 
REMARK    4  A    between atoms: C10_12  and  C11_13 
ROOT
HETATM    1  C1  UNL     1     -28.800 -14.430  13.636  1.00  0.00     0.045 C 
HETATM    2  C2  UNL     1     -28.072 -14.712  14.910  1.00  0.00     0.055 C 
HETATM    3  C3  UNL     1     -27.519 -13.406  15.516  1.00  0.00     0.042 C 
HETATM    4  C4  UNL     1     -26.126 -13.456  15.006  1.00  0.00    -0.007 C 
HETATM    5  C5  UNL     1     -25.092 -12.613  15.601  1.00  0.00     0.006 C 
HETATM    6  C6  UNL     1     -23.811 -12.845  14.769  1.00  0.00     0.013 C 
HETATM    7  C7  UNL     1     -23.595 -14.252  14.421  1.00  0.00    -0.010 C 
HETATM    8  C13 UNL     1     -22.251 -14.847  14.883  1.00  0.00     0.177 C 
HETATM    9  O3  UNL     1     -22.504 -16.220  14.807  1.00  0.00    -0.390 OA
HETATM   10  C14 UNL     1     -23.840 -16.462  15.011  1.00  0.00     0.173 C 
HETATM   11  C15 UNL     1     -24.426 -15.134  15.360  1.00  0.00     0.025 C 
HETATM   12  C16 UNL     1     -25.818 -14.913  15.424  1.00  0.00    -0.001 C 
HETATM   13  C17 UNL     1     -26.833 -15.581  14.606  1.00  0.00     0.043 C 
ENDROOT
BRANCH   7  14
HETATM   14  C8  UNL     1     -23.706 -14.639  12.987  1.00  0.00     0.039 C 
BRANCH  14  15
HETATM   15  C9  UNL     1     -23.382 -13.458  12.132  1.00  0.00    -0.027 C 
HETATM   16  C10 UNL     1     -22.136 -13.104  11.847  1.00  0.00     0.003 C 
BRANCH  16  17
HETATM   17  C11 UNL     1     -21.824 -11.945  11.007  1.00  0.00     0.167 A 
HETATM   18  C12 UNL     1     -20.980 -10.865  11.547  1.00  0.00     0.204 A 
HETATM   19  O2  UNL     1     -20.442 -11.848  10.593  1.00  0.00    -0.377 OA
ENDBRANCH  16  17
ENDBRANCH  14  15
ENDBRANCH   7  14
BRANCH   2  20
HETATM   20  O1  UNL     1     -28.823 -15.372  15.855  1.00  0.00    -0.390 OA
ATOM     21  H1  UNL     1     -29.574 -15.834  15.502  1.00  0.00     0.210 HD
ENDBRANCH   2  20
TORSDOF 4
ENDMDL
MODEL 5
REMARK VINA RESULT: -6.325035323      2.263      3.808
REMARK  4 active torsions:
REMARK  status: ('A' for Active; 'I' for Inactive)
REMARK    1  A    between atoms: C2_2  and  O1_3 
REMARK    2  A    between atoms: C7_9  and  C8_10 
REMARK    3  A    between atoms: C8_10  and  C9_11 
REMARK    4  A    between atoms: C10_12  and  C11_13 
ROOT
HETATM    1  C1  UNL     1     -24.982 -18.903  15.087  1.00  0.00     0.045 C 
HETATM    2  C2  UNL     1     -24.323 -17.804  15.857  1.00  0.00     0.055 C 
HETATM    3  C3  UNL     1     -25.371 -16.994  16.645  1.00  0.00     0.042 C 
HETATM    4  C4  UNL     1     -25.580 -15.863  15.705  1.00  0.00    -0.007 C 
HETATM    5  C5  UNL     1     -26.226 -14.634  16.161  1.00  0.00     0.006 C 
HETATM    6  C6  UNL     1     -26.368 -13.731  14.915  1.00  0.00     0.013 C 
HETATM    7  C7  UNL     1     -25.181 -13.741  14.057  1.00  0.00    -0.010 C 
HETATM    8  C13 UNL     1     -24.543 -12.363  13.799  1.00  0.00     0.177 C 
HETATM    9  O3  UNL     1     -23.266 -12.717  13.350  1.00  0.00    -0.390 OA
HETATM   10  C14 UNL     1     -22.892 -13.917  13.902  1.00  0.00     0.173 C 
HETATM   11  C15 UNL     1     -23.984 -14.260  14.861  1.00  0.00     0.025 C 
HETATM   12  C16 UNL     1     -24.089 -15.529  15.469  1.00  0.00    -0.001 C 
HETATM   13  C17 UNL     1     -23.684 -16.804  14.871  1.00  0.00     0.043 C 
ENDROOT
BRANCH   7  14
HETATM   14  C8  UNL     1     -25.303 -14.359  12.707  1.00  0.00     0.039 C 
BRANCH  14  15
HETATM   15  C9  UNL     1     -26.623 -13.988  12.115  1.00  0.00    -0.027 C 
HETATM   16  C10 UNL     1     -26.979 -14.342  10.886  1.00  0.00     0.003 C 
BRANCH  16  17
HETATM   17  C11 UNL     1     -28.275 -13.976  10.310  1.00  0.00     0.167 A 
HETATM   18  C12 UNL     1     -28.338 -13.484   8.923  1.00  0.00     0.204 A 
HETATM   19  O2  UNL     1     -28.746 -14.856   9.265  1.00  0.00    -0.377 OA
ENDBRANCH  16  17
ENDBRANCH  14  15
ENDBRANCH   7  14
BRANCH   2  20
HETATM   20  O1  UNL     1     -23.337 -18.232  16.716  1.00  0.00    -0.390 OA
ATOM     21  H1  UNL     1     -22.910 -17.533  17.197  1.00  0.00     0.210 HD
ENDBRANCH   2  20
TORSDOF 4
ENDMDL
