MODEL 1
REMARK VINA RESULT: -8.313448181      0.000      0.000
REMARK  4 active torsions:
REMARK  status: ('A' for Active; 'I' for Inactive)
REMARK    1  A    between atoms: C2_2  and  C3_4 
REMARK    2  A    between atoms: C6_7  and  N1_8 
REMARK       I    between atoms: N1_8  and  C7_10 
REMARK    3  A    between atoms: C7_10  and  O3_12 
REMARK    4  A    between atoms: O3_12  and  C8_13 
ROOT
HETATM    1  N1  UNL     1     -18.262 -11.034  10.634  1.00  0.00    -0.332 N 
ATOM      2  H1  UNL     1     -17.830 -11.953  10.733  1.00  0.00     0.165 HD
HETATM    3  C7  UNL     1     -17.569  -9.978   9.941  1.00  0.00     0.361 C 
HETATM    4  O2  UNL     1     -18.112  -8.844   9.824  1.00  0.00    -0.238 OA
ENDROOT
BRANCH   1   5
HETATM    5  C6  UNL     1     -19.564 -10.783  11.185  1.00  0.00     0.086 C 
HETATM    6  C5  UNL     1     -20.688 -11.079  10.239  1.00  0.00     0.026 C 
HETATM    7  C4  UNL     1     -21.300 -12.413  10.575  1.00  0.00     0.014 C 
HETATM    8  C3  UNL     1     -21.942 -12.366  11.930  1.00  0.00     0.055 C 
HETATM    9  C16 UNL     1     -21.145 -11.552  12.922  1.00  0.00     0.014 C 
HETATM   10  C15 UNL     1     -19.689 -11.617  12.463  1.00  0.00     0.026 C 
BRANCH   8  11
HETATM   11  C2  UNL     1     -22.085 -13.763  12.435  1.00  0.00     0.127 C 
HETATM   12  C1  UNL     1     -23.429 -14.276  12.820  1.00  0.00     0.091 C 
HETATM   13  O1  UNL     1     -21.140 -14.512  12.548  1.00  0.00    -0.298 OA
ENDBRANCH   8  11
ENDBRANCH   1   5
BRANCH   3  14
HETATM   14  O3  UNL     1     -16.310 -10.183   9.397  1.00  0.00    -0.298 OA
BRANCH  14  15
HETATM   15  C8  UNL     1     -15.225 -10.308  10.262  1.00  0.00     0.142 C 
HETATM   16  C9  UNL     1     -14.119 -11.187   9.660  1.00  0.00     0.042 C 
HETATM   17  C10 UNL     1     -12.889 -10.318   9.659  1.00  0.00     0.011 C 
HETATM   18  C11 UNL     1     -13.119  -9.256   8.652  1.00  0.00    -0.025 C 
HETATM   19  C14 UNL     1     -13.146  -9.517  10.950  1.00  0.00     0.019 C 
HETATM   20  C12 UNL     1     -14.087  -8.482   9.136  1.00  0.00    -0.023 C 
HETATM   21  C13 UNL     1     -14.517  -9.006  10.463  1.00  0.00     0.038 C 
ENDBRANCH  14  15
ENDBRANCH   3  14
TORSDOF 4
ENDMDL
MODEL 2
REMARK VINA RESULT: -7.980663101      1.734      8.051
REMARK  4 active torsions:
REMARK  status: ('A' for Active; 'I' for Inactive)
REMARK    1  A    between atoms: C2_2  and  C3_4 
REMARK    2  A    between atoms: C6_7  and  N1_8 
REMARK       I    between atoms: N1_8  and  C7_10 
REMARK    3  A    between atoms: C7_10  and  O3_12 
REMARK    4  A    between atoms: O3_12  and  C8_13 
ROOT
HETATM    1  N1  UNL     1     -20.185 -11.994  11.078  1.00  0.00    -0.332 N 
ATOM      2  H1  UNL     1     -19.735 -12.902  10.956  1.00  0.00     0.165 HD
HETATM    3  C7  UNL     1     -21.615 -11.908  11.231  1.00  0.00     0.361 C 
HETATM    4  O2  UNL     1     -22.161 -10.780  11.381  1.00  0.00    -0.238 OA
ENDROOT
BRANCH   1   5
HETATM    5  C6  UNL     1     -19.397 -10.794  11.100  1.00  0.00     0.086 C 
HETATM    6  C5  UNL     1     -18.442 -10.718  12.252  1.00  0.00     0.026 C 
HETATM    7  C4  UNL     1     -17.055 -11.079  11.791  1.00  0.00     0.014 C 
HETATM    8  C3  UNL     1     -16.551 -10.064  10.808  1.00  0.00     0.055 C 
HETATM    9  C16 UNL     1     -17.632  -9.578   9.869  1.00  0.00     0.014 C 
HETATM   10  C15 UNL     1     -18.652 -10.710   9.764  1.00  0.00     0.026 C 
BRANCH   8  11
HETATM   11  C2  UNL     1     -15.446 -10.680  10.016  1.00  0.00     0.127 C 
HETATM   12  C1  UNL     1     -14.465  -9.807   9.314  1.00  0.00     0.091 C 
HETATM   13  O1  UNL     1     -15.309 -11.879   9.917  1.00  0.00    -0.298 OA
ENDBRANCH   8  11
ENDBRANCH   1   5
BRANCH   3  14
HETATM   14  O3  UNL     1     -22.407 -13.046  11.214  1.00  0.00    -0.298 OA
BRANCH  14  15
HETATM   15  C8  UNL     1     -22.412 -13.868  12.339  1.00  0.00     0.142 C 
HETATM   16  C9  UNL     1     -22.122 -13.074  13.621  1.00  0.00     0.042 C 
HETATM   17  C10 UNL     1     -23.305 -13.333  14.516  1.00  0.00     0.011 C 
HETATM   18  C11 UNL     1     -24.464 -12.646  13.899  1.00  0.00    -0.025 C 
HETATM   19  C14 UNL     1     -23.614 -14.787  14.109  1.00  0.00     0.019 C 
HETATM   20  C12 UNL     1     -24.734 -13.301  12.772  1.00  0.00    -0.023 C 
HETATM   21  C13 UNL     1     -23.771 -14.427  12.617  1.00  0.00     0.038 C 
ENDBRANCH  14  15
ENDBRANCH   3  14
TORSDOF 4
ENDMDL
MODEL 3
REMARK VINA RESULT: -7.956264955      1.085      1.638
REMARK  4 active torsions:
REMARK  status: ('A' for Active; 'I' for Inactive)
REMARK    1  A    between atoms: C2_2  and  C3_4 
REMARK    2  A    between atoms: C6_7  and  N1_8 
REMARK       I    between atoms: N1_8  and  C7_10 
REMARK    3  A    between atoms: C7_10  and  O3_12 
REMARK    4  A    between atoms: O3_12  and  C8_13 
ROOT
HETATM    1  N1  UNL     1     -17.942 -11.076  10.537  1.00  0.00    -0.332 N 
ATOM      2  H1  UNL     1     -18.052 -11.478   9.606  1.00  0.00     0.165 HD
HETATM    3  C7  UNL     1     -16.627 -10.848  11.078  1.00  0.00     0.361 C 
HETATM    4  O2  UNL     1     -16.501 -10.351  12.231  1.00  0.00    -0.238 OA
ENDROOT
BRANCH   1   5
HETATM    5  C6  UNL     1     -19.098 -10.733  11.317  1.00  0.00     0.086 C 
HETATM    6  C5  UNL     1     -20.346 -10.565  10.507  1.00  0.00     0.026 C 
HETATM    7  C4  UNL     1     -21.198 -11.801  10.620  1.00  0.00     0.014 C 
HETATM    8  C3  UNL     1     -21.678 -11.977  12.031  1.00  0.00     0.055 C 
HETATM    9  C16 UNL     1     -20.628 -11.603  13.051  1.00  0.00     0.014 C 
HETATM   10  C15 UNL     1     -19.274 -11.822  12.378  1.00  0.00     0.026 C 
BRANCH   8  11
HETATM   11  C2  UNL     1     -22.071 -13.404  12.222  1.00  0.00     0.127 C 
HETATM   12  C1  UNL     1     -23.512 -13.769  12.304  1.00  0.00     0.091 C 
HETATM   13  O1  UNL     1     -21.256 -14.295  12.317  1.00  0.00    -0.298 OA
ENDBRANCH   8  11
ENDBRANCH   1   5
BRANCH   3  14
HETATM   14  O3  UNL     1     -15.488 -11.168  10.353  1.00  0.00    -0.298 OA
BRANCH  14  15
HETATM   15  C8  UNL     1     -14.999 -10.236   9.440  1.00  0.00     0.142 C 
HETATM   16  C9  UNL     1     -15.192  -8.797   9.941  1.00  0.00     0.042 C 
HETATM   17  C10 UNL     1     -13.810  -8.199   9.949  1.00  0.00     0.011 C 
HETATM   18  C11 UNL     1     -13.059  -8.879  11.030  1.00  0.00    -0.025 C 
HETATM   19  C14 UNL     1     -13.217  -8.920   8.723  1.00  0.00     0.019 C 
HETATM   20  C12 UNL     1     -12.887 -10.138  10.635  1.00  0.00    -0.023 C 
HETATM   21  C13 UNL     1     -13.513 -10.321   9.295  1.00  0.00     0.038 C 
ENDBRANCH  14  15
ENDBRANCH   3  14
TORSDOF 4
ENDMDL
MODEL 4
REMARK VINA RESULT: -7.955208554      3.242      5.015
REMARK  4 active torsions:
REMARK  status: ('A' for Active; 'I' for Inactive)
REMARK    1  A    between atoms: C2_2  and  C3_4 
REMARK    2  A    between atoms: C6_7  and  N1_8 
REMARK       I    between atoms: N1_8  and  C7_10 
REMARK    3  A    between atoms: C7_10  and  O3_12 
REMARK    4  A    between atoms: O3_12  and  C8_13 
ROOT
HETATM    1  N1  UNL     1     -14.522  -8.403   9.979  1.00  0.00    -0.332 N 
ATOM      2  H1  UNL     1     -14.830  -7.867  10.791  1.00  0.00     0.165 HD
HETATM    3  C7  UNL     1     -13.243  -8.132   9.375  1.00  0.00     0.361 C 
HETATM    4  O2  UNL     1     -12.871  -8.800   8.370  1.00  0.00    -0.238 OA
ENDROOT
BRANCH   1   5
HETATM    5  C6  UNL     1     -15.361  -9.431   9.430  1.00  0.00     0.086 C 
HETATM    6  C5  UNL     1     -15.242 -10.748  10.134  1.00  0.00     0.026 C 
HETATM    7  C4  UNL     1     -16.404 -10.932  11.073  1.00  0.00     0.014 C 
HETATM    8  C3  UNL     1     -17.688 -11.025  10.303  1.00  0.00     0.055 C 
HETATM    9  C16 UNL     1     -17.724 -10.084   9.120  1.00  0.00     0.014 C 
HETATM   10  C15 UNL     1     -16.803  -8.917   9.469  1.00  0.00     0.026 C 
BRANCH   8  11
HETATM   11  C2  UNL     1     -18.817 -10.707  11.225  1.00  0.00     0.127 C 
HETATM   12  C1  UNL     1     -20.157 -10.378  10.666  1.00  0.00     0.091 C 
HETATM   13  O1  UNL     1     -18.691 -10.704  12.430  1.00  0.00    -0.298 OA
ENDBRANCH   8  11
ENDBRANCH   1   5
BRANCH   3  14
HETATM   14  O3  UNL     1     -12.407  -7.146   9.877  1.00  0.00    -0.298 OA
BRANCH  14  15
HETATM   15  C8  UNL     1     -12.520  -6.803  11.223  1.00  0.00     0.142 C 
HETATM   16  C9  UNL     1     -11.410  -7.448  12.067  1.00  0.00     0.042 C 
HETATM   17  C10 UNL     1     -10.714  -6.295  12.741  1.00  0.00     0.011 C 
HETATM   18  C11 UNL     1      -9.998  -5.550  11.679  1.00  0.00    -0.025 C 
HETATM   19  C14 UNL     1     -11.921  -5.360  12.950  1.00  0.00     0.019 C 
HETATM   20  C12 UNL     1     -10.933  -4.989  10.917  1.00  0.00    -0.023 C 
HETATM   21  C13 UNL     1     -12.278  -5.344  11.450  1.00  0.00     0.038 C 
ENDBRANCH  14  15
ENDBRANCH   3  14
TORSDOF 4
ENDMDL
MODEL 5
REMARK VINA RESULT: -7.829437399      1.712      8.037
REMARK  4 active torsions:
REMARK  status: ('A' for Active; 'I' for Inactive)
REMARK    1  A    between atoms: C2_2  and  C3_4 
REMARK    2  A    between atoms: C6_7  and  N1_8 
REMARK       I    between atoms: N1_8  and  C7_10 
REMARK    3  A    between atoms: C7_10  and  O3_12 
REMARK    4  A    between atoms: O3_12  and  C8_13 
ROOT
HETATM    1  N1  UNL     1     -19.085 -10.994  11.820  1.00  0.00    -0.332 N 
ATOM      2  H1  UNL     1     -19.046 -10.169  12.419  1.00  0.00     0.165 HD
HETATM    3  C7  UNL     1     -19.964 -12.087  12.149  1.00  0.00     0.361 C 
HETATM    4  O2  UNL     1     -20.005 -13.104  11.402  1.00  0.00    -0.238 OA
ENDROOT
BRANCH   1   5
HETATM    5  C6  UNL     1     -18.265 -11.074  10.644  1.00  0.00     0.086 C 
HETATM    6  C5  UNL     1     -18.462  -9.935   9.691  1.00  0.00     0.026 C 
HETATM    7  C4  UNL     1     -17.346  -8.937   9.850  1.00  0.00     0.014 C 
HETATM    8  C3  UNL     1     -16.037  -9.550   9.449  1.00  0.00     0.055 C 
HETATM    9  C16 UNL     1     -15.918 -10.995   9.875  1.00  0.00     0.014 C 
HETATM   10  C15 UNL     1     -16.808 -11.157  11.106  1.00  0.00     0.026 C 
BRANCH   8  11
HETATM   11  C2  UNL     1     -14.934  -8.758  10.067  1.00  0.00     0.127 C 
HETATM   12  C1  UNL     1     -13.776  -8.330   9.235  1.00  0.00     0.091 C 
HETATM   13  O1  UNL     1     -14.938  -8.441  11.237  1.00  0.00    -0.298 OA
ENDBRANCH   8  11
ENDBRANCH   1   5
BRANCH   3  14
HETATM   14  O3  UNL     1     -20.770 -12.046  13.277  1.00  0.00    -0.298 OA
BRANCH  14  15
HETATM   15  C8  UNL     1     -22.141 -11.866  13.107  1.00  0.00     0.142 C 
HETATM   16  C9  UNL     1     -22.631 -12.471  11.782  1.00  0.00     0.042 C 
HETATM   17  C10 UNL     1     -23.702 -13.454  12.175  1.00  0.00     0.011 C 
HETATM   18  C11 UNL     1     -23.020 -14.569  12.872  1.00  0.00    -0.025 C 
HETATM   19  C14 UNL     1     -24.293 -12.709  13.388  1.00  0.00     0.019 C 
HETATM   20  C12 UNL     1     -22.567 -14.075  14.021  1.00  0.00    -0.023 C 
HETATM   21  C13 UNL     1     -22.935 -12.635  14.114  1.00  0.00     0.038 C 
ENDBRANCH  14  15
ENDBRANCH   3  14
TORSDOF 4
ENDMDL
