MODEL 1
REMARK VINA RESULT: -7.117959282      0.000      0.000
REMARK  2 active torsions:
REMARK  status: ('A' for Active; 'I' for Inactive)
REMARK    1  A    between atoms: C2_2  and  S1_4 
REMARK    2  A    between atoms: S1_4  and  C4_5 
ROOT
HETATM    1  C4  UNL     1     -14.629  -9.774  10.441  1.00  0.00     0.064 C 
HETATM    2  C5  UNL     1     -14.300 -11.009   9.767  1.00  0.00     0.068 C 
HETATM    3  C6  UNL     1     -12.817 -11.288   9.449  1.00  0.00    -0.013 C 
HETATM    4  C7  UNL     1     -12.445 -10.423   8.350  1.00  0.00     0.057 C 
HETATM    5  C8  UNL     1     -12.156  -8.950   8.678  1.00  0.00    -0.001 C 
HETATM    6  C9  UNL     1     -13.437  -8.196   8.881  1.00  0.00     0.014 C 
HETATM    7  C10 UNL     1     -13.710  -8.590  10.288  1.00  0.00     0.036 C 
HETATM    8  C11 UNL     1     -12.411  -9.003  10.835  1.00  0.00     0.079 A 
HETATM    9  O1  UNL     1     -12.534  -9.543  12.091  1.00  0.00    -0.362 OA
HETATM   10  C12 UNL     1     -11.185  -9.777  12.035  1.00  0.00     0.097 C 
HETATM   11  C13 UNL     1     -10.404  -9.669  13.275  1.00  0.00     0.052 C 
HETATM   12  C14 UNL     1     -11.058 -11.074  11.243  1.00  0.00     0.098 C 
HETATM   13  N1  UNL     1     -12.139 -11.575  10.582  1.00  0.00    -0.373 N 
ATOM     14  H1  UNL     1     -12.542 -12.374  11.071  1.00  0.00     0.164 HD
HETATM   15  C15 UNL     1     -11.198  -8.508  11.137  1.00  0.00     0.068 A 
HETATM   16  C16 UNL     1     -11.357  -9.003   9.862  1.00  0.00     0.036 A 
ENDROOT
BRANCH   1  17
HETATM   17  S1  UNL     1     -16.287  -9.223   9.922  1.00  0.00    -0.130 SA
BRANCH  17  18
HETATM   18  C2  UNL     1     -17.560 -10.223  10.659  1.00  0.00    -0.035 C 
HETATM   19  C1  UNL     1     -17.295 -10.970  11.716  1.00  0.00     0.026 C 
HETATM   20  C3  UNL     1     -18.940 -10.206  10.068  1.00  0.00     0.055 C 
ENDBRANCH  17  18
ENDBRANCH   1  17
TORSDOF 2
ENDMDL
MODEL 2
REMARK VINA RESULT: -6.929704943      2.509      5.195
REMARK  2 active torsions:
REMARK  status: ('A' for Active; 'I' for Inactive)
REMARK    1  A    between atoms: C2_2  and  S1_4 
REMARK    2  A    between atoms: S1_4  and  C4_5 
ROOT
HETATM    1  C4  UNL     1     -13.388  -7.732  11.078  1.00  0.00     0.064 C 
HETATM    2  C5  UNL     1     -13.210  -7.387   9.687  1.00  0.00     0.068 C 
HETATM    3  C6  UNL     1     -13.759  -8.360   8.623  1.00  0.00    -0.013 C 
HETATM    4  C7  UNL     1     -12.879  -9.509   8.598  1.00  0.00     0.057 C 
HETATM    5  C8  UNL     1     -13.047 -10.549   9.718  1.00  0.00    -0.001 C 
HETATM    6  C9  UNL     1     -12.422 -10.056  10.990  1.00  0.00     0.014 C 
HETATM    7  C10 UNL     1     -13.529  -9.183  11.461  1.00  0.00     0.036 C 
HETATM    8  C11 UNL     1     -14.731  -9.675  10.775  1.00  0.00     0.079 A 
HETATM    9  O1  UNL     1     -15.814  -8.862  10.996  1.00  0.00    -0.362 OA
HETATM   10  C12 UNL     1     -16.506  -9.687  10.149  1.00  0.00     0.097 C 
HETATM   11  C13 UNL     1     -17.930  -9.931  10.418  1.00  0.00     0.052 C 
HETATM   12  C14 UNL     1     -16.135  -9.196   8.754  1.00  0.00     0.098 C 
HETATM   13  N1  UNL     1     -15.110  -8.312   8.596  1.00  0.00    -0.373 N 
ATOM     14  H1  UNL     1     -15.450  -7.369   8.408  1.00  0.00     0.164 HD
HETATM   15  C15 UNL     1     -15.525 -10.758  10.704  1.00  0.00     0.068 A 
HETATM   16  C16 UNL     1     -14.461 -10.721   9.831  1.00  0.00     0.036 A 
ENDROOT
BRANCH   1  17
HETATM   17  S1  UNL     1     -11.999  -7.064  12.051  1.00  0.00    -0.130 SA
BRANCH  17  18
HETATM   18  C2  UNL     1     -11.524  -5.450  11.474  1.00  0.00    -0.035 C 
HETATM   19  C1  UNL     1     -12.264  -4.393  11.761  1.00  0.00     0.026 C 
HETATM   20  C3  UNL     1     -10.271  -5.302  10.661  1.00  0.00     0.055 C 
ENDBRANCH  17  18
ENDBRANCH   1  17
TORSDOF 2
ENDMDL
MODEL 3
REMARK VINA RESULT: -6.754250971      8.752     12.068
REMARK  2 active torsions:
REMARK  status: ('A' for Active; 'I' for Inactive)
REMARK    1  A    between atoms: C2_2  and  S1_4 
REMARK    2  A    between atoms: S1_4  and  C4_5 
ROOT
HETATM    1  C4  UNL     1     -24.745 -13.356  14.929  1.00  0.00     0.064 C 
HETATM    2  C5  UNL     1     -24.289 -14.704  15.179  1.00  0.00     0.068 C 
HETATM    3  C6  UNL     1     -23.350 -15.355  14.144  1.00  0.00    -0.013 C 
HETATM    4  C7  UNL     1     -24.152 -15.689  12.987  1.00  0.00     0.057 C 
HETATM    5  C8  UNL     1     -24.512 -14.546  12.025  1.00  0.00    -0.001 C 
HETATM    6  C9  UNL     1     -25.620 -13.710  12.594  1.00  0.00     0.014 C 
HETATM    7  C10 UNL     1     -24.814 -12.859  13.508  1.00  0.00     0.036 C 
HETATM    8  C11 UNL     1     -23.444 -12.916  12.985  1.00  0.00     0.079 A 
HETATM    9  O1  UNL     1     -22.550 -12.296  13.822  1.00  0.00    -0.362 OA
HETATM   10  C12 UNL     1     -21.574 -12.699  12.950  1.00  0.00     0.097 C 
HETATM   11  C13 UNL     1     -20.416 -11.819  12.739  1.00  0.00     0.052 C 
HETATM   12  C14 UNL     1     -21.287 -14.145  13.344  1.00  0.00     0.098 C 
HETATM   13  N1  UNL     1     -22.123 -14.792  14.204  1.00  0.00    -0.373 N 
ATOM     14  H1  UNL     1     -21.716 -14.871  15.136  1.00  0.00     0.164 HD
HETATM   15  C15 UNL     1     -22.720 -12.562  11.908  1.00  0.00     0.068 A 
HETATM   16  C16 UNL     1     -23.294 -13.814  11.876  1.00  0.00     0.036 A 
ENDROOT
BRANCH   1  17
HETATM   17  S1  UNL     1     -26.406 -13.135  15.646  1.00  0.00    -0.130 SA
BRANCH  17  18
HETATM   18  C2  UNL     1     -27.194 -14.700  15.947  1.00  0.00    -0.035 C 
HETATM   19  C1  UNL     1     -27.905 -15.284  14.998  1.00  0.00     0.026 C 
HETATM   20  C3  UNL     1     -27.040 -15.353  17.290  1.00  0.00     0.055 C 
ENDBRANCH  17  18
ENDBRANCH   1  17
TORSDOF 2
ENDMDL
MODEL 4
REMARK VINA RESULT: -6.629373100      8.909     12.270
REMARK  2 active torsions:
REMARK  status: ('A' for Active; 'I' for Inactive)
REMARK    1  A    between atoms: C2_2  and  S1_4 
REMARK    2  A    between atoms: S1_4  and  C4_5 
ROOT
HETATM    1  C4  UNL     1     -23.486 -15.756  14.622  1.00  0.00     0.064 C 
HETATM    2  C5  UNL     1     -24.512 -15.880  13.612  1.00  0.00     0.068 C 
HETATM    3  C6  UNL     1     -24.786 -14.664  12.704  1.00  0.00    -0.013 C 
HETATM    4  C7  UNL     1     -25.491 -13.683  13.502  1.00  0.00     0.057 C 
HETATM    5  C8  UNL     1     -24.657 -12.838  14.478  1.00  0.00    -0.001 C 
HETATM    6  C9  UNL     1     -24.314 -13.636  15.702  1.00  0.00     0.014 C 
HETATM    7  C10 UNL     1     -23.152 -14.389  15.161  1.00  0.00     0.036 C 
HETATM    8  C11 UNL     1     -22.676 -13.600  14.017  1.00  0.00     0.079 A 
HETATM    9  O1  UNL     1     -21.694 -14.255  13.318  1.00  0.00    -0.362 OA
HETATM   10  C12 UNL     1     -21.717 -13.197  12.448  1.00  0.00     0.097 C 
HETATM   11  C13 UNL     1     -20.456 -12.778  11.821  1.00  0.00     0.052 C 
HETATM   12  C14 UNL     1     -22.891 -13.494  11.521  1.00  0.00     0.098 C 
HETATM   13  N1  UNL     1     -23.767 -14.489  11.833  1.00  0.00    -0.373 N 
ATOM     14  H1  UNL     1     -23.615 -15.319  11.260  1.00  0.00     0.164 HD
HETATM   15  C15 UNL     1     -22.127 -12.409  13.724  1.00  0.00     0.068 A 
HETATM   16  C16 UNL     1     -23.502 -12.464  13.724  1.00  0.00     0.036 A 
ENDROOT
BRANCH   1  17
HETATM   17  S1  UNL     1     -23.919 -16.795  16.056  1.00  0.00    -0.130 SA
BRANCH  17  18
HETATM   18  C2  UNL     1     -25.627 -17.285  16.007  1.00  0.00    -0.035 C 
HETATM   19  C1  UNL     1     -25.957 -18.530  15.711  1.00  0.00     0.026 C 
HETATM   20  C3  UNL     1     -26.691 -16.270  16.309  1.00  0.00     0.055 C 
ENDBRANCH  17  18
ENDBRANCH   1  17
TORSDOF 2
ENDMDL
MODEL 5
REMARK VINA RESULT: -6.566796932      8.003     12.059
REMARK  2 active torsions:
REMARK  status: ('A' for Active; 'I' for Inactive)
REMARK    1  A    between atoms: C2_2  and  S1_4 
REMARK    2  A    between atoms: S1_4  and  C4_5 
ROOT
HETATM    1  C4  UNL     1     -22.647 -13.384  12.816  1.00  0.00     0.064 C 
HETATM    2  C5  UNL     1     -23.093 -12.458  13.832  1.00  0.00     0.068 C 
HETATM    3  C6  UNL     1     -24.141 -12.950  14.851  1.00  0.00    -0.013 C 
HETATM    4  C7  UNL     1     -25.410 -13.024  14.159  1.00  0.00     0.057 C 
HETATM    5  C8  UNL     1     -25.645 -14.238  13.246  1.00  0.00    -0.001 C 
HETATM    6  C9  UNL     1     -24.910 -14.069  11.949  1.00  0.00     0.014 C 
HETATM    7  C10 UNL     1     -23.561 -14.506  12.396  1.00  0.00     0.036 C 
HETATM    8  C11 UNL     1     -23.793 -15.319  13.596  1.00  0.00     0.079 A 
HETATM    9  O1  UNL     1     -22.618 -15.667  14.214  1.00  0.00    -0.362 OA
HETATM   10  C12 UNL     1     -23.392 -16.262  15.175  1.00  0.00     0.097 C 
HETATM   11  C13 UNL     1     -22.896 -17.490  15.812  1.00  0.00     0.052 C 
HETATM   12  C14 UNL     1     -23.800 -15.117  16.096  1.00  0.00     0.098 C 
HETATM   13  N1  UNL     1     -23.581 -13.828  15.713  1.00  0.00    -0.373 N 
ATOM     14  H1  UNL     1     -22.787 -13.418  16.206  1.00  0.00     0.164 HD
HETATM   15  C15 UNL     1     -24.369 -16.471  13.984  1.00  0.00     0.068 A 
HETATM   16  C16 UNL     1     -25.168 -15.350  14.007  1.00  0.00     0.036 A 
ENDROOT
BRANCH   1  17
HETATM   17  S1  UNL     1     -22.214 -12.463  11.304  1.00  0.00    -0.130 SA
BRANCH  17  18
HETATM   18  C2  UNL     1     -20.610 -11.708  11.443  1.00  0.00    -0.035 C 
HETATM   19  C1  UNL     1     -19.758 -12.116  12.367  1.00  0.00     0.026 C 
HETATM   20  C3  UNL     1     -20.234 -10.605  10.498  1.00  0.00     0.055 C 
ENDBRANCH  17  18
ENDBRANCH   1  17
TORSDOF 2
ENDMDL
