MODEL 1
REMARK VINA RESULT: -7.311056586      0.000      0.000
REMARK  17 active torsions:
REMARK  status: ('A' for Active; 'I' for Inactive)
REMARK    1  A    between atoms: C2_2  and  C3_3 
REMARK    2  A    between atoms: C3_3  and  N1_4 
REMARK       I    between atoms: N1_4  and  C4_6 
REMARK       I    between atoms: C4_6  and  N2_8 
REMARK    3  A    between atoms: N2_8  and  C5_10 
REMARK    4  A    between atoms: C5_10  and  C6_11 
REMARK    5  A    between atoms: C6_11  and  C7_12 
REMARK    6  A    between atoms: C7_12  and  C8_13 
REMARK    7  A    between atoms: C8_13  and  C9_14 
REMARK    8  A    between atoms: C12_18  and  C13_19 
REMARK    9  A    between atoms: C20_29  and  C21_30 
REMARK   10  A    between atoms: C21_30  and  C22_31 
REMARK   11  A    between atoms: C22_31  and  C23_32 
REMARK   12  A    between atoms: C25_34  and  O4_35 
REMARK   13  A    between atoms: C26_39  and  C27_40 
REMARK   14  A    between atoms: C27_40  and  C28_41 
REMARK   15  A    between atoms: C31_44  and  O5_45 
REMARK   16  A    between atoms: N5_47  and  C32_48 
REMARK   17  A    between atoms: C32_48  and  C33_49 
ROOT
HETATM    1  C9  UNL     1     -12.181  16.937  -0.393  1.00  0.00     0.115 C 
HETATM    2  C10 UNL     1     -12.203  17.360   1.130  1.00  0.00     0.193 C 
HETATM    3  O2  UNL     1     -11.126  16.730   1.729  1.00  0.00    -0.388 OA
HETATM    4  C11 UNL     1     -11.407  16.169   2.940  1.00  0.00     0.182 C 
HETATM    5  C12 UNL     1     -10.920  14.752   3.102  1.00  0.00     0.105 C 
HETATM    6  C19 UNL     1     -10.440  14.149   1.866  1.00  0.00     0.225 C 
HETATM    7  O3  UNL     1     -11.358  13.466   1.253  1.00  0.00    -0.273 OA
HETATM    8  N3  UNL     1      -9.211  14.159   1.219  1.00  0.00    -0.349 N 
ATOM      9  H3  UNL     1      -9.018  13.298   0.708  1.00  0.00     0.163 HD
HETATM   10  C20 UNL     1      -8.172  15.109   1.122  1.00  0.00     0.159 C 
HETATM   11  C25 UNL     1      -7.734  15.561  -0.210  1.00  0.00     0.139 C 
HETATM   12  N4  UNL     1      -8.232  15.512  -1.486  1.00  0.00    -0.339 N 
ATOM     13  H4  UNL     1      -7.590  15.103  -2.165  1.00  0.00     0.167 HD
HETATM   14  C26 UNL     1      -9.518  15.940  -2.060  1.00  0.00     0.062 C 
HETATM   15  C31 UNL     1      -9.966  17.206  -1.489  1.00  0.00     0.165 C 
HETATM   16  N5  UNL     1     -11.200  17.744  -1.040  1.00  0.00    -0.333 N 
ENDROOT
BRANCH   1  17
HETATM   17  C8  UNL     1     -13.591  16.892  -0.727  1.00  0.00     0.028 C 
BRANCH  17  18
HETATM   18  C7  UNL     1     -14.644  16.685   0.280  1.00  0.00     0.004 C 
BRANCH  18  19
HETATM   19  C6  UNL     1     -15.738  17.735   0.060  1.00  0.00     0.020 C 
BRANCH  19  20
HETATM   20  C5  UNL     1     -15.879  18.673   1.218  1.00  0.00     0.124 C 
BRANCH  20  21
HETATM   21  N2  UNL     1     -15.369  18.069   2.415  1.00  0.00    -0.343 N 
HETATM   22  C4  UNL     1     -14.615  18.739   3.403  1.00  0.00     0.316 C 
HETATM   23  N1  UNL     1     -14.145  18.081   4.575  1.00  0.00    -0.340 N 
HETATM   24  O1  UNL     1     -14.318  19.955   3.294  1.00  0.00    -0.247 OA
ATOM     25  H1  UNL     1     -14.357  17.092   4.710  1.00  0.00     0.164 HD
ATOM     26  H2  UNL     1     -15.568  17.080   2.565  1.00  0.00     0.164 HD
BRANCH  23  27
HETATM   27  C3  UNL     1     -13.374  18.779   5.577  1.00  0.00     0.150 C 
BRANCH  27  28
HETATM   28  C2  UNL     1     -12.214  17.993   6.070  1.00  0.00    -0.018 C 
HETATM   29  C1  UNL     1     -10.991  18.489   6.074  1.00  0.00     0.008 C 
ENDBRANCH  27  28
ENDBRANCH  23  27
ENDBRANCH  20  21
ENDBRANCH  19  20
ENDBRANCH  18  19
ENDBRANCH  17  18
ENDBRANCH   1  17
BRANCH  16  30
HETATM   30  C32 UNL     1     -11.285  19.176  -1.130  1.00  0.00     0.070 C 
BRANCH  30  31
HETATM   31  C33 UNL     1     -11.793  19.903  -2.270  1.00  0.00     0.016 C 
HETATM   32  C34 UNL     1     -11.248  21.168  -2.757  1.00  0.00     0.015 C 
HETATM   33  C35 UNL     1     -13.337  20.129  -2.180  1.00  0.00     0.015 C 
ENDBRANCH  30  31
ENDBRANCH  16  30
BRANCH  15  34
HETATM   34  O5  UNL     1      -8.914  17.998  -1.393  1.00  0.00    -0.344 OA
ATOM     35  H5  UNL     1      -9.171  18.759  -0.886  1.00  0.00     0.219 HD
ENDBRANCH  15  34
BRANCH  14  36
HETATM   36  C27 UNL     1     -10.479  14.874  -2.343  1.00  0.00     0.065 C 
BRANCH  36  37
HETATM   37  C28 UNL     1     -10.708  14.579  -3.802  1.00  0.00    -0.017 C 
HETATM   38  C29 UNL     1     -10.094  15.512  -4.783  1.00  0.00     0.010 C 
HETATM   39  C30 UNL     1     -10.073  13.195  -4.040  1.00  0.00     0.010 C 
ENDBRANCH  36  37
ENDBRANCH  14  36
BRANCH   5  40
HETATM   40  C13 UNL     1      -9.990  14.610   4.294  1.00  0.00     0.001 C 
HETATM   41  C14 UNL     1     -10.811  14.428   5.579  1.00  0.00     0.005 C 
HETATM   42  C15 UNL     1      -9.887  14.006   6.689  1.00  0.00     0.000 C 
HETATM   43  C16 UNL     1      -8.451  14.365   6.375  1.00  0.00     0.000 C 
HETATM   44  C17 UNL     1      -8.358  15.735   5.772  1.00  0.00     0.000 C 
HETATM   45  C18 UNL     1      -9.195  15.880   4.520  1.00  0.00     0.005 C 
ENDBRANCH   5  40
BRANCH  11  46
HETATM   46  O4  UNL     1      -6.571  16.154  -0.107  1.00  0.00    -0.348 OA
ATOM     47  H4  UNL     1      -6.171  16.215  -0.967  1.00  0.00     0.219 HD
ENDBRANCH  11  46
BRANCH  10  48
HETATM   48  C21 UNL     1      -6.951  14.507   1.875  1.00  0.00     0.033 C 
BRANCH  48  49
HETATM   49  C22 UNL     1      -6.977  13.027   1.929  1.00  0.00     0.002 C 
BRANCH  49  50
HETATM   50  C23 UNL     1      -6.848  12.641   3.407  1.00  0.00    -0.004 C 
HETATM   51  C24 UNL     1      -7.933  11.694   3.822  1.00  0.00     0.005 C 
ENDBRANCH  49  50
ENDBRANCH  48  49
ENDBRANCH  10  48
TORSDOF 17
ENDMDL
MODEL 2
REMARK VINA RESULT: -7.218704564      5.513     11.919
REMARK  17 active torsions:
REMARK  status: ('A' for Active; 'I' for Inactive)
REMARK    1  A    between atoms: C2_2  and  C3_3 
REMARK    2  A    between atoms: C3_3  and  N1_4 
REMARK       I    between atoms: N1_4  and  C4_6 
REMARK       I    between atoms: C4_6  and  N2_8 
REMARK    3  A    between atoms: N2_8  and  C5_10 
REMARK    4  A    between atoms: C5_10  and  C6_11 
REMARK    5  A    between atoms: C6_11  and  C7_12 
REMARK    6  A    between atoms: C7_12  and  C8_13 
REMARK    7  A    between atoms: C8_13  and  C9_14 
REMARK    8  A    between atoms: C12_18  and  C13_19 
REMARK    9  A    between atoms: C20_29  and  C21_30 
REMARK   10  A    between atoms: C21_30  and  C22_31 
REMARK   11  A    between atoms: C22_31  and  C23_32 
REMARK   12  A    between atoms: C25_34  and  O4_35 
REMARK   13  A    between atoms: C26_39  and  C27_40 
REMARK   14  A    between atoms: C27_40  and  C28_41 
REMARK   15  A    between atoms: C31_44  and  O5_45 
REMARK   16  A    between atoms: N5_47  and  C32_48 
REMARK   17  A    between atoms: C32_48  and  C33_49 
ROOT
HETATM    1  C9  UNL     1      -4.743   9.610  -0.011  1.00  0.00     0.115 C 
HETATM    2  C10 UNL     1      -4.302   9.625  -1.529  1.00  0.00     0.193 C 
HETATM    3  O2  UNL     1      -4.937  10.708  -2.113  1.00  0.00    -0.388 OA
HETATM    4  C11 UNL     1      -5.479  10.446  -3.337  1.00  0.00     0.182 C 
HETATM    5  C12 UNL     1      -6.900  10.921  -3.506  1.00  0.00     0.105 C 
HETATM    6  C19 UNL     1      -7.523  11.367  -2.267  1.00  0.00     0.225 C 
HETATM    7  O3  UNL     1      -8.204  10.429  -1.683  1.00  0.00    -0.273 OA
HETATM    8  N3  UNL     1      -7.535  12.583  -1.595  1.00  0.00    -0.349 N 
ATOM      9  H3  UNL     1      -8.405  12.755  -1.090  1.00  0.00     0.163 HD
HETATM   10  C20 UNL     1      -6.599  13.630  -1.464  1.00  0.00     0.159 C 
HETATM   11  C25 UNL     1      -6.168  14.045  -0.118  1.00  0.00     0.139 C 
HETATM   12  N4  UNL     1      -6.227  13.519   1.147  1.00  0.00    -0.339 N 
ATOM     13  H4  UNL     1      -6.651  14.142   1.834  1.00  0.00     0.167 HD
HETATM   14  C26 UNL     1      -5.791  12.226   1.699  1.00  0.00     0.062 C 
HETATM   15  C31 UNL     1      -4.513  11.804   1.134  1.00  0.00     0.165 C 
HETATM   16  N5  UNL     1      -3.956  10.586   0.666  1.00  0.00    -0.333 N 
ENDROOT
BRANCH   1  17
HETATM   17  C8  UNL     1      -4.777   8.193   0.292  1.00  0.00     0.028 C 
BRANCH  17  18
HETATM   18  C7  UNL     1      -4.772   7.152  -0.748  1.00  0.00     0.004 C 
BRANCH  18  19
HETATM   19  C6  UNL     1      -3.634   6.172  -0.449  1.00  0.00     0.020 C 
BRANCH  19  20
HETATM   20  C5  UNL     1      -2.901   5.743  -1.682  1.00  0.00     0.124 C 
BRANCH  20  21
HETATM   21  N2  UNL     1      -3.536   6.278  -2.852  1.00  0.00    -0.343 N 
HETATM   22  C4  UNL     1      -2.881   7.001  -3.871  1.00  0.00     0.316 C 
HETATM   23  N1  UNL     1      -3.570   7.499  -5.013  1.00  0.00    -0.340 N 
HETATM   24  O1  UNL     1      -1.649   7.243  -3.819  1.00  0.00    -0.247 OA
ATOM     25  H1  UNL     1      -4.573   7.331  -5.101  1.00  0.00     0.164 HD
ATOM     26  H2  UNL     1      -4.539   6.124  -2.955  1.00  0.00     0.164 HD
BRANCH  23  27
HETATM   27  C3  UNL     1      -2.885   8.237  -6.048  1.00  0.00     0.150 C 
BRANCH  27  28
HETATM   28  C2  UNL     1      -3.246   9.678  -6.071  1.00  0.00    -0.018 C 
HETATM   29  C1  UNL     1      -3.938  10.205  -7.064  1.00  0.00     0.008 C 
ENDBRANCH  27  28
ENDBRANCH  23  27
ENDBRANCH  20  21
ENDBRANCH  19  20
ENDBRANCH  18  19
ENDBRANCH  17  18
ENDBRANCH   1  17
BRANCH  16  30
HETATM   30  C32 UNL     1      -2.524  10.515   0.772  1.00  0.00     0.070 C 
BRANCH  30  31
HETATM   31  C33 UNL     1      -1.806   9.738   1.756  1.00  0.00     0.016 C 
HETATM   32  C34 UNL     1      -2.438   8.928   2.795  1.00  0.00     0.015 C 
HETATM   33  C35 UNL     1      -0.726  10.589   2.500  1.00  0.00     0.015 C 
ENDBRANCH  30  31
ENDBRANCH  16  30
BRANCH  15  34
HETATM   34  O5  UNL     1      -3.732  12.866   1.071  1.00  0.00    -0.344 OA
ATOM     35  H5  UNL     1      -3.677  13.130   0.159  1.00  0.00     0.219 HD
ENDBRANCH  15  34
BRANCH  14  36
HETATM   36  C27 UNL     1      -6.849  11.247   1.948  1.00  0.00     0.065 C 
BRANCH  36  37
HETATM   37  C28 UNL     1      -7.352  11.184   3.366  1.00  0.00    -0.017 C 
HETATM   38  C29 UNL     1      -6.599  11.964   4.384  1.00  0.00     0.010 C 
HETATM   39  C30 UNL     1      -8.778  11.768   3.318  1.00  0.00     0.010 C 
ENDBRANCH  36  37
ENDBRANCH  14  36
BRANCH   5  40
HETATM   40  C13 UNL     1      -7.038  11.874  -4.680  1.00  0.00     0.001 C 
HETATM   41  C14 UNL     1      -7.353  11.086  -5.959  1.00  0.00     0.005 C 
HETATM   42  C15 UNL     1      -7.766  12.053  -7.035  1.00  0.00     0.000 C 
HETATM   43  C16 UNL     1      -7.283  13.454  -6.729  1.00  0.00     0.000 C 
HETATM   44  C17 UNL     1      -5.877  13.436  -6.205  1.00  0.00     0.000 C 
HETATM   45  C18 UNL     1      -5.726  12.574  -4.971  1.00  0.00     0.005 C 
ENDBRANCH   5  40
BRANCH  11  46
HETATM   46  O4  UNL     1      -5.587  15.216  -0.188  1.00  0.00    -0.348 OA
ATOM     47  H4  UNL     1      -6.063  15.837   0.350  1.00  0.00     0.219 HD
ENDBRANCH  11  46
BRANCH  10  48
HETATM   48  C21 UNL     1      -7.205  14.859  -2.199  1.00  0.00     0.033 C 
BRANCH  48  49
HETATM   49  C22 UNL     1      -8.665  14.738  -2.422  1.00  0.00     0.002 C 
BRANCH  49  50
HETATM   50  C23 UNL     1      -8.909  15.062  -3.901  1.00  0.00    -0.004 C 
HETATM   51  C24 UNL     1     -10.043  14.256  -4.457  1.00  0.00     0.005 C 
ENDBRANCH  49  50
ENDBRANCH  48  49
ENDBRANCH  10  48
TORSDOF 17
ENDMDL
MODEL 3
REMARK VINA RESULT: -7.142617067      1.780      5.772
REMARK  17 active torsions:
REMARK  status: ('A' for Active; 'I' for Inactive)
REMARK    1  A    between atoms: C2_2  and  C3_3 
REMARK    2  A    between atoms: C3_3  and  N1_4 
REMARK       I    between atoms: N1_4  and  C4_6 
REMARK       I    between atoms: C4_6  and  N2_8 
REMARK    3  A    between atoms: N2_8  and  C5_10 
REMARK    4  A    between atoms: C5_10  and  C6_11 
REMARK    5  A    between atoms: C6_11  and  C7_12 
REMARK    6  A    between atoms: C7_12  and  C8_13 
REMARK    7  A    between atoms: C8_13  and  C9_14 
REMARK    8  A    between atoms: C12_18  and  C13_19 
REMARK    9  A    between atoms: C20_29  and  C21_30 
REMARK   10  A    between atoms: C21_30  and  C22_31 
REMARK   11  A    between atoms: C22_31  and  C23_32 
REMARK   12  A    between atoms: C25_34  and  O4_35 
REMARK   13  A    between atoms: C26_39  and  C27_40 
REMARK   14  A    between atoms: C27_40  and  C28_41 
REMARK   15  A    between atoms: C31_44  and  O5_45 
REMARK   16  A    between atoms: N5_47  and  C32_48 
REMARK   17  A    between atoms: C32_48  and  C33_49 
ROOT
HETATM    1  C9  UNL     1     -12.599  16.354  -0.891  1.00  0.00     0.115 C 
HETATM    2  C10 UNL     1     -12.615  15.088   0.057  1.00  0.00     0.193 C 
HETATM    3  O2  UNL     1     -12.021  15.478   1.245  1.00  0.00    -0.388 OA
HETATM    4  C11 UNL     1     -11.138  14.572   1.753  1.00  0.00     0.182 C 
HETATM    5  C12 UNL     1      -9.813  15.157   2.174  1.00  0.00     0.105 C 
HETATM    6  C19 UNL     1      -9.621  16.539   1.756  1.00  0.00     0.225 C 
HETATM    7  O3  UNL     1      -8.986  16.636   0.628  1.00  0.00    -0.273 OA
HETATM    8  N3  UNL     1      -9.976  17.759   2.317  1.00  0.00    -0.349 N 
ATOM      9  H3  UNL     1      -9.310  18.504   2.113  1.00  0.00     0.163 HD
HETATM   10  C20 UNL     1     -11.063  18.184   3.110  1.00  0.00     0.159 C 
HETATM   11  C25 UNL     1     -11.896  19.306   2.645  1.00  0.00     0.139 C 
HETATM   12  N4  UNL     1     -12.098  19.966   1.460  1.00  0.00    -0.339 N 
ATOM     13  H4  UNL     1     -11.974  20.977   1.523  1.00  0.00     0.167 HD
HETATM   14  C26 UNL     1     -12.461  19.490   0.116  1.00  0.00     0.062 C 
HETATM   15  C31 UNL     1     -13.461  18.428   0.174  1.00  0.00     0.165 C 
HETATM   16  N5  UNL     1     -13.679  17.193  -0.490  1.00  0.00    -0.333 N 
ENDROOT
BRANCH   1  17
HETATM   17  C8  UNL     1     -12.431  15.762  -2.203  1.00  0.00     0.028 C 
BRANCH  17  18
HETATM   18  C7  UNL     1     -11.576  16.355  -3.243  1.00  0.00     0.004 C 
BRANCH  18  19
HETATM   19  C6  UNL     1     -10.150  16.468  -2.695  1.00  0.00     0.020 C 
BRANCH  19  20
HETATM   20  C5  UNL     1      -9.333  15.240  -2.951  1.00  0.00     0.124 C 
BRANCH  20  21
HETATM   21  N2  UNL     1      -9.076  14.545  -1.723  1.00  0.00    -0.343 N 
HETATM   22  C4  UNL     1      -7.805  14.392  -1.129  1.00  0.00     0.316 C 
HETATM   23  N1  UNL     1      -7.619  13.696   0.099  1.00  0.00    -0.340 N 
HETATM   24  O1  UNL     1      -6.769  14.865  -1.659  1.00  0.00    -0.247 OA
ATOM     25  H1  UNL     1      -8.429  13.291   0.569  1.00  0.00     0.164 HD
ATOM     26  H2  UNL     1      -9.874  14.130  -1.241  1.00  0.00     0.164 HD
BRANCH  23  27
HETATM   27  C3  UNL     1      -6.312  13.549   0.695  1.00  0.00     0.150 C 
BRANCH  27  28
HETATM   28  C2  UNL     1      -6.316  12.670   1.893  1.00  0.00    -0.018 C 
HETATM   29  C1  UNL     1      -5.642  12.981   2.985  1.00  0.00     0.008 C 
ENDBRANCH  27  28
ENDBRANCH  23  27
ENDBRANCH  20  21
ENDBRANCH  19  20
ENDBRANCH  18  19
ENDBRANCH  17  18
ENDBRANCH   1  17
BRANCH  16  30
HETATM   30  C32 UNL     1     -15.059  16.794  -0.551  1.00  0.00     0.070 C 
BRANCH  30  31
HETATM   31  C33 UNL     1     -15.976  17.151  -1.609  1.00  0.00     0.016 C 
HETATM   32  C34 UNL     1     -15.575  17.544  -2.957  1.00  0.00     0.015 C 
HETATM   33  C35 UNL     1     -17.000  18.240  -1.151  1.00  0.00     0.015 C 
ENDBRANCH  30  31
ENDBRANCH  16  30
BRANCH  15  34
HETATM   34  O5  UNL     1     -14.350  18.764   1.090  1.00  0.00    -0.344 OA
ATOM     35  H5  UNL     1     -13.970  18.582   1.942  1.00  0.00     0.219 HD
ENDBRANCH  15  34
BRANCH  14  36
HETATM   36  C27 UNL     1     -11.372  19.427  -0.858  1.00  0.00     0.065 C 
BRANCH  36  37
HETATM   37  C28 UNL     1     -11.701  19.946  -2.233  1.00  0.00    -0.017 C 
HETATM   38  C29 UNL     1     -13.120  20.304  -2.497  1.00  0.00     0.010 C 
HETATM   39  C30 UNL     1     -10.876  21.239  -2.388  1.00  0.00     0.010 C 
ENDBRANCH  36  37
ENDBRANCH  14  36
BRANCH   5  40
HETATM   40  C13 UNL     1      -9.515  14.876   3.636  1.00  0.00     0.001 C 
HETATM   41  C14 UNL     1      -8.158  15.484   4.019  1.00  0.00     0.005 C 
HETATM   42  C15 UNL     1      -8.016  15.449   5.516  1.00  0.00     0.000 C 
HETATM   43  C16 UNL     1      -8.945  14.426   6.132  1.00  0.00     0.000 C 
HETATM   44  C17 UNL     1      -8.963  13.160   5.328  1.00  0.00     0.000 C 
HETATM   45  C18 UNL     1      -9.357  13.391   3.886  1.00  0.00     0.005 C 
ENDBRANCH   5  40
BRANCH  11  46
HETATM   46  O4  UNL     1     -12.610  19.761   3.644  1.00  0.00    -0.348 OA
ATOM     47  H4  UNL     1     -13.501  19.912   3.352  1.00  0.00     0.219 HD
ENDBRANCH  11  46
BRANCH  10  48
HETATM   48  C21 UNL     1     -10.478  18.538   4.507  1.00  0.00     0.033 C 
BRANCH  48  49
HETATM   49  C22 UNL     1     -10.889  17.583   5.564  1.00  0.00     0.002 C 
BRANCH  49  50
HETATM   50  C23 UNL     1     -12.172  16.906   5.066  1.00  0.00    -0.004 C 
HETATM   51  C24 UNL     1     -12.207  15.457   5.444  1.00  0.00     0.005 C 
ENDBRANCH  49  50
ENDBRANCH  48  49
ENDBRANCH  10  48
TORSDOF 17
ENDMDL
MODEL 4
REMARK VINA RESULT: -7.059239938      2.382      6.799
REMARK  17 active torsions:
REMARK  status: ('A' for Active; 'I' for Inactive)
REMARK    1  A    between atoms: C2_2  and  C3_3 
REMARK    2  A    between atoms: C3_3  and  N1_4 
REMARK       I    between atoms: N1_4  and  C4_6 
REMARK       I    between atoms: C4_6  and  N2_8 
REMARK    3  A    between atoms: N2_8  and  C5_10 
REMARK    4  A    between atoms: C5_10  and  C6_11 
REMARK    5  A    between atoms: C6_11  and  C7_12 
REMARK    6  A    between atoms: C7_12  and  C8_13 
REMARK    7  A    between atoms: C8_13  and  C9_14 
REMARK    8  A    between atoms: C12_18  and  C13_19 
REMARK    9  A    between atoms: C20_29  and  C21_30 
REMARK   10  A    between atoms: C21_30  and  C22_31 
REMARK   11  A    between atoms: C22_31  and  C23_32 
REMARK   12  A    between atoms: C25_34  and  O4_35 
REMARK   13  A    between atoms: C26_39  and  C27_40 
REMARK   14  A    between atoms: C27_40  and  C28_41 
REMARK   15  A    between atoms: C31_44  and  O5_45 
REMARK   16  A    between atoms: N5_47  and  C32_48 
REMARK   17  A    between atoms: C32_48  and  C33_49 
ROOT
HETATM    1  C9  UNL     1     -12.473  16.288  -0.877  1.00  0.00     0.115 C 
HETATM    2  C10 UNL     1     -12.516  15.039   0.092  1.00  0.00     0.193 C 
HETATM    3  O2  UNL     1     -11.948  15.448   1.287  1.00  0.00    -0.388 OA
HETATM    4  C11 UNL     1     -11.080  14.549   1.831  1.00  0.00     0.182 C 
HETATM    5  C12 UNL     1      -9.764  15.137   2.273  1.00  0.00     0.105 C 
HETATM    6  C19 UNL     1      -9.558  16.512   1.836  1.00  0.00     0.225 C 
HETATM    7  O3  UNL     1      -8.896  16.588   0.721  1.00  0.00    -0.273 OA
HETATM    8  N3  UNL     1      -9.922  17.742   2.367  1.00  0.00    -0.349 N 
ATOM      9  H3  UNL     1      -9.250  18.482   2.166  1.00  0.00     0.163 HD
HETATM   10  C20 UNL     1     -11.026  18.184   3.126  1.00  0.00     0.159 C 
HETATM   11  C25 UNL     1     -11.846  19.299   2.623  1.00  0.00     0.139 C 
HETATM   12  N4  UNL     1     -12.018  19.939   1.423  1.00  0.00    -0.339 N 
ATOM     13  H4  UNL     1     -11.892  20.950   1.471  1.00  0.00     0.167 HD
HETATM   14  C26 UNL     1     -12.350  19.441   0.078  1.00  0.00     0.062 C 
HETATM   15  C31 UNL     1     -13.355  18.382   0.131  1.00  0.00     0.165 C 
HETATM   16  N5  UNL     1     -13.560  17.137  -0.517  1.00  0.00    -0.333 N 
ENDROOT
BRANCH   1  17
HETATM   17  C8  UNL     1     -12.276  15.674  -2.174  1.00  0.00     0.028 C 
BRANCH  17  18
HETATM   18  C7  UNL     1     -11.603  16.359  -3.290  1.00  0.00     0.004 C 
BRANCH  18  19
HETATM   19  C6  UNL     1     -10.101  16.404  -2.997  1.00  0.00     0.020 C 
BRANCH  19  20
HETATM   20  C5  UNL     1      -9.538  15.060  -2.653  1.00  0.00     0.124 C 
BRANCH  20  21
HETATM   21  N2  UNL     1      -9.133  14.369  -3.843  1.00  0.00    -0.343 N 
HETATM   22  C4  UNL     1      -7.814  14.321  -4.344  1.00  0.00     0.316 C 
HETATM   23  N1  UNL     1      -7.477  13.609  -5.530  1.00  0.00    -0.340 N 
HETATM   24  O1  UNL     1      -6.868  14.910  -3.763  1.00  0.00    -0.247 OA
ATOM     25  H1  UNL     1      -8.210  13.116  -6.039  1.00  0.00     0.164 HD
ATOM     26  H2  UNL     1      -9.854  13.874  -4.368  1.00  0.00     0.164 HD
BRANCH  23  27
HETATM   27  C3  UNL     1      -6.123  13.569  -6.028  1.00  0.00     0.150 C 
BRANCH  27  28
HETATM   28  C2  UNL     1      -5.478  12.242  -5.852  1.00  0.00    -0.018 C 
HETATM   29  C1  UNL     1      -4.203  12.047  -6.131  1.00  0.00     0.008 C 
ENDBRANCH  27  28
ENDBRANCH  23  27
ENDBRANCH  20  21
ENDBRANCH  19  20
ENDBRANCH  18  19
ENDBRANCH  17  18
ENDBRANCH   1  17
BRANCH  16  30
HETATM   30  C32 UNL     1     -14.939  16.740  -0.604  1.00  0.00     0.070 C 
BRANCH  30  31
HETATM   31  C33 UNL     1     -15.831  17.083  -1.687  1.00  0.00     0.016 C 
HETATM   32  C34 UNL     1     -15.398  17.561  -2.998  1.00  0.00     0.015 C 
HETATM   33  C35 UNL     1     -16.945  18.081  -1.234  1.00  0.00     0.015 C 
ENDBRANCH  30  31
ENDBRANCH  16  30
BRANCH  15  34
HETATM   34  O5  UNL     1     -14.264  18.736   1.020  1.00  0.00    -0.344 OA
ATOM     35  H5  UNL     1     -15.088  18.340   0.763  1.00  0.00     0.219 HD
ENDBRANCH  15  34
BRANCH  14  36
HETATM   36  C27 UNL     1     -11.238  19.359  -0.868  1.00  0.00     0.065 C 
BRANCH  36  37
HETATM   37  C28 UNL     1     -11.500  19.953  -2.227  1.00  0.00    -0.017 C 
HETATM   38  C29 UNL     1     -12.915  20.248  -2.574  1.00  0.00     0.010 C 
HETATM   39  C30 UNL     1     -10.745  21.297  -2.234  1.00  0.00     0.010 C 
ENDBRANCH  36  37
ENDBRANCH  14  36
BRANCH   5  40
HETATM   40  C13 UNL     1      -9.501  14.881   3.746  1.00  0.00     0.001 C 
HETATM   41  C14 UNL     1      -8.166  15.520   4.157  1.00  0.00     0.005 C 
HETATM   42  C15 UNL     1      -8.065  15.506   5.659  1.00  0.00     0.000 C 
HETATM   43  C16 UNL     1      -8.992  14.475   6.263  1.00  0.00     0.000 C 
HETATM   44  C17 UNL     1      -8.964  13.198   5.476  1.00  0.00     0.000 C 
HETATM   45  C18 UNL     1      -9.323  13.403   4.021  1.00  0.00     0.005 C 
ENDBRANCH   5  40
BRANCH  11  46
HETATM   46  O4  UNL     1     -12.581  19.774   3.596  1.00  0.00    -0.348 OA
ATOM     47  H4  UNL     1     -13.132  19.081   3.943  1.00  0.00     0.219 HD
ENDBRANCH  11  46
BRANCH  10  48
HETATM   48  C21 UNL     1     -10.474  18.560   4.531  1.00  0.00     0.033 C 
BRANCH  48  49
HETATM   49  C22 UNL     1     -10.918  17.629   5.595  1.00  0.00     0.002 C 
BRANCH  49  50
HETATM   50  C23 UNL     1     -12.209  16.972   5.090  1.00  0.00    -0.004 C 
HETATM   51  C24 UNL     1     -12.239  15.509   5.411  1.00  0.00     0.005 C 
ENDBRANCH  49  50
ENDBRANCH  48  49
ENDBRANCH  10  48
TORSDOF 17
ENDMDL
MODEL 5
REMARK VINA RESULT: -6.962682529      3.390      6.830
REMARK  17 active torsions:
REMARK  status: ('A' for Active; 'I' for Inactive)
REMARK    1  A    between atoms: C2_2  and  C3_3 
REMARK    2  A    between atoms: C3_3  and  N1_4 
REMARK       I    between atoms: N1_4  and  C4_6 
REMARK       I    between atoms: C4_6  and  N2_8 
REMARK    3  A    between atoms: N2_8  and  C5_10 
REMARK    4  A    between atoms: C5_10  and  C6_11 
REMARK    5  A    between atoms: C6_11  and  C7_12 
REMARK    6  A    between atoms: C7_12  and  C8_13 
REMARK    7  A    between atoms: C8_13  and  C9_14 
REMARK    8  A    between atoms: C12_18  and  C13_19 
REMARK    9  A    between atoms: C20_29  and  C21_30 
REMARK   10  A    between atoms: C21_30  and  C22_31 
REMARK   11  A    between atoms: C22_31  and  C23_32 
REMARK   12  A    between atoms: C25_34  and  O4_35 
REMARK   13  A    between atoms: C26_39  and  C27_40 
REMARK   14  A    between atoms: C27_40  and  C28_41 
REMARK   15  A    between atoms: C31_44  and  O5_45 
REMARK   16  A    between atoms: N5_47  and  C32_48 
REMARK   17  A    between atoms: C32_48  and  C33_49 
ROOT
HETATM    1  C9  UNL     1      -9.322  15.610  -2.426  1.00  0.00     0.115 C 
HETATM    2  C10 UNL     1      -9.165  15.019  -3.884  1.00  0.00     0.193 C 
HETATM    3  O2  UNL     1      -8.372  13.890  -3.768  1.00  0.00    -0.388 OA
HETATM    4  C11 UNL     1      -7.409  13.781  -4.727  1.00  0.00     0.182 C 
HETATM    5  C12 UNL     1      -6.033  13.460  -4.200  1.00  0.00     0.105 C 
HETATM    6  C19 UNL     1      -5.923  13.548  -2.750  1.00  0.00     0.225 C 
HETATM    7  O3  UNL     1      -5.498  14.708  -2.350  1.00  0.00    -0.273 OA
HETATM    8  N3  UNL     1      -6.178  12.650  -1.722  1.00  0.00    -0.349 N 
ATOM      9  H3  UNL     1      -5.563  12.772  -0.918  1.00  0.00     0.163 HD
HETATM   10  C20 UNL     1      -7.110  11.603  -1.555  1.00  0.00     0.159 C 
HETATM   11  C25 UNL     1      -8.017  11.625  -0.395  1.00  0.00     0.139 C 
HETATM   12  N4  UNL     1      -8.428  12.556   0.523  1.00  0.00    -0.339 N 
ATOM     13  H4  UNL     1      -8.298  12.267   1.493  1.00  0.00     0.167 HD
HETATM   14  C26 UNL     1      -9.021  13.895   0.373  1.00  0.00     0.062 C 
HETATM   15  C31 UNL     1      -9.990  13.933  -0.718  1.00  0.00     0.165 C 
HETATM   16  N5  UNL     1     -10.318  14.836  -1.762  1.00  0.00    -0.333 N 
ENDROOT
BRANCH   1  17
HETATM   17  C8  UNL     1      -9.386  17.037  -2.671  1.00  0.00     0.028 C 
BRANCH  17  18
HETATM   18  C7  UNL     1      -9.733  18.013  -1.625  1.00  0.00     0.004 C 
BRANCH  18  19
HETATM   19  C6  UNL     1     -10.523  19.156  -2.271  1.00  0.00     0.020 C 
BRANCH  19  20
HETATM   20  C5  UNL     1     -11.298  19.959  -1.272  1.00  0.00     0.124 C 
BRANCH  20  21
HETATM   21  N2  UNL     1     -10.894  19.621   0.062  1.00  0.00    -0.343 N 
HETATM   22  C4  UNL     1     -11.742  19.619   1.190  1.00  0.00     0.316 C 
HETATM   23  N1  UNL     1     -11.278  19.265   2.489  1.00  0.00    -0.340 N 
HETATM   24  O1  UNL     1     -12.955  19.933   1.102  1.00  0.00    -0.247 OA
ATOM     25  H1  UNL     1     -10.300  19.003   2.613  1.00  0.00     0.164 HD
ATOM     26  H2  UNL     1      -9.918  19.361   0.207  1.00  0.00     0.164 HD
BRANCH  23  27
HETATM   27  C3  UNL     1     -12.158  19.267   3.633  1.00  0.00     0.150 C 
BRANCH  27  28
HETATM   28  C2  UNL     1     -11.429  19.271   4.928  1.00  0.00    -0.018 C 
HETATM   29  C1  UNL     1     -10.369  18.511   5.130  1.00  0.00     0.008 C 
ENDBRANCH  27  28
ENDBRANCH  23  27
ENDBRANCH  20  21
ENDBRANCH  19  20
ENDBRANCH  18  19
ENDBRANCH  17  18
ENDBRANCH   1  17
BRANCH  16  30
HETATM   30  C32 UNL     1     -11.684  14.759  -2.200  1.00  0.00     0.070 C 
BRANCH  30  31
HETATM   31  C33 UNL     1     -12.734  15.664  -1.794  1.00  0.00     0.016 C 
HETATM   32  C34 UNL     1     -13.185  16.815  -2.572  1.00  0.00     0.015 C 
HETATM   33  C35 UNL     1     -12.508  16.210  -0.346  1.00  0.00     0.015 C 
ENDBRANCH  30  31
ENDBRANCH  16  30
BRANCH  15  34
HETATM   34  O5  UNL     1     -10.705  12.825  -0.658  1.00  0.00    -0.344 OA
ATOM     35  H5  UNL     1     -11.485  13.012  -0.149  1.00  0.00     0.219 HD
ENDBRANCH  15  34
BRANCH  14  36
HETATM   36  C27 UNL     1      -8.120  15.025   0.602  1.00  0.00     0.065 C 
BRANCH  36  37
HETATM   37  C28 UNL     1      -8.432  15.867   1.810  1.00  0.00    -0.017 C 
HETATM   38  C29 UNL     1      -9.866  16.021   2.173  1.00  0.00     0.010 C 
HETATM   39  C30 UNL     1      -7.744  15.154   2.991  1.00  0.00     0.010 C 
ENDBRANCH  36  37
ENDBRANCH  14  36
BRANCH   5  40
HETATM   40  C13 UNL     1      -5.480  12.186  -4.814  1.00  0.00     0.001 C 
HETATM   41  C14 UNL     1      -4.694  12.520  -6.090  1.00  0.00     0.005 C 
HETATM   42  C15 UNL     1      -3.922  11.301  -6.517  1.00  0.00     0.000 C 
HETATM   43  C16 UNL     1      -4.508  10.042  -5.916  1.00  0.00     0.000 C 
HETATM   44  C17 UNL     1      -6.007  10.066  -5.971  1.00  0.00     0.000 C 
HETATM   45  C18 UNL     1      -6.597  11.273  -5.277  1.00  0.00     0.005 C 
ENDBRANCH   5  40
BRANCH  11  46
HETATM   46  O4  UNL     1      -8.544  10.438  -0.232  1.00  0.00    -0.348 OA
ATOM     47  H4  UNL     1      -8.984  10.401   0.610  1.00  0.00     0.219 HD
ENDBRANCH  11  46
BRANCH  10  48
HETATM   48  C21 UNL     1      -6.289  10.282  -1.526  1.00  0.00     0.033 C 
BRANCH  48  49
HETATM   49  C22 UNL     1      -4.886  10.482  -1.092  1.00  0.00     0.002 C 
BRANCH  49  50
HETATM   50  C23 UNL     1      -4.000   9.914  -2.207  1.00  0.00    -0.004 C 
HETATM   51  C24 UNL     1      -2.917  10.878  -2.589  1.00  0.00     0.005 C 
ENDBRANCH  49  50
ENDBRANCH  48  49
ENDBRANCH  10  48
TORSDOF 17
ENDMDL
