MODEL 1
REMARK VINA RESULT: -7.248182128      0.000      0.000
REMARK  16 active torsions:
REMARK  status: ('A' for Active; 'I' for Inactive)
REMARK    1  A    between atoms: C2_2  and  C3_3 
REMARK    2  A    between atoms: C3_3  and  C4_4 
REMARK    3  A    between atoms: C4_4  and  C5_5 
REMARK    4  A    between atoms: C5_5  and  C6_6 
REMARK    5  A    between atoms: C6_6  and  C7_7 
REMARK    6  A    between atoms: C7_7  and  C8_8 
REMARK    7  A    between atoms: C8_8  and  N1_9 
REMARK    8  A    between atoms: C8_8  and  C24_32 
REMARK       I    between atoms: N1_9  and  C9_11 
REMARK    9  A    between atoms: C9_11  and  C10_13 
REMARK   10  A    between atoms: C10_13  and  C11_14 
REMARK   11  A    between atoms: C10_13  and  N2_20 
REMARK   12  A    between atoms: C11_14  and  C12_15 
REMARK       I    between atoms: N2_20  and  C17_22 
REMARK       I    between atoms: C17_22  and  N3_24 
REMARK   13  A    between atoms: N3_24  and  C18_26 
REMARK       I    between atoms: C24_32  and  N4_34 
REMARK       I    between atoms: N5_37  and  C27_38 
REMARK   14  A    between atoms: C27_38  and  C28_40 
REMARK   15  A    between atoms: C28_40  and  C30_42 
REMARK   16  A    between atoms: C32_44  and  C33_45 
ROOT
HETATM    1  C8  UNL     1      -7.467  14.030   3.328  1.00  0.00     0.176 C 
ENDROOT
BRANCH   1   2
HETATM    2  C7  UNL     1      -8.182  14.345   4.651  1.00  0.00     0.035 C 
BRANCH   2   3
HETATM    3  C6  UNL     1      -8.203  15.824   4.911  1.00  0.00     0.002 C 
BRANCH   3   4
HETATM    4  C5  UNL     1      -9.422  16.285   5.686  1.00  0.00     0.000 C 
BRANCH   4   5
HETATM    5  C4  UNL     1     -10.652  15.502   5.311  1.00  0.00     0.000 C 
BRANCH   5   6
HETATM    6  C3  UNL     1     -11.912  16.203   5.702  1.00  0.00    -0.000 C 
BRANCH   6   7
HETATM    7  C2  UNL     1     -11.600  17.479   6.439  1.00  0.00    -0.005 C 
HETATM    8  C1  UNL     1     -12.725  18.452   6.071  1.00  0.00     0.005 C 
ENDBRANCH   6   7
ENDBRANCH   5   6
ENDBRANCH   4   5
ENDBRANCH   3   4
ENDBRANCH   2   3
ENDBRANCH   1   2
BRANCH   1   9
HETATM    9  N1  UNL     1      -8.406  14.303   2.223  1.00  0.00    -0.346 N 
HETATM   10  C9  UNL     1      -8.178  15.298   1.253  1.00  0.00     0.241 C 
HETATM   11  O1  UNL     1      -7.117  15.992   1.351  1.00  0.00    -0.271 OA
ATOM     12  H1  UNL     1      -9.257  13.745   2.158  1.00  0.00     0.163 HD
BRANCH  10  13
HETATM   13  C10 UNL     1      -9.081  15.618   0.115  1.00  0.00     0.178 C 
BRANCH  13  14
HETATM   14  C11 UNL     1      -9.863  16.829   0.430  1.00  0.00     0.039 C 
BRANCH  14  15
HETATM   15  C12 UNL     1     -10.576  16.819   1.746  1.00  0.00    -0.012 C 
HETATM   16  C13 UNL     1     -12.063  16.658   1.431  1.00  0.00     0.005 C 
HETATM   17  C14 UNL     1     -12.813  17.515   2.398  1.00  0.00     0.000 C 
HETATM   18  C15 UNL     1     -11.873  18.676   2.620  1.00  0.00     0.000 C 
HETATM   19  C16 UNL     1     -10.466  18.078   2.534  1.00  0.00     0.005 C 
ENDBRANCH  14  15
ENDBRANCH  13  14
BRANCH  13  20
HETATM   20  N2  UNL     1      -8.347  15.669  -1.129  1.00  0.00    -0.330 N 
HETATM   21  C17 UNL     1      -8.233  14.592  -2.038  1.00  0.00     0.317 C 
HETATM   22  O2  UNL     1      -8.796  13.504  -1.780  1.00  0.00    -0.247 OA
HETATM   23  N3  UNL     1      -7.479  14.735  -3.252  1.00  0.00    -0.339 N 
ATOM     24  H3  UNL     1      -7.041  15.638  -3.433  1.00  0.00     0.164 HD
ATOM     25  H2  UNL     1      -7.878  16.542  -1.368  1.00  0.00     0.165 HD
BRANCH  23  26
HETATM   26  C18 UNL     1      -7.297  13.699  -4.231  1.00  0.00     0.086 C 
HETATM   27  C19 UNL     1      -5.985  13.913  -4.975  1.00  0.00     0.025 C 
HETATM   28  C20 UNL     1      -5.680  12.809  -5.923  1.00  0.00     0.002 C 
HETATM   29  C21 UNL     1      -6.892  11.942  -6.151  1.00  0.00     0.000 C 
HETATM   30  C22 UNL     1      -8.088  12.825  -6.387  1.00  0.00     0.002 C 
HETATM   31  C23 UNL     1      -8.472  13.660  -5.208  1.00  0.00     0.025 C 
ENDBRANCH  23  26
ENDBRANCH  13  20
ENDBRANCH  10  13
ENDBRANCH   1   9
BRANCH   1  32
HETATM   32  C24 UNL     1      -7.132  12.601   3.340  1.00  0.00     0.242 C 
HETATM   33  O3  UNL     1      -8.011  11.794   3.825  1.00  0.00    -0.271 OA
HETATM   34  N4  UNL     1      -5.957  11.986   2.884  1.00  0.00    -0.346 N 
HETATM   35  C25 UNL     1      -4.906  12.742   2.276  1.00  0.00     0.145 C 
HETATM   36  C34 UNL     1      -5.734  10.543   3.015  1.00  0.00     0.162 C 
HETATM   37  C26 UNL     1      -4.131  11.966   1.239  1.00  0.00     0.147 C 
HETATM   38  N5  UNL     1      -4.730  10.728   0.843  1.00  0.00    -0.334 N 
HETATM   39  C27 UNL     1      -4.374  10.245  -0.463  1.00  0.00     0.224 C 
HETATM   40  C32 UNL     1      -5.626   9.944   1.633  1.00  0.00     0.206 C 
HETATM   41  O4  UNL     1      -4.882   9.164  -0.850  1.00  0.00    -0.273 OA
BRANCH  39  42
HETATM   42  C28 UNL     1      -3.445  10.948  -1.366  1.00  0.00     0.074 C 
HETATM   43  C29 UNL     1      -2.226  10.122  -1.693  1.00  0.00     0.020 C 
BRANCH  42  44
HETATM   44  C30 UNL     1      -4.161  11.332  -2.660  1.00  0.00     0.009 C 
HETATM   45  C31 UNL     1      -3.330  10.948  -3.853  1.00  0.00     0.006 C 
ENDBRANCH  42  44
ENDBRANCH  39  42
BRANCH  40  46
HETATM   46  C33 UNL     1      -6.996   9.851   1.026  1.00  0.00     0.198 C 
HETATM   47  O5  UNL     1      -7.593   8.749   1.270  1.00  0.00    -0.646 OA
HETATM   48  O6  UNL     1      -7.565  10.853   0.275  1.00  0.00    -0.646 OA
ENDBRANCH  40  46
ENDBRANCH   1  32
TORSDOF 16
ENDMDL
MODEL 2
REMARK VINA RESULT: -7.153568642      2.431      7.912
REMARK  16 active torsions:
REMARK  status: ('A' for Active; 'I' for Inactive)
REMARK    1  A    between atoms: C2_2  and  C3_3 
REMARK    2  A    between atoms: C3_3  and  C4_4 
REMARK    3  A    between atoms: C4_4  and  C5_5 
REMARK    4  A    between atoms: C5_5  and  C6_6 
REMARK    5  A    between atoms: C6_6  and  C7_7 
REMARK    6  A    between atoms: C7_7  and  C8_8 
REMARK    7  A    between atoms: C8_8  and  N1_9 
REMARK    8  A    between atoms: C8_8  and  C24_32 
REMARK       I    between atoms: N1_9  and  C9_11 
REMARK    9  A    between atoms: C9_11  and  C10_13 
REMARK   10  A    between atoms: C10_13  and  C11_14 
REMARK   11  A    between atoms: C10_13  and  N2_20 
REMARK   12  A    between atoms: C11_14  and  C12_15 
REMARK       I    between atoms: N2_20  and  C17_22 
REMARK       I    between atoms: C17_22  and  N3_24 
REMARK   13  A    between atoms: N3_24  and  C18_26 
REMARK       I    between atoms: C24_32  and  N4_34 
REMARK       I    between atoms: N5_37  and  C27_38 
REMARK   14  A    between atoms: C27_38  and  C28_40 
REMARK   15  A    between atoms: C28_40  and  C30_42 
REMARK   16  A    between atoms: C32_44  and  C33_45 
ROOT
HETATM    1  C8  UNL     1     -10.320  15.118  -1.498  1.00  0.00     0.176 C 
ENDROOT
BRANCH   1   2
HETATM    2  C7  UNL     1     -10.799  14.458  -2.800  1.00  0.00     0.035 C 
BRANCH   2   3
HETATM    3  C6  UNL     1     -10.767  15.434  -3.941  1.00  0.00     0.002 C 
BRANCH   3   4
HETATM    4  C5  UNL     1      -9.865  15.001  -5.082  1.00  0.00     0.000 C 
BRANCH   4   5
HETATM    5  C4  UNL     1      -8.538  14.493  -4.583  1.00  0.00     0.000 C 
BRANCH   5   6
HETATM    6  C3  UNL     1      -8.208  13.141  -5.127  1.00  0.00    -0.000 C 
BRANCH   6   7
HETATM    7  C2  UNL     1      -7.608  13.257  -6.504  1.00  0.00    -0.005 C 
HETATM    8  C1  UNL     1      -8.246  12.133  -7.326  1.00  0.00     0.005 C 
ENDBRANCH   6   7
ENDBRANCH   5   6
ENDBRANCH   4   5
ENDBRANCH   3   4
ENDBRANCH   2   3
ENDBRANCH   1   2
BRANCH   1   9
HETATM    9  N1  UNL     1      -9.146  14.370  -1.010  1.00  0.00    -0.346 N 
HETATM   10  C9  UNL     1      -7.904  14.979  -0.750  1.00  0.00     0.241 C 
HETATM   11  O1  UNL     1      -7.799  16.228  -0.959  1.00  0.00    -0.271 OA
ATOM     12  H1  UNL     1      -9.240  13.366  -0.852  1.00  0.00     0.163 HD
BRANCH  10  13
HETATM   13  C10 UNL     1      -6.687  14.282  -0.253  1.00  0.00     0.178 C 
BRANCH  13  14
HETATM   14  C11 UNL     1      -6.779  14.113   1.210  1.00  0.00     0.039 C 
BRANCH  14  15
HETATM   15  C12 UNL     1      -6.313  12.793   1.742  1.00  0.00    -0.012 C 
HETATM   16  C13 UNL     1      -7.568  11.950   1.967  1.00  0.00     0.005 C 
HETATM   17  C14 UNL     1      -7.355  11.168   3.222  1.00  0.00     0.000 C 
HETATM   18  C15 UNL     1      -6.512  12.099   4.060  1.00  0.00     0.000 C 
HETATM   19  C16 UNL     1      -5.626  12.851   3.062  1.00  0.00     0.005 C 
ENDBRANCH  14  15
ENDBRANCH  13  14
BRANCH  13  20
HETATM   20  N2  UNL     1      -6.446  13.067  -0.997  1.00  0.00    -0.330 N 
HETATM   21  C17 UNL     1      -5.814  13.012  -2.260  1.00  0.00     0.317 C 
HETATM   22  O2  UNL     1      -5.422  14.071  -2.801  1.00  0.00    -0.247 OA
HETATM   23  N3  UNL     1      -5.618  11.755  -2.927  1.00  0.00    -0.339 N 
ATOM     24  H3  UNL     1      -5.944  10.912  -2.453  1.00  0.00     0.164 HD
ATOM     25  H2  UNL     1      -6.754  12.188  -0.582  1.00  0.00     0.165 HD
BRANCH  23  26
HETATM   26  C18 UNL     1      -4.998  11.597  -4.213  1.00  0.00     0.086 C 
HETATM   27  C19 UNL     1      -5.673  10.467  -4.980  1.00  0.00     0.025 C 
HETATM   28  C20 UNL     1      -5.154  10.328  -6.367  1.00  0.00     0.002 C 
HETATM   29  C21 UNL     1      -3.876  11.107  -6.545  1.00  0.00     0.000 C 
HETATM   30  C22 UNL     1      -2.969  10.837  -5.374  1.00  0.00     0.002 C 
HETATM   31  C23 UNL     1      -3.500  11.331  -4.066  1.00  0.00     0.025 C 
ENDBRANCH  23  26
ENDBRANCH  13  20
ENDBRANCH  10  13
ENDBRANCH   1   9
BRANCH   1  32
HETATM   32  C24 UNL     1     -11.410  15.005  -0.523  1.00  0.00     0.242 C 
HETATM   33  O3  UNL     1     -12.239  14.031  -0.675  1.00  0.00    -0.271 OA
HETATM   34  N4  UNL     1     -11.674  15.835   0.577  1.00  0.00    -0.346 N 
HETATM   35  C25 UNL     1     -10.818  16.932   0.907  1.00  0.00     0.145 C 
HETATM   36  C34 UNL     1     -12.844  15.635   1.439  1.00  0.00     0.162 C 
HETATM   37  C26 UNL     1     -10.769  17.232   2.386  1.00  0.00     0.147 C 
HETATM   38  N5  UNL     1     -11.350  16.226   3.221  1.00  0.00    -0.334 N 
HETATM   39  C27 UNL     1     -10.863  16.171   4.573  1.00  0.00     0.224 C 
HETATM   40  C32 UNL     1     -12.365  15.299   2.831  1.00  0.00     0.206 C 
HETATM   41  O4  UNL     1     -11.343  15.299   5.338  1.00  0.00    -0.273 OA
BRANCH  39  42
HETATM   42  C28 UNL     1      -9.834  17.083   5.105  1.00  0.00     0.074 C 
HETATM   43  C29 UNL     1     -10.384  18.021   6.151  1.00  0.00     0.020 C 
BRANCH  42  44
HETATM   44  C30 UNL     1      -8.678  16.281   5.700  1.00  0.00     0.009 C 
HETATM   45  C31 UNL     1      -7.956  15.522   4.621  1.00  0.00     0.006 C 
ENDBRANCH  42  44
ENDBRANCH  39  42
BRANCH  40  46
HETATM   46  C33 UNL     1     -11.886  13.877   2.859  1.00  0.00     0.198 C 
HETATM   47  O5  UNL     1     -12.797  13.032   3.154  1.00  0.00    -0.646 OA
HETATM   48  O6  UNL     1     -10.588  13.505   2.594  1.00  0.00    -0.646 OA
ENDBRANCH  40  46
ENDBRANCH   1  32
TORSDOF 16
ENDMDL
MODEL 3
REMARK VINA RESULT: -7.149428181      2.260      9.929
REMARK  16 active torsions:
REMARK  status: ('A' for Active; 'I' for Inactive)
REMARK    1  A    between atoms: C2_2  and  C3_3 
REMARK    2  A    between atoms: C3_3  and  C4_4 
REMARK    3  A    between atoms: C4_4  and  C5_5 
REMARK    4  A    between atoms: C5_5  and  C6_6 
REMARK    5  A    between atoms: C6_6  and  C7_7 
REMARK    6  A    between atoms: C7_7  and  C8_8 
REMARK    7  A    between atoms: C8_8  and  N1_9 
REMARK    8  A    between atoms: C8_8  and  C24_32 
REMARK       I    between atoms: N1_9  and  C9_11 
REMARK    9  A    between atoms: C9_11  and  C10_13 
REMARK   10  A    between atoms: C10_13  and  C11_14 
REMARK   11  A    between atoms: C10_13  and  N2_20 
REMARK   12  A    between atoms: C11_14  and  C12_15 
REMARK       I    between atoms: N2_20  and  C17_22 
REMARK       I    between atoms: C17_22  and  N3_24 
REMARK   13  A    between atoms: N3_24  and  C18_26 
REMARK       I    between atoms: C24_32  and  N4_34 
REMARK       I    between atoms: N5_37  and  C27_38 
REMARK   14  A    between atoms: C27_38  and  C28_40 
REMARK   15  A    between atoms: C28_40  and  C30_42 
REMARK   16  A    between atoms: C32_44  and  C33_45 
ROOT
HETATM    1  C8  UNL     1      -7.002  14.414  -3.817  1.00  0.00     0.176 C 
ENDROOT
BRANCH   1   2
HETATM    2  C7  UNL     1      -6.392  13.914  -5.136  1.00  0.00     0.035 C 
BRANCH   2   3
HETATM    3  C6  UNL     1      -5.731  12.578  -4.949  1.00  0.00     0.002 C 
BRANCH   3   4
HETATM    4  C5  UNL     1      -6.221  11.521  -5.920  1.00  0.00     0.000 C 
BRANCH   4   5
HETATM    5  C4  UNL     1      -5.088  10.690  -6.461  1.00  0.00     0.000 C 
BRANCH   5   6
HETATM    6  C3  UNL     1      -3.757  11.328  -6.231  1.00  0.00    -0.000 C 
BRANCH   6   7
HETATM    7  C2  UNL     1      -2.768  10.317  -5.712  1.00  0.00    -0.005 C 
HETATM    8  C1  UNL     1      -3.336   8.949  -6.103  1.00  0.00     0.005 C 
ENDBRANCH   6   7
ENDBRANCH   5   6
ENDBRANCH   4   5
ENDBRANCH   3   4
ENDBRANCH   2   3
ENDBRANCH   1   2
BRANCH   1   9
HETATM    9  N1  UNL     1      -6.720  13.412  -2.773  1.00  0.00    -0.346 N 
HETATM   10  C9  UNL     1      -6.464  13.754  -1.432  1.00  0.00     0.241 C 
HETATM   11  O1  UNL     1      -6.470  14.987  -1.121  1.00  0.00    -0.271 OA
ATOM     12  H1  UNL     1      -6.711  12.425  -3.034  1.00  0.00     0.163 HD
BRANCH  10  13
HETATM   13  C10 UNL     1      -6.179  12.792  -0.333  1.00  0.00     0.178 C 
BRANCH  13  14
HETATM   14  C11 UNL     1      -4.967  12.016  -0.658  1.00  0.00     0.039 C 
BRANCH  14  15
HETATM   15  C12 UNL     1      -5.184  10.564  -0.951  1.00  0.00    -0.012 C 
HETATM   16  C13 UNL     1      -4.500  10.287  -2.291  1.00  0.00     0.005 C 
HETATM   17  C14 UNL     1      -5.369   9.329  -3.039  1.00  0.00     0.000 C 
HETATM   18  C15 UNL     1      -6.759   9.714  -2.592  1.00  0.00     0.000 C 
HETATM   19  C16 UNL     1      -6.605  10.161  -1.135  1.00  0.00     0.005 C 
ENDBRANCH  14  15
ENDBRANCH  13  14
BRANCH  13  20
HETATM   20  N2  UNL     1      -6.153  13.462   0.947  1.00  0.00    -0.330 N 
HETATM   21  C17 UNL     1      -7.265  13.586   1.812  1.00  0.00     0.317 C 
HETATM   22  O2  UNL     1      -8.365  13.091   1.477  1.00  0.00    -0.247 OA
HETATM   23  N3  UNL     1      -7.144  14.272   3.067  1.00  0.00    -0.339 N 
ATOM     24  H3  UNL     1      -6.230  14.656   3.310  1.00  0.00     0.164 HD
ATOM     25  H2  UNL     1      -5.270  13.875   1.248  1.00  0.00     0.165 HD
BRANCH  23  26
HETATM   26  C18 UNL     1      -8.215  14.459   4.006  1.00  0.00     0.086 C 
HETATM   27  C19 UNL     1      -8.071  15.810   4.696  1.00  0.00     0.025 C 
HETATM   28  C20 UNL     1      -9.214  16.115   5.597  1.00  0.00     0.002 C 
HETATM   29  C21 UNL     1     -10.043  14.882   5.854  1.00  0.00     0.000 C 
HETATM   30  C22 UNL     1      -9.125  13.732   6.171  1.00  0.00     0.002 C 
HETATM   31  C23 UNL     1      -8.241  13.327   5.034  1.00  0.00     0.025 C 
ENDBRANCH  23  26
ENDBRANCH  13  20
ENDBRANCH  10  13
ENDBRANCH   1   9
BRANCH   1  32
HETATM   32  C24 UNL     1      -8.452  14.516  -4.017  1.00  0.00     0.242 C 
HETATM   33  O3  UNL     1      -9.054  13.486  -4.502  1.00  0.00    -0.271 OA
HETATM   34  N4  UNL     1      -9.287  15.609  -3.741  1.00  0.00    -0.346 N 
HETATM   35  C25 UNL     1      -8.777  16.809  -3.154  1.00  0.00     0.145 C 
HETATM   36  C34 UNL     1     -10.721  15.589  -4.049  1.00  0.00     0.162 C 
HETATM   37  C26 UNL     1      -9.780  17.526  -2.284  1.00  0.00     0.147 C 
HETATM   38  N5  UNL     1     -10.953  16.769  -1.972  1.00  0.00    -0.334 N 
HETATM   39  C27 UNL     1     -11.640  17.140  -0.765  1.00  0.00     0.224 C 
HETATM   40  C32 UNL     1     -11.493  15.703  -2.756  1.00  0.00     0.206 C 
HETATM   41  O4  UNL     1     -12.672  16.497  -0.452  1.00  0.00    -0.273 OA
BRANCH  39  42
HETATM   42  C28 UNL     1     -11.199  18.234   0.120  1.00  0.00     0.074 C 
HETATM   43  C29 UNL     1     -12.239  19.317   0.255  1.00  0.00     0.020 C 
BRANCH  42  44
HETATM   44  C30 UNL     1     -10.854  17.684   1.503  1.00  0.00     0.009 C 
HETATM   45  C31 UNL     1      -9.614  16.836   1.437  1.00  0.00     0.006 C 
ENDBRANCH  42  44
ENDBRANCH  39  42
BRANCH  40  46
HETATM   46  C33 UNL     1     -11.454  14.385  -2.039  1.00  0.00     0.198 C 
HETATM   47  O5  UNL     1     -12.378  13.578  -2.392  1.00  0.00    -0.646 OA
HETATM   48  O6  UNL     1     -10.514  14.065  -1.085  1.00  0.00    -0.646 OA
ENDBRANCH  40  46
ENDBRANCH   1  32
TORSDOF 16
ENDMDL
MODEL 4
REMARK VINA RESULT: -7.146791073      2.191      7.966
REMARK  16 active torsions:
REMARK  status: ('A' for Active; 'I' for Inactive)
REMARK    1  A    between atoms: C2_2  and  C3_3 
REMARK    2  A    between atoms: C3_3  and  C4_4 
REMARK    3  A    between atoms: C4_4  and  C5_5 
REMARK    4  A    between atoms: C5_5  and  C6_6 
REMARK    5  A    between atoms: C6_6  and  C7_7 
REMARK    6  A    between atoms: C7_7  and  C8_8 
REMARK    7  A    between atoms: C8_8  and  N1_9 
REMARK    8  A    between atoms: C8_8  and  C24_32 
REMARK       I    between atoms: N1_9  and  C9_11 
REMARK    9  A    between atoms: C9_11  and  C10_13 
REMARK   10  A    between atoms: C10_13  and  C11_14 
REMARK   11  A    between atoms: C10_13  and  N2_20 
REMARK   12  A    between atoms: C11_14  and  C12_15 
REMARK       I    between atoms: N2_20  and  C17_22 
REMARK       I    between atoms: C17_22  and  N3_24 
REMARK   13  A    between atoms: N3_24  and  C18_26 
REMARK       I    between atoms: C24_32  and  N4_34 
REMARK       I    between atoms: N5_37  and  C27_38 
REMARK   14  A    between atoms: C27_38  and  C28_40 
REMARK   15  A    between atoms: C28_40  and  C30_42 
REMARK   16  A    between atoms: C32_44  and  C33_45 
ROOT
HETATM    1  C8  UNL     1      -8.958  16.151  -1.512  1.00  0.00     0.176 C 
ENDROOT
BRANCH   1   2
HETATM    2  C7  UNL     1      -9.045  16.181  -3.046  1.00  0.00     0.035 C 
BRANCH   2   3
HETATM    3  C6  UNL     1      -8.207  15.091  -3.652  1.00  0.00     0.002 C 
BRANCH   3   4
HETATM    4  C5  UNL     1      -8.922  14.312  -4.739  1.00  0.00     0.000 C 
BRANCH   4   5
HETATM    5  C4  UNL     1      -8.154  13.082  -5.144  1.00  0.00     0.000 C 
BRANCH   5   6
HETATM    6  C3  UNL     1      -7.688  13.146  -6.562  1.00  0.00    -0.000 C 
BRANCH   6   7
HETATM    7  C2  UNL     1      -8.256  11.999  -7.357  1.00  0.00    -0.005 C 
HETATM    8  C1  UNL     1      -8.854  11.039  -6.325  1.00  0.00     0.005 C 
ENDBRANCH   6   7
ENDBRANCH   5   6
ENDBRANCH   4   5
ENDBRANCH   3   4
ENDBRANCH   2   3
ENDBRANCH   1   2
BRANCH   1   9
HETATM    9  N1  UNL     1      -7.995  15.102  -1.127  1.00  0.00    -0.346 N 
HETATM   10  C9  UNL     1      -6.870  15.355  -0.320  1.00  0.00     0.241 C 
HETATM   11  O1  UNL     1      -6.682  16.546   0.082  1.00  0.00    -0.271 OA
ATOM     12  H1  UNL     1      -8.151  14.151  -1.461  1.00  0.00     0.163 HD
BRANCH  10  13
HETATM   13  C10 UNL     1      -5.867  14.342   0.107  1.00  0.00     0.178 C 
BRANCH  13  14
HETATM   14  C11 UNL     1      -6.539  13.273   0.870  1.00  0.00     0.039 C 
BRANCH  14  15
HETATM   15  C12 UNL     1      -6.088  13.104   2.288  1.00  0.00    -0.012 C 
HETATM   16  C13 UNL     1      -6.105  11.602   2.571  1.00  0.00     0.005 C 
HETATM   17  C14 UNL     1      -6.591  11.424   3.973  1.00  0.00     0.000 C 
HETATM   18  C15 UNL     1      -7.561  12.569   4.142  1.00  0.00     0.000 C 
HETATM   19  C16 UNL     1      -6.980  13.717   3.311  1.00  0.00     0.005 C 
ENDBRANCH  14  15
ENDBRANCH  13  14
BRANCH  13  20
HETATM   20  N2  UNL     1      -5.079  13.890  -1.017  1.00  0.00    -0.330 N 
HETATM   21  C17 UNL     1      -5.516  12.950  -1.978  1.00  0.00     0.317 C 
HETATM   22  O2  UNL     1      -6.661  12.454  -1.879  1.00  0.00    -0.247 OA
HETATM   23  N3  UNL     1      -4.661  12.558  -3.063  1.00  0.00    -0.339 N 
ATOM     24  H3  UNL     1      -3.737  12.989  -3.115  1.00  0.00     0.164 HD
ATOM     25  H2  UNL     1      -4.141  14.276  -1.125  1.00  0.00     0.165 HD
BRANCH  23  26
HETATM   26  C18 UNL     1      -5.010  11.605  -4.080  1.00  0.00     0.086 C 
HETATM   27  C19 UNL     1      -4.471  10.229  -3.708  1.00  0.00     0.025 C 
HETATM   28  C20 UNL     1      -4.898   9.172  -4.663  1.00  0.00     0.002 C 
HETATM   29  C21 UNL     1      -5.464   9.779  -5.922  1.00  0.00     0.000 C 
HETATM   30  C22 UNL     1      -4.554  10.885  -6.385  1.00  0.00     0.002 C 
HETATM   31  C23 UNL     1      -4.476  12.044  -5.443  1.00  0.00     0.025 C 
ENDBRANCH  23  26
ENDBRANCH  13  20
ENDBRANCH  10  13
ENDBRANCH   1   9
BRANCH   1  32
HETATM   32  C24 UNL     1     -10.289  15.800  -1.005  1.00  0.00     0.242 C 
HETATM   33  O3  UNL     1     -10.960  14.923  -1.668  1.00  0.00    -0.271 OA
HETATM   34  N4  UNL     1     -10.941  16.302   0.131  1.00  0.00    -0.346 N 
HETATM   35  C25 UNL     1     -10.308  17.247   0.998  1.00  0.00     0.145 C 
HETATM   36  C34 UNL     1     -12.306  15.900   0.486  1.00  0.00     0.162 C 
HETATM   37  C26 UNL     1     -10.747  17.129   2.437  1.00  0.00     0.147 C 
HETATM   38  N5  UNL     1     -11.491  15.946   2.743  1.00  0.00    -0.334 N 
HETATM   39  C27 UNL     1     -11.451  15.512   4.113  1.00  0.00     0.224 C 
HETATM   40  C32 UNL     1     -12.267  15.185   1.815  1.00  0.00     0.206 C 
HETATM   41  O4  UNL     1     -12.088  14.475   4.422  1.00  0.00    -0.273 OA
BRANCH  39  42
HETATM   42  C28 UNL     1     -10.706  16.220   5.169  1.00  0.00     0.074 C 
HETATM   43  C29 UNL     1     -11.617  16.807   6.219  1.00  0.00     0.020 C 
BRANCH  42  44
HETATM   44  C30 UNL     1      -9.709  15.273   5.834  1.00  0.00     0.009 C 
HETATM   45  C31 UNL     1      -8.358  15.924   5.945  1.00  0.00     0.006 C 
ENDBRANCH  42  44
ENDBRANCH  39  42
BRANCH  40  46
HETATM   46  C33 UNL     1     -11.726  13.799   1.616  1.00  0.00     0.198 C 
HETATM   47  O5  UNL     1     -12.627  12.921   1.394  1.00  0.00    -0.646 OA
HETATM   48  O6  UNL     1     -10.386  13.490   1.666  1.00  0.00    -0.646 OA
ENDBRANCH  40  46
ENDBRANCH   1  32
TORSDOF 16
ENDMDL
MODEL 5
REMARK VINA RESULT: -7.140931165      2.161      6.032
REMARK  16 active torsions:
REMARK  status: ('A' for Active; 'I' for Inactive)
REMARK    1  A    between atoms: C2_2  and  C3_3 
REMARK    2  A    between atoms: C3_3  and  C4_4 
REMARK    3  A    between atoms: C4_4  and  C5_5 
REMARK    4  A    between atoms: C5_5  and  C6_6 
REMARK    5  A    between atoms: C6_6  and  C7_7 
REMARK    6  A    between atoms: C7_7  and  C8_8 
REMARK    7  A    between atoms: C8_8  and  N1_9 
REMARK    8  A    between atoms: C8_8  and  C24_32 
REMARK       I    between atoms: N1_9  and  C9_11 
REMARK    9  A    between atoms: C9_11  and  C10_13 
REMARK   10  A    between atoms: C10_13  and  C11_14 
REMARK   11  A    between atoms: C10_13  and  N2_20 
REMARK   12  A    between atoms: C11_14  and  C12_15 
REMARK       I    between atoms: N2_20  and  C17_22 
REMARK       I    between atoms: C17_22  and  N3_24 
REMARK   13  A    between atoms: N3_24  and  C18_26 
REMARK       I    between atoms: C24_32  and  N4_34 
REMARK       I    between atoms: N5_37  and  C27_38 
REMARK   14  A    between atoms: C27_38  and  C28_40 
REMARK   15  A    between atoms: C28_40  and  C30_42 
REMARK   16  A    between atoms: C32_44  and  C33_45 
ROOT
HETATM    1  C8  UNL     1      -6.719  13.630   1.318  1.00  0.00     0.176 C 
ENDROOT
BRANCH   1   2
HETATM    2  C7  UNL     1      -6.801  13.491   2.846  1.00  0.00     0.035 C 
BRANCH   2   3
HETATM    3  C6  UNL     1      -8.006  14.206   3.387  1.00  0.00     0.002 C 
BRANCH   3   4
HETATM    4  C5  UNL     1      -7.662  15.437   4.205  1.00  0.00     0.000 C 
BRANCH   4   5
HETATM    5  C4  UNL     1      -8.333  15.418   5.552  1.00  0.00     0.000 C 
BRANCH   5   6
HETATM    6  C3  UNL     1      -8.648  14.031   6.010  1.00  0.00    -0.000 C 
BRANCH   6   7
HETATM    7  C2  UNL     1      -9.983  13.994   6.706  1.00  0.00    -0.005 C 
HETATM    8  C1  UNL     1     -10.964  14.684   5.753  1.00  0.00     0.005 C 
ENDBRANCH   6   7
ENDBRANCH   5   6
ENDBRANCH   4   5
ENDBRANCH   3   4
ENDBRANCH   2   3
ENDBRANCH   1   2
BRANCH   1   9
HETATM    9  N1  UNL     1      -7.918  14.356   0.859  1.00  0.00    -0.346 N 
HETATM   10  C9  UNL     1      -7.853  15.526   0.080  1.00  0.00     0.241 C 
HETATM   11  O1  UNL     1      -6.703  15.973  -0.228  1.00  0.00    -0.271 OA
ATOM     12  H1  UNL     1      -8.836  13.993   1.118  1.00  0.00     0.163 HD
BRANCH  10  13
HETATM   13  C10 UNL     1      -9.023  16.300  -0.418  1.00  0.00     0.178 C 
BRANCH  13  14
HETATM   14  C11 UNL     1     -10.124  15.374  -0.746  1.00  0.00     0.039 C 
BRANCH  14  15
HETATM   15  C12 UNL     1     -10.833  15.638  -2.038  1.00  0.00    -0.012 C 
HETATM   16  C13 UNL     1     -10.717  14.358  -2.865  1.00  0.00     0.005 C 
HETATM   17  C14 UNL     1     -10.511  14.769  -4.286  1.00  0.00     0.000 C 
HETATM   18  C15 UNL     1      -9.721  16.049  -4.157  1.00  0.00     0.000 C 
HETATM   19  C16 UNL     1     -10.238  16.714  -2.877  1.00  0.00     0.005 C 
ENDBRANCH  14  15
ENDBRANCH  13  14
BRANCH  13  20
HETATM   20  N2  UNL     1      -9.368  17.362   0.499  1.00  0.00    -0.330 N 
HETATM   21  C17 UNL     1     -10.102  17.183   1.694  1.00  0.00     0.317 C 
HETATM   22  O2  UNL     1     -10.495  16.038   2.012  1.00  0.00    -0.247 OA
HETATM   23  N3  UNL     1     -10.400  18.301   2.545  1.00  0.00    -0.339 N 
ATOM     24  H3  UNL     1     -10.057  19.218   2.258  1.00  0.00     0.164 HD
ATOM     25  H2  UNL     1      -9.062  18.307   0.268  1.00  0.00     0.165 HD
BRANCH  23  26
HETATM   26  C18 UNL     1     -11.146  18.223   3.771  1.00  0.00     0.086 C 
HETATM   27  C19 UNL     1     -12.164  19.355   3.832  1.00  0.00     0.025 C 
HETATM   28  C20 UNL     1     -13.049  19.262   5.024  1.00  0.00     0.002 C 
HETATM   29  C21 UNL     1     -12.501  18.281   6.028  1.00  0.00     0.000 C 
HETATM   30  C22 UNL     1     -11.027  18.533   6.206  1.00  0.00     0.002 C 
HETATM   31  C23 UNL     1     -10.212  18.270   4.980  1.00  0.00     0.025 C 
ENDBRANCH  23  26
ENDBRANCH  13  20
ENDBRANCH  10  13
ENDBRANCH   1   9
BRANCH   1  32
HETATM   32  C24 UNL     1      -6.724  12.276   0.754  1.00  0.00     0.242 C 
HETATM   33  O3  UNL     1      -7.582  11.442   1.230  1.00  0.00    -0.271 OA
HETATM   34  N4  UNL     1      -5.901  11.759  -0.257  1.00  0.00    -0.346 N 
HETATM   35  C25 UNL     1      -4.929  12.573  -0.919  1.00  0.00     0.145 C 
HETATM   36  C34 UNL     1      -5.979  10.357  -0.682  1.00  0.00     0.162 C 
HETATM   37  C26 UNL     1      -4.683  12.169  -2.352  1.00  0.00     0.147 C 
HETATM   38  N5  UNL     1      -5.633  11.242  -2.886  1.00  0.00    -0.334 N 
HETATM   39  C27 UNL     1      -5.789  11.251  -4.315  1.00  0.00     0.224 C 
HETATM   40  C32 UNL     1      -6.413  10.316  -2.128  1.00  0.00     0.206 C 
HETATM   41  O4  UNL     1      -6.616  10.456  -4.824  1.00  0.00    -0.273 OA
BRANCH  39  42
HETATM   42  C28 UNL     1      -5.028  12.142  -5.211  1.00  0.00     0.074 C 
HETATM   43  C29 UNL     1      -4.227  11.378  -6.235  1.00  0.00     0.020 C 
BRANCH  42  44
HETATM   44  C30 UNL     1      -5.977  13.105  -5.923  1.00  0.00     0.009 C 
HETATM   45  C31 UNL     1      -6.689  13.975  -4.925  1.00  0.00     0.006 C 
ENDBRANCH  42  44
ENDBRANCH  39  42
BRANCH  40  46
HETATM   46  C33 UNL     1      -7.884  10.602  -2.211  1.00  0.00     0.198 C 
HETATM   47  O5  UNL     1      -8.616   9.556  -2.171  1.00  0.00    -0.646 OA
HETATM   48  O6  UNL     1      -8.409  11.869  -2.320  1.00  0.00    -0.646 OA
ENDBRANCH  40  46
ENDBRANCH   1  32
TORSDOF 16
ENDMDL
