MODEL 1
REMARK VINA RESULT: -7.461346579      0.000      0.000
REMARK  18 active torsions:
REMARK  status: ('A' for Active; 'I' for Inactive)
REMARK    1  A    between atoms: C2_2  and  C3_3 
REMARK    2  A    between atoms: C3_3  and  C4_4 
REMARK    3  A    between atoms: C4_4  and  C5_5 
REMARK    4  A    between atoms: C5_5  and  C6_6 
REMARK    5  A    between atoms: C6_6  and  C7_7 
REMARK    6  A    between atoms: C7_7  and  C8_8 
REMARK    7  A    between atoms: C8_8  and  C9_9 
REMARK    8  A    between atoms: C9_9  and  C10_10 
REMARK    9  A    between atoms: C10_10  and  C11_11 
REMARK   10  A    between atoms: C11_11  and  C12_12 
REMARK   11  A    between atoms: C12_12  and  N1_13 
REMARK       I    between atoms: N1_13  and  C13_15 
REMARK   12  A    between atoms: C13_15  and  C14_17 
REMARK   13  A    between atoms: C20_26  and  C21_27 
REMARK   14  A    between atoms: C20_26  and  N4_29 
REMARK   15  A    between atoms: N4_29  and  C23_31 
REMARK   16  A    between atoms: C25_34  and  O2_35 
REMARK   17  A    between atoms: C30_45  and  C31_46 
REMARK   18  A    between atoms: C31_46  and  C32_47 
ROOT
HETATM    1  C14 UNL     1      -5.687  13.196  -0.515  1.00  0.00     0.125 C 
HETATM    2  C15 UNL     1      -6.725  12.603  -1.446  1.00  0.00     0.049 C 
HETATM    3  C16 UNL     1      -6.216  12.357  -2.841  1.00  0.00     0.136 C 
HETATM    4  N2  UNL     1      -5.832  10.967  -3.081  1.00  0.00    -0.348 N 
HETATM    5  C17 UNL     1      -6.985  10.091  -3.286  1.00  0.00     0.150 C 
HETATM    6  C18 UNL     1      -7.702  10.569  -4.536  1.00  0.00     0.093 C 
HETATM    7  C19 UNL     1      -7.057   9.860  -5.750  1.00  0.00     0.033 C 
HETATM    8  N3  UNL     1      -7.691  11.921  -4.799  1.00  0.00    -0.390 N 
ATOM      9  H3  UNL     1      -8.170  12.250  -5.637  1.00  0.00     0.156 HD
HETATM   10  C20 UNL     1      -7.049  12.889  -3.970  1.00  0.00     0.121 C 
HETATM   11  C25 UNL     1      -4.534  10.423  -3.170  1.00  0.00     0.186 C 
HETATM   12  C26 UNL     1      -3.459  10.426  -2.196  1.00  0.00     0.212 C 
HETATM   13  O3  UNL     1      -2.411  11.104  -2.537  1.00  0.00    -0.288 OA
HETATM   14  C27 UNL     1      -3.364   9.779  -0.885  1.00  0.00     0.152 C 
HETATM   15  C28 UNL     1      -4.311   8.619  -0.653  1.00  0.00     0.028 C 
HETATM   16  C29 UNL     1      -3.283  10.693   0.283  1.00  0.00     0.233 C 
HETATM   17  O4  UNL     1      -2.534  10.234   1.238  1.00  0.00    -0.272 OA
HETATM   18  N5  UNL     1      -3.866  11.926   0.508  1.00  0.00    -0.333 N 
ATOM     19  H5  UNL     1      -3.197  12.689   0.614  1.00  0.00     0.168 HD
HETATM   20  C30 UNL     1      -5.249  12.336   0.619  1.00  0.00     0.003 C 
ENDROOT
BRANCH   1  21
HETATM   21  C13 UNL     1      -6.034  14.595  -0.112  1.00  0.00     0.227 C 
HETATM   22  N1  UNL     1      -7.284  14.799   0.526  1.00  0.00    -0.360 N 
ATOM     23  H1  UNL     1      -7.912  14.014   0.701  1.00  0.00     0.162 HD
HETATM   24  O1  UNL     1      -5.275  15.565  -0.317  1.00  0.00    -0.273 OA
BRANCH  22  25
HETATM   25  C12 UNL     1      -7.657  16.146   0.927  1.00  0.00     0.122 C 
BRANCH  25  26
HETATM   26  C11 UNL     1      -8.850  16.151   1.818  1.00  0.00     0.020 C 
BRANCH  26  27
HETATM   27  C10 UNL     1      -8.715  15.159   2.936  1.00  0.00     0.002 C 
BRANCH  27  28
HETATM   28  C9  UNL     1      -7.883  15.692   4.082  1.00  0.00     0.000 C 
BRANCH  28  29
HETATM   29  C8  UNL     1      -8.322  15.075   5.385  1.00  0.00     0.000 C 
BRANCH  29  30
HETATM   30  C7  UNL     1      -9.486  14.168   5.159  1.00  0.00     0.000 C 
BRANCH  30  31
HETATM   31  C6  UNL     1     -10.616  14.460   6.096  1.00  0.00     0.000 C 
BRANCH  31  32
HETATM   32  C5  UNL     1     -11.823  14.904   5.336  1.00  0.00     0.000 C 
BRANCH  32  33
HETATM   33  C4  UNL     1     -11.836  16.373   5.048  1.00  0.00     0.000 C 
BRANCH  33  34
HETATM   34  C3  UNL     1     -11.592  17.191   6.311  1.00  0.00    -0.000 C 
BRANCH  34  35
HETATM   35  C2  UNL     1     -10.471  18.170   6.001  1.00  0.00    -0.005 C 
HETATM   36  C1  UNL     1     -10.509  18.406   4.496  1.00  0.00     0.005 C 
ENDBRANCH  34  35
ENDBRANCH  33  34
ENDBRANCH  32  33
ENDBRANCH  31  32
ENDBRANCH  30  31
ENDBRANCH  29  30
ENDBRANCH  28  29
ENDBRANCH  27  28
ENDBRANCH  26  27
ENDBRANCH  25  26
ENDBRANCH  22  25
ENDBRANCH   1  21
BRANCH  20  37
HETATM   37  C31 UNL     1      -6.204  11.333   1.135  1.00  0.00     0.057 C 
BRANCH  37  38
HETATM   38  C32 UNL     1      -6.484  11.463   2.611  1.00  0.00    -0.018 C 
HETATM   39  C33 UNL     1      -7.957  11.507   2.951  1.00  0.00     0.010 C 
HETATM   40  C34 UNL     1      -5.864  12.738   3.176  1.00  0.00     0.010 C 
ENDBRANCH  37  38
ENDBRANCH  20  37
BRANCH  10  41
HETATM   41  C21 UNL     1      -6.061  13.560  -4.979  1.00  0.00     0.051 C 
HETATM   42  C22 UNL     1      -6.575  13.497  -6.377  1.00  0.00     0.009 C 
ENDBRANCH  10  41
BRANCH  10  43
HETATM   43  N4  UNL     1      -7.992  13.921  -3.658  1.00  0.00    -0.357 N 
ATOM     44  H4  UNL     1      -7.598  14.742  -3.198  1.00  0.00     0.162 HD
BRANCH  43  45
HETATM   45  C23 UNL     1      -9.367  13.975  -3.887  1.00  0.00     0.071 C 
HETATM   46  C24 UNL     1      -9.927  14.884  -4.954  1.00  0.00     0.081 C 
HETATM   47  S1  UNL     1     -10.489  13.092  -3.098  1.00  0.00    -0.066 SA
ENDBRANCH  43  45
ENDBRANCH  10  43
BRANCH  11  48
HETATM   48  O2  UNL     1      -4.245   9.816  -4.310  1.00  0.00    -0.344 OA
ATOM     49  H2  UNL     1      -4.136   8.874  -4.258  1.00  0.00     0.219 HD
ENDBRANCH  11  48
TORSDOF 18
ENDMDL
MODEL 2
REMARK VINA RESULT: -7.323903928      3.211     10.018
REMARK  18 active torsions:
REMARK  status: ('A' for Active; 'I' for Inactive)
REMARK    1  A    between atoms: C2_2  and  C3_3 
REMARK    2  A    between atoms: C3_3  and  C4_4 
REMARK    3  A    between atoms: C4_4  and  C5_5 
REMARK    4  A    between atoms: C5_5  and  C6_6 
REMARK    5  A    between atoms: C6_6  and  C7_7 
REMARK    6  A    between atoms: C7_7  and  C8_8 
REMARK    7  A    between atoms: C8_8  and  C9_9 
REMARK    8  A    between atoms: C9_9  and  C10_10 
REMARK    9  A    between atoms: C10_10  and  C11_11 
REMARK   10  A    between atoms: C11_11  and  C12_12 
REMARK   11  A    between atoms: C12_12  and  N1_13 
REMARK       I    between atoms: N1_13  and  C13_15 
REMARK   12  A    between atoms: C13_15  and  C14_17 
REMARK   13  A    between atoms: C20_26  and  C21_27 
REMARK   14  A    between atoms: C20_26  and  N4_29 
REMARK   15  A    between atoms: N4_29  and  C23_31 
REMARK   16  A    between atoms: C25_34  and  O2_35 
REMARK   17  A    between atoms: C30_45  and  C31_46 
REMARK   18  A    between atoms: C31_46  and  C32_47 
ROOT
HETATM    1  C14 UNL     1      -8.655  16.173   0.207  1.00  0.00     0.125 C 
HETATM    2  C15 UNL     1      -9.235  15.126   1.137  1.00  0.00     0.049 C 
HETATM    3  C16 UNL     1      -9.517  15.638   2.524  1.00  0.00     0.136 C 
HETATM    4  N2  UNL     1     -10.920  15.986   2.740  1.00  0.00    -0.348 N 
HETATM    5  C17 UNL     1     -11.768  14.811   2.940  1.00  0.00     0.150 C 
HETATM    6  C18 UNL     1     -11.290  14.116   4.203  1.00  0.00     0.093 C 
HETATM    7  C19 UNL     1     -12.035  14.751   5.400  1.00  0.00     0.033 C 
HETATM    8  N3  UNL     1      -9.943  14.167   4.487  1.00  0.00    -0.390 N 
ATOM      9  H3  UNL     1      -9.614  13.703   5.334  1.00  0.00     0.156 HD
HETATM   10  C20 UNL     1      -8.980  14.829   3.668  1.00  0.00     0.121 C 
HETATM   11  C25 UNL     1     -11.501  17.269   2.810  1.00  0.00     0.186 C 
HETATM   12  C26 UNL     1     -11.512  18.337   1.828  1.00  0.00     0.212 C 
HETATM   13  O3  UNL     1     -10.867  19.405   2.171  1.00  0.00    -0.288 OA
HETATM   14  C27 UNL     1     -12.140  18.404   0.506  1.00  0.00     0.152 C 
HETATM   15  C28 UNL     1     -13.271  17.425   0.263  1.00  0.00     0.028 C 
HETATM   16  C29 UNL     1     -11.211  18.502  -0.649  1.00  0.00     0.233 C 
HETATM   17  O4  UNL     1     -11.674  19.230  -1.616  1.00  0.00    -0.272 OA
HETATM   18  N5  UNL     1      -9.958  17.951  -0.849  1.00  0.00    -0.333 N 
ATOM     19  H5  UNL     1      -9.212  18.640  -0.949  1.00  0.00     0.168 HD
HETATM   20  C30 UNL     1      -9.510  16.579  -0.944  1.00  0.00     0.003 C 
ENDROOT
BRANCH   1  21
HETATM   21  C13 UNL     1      -7.242  15.861  -0.171  1.00  0.00     0.227 C 
HETATM   22  N1  UNL     1      -6.987  14.592  -0.752  1.00  0.00    -0.360 N 
ATOM     23  H1  UNL     1      -7.747  13.929  -0.905  1.00  0.00     0.162 HD
HETATM   24  O1  UNL     1      -6.302  16.664   0.006  1.00  0.00    -0.273 OA
BRANCH  22  25
HETATM   25  C12 UNL     1      -5.623  14.254  -1.128  1.00  0.00     0.122 C 
BRANCH  25  26
HETATM   26  C11 UNL     1      -5.583  13.262  -2.238  1.00  0.00     0.020 C 
BRANCH  26  27
HETATM   27  C10 UNL     1      -6.812  13.336  -3.096  1.00  0.00     0.002 C 
BRANCH  27  28
HETATM   28  C9  UNL     1      -6.571  14.087  -4.387  1.00  0.00     0.000 C 
BRANCH  28  29
HETATM   29  C8  UNL     1      -7.695  13.841  -5.359  1.00  0.00     0.000 C 
BRANCH  29  30
HETATM   30  C7  UNL     1      -7.163  13.252  -6.624  1.00  0.00     0.000 C 
BRANCH  30  31
HETATM   31  C6  UNL     1      -7.874  11.989  -6.997  1.00  0.00     0.000 C 
BRANCH  31  32
HETATM   32  C5  UNL     1      -7.382  10.848  -6.167  1.00  0.00     0.000 C 
BRANCH  32  33
HETATM   33  C4  UNL     1      -5.904  10.633  -6.270  1.00  0.00     0.000 C 
BRANCH  33  34
HETATM   34  C3  UNL     1      -5.272  10.439  -4.897  1.00  0.00    -0.000 C 
BRANCH  34  35
HETATM   35  C2  UNL     1      -3.986  11.249  -4.877  1.00  0.00    -0.005 C 
HETATM   36  C1  UNL     1      -3.772  11.754  -6.299  1.00  0.00     0.005 C 
ENDBRANCH  34  35
ENDBRANCH  33  34
ENDBRANCH  32  33
ENDBRANCH  31  32
ENDBRANCH  30  31
ENDBRANCH  29  30
ENDBRANCH  28  29
ENDBRANCH  27  28
ENDBRANCH  26  27
ENDBRANCH  25  26
ENDBRANCH  22  25
ENDBRANCH   1  21
BRANCH  20  37
HETATM   37  C31 UNL     1     -10.478  15.593  -1.467  1.00  0.00     0.057 C 
BRANCH  37  38
HETATM   38  C32 UNL     1     -10.112  15.043  -2.823  1.00  0.00    -0.018 C 
HETATM   39  C33 UNL     1     -10.701  15.823  -3.977  1.00  0.00     0.010 C 
HETATM   40  C34 UNL     1     -10.590  13.602  -2.977  1.00  0.00     0.010 C 
ENDBRANCH  37  38
ENDBRANCH  20  37
BRANCH  10  41
HETATM   41  C21 UNL     1      -8.352  15.842   4.679  1.00  0.00     0.051 C 
HETATM   42  C22 UNL     1      -8.398  15.324   6.076  1.00  0.00     0.009 C 
ENDBRANCH  10  41
BRANCH  10  43
HETATM   43  N4  UNL     1      -7.918  13.912   3.379  1.00  0.00    -0.357 N 
ATOM     44  H4  UNL     1      -7.090  14.330   2.954  1.00  0.00     0.162 HD
BRANCH  43  45
HETATM   45  C23 UNL     1      -7.843  12.535   3.590  1.00  0.00     0.071 C 
HETATM   46  C24 UNL     1      -6.863  11.969   4.590  1.00  0.00     0.081 C 
HETATM   47  S1  UNL     1      -8.771  11.416   2.851  1.00  0.00    -0.066 SA
ENDBRANCH  43  45
ENDBRANCH  10  43
BRANCH  11  48
HETATM   48  O2  UNL     1     -12.133  17.551   3.938  1.00  0.00    -0.344 OA
ATOM     49  H2  UNL     1     -11.582  17.636   4.708  1.00  0.00     0.219 HD
ENDBRANCH  11  48
TORSDOF 18
ENDMDL
MODEL 3
REMARK VINA RESULT: -7.266756534      0.659      1.369
REMARK  18 active torsions:
REMARK  status: ('A' for Active; 'I' for Inactive)
REMARK    1  A    between atoms: C2_2  and  C3_3 
REMARK    2  A    between atoms: C3_3  and  C4_4 
REMARK    3  A    between atoms: C4_4  and  C5_5 
REMARK    4  A    between atoms: C5_5  and  C6_6 
REMARK    5  A    between atoms: C6_6  and  C7_7 
REMARK    6  A    between atoms: C7_7  and  C8_8 
REMARK    7  A    between atoms: C8_8  and  C9_9 
REMARK    8  A    between atoms: C9_9  and  C10_10 
REMARK    9  A    between atoms: C10_10  and  C11_11 
REMARK   10  A    between atoms: C11_11  and  C12_12 
REMARK   11  A    between atoms: C12_12  and  N1_13 
REMARK       I    between atoms: N1_13  and  C13_15 
REMARK   12  A    between atoms: C13_15  and  C14_17 
REMARK   13  A    between atoms: C20_26  and  C21_27 
REMARK   14  A    between atoms: C20_26  and  N4_29 
REMARK   15  A    between atoms: N4_29  and  C23_31 
REMARK   16  A    between atoms: C25_34  and  O2_35 
REMARK   17  A    between atoms: C30_45  and  C31_46 
REMARK   18  A    between atoms: C31_46  and  C32_47 
ROOT
HETATM    1  C14 UNL     1      -5.727  13.186  -0.643  1.00  0.00     0.125 C 
HETATM    2  C15 UNL     1      -6.783  12.618  -1.570  1.00  0.00     0.049 C 
HETATM    3  C16 UNL     1      -6.288  12.367  -2.969  1.00  0.00     0.136 C 
HETATM    4  N2  UNL     1      -5.934  10.972  -3.218  1.00  0.00    -0.348 N 
HETATM    5  C17 UNL     1      -7.106  10.120  -3.420  1.00  0.00     0.150 C 
HETATM    6  C18 UNL     1      -7.821  10.618  -4.663  1.00  0.00     0.093 C 
HETATM    7  C19 UNL     1      -7.198   9.902  -5.884  1.00  0.00     0.033 C 
HETATM    8  N3  UNL     1      -7.783  11.971  -4.920  1.00  0.00    -0.390 N 
ATOM      9  H3  UNL     1      -8.261  12.314  -5.754  1.00  0.00     0.156 HD
HETATM   10  C20 UNL     1      -7.116  12.923  -4.091  1.00  0.00     0.121 C 
HETATM   11  C25 UNL     1      -4.648  10.401  -3.318  1.00  0.00     0.186 C 
HETATM   12  C26 UNL     1      -3.567  10.377  -2.350  1.00  0.00     0.212 C 
HETATM   13  O3  UNL     1      -2.508  11.035  -2.695  1.00  0.00    -0.288 OA
HETATM   14  C27 UNL     1      -3.478   9.723  -1.042  1.00  0.00     0.152 C 
HETATM   15  C28 UNL     1      -4.447   8.581  -0.810  1.00  0.00     0.028 C 
HETATM   16  C29 UNL     1      -3.371  10.629   0.130  1.00  0.00     0.233 C 
HETATM   17  O4  UNL     1      -2.626  10.151   1.078  1.00  0.00    -0.272 OA
HETATM   18  N5  UNL     1      -3.926  11.873   0.363  1.00  0.00    -0.333 N 
ATOM     19  H5  UNL     1      -3.241  12.622   0.468  1.00  0.00     0.168 HD
HETATM   20  C30 UNL     1      -5.300  12.311   0.485  1.00  0.00     0.003 C 
ENDROOT
BRANCH   1  21
HETATM   21  C13 UNL     1      -6.043  14.590  -0.232  1.00  0.00     0.227 C 
HETATM   22  N1  UNL     1      -7.358  14.854   0.228  1.00  0.00    -0.360 N 
ATOM     23  H1  UNL     1      -8.052  14.108   0.275  1.00  0.00     0.162 HD
HETATM   24  O1  UNL     1      -5.204  15.513  -0.281  1.00  0.00    -0.273 OA
BRANCH  22  25
HETATM   25  C12 UNL     1      -7.701  16.209   0.631  1.00  0.00     0.122 C 
BRANCH  25  26
HETATM   26  C11 UNL     1      -8.565  16.225   1.844  1.00  0.00     0.020 C 
BRANCH  26  27
HETATM   27  C10 UNL     1      -8.484  14.933   2.604  1.00  0.00     0.002 C 
BRANCH  27  28
HETATM   28  C9  UNL     1      -7.651  15.054   3.861  1.00  0.00     0.000 C 
BRANCH  28  29
HETATM   29  C8  UNL     1      -8.205  14.171   4.948  1.00  0.00     0.000 C 
BRANCH  29  30
HETATM   30  C7  UNL     1      -8.659  14.999   6.104  1.00  0.00     0.000 C 
BRANCH  30  31
HETATM   31  C6  UNL     1      -8.581  16.465   5.810  1.00  0.00     0.000 C 
BRANCH  31  32
HETATM   32  C5  UNL     1      -9.944  17.076   5.833  1.00  0.00     0.000 C 
BRANCH  32  33
HETATM   33  C4  UNL     1     -11.043  16.070   5.973  1.00  0.00     0.000 C 
BRANCH  33  34
HETATM   34  C3  UNL     1     -11.983  16.099   4.774  1.00  0.00    -0.000 C 
BRANCH  34  35
HETATM   35  C2  UNL     1     -11.899  14.737   4.104  1.00  0.00    -0.005 C 
HETATM   36  C1  UNL     1     -12.053  13.702   5.212  1.00  0.00     0.005 C 
ENDBRANCH  34  35
ENDBRANCH  33  34
ENDBRANCH  32  33
ENDBRANCH  31  32
ENDBRANCH  30  31
ENDBRANCH  29  30
ENDBRANCH  28  29
ENDBRANCH  27  28
ENDBRANCH  26  27
ENDBRANCH  25  26
ENDBRANCH  22  25
ENDBRANCH   1  21
BRANCH  20  37
HETATM   37  C31 UNL     1      -6.272  11.326   1.002  1.00  0.00     0.057 C 
BRANCH  37  38
HETATM   38  C32 UNL     1      -6.947  11.752   2.282  1.00  0.00    -0.018 C 
HETATM   39  C33 UNL     1      -6.256  11.253   3.530  1.00  0.00     0.010 C 
HETATM   40  C34 UNL     1      -8.384  11.243   2.340  1.00  0.00     0.010 C 
ENDBRANCH  37  38
ENDBRANCH  20  37
BRANCH  10  41
HETATM   41  C21 UNL     1      -6.121  13.578  -5.103  1.00  0.00     0.051 C 
HETATM   42  C22 UNL     1      -6.638  13.517  -6.500  1.00  0.00     0.009 C 
ENDBRANCH  10  41
BRANCH  10  43
HETATM   43  N4  UNL     1      -8.036  13.972  -3.768  1.00  0.00    -0.357 N 
ATOM     44  H4  UNL     1      -7.622  14.782  -3.306  1.00  0.00     0.162 HD
BRANCH  43  45
HETATM   45  C23 UNL     1      -9.411  14.056  -3.990  1.00  0.00     0.071 C 
HETATM   46  C24 UNL     1      -9.960  15.019  -5.015  1.00  0.00     0.081 C 
HETATM   47  S1  UNL     1     -10.543  13.157  -3.237  1.00  0.00    -0.066 SA
ENDBRANCH  43  45
ENDBRANCH  10  43
BRANCH  11  48
HETATM   48  O2  UNL     1      -4.378   9.794  -4.461  1.00  0.00    -0.344 OA
ATOM     49  H2  UNL     1      -3.643   9.192  -4.444  1.00  0.00     0.219 HD
ENDBRANCH  11  48
TORSDOF 18
ENDMDL
MODEL 4
REMARK VINA RESULT: -7.225470743      1.058      1.966
REMARK  18 active torsions:
REMARK  status: ('A' for Active; 'I' for Inactive)
REMARK    1  A    between atoms: C2_2  and  C3_3 
REMARK    2  A    between atoms: C3_3  and  C4_4 
REMARK    3  A    between atoms: C4_4  and  C5_5 
REMARK    4  A    between atoms: C5_5  and  C6_6 
REMARK    5  A    between atoms: C6_6  and  C7_7 
REMARK    6  A    between atoms: C7_7  and  C8_8 
REMARK    7  A    between atoms: C8_8  and  C9_9 
REMARK    8  A    between atoms: C9_9  and  C10_10 
REMARK    9  A    between atoms: C10_10  and  C11_11 
REMARK   10  A    between atoms: C11_11  and  C12_12 
REMARK   11  A    between atoms: C12_12  and  N1_13 
REMARK       I    between atoms: N1_13  and  C13_15 
REMARK   12  A    between atoms: C13_15  and  C14_17 
REMARK   13  A    between atoms: C20_26  and  C21_27 
REMARK   14  A    between atoms: C20_26  and  N4_29 
REMARK   15  A    between atoms: N4_29  and  C23_31 
REMARK   16  A    between atoms: C25_34  and  O2_35 
REMARK   17  A    between atoms: C30_45  and  C31_46 
REMARK   18  A    between atoms: C31_46  and  C32_47 
ROOT
HETATM    1  C14 UNL     1      -5.727  13.221  -0.587  1.00  0.00     0.125 C 
HETATM    2  C15 UNL     1      -6.795  12.651  -1.499  1.00  0.00     0.049 C 
HETATM    3  C16 UNL     1      -6.319  12.401  -2.905  1.00  0.00     0.136 C 
HETATM    4  N2  UNL     1      -5.966  11.006  -3.159  1.00  0.00    -0.348 N 
HETATM    5  C17 UNL     1      -7.139  10.152  -3.344  1.00  0.00     0.150 C 
HETATM    6  C18 UNL     1      -7.872  10.649  -4.577  1.00  0.00     0.093 C 
HETATM    7  C19 UNL     1      -7.265   9.934  -5.806  1.00  0.00     0.033 C 
HETATM    8  N3  UNL     1      -7.841  12.002  -4.835  1.00  0.00    -0.390 N 
ATOM      9  H3  UNL     1      -8.330  12.344  -5.662  1.00  0.00     0.156 HD
HETATM   10  C20 UNL     1      -7.163  12.955  -4.015  1.00  0.00     0.121 C 
HETATM   11  C25 UNL     1      -4.680  10.438  -3.276  1.00  0.00     0.186 C 
HETATM   12  C26 UNL     1      -3.586  10.416  -2.324  1.00  0.00     0.212 C 
HETATM   13  O3  UNL     1      -2.533  11.076  -2.683  1.00  0.00    -0.288 OA
HETATM   14  C27 UNL     1      -3.477   9.762  -1.017  1.00  0.00     0.152 C 
HETATM   15  C28 UNL     1      -4.440   8.619  -0.771  1.00  0.00     0.028 C 
HETATM   16  C29 UNL     1      -3.355  10.669   0.153  1.00  0.00     0.233 C 
HETATM   17  O4  UNL     1      -2.596  10.192   1.090  1.00  0.00    -0.272 OA
HETATM   18  N5  UNL     1      -3.910  11.912   0.393  1.00  0.00    -0.333 N 
ATOM     19  H5  UNL     1      -3.224  12.662   0.489  1.00  0.00     0.168 HD
HETATM   20  C30 UNL     1      -5.282  12.347   0.535  1.00  0.00     0.003 C 
ENDROOT
BRANCH   1  21
HETATM   21  C13 UNL     1      -6.040  14.624  -0.171  1.00  0.00     0.227 C 
HETATM   22  N1  UNL     1      -7.288  14.854   0.462  1.00  0.00    -0.360 N 
ATOM     23  H1  UNL     1      -7.936  14.084   0.625  1.00  0.00     0.162 HD
HETATM   24  O1  UNL     1      -5.254  15.576  -0.362  1.00  0.00    -0.273 OA
BRANCH  22  25
HETATM   25  C12 UNL     1      -7.627  16.207   0.874  1.00  0.00     0.122 C 
BRANCH  25  26
HETATM   26  C11 UNL     1      -8.693  16.220   1.914  1.00  0.00     0.020 C 
BRANCH  26  27
HETATM   27  C10 UNL     1      -8.179  15.756   3.245  1.00  0.00     0.002 C 
BRANCH  27  28
HETATM   28  C9  UNL     1      -9.128  16.086   4.376  1.00  0.00     0.000 C 
BRANCH  28  29
HETATM   29  C8  UNL     1      -8.419  16.001   5.703  1.00  0.00     0.000 C 
BRANCH  29  30
HETATM   30  C7  UNL     1      -8.479  14.607   6.232  1.00  0.00     0.000 C 
BRANCH  30  31
HETATM   31  C6  UNL     1      -9.883  14.177   6.524  1.00  0.00     0.000 C 
BRANCH  31  32
HETATM   32  C5  UNL     1     -10.099  12.765   6.086  1.00  0.00     0.000 C 
BRANCH  32  33
HETATM   33  C4  UNL     1      -9.143  12.320   5.023  1.00  0.00     0.000 C 
BRANCH  33  34
HETATM   34  C3  UNL     1      -9.873  11.679   3.849  1.00  0.00    -0.000 C 
BRANCH  34  35
HETATM   35  C2  UNL     1     -10.413  12.807   2.986  1.00  0.00    -0.005 C 
HETATM   36  C1  UNL     1      -9.793  12.628   1.605  1.00  0.00     0.005 C 
ENDBRANCH  34  35
ENDBRANCH  33  34
ENDBRANCH  32  33
ENDBRANCH  31  32
ENDBRANCH  30  31
ENDBRANCH  29  30
ENDBRANCH  28  29
ENDBRANCH  27  28
ENDBRANCH  26  27
ENDBRANCH  25  26
ENDBRANCH  22  25
ENDBRANCH   1  21
BRANCH  20  37
HETATM   37  C31 UNL     1      -6.246  11.360   1.065  1.00  0.00     0.057 C 
BRANCH  37  38
HETATM   38  C32 UNL     1      -6.433  11.436   2.561  1.00  0.00    -0.018 C 
HETATM   39  C33 UNL     1      -5.983  12.747   3.165  1.00  0.00     0.010 C 
HETATM   40  C34 UNL     1      -5.650  10.334   3.267  1.00  0.00     0.010 C 
ENDBRANCH  37  38
ENDBRANCH  20  37
BRANCH  10  41
HETATM   41  C21 UNL     1      -6.184  13.611  -5.041  1.00  0.00     0.051 C 
HETATM   42  C22 UNL     1      -6.675  13.466  -6.441  1.00  0.00     0.009 C 
ENDBRANCH  10  41
BRANCH  10  43
HETATM   43  N4  UNL     1      -8.081  14.003  -3.680  1.00  0.00    -0.357 N 
ATOM     44  H4  UNL     1      -7.670  14.793  -3.182  1.00  0.00     0.162 HD
BRANCH  43  45
HETATM   45  C23 UNL     1      -9.449  14.107  -3.930  1.00  0.00     0.071 C 
HETATM   46  C24 UNL     1      -9.958  15.027  -5.014  1.00  0.00     0.081 C 
HETATM   47  S1  UNL     1     -10.616  13.276  -3.151  1.00  0.00    -0.066 SA
ENDBRANCH  43  45
ENDBRANCH  10  43
BRANCH  11  48
HETATM   48  O2  UNL     1      -4.425   9.831  -4.423  1.00  0.00    -0.344 OA
ATOM     49  H2  UNL     1      -3.662   9.265  -4.429  1.00  0.00     0.219 HD
ENDBRANCH  11  48
TORSDOF 18
ENDMDL
MODEL 5
REMARK VINA RESULT: -7.148796560      3.378      9.805
REMARK  18 active torsions:
REMARK  status: ('A' for Active; 'I' for Inactive)
REMARK    1  A    between atoms: C2_2  and  C3_3 
REMARK    2  A    between atoms: C3_3  and  C4_4 
REMARK    3  A    between atoms: C4_4  and  C5_5 
REMARK    4  A    between atoms: C5_5  and  C6_6 
REMARK    5  A    between atoms: C6_6  and  C7_7 
REMARK    6  A    between atoms: C7_7  and  C8_8 
REMARK    7  A    between atoms: C8_8  and  C9_9 
REMARK    8  A    between atoms: C9_9  and  C10_10 
REMARK    9  A    between atoms: C10_10  and  C11_11 
REMARK   10  A    between atoms: C11_11  and  C12_12 
REMARK   11  A    between atoms: C12_12  and  N1_13 
REMARK       I    between atoms: N1_13  and  C13_15 
REMARK   12  A    between atoms: C13_15  and  C14_17 
REMARK   13  A    between atoms: C20_26  and  C21_27 
REMARK   14  A    between atoms: C20_26  and  N4_29 
REMARK   15  A    between atoms: N4_29  and  C23_31 
REMARK   16  A    between atoms: C25_34  and  O2_35 
REMARK   17  A    between atoms: C30_45  and  C31_46 
REMARK   18  A    between atoms: C31_46  and  C32_47 
ROOT
HETATM    1  C14 UNL     1      -8.693  16.241   0.408  1.00  0.00     0.125 C 
HETATM    2  C15 UNL     1      -9.251  15.141   1.289  1.00  0.00     0.049 C 
HETATM    3  C16 UNL     1      -9.553  15.588   2.695  1.00  0.00     0.136 C 
HETATM    4  N2  UNL     1     -10.965  15.892   2.917  1.00  0.00    -0.348 N 
HETATM    5  C17 UNL     1     -11.785  14.689   3.063  1.00  0.00     0.150 C 
HETATM    6  C18 UNL     1     -11.296  13.954   4.298  1.00  0.00     0.093 C 
HETATM    7  C19 UNL     1     -12.063  14.519   5.516  1.00  0.00     0.033 C 
HETATM    8  N3  UNL     1      -9.952  14.025   4.592  1.00  0.00    -0.390 N 
ATOM      9  H3  UNL     1      -9.616  13.535   5.421  1.00  0.00     0.156 HD
HETATM   10  C20 UNL     1      -9.001  14.745   3.807  1.00  0.00     0.121 C 
HETATM   11  C25 UNL     1     -11.578  17.156   3.037  1.00  0.00     0.186 C 
HETATM   12  C26 UNL     1     -11.611  18.263   2.100  1.00  0.00     0.212 C 
HETATM   13  O3  UNL     1     -10.995  19.332   2.491  1.00  0.00    -0.288 OA
HETATM   14  C27 UNL     1     -12.234  18.370   0.778  1.00  0.00     0.152 C 
HETATM   15  C28 UNL     1     -13.339  17.374   0.488  1.00  0.00     0.028 C 
HETATM   16  C29 UNL     1     -11.302  18.539  -0.366  1.00  0.00     0.233 C 
HETATM   17  O4  UNL     1     -11.778  19.296  -1.305  1.00  0.00    -0.272 OA
HETATM   18  N5  UNL     1     -10.035  18.029  -0.581  1.00  0.00    -0.333 N 
ATOM     19  H5  UNL     1      -9.306  18.739  -0.647  1.00  0.00     0.168 HD
HETATM   20  C30 UNL     1      -9.552  16.673  -0.730  1.00  0.00     0.003 C 
ENDROOT
BRANCH   1  21
HETATM   21  C13 UNL     1      -7.270  15.980   0.025  1.00  0.00     0.227 C 
HETATM   22  N1  UNL     1      -6.927  14.655  -0.345  1.00  0.00    -0.360 N 
ATOM     23  H1  UNL     1      -7.632  13.918  -0.350  1.00  0.00     0.162 HD
HETATM   24  O1  UNL     1      -6.397  16.872   0.024  1.00  0.00    -0.273 OA
BRANCH  22  25
HETATM   25  C12 UNL     1      -5.551  14.364  -0.718  1.00  0.00     0.122 C 
BRANCH  25  26
HETATM   26  C11 UNL     1      -5.470  13.618  -2.004  1.00  0.00     0.020 C 
BRANCH  26  27
HETATM   27  C10 UNL     1      -6.693  13.827  -2.848  1.00  0.00     0.002 C 
BRANCH  27  28
HETATM   28  C9  UNL     1      -6.354  14.124  -4.292  1.00  0.00     0.000 C 
BRANCH  28  29
HETATM   29  C8  UNL     1      -5.688  12.935  -4.934  1.00  0.00     0.000 C 
BRANCH  29  30
HETATM   30  C7  UNL     1      -5.939  12.935  -6.405  1.00  0.00     0.000 C 
BRANCH  30  31
HETATM   31  C6  UNL     1      -7.332  13.372  -6.737  1.00  0.00     0.000 C 
BRANCH  31  32
HETATM   32  C5  UNL     1      -8.139  12.216  -7.230  1.00  0.00     0.000 C 
BRANCH  32  33
HETATM   33  C4  UNL     1      -9.117  11.701  -6.220  1.00  0.00     0.000 C 
BRANCH  33  34
HETATM   34  C3  UNL     1      -9.613  12.815  -5.306  1.00  0.00    -0.000 C 
BRANCH  34  35
HETATM   35  C2  UNL     1      -9.870  12.195  -3.942  1.00  0.00    -0.005 C 
HETATM   36  C1  UNL     1      -8.934  10.999  -3.830  1.00  0.00     0.005 C 
ENDBRANCH  34  35
ENDBRANCH  33  34
ENDBRANCH  32  33
ENDBRANCH  31  32
ENDBRANCH  30  31
ENDBRANCH  29  30
ENDBRANCH  28  29
ENDBRANCH  27  28
ENDBRANCH  26  27
ENDBRANCH  25  26
ENDBRANCH  22  25
ENDBRANCH   1  21
BRANCH  20  37
HETATM   37  C31 UNL     1     -10.492  15.686  -1.300  1.00  0.00     0.057 C 
BRANCH  37  38
HETATM   38  C32 UNL     1     -10.494  15.649  -2.809  1.00  0.00    -0.018 C 
HETATM   39  C33 UNL     1      -9.291  16.316  -3.436  1.00  0.00     0.010 C 
HETATM   40  C34 UNL     1     -11.728  16.347  -3.372  1.00  0.00     0.010 C 
ENDBRANCH  37  38
ENDBRANCH  20  37
BRANCH  10  41
HETATM   41  C21 UNL     1      -8.404  15.730   4.864  1.00  0.00     0.051 C 
HETATM   42  C22 UNL     1      -8.422  15.144   6.234  1.00  0.00     0.009 C 
ENDBRANCH  10  41
BRANCH  10  43
HETATM   43  N4  UNL     1      -7.915  13.868   3.487  1.00  0.00    -0.357 N 
ATOM     44  H4  UNL     1      -7.076  14.329   3.135  1.00  0.00     0.162 HD
BRANCH  43  45
HETATM   45  C23 UNL     1      -7.830  12.478   3.583  1.00  0.00     0.071 C 
HETATM   46  C24 UNL     1      -6.812  11.839   4.496  1.00  0.00     0.081 C 
HETATM   47  S1  UNL     1      -8.782  11.419   2.790  1.00  0.00    -0.066 SA
ENDBRANCH  43  45
ENDBRANCH  10  43
BRANCH  11  48
HETATM   48  O2  UNL     1     -12.223  17.374   4.171  1.00  0.00    -0.344 OA
ATOM     49  H2  UNL     1     -12.404  18.285   4.373  1.00  0.00     0.219 HD
ENDBRANCH  11  48
TORSDOF 18
ENDMDL
