MODEL 1
REMARK VINA RESULT: -7.986325982      0.000      0.000
REMARK  15 active torsions:
REMARK  status: ('A' for Active; 'I' for Inactive)
REMARK    1  A    between atoms: C2_2  and  C3_3 
REMARK    2  A    between atoms: C3_3  and  N1_4 
REMARK    3  A    between atoms: N1_4  and  C4_5 
REMARK       I    between atoms: N1_4  and  C7_8 
REMARK    4  A    between atoms: C4_5  and  C5_6 
REMARK       I    between atoms: C7_8  and  N2_10 
REMARK    5  A    between atoms: N2_10  and  C8_12 
REMARK    6  A    between atoms: C8_12  and  C9_13 
REMARK    7  A    between atoms: C9_13  and  N3_14 
REMARK       I    between atoms: N3_14  and  C10_16 
REMARK    8  A    between atoms: C10_16  and  C11_18 
REMARK    9  A    between atoms: C11_18  and  N4_19 
REMARK   10  A    between atoms: C11_18  and  C19_29 
REMARK   11  A    between atoms: N4_19  and  C12_22 
REMARK       I    between atoms: C19_29  and  N5_31 
REMARK   12  A    between atoms: C26_38  and  C27_39 
REMARK       I    between atoms: C27_39  and  N6_41 
REMARK   13  A    between atoms: N6_41  and  C28_43 
REMARK   14  A    between atoms: C28_43  and  C29_44 
REMARK   15  A    between atoms: C28_43  and  C31_46 
ROOT
HETATM    1  C11 UNL     1     -12.904  18.129   1.619  1.00  0.00     0.368 C 
ENDROOT
BRANCH   1   2
HETATM    2  C10 UNL     1     -13.448  18.140   2.982  1.00  0.00     0.258 C 
HETATM    3  N3  UNL     1     -12.747  18.655   4.099  1.00  0.00    -0.357 N 
ATOM      4  H3  UNL     1     -11.816  19.051   3.966  1.00  0.00     0.162 HD
HETATM    5  O2  UNL     1     -14.616  17.659   3.175  1.00  0.00    -0.271 OA
BRANCH   3   6
HETATM    6  C9  UNL     1     -13.331  18.632   5.438  1.00  0.00     0.142 C 
BRANCH   6   7
HETATM    7  C8  UNL     1     -12.231  18.412   6.453  1.00  0.00     0.144 C 
BRANCH   7   8
HETATM    8  N2  UNL     1     -11.632  17.109   6.225  1.00  0.00    -0.341 N 
HETATM    9  C7  UNL     1     -10.279  17.005   5.814  1.00  0.00     0.318 C 
HETATM   10  N1  UNL     1      -9.650  15.753   5.573  1.00  0.00    -0.334 N 
HETATM   11  O1  UNL     1      -9.614  18.071   5.658  1.00  0.00    -0.247 OA
ATOM     12  H2  UNL     1     -12.188  16.265   6.361  1.00  0.00     0.164 HD
BRANCH  10  13
HETATM   13  C3  UNL     1      -8.269  15.770   5.175  1.00  0.00     0.127 C 
BRANCH  13  14
HETATM   14  C2  UNL     1      -8.043  15.443   3.746  1.00  0.00     0.015 C 
HETATM   15  C1  UNL     1      -7.371  14.110   3.580  1.00  0.00     0.006 C 
ENDBRANCH  13  14
ENDBRANCH  10  13
BRANCH  10  16
HETATM   16  C4  UNL     1     -10.402  14.517   5.747  1.00  0.00     0.127 C 
BRANCH  16  17
HETATM   17  C5  UNL     1      -9.745  13.640   6.809  1.00  0.00     0.015 C 
HETATM   18  C6  UNL     1     -10.469  12.319   6.867  1.00  0.00     0.006 C 
ENDBRANCH  16  17
ENDBRANCH  10  16
ENDBRANCH   7   8
ENDBRANCH   6   7
ENDBRANCH   3   6
ENDBRANCH   1   2
BRANCH   1  19
HETATM   19  N4  UNL     1     -13.856  17.503   0.684  1.00  0.00    -0.049 N 
ATOM     20  H42 UNL     1     -13.358  16.970  -0.029  1.00  0.00     0.279 HD
ATOM     21  H41 UNL     1     -14.364  16.746   1.142  1.00  0.00     0.279 HD
BRANCH  19  22
HETATM   22  C12 UNL     1     -14.765  18.419   0.078  1.00  0.00     0.187 C 
HETATM   23  C13 UNL     1     -14.025  19.632  -0.467  1.00  0.00     0.033 C 
HETATM   24  C14 UNL     1     -14.439  20.006  -1.850  1.00  0.00     0.002 C 
HETATM   25  C15 UNL     1     -13.831  19.121  -2.924  1.00  0.00     0.000 C 
HETATM   26  C16 UNL     1     -14.743  17.966  -3.259  1.00  0.00     0.000 C 
HETATM   27  C17 UNL     1     -14.826  17.060  -2.042  1.00  0.00     0.002 C 
HETATM   28  C18 UNL     1     -15.603  17.724  -0.942  1.00  0.00     0.033 C 
ENDBRANCH  19  22
ENDBRANCH   1  19
BRANCH   1  29
HETATM   29  C19 UNL     1     -11.678  17.321   1.493  1.00  0.00     0.260 C 
HETATM   30  O3  UNL     1     -11.448  16.437   2.382  1.00  0.00    -0.270 OA
HETATM   31  N5  UNL     1     -10.766  17.482   0.442  1.00  0.00    -0.350 N 
HETATM   32  C20 UNL     1     -10.870  18.401  -0.663  1.00  0.00     0.126 C 
HETATM   33  C35 UNL     1      -9.531  16.654   0.391  1.00  0.00     0.126 C 
HETATM   34  C21 UNL     1     -10.288  17.785  -1.888  1.00  0.00     0.029 C 
HETATM   35  C22 UNL     1     -10.340  16.286  -1.945  1.00  0.00    -0.037 C 
HETATM   36  C23 UNL     1     -11.756  15.859  -2.163  1.00  0.00     0.010 C 
HETATM   37  C33 UNL     1      -9.520  15.853  -3.134  1.00  0.00     0.023 C 
HETATM   38  C34 UNL     1      -9.720  15.647  -0.723  1.00  0.00     0.029 C 
HETATM   39  C24 UNL     1     -11.909  14.371  -2.327  1.00  0.00     0.002 C 
HETATM   40  C25 UNL     1     -11.012  13.852  -3.394  1.00  0.00     0.014 C 
HETATM   41  C26 UNL     1      -9.628  14.379  -3.418  1.00  0.00     0.078 C 
BRANCH  41  42
HETATM   42  C27 UNL     1      -9.048  14.167  -4.766  1.00  0.00     0.222 C 
HETATM   43  O4  UNL     1      -9.623  14.692  -5.752  1.00  0.00    -0.273 OA
HETATM   44  N6  UNL     1      -7.872  13.396  -4.978  1.00  0.00    -0.356 N 
ATOM     45  H6  UNL     1      -7.419  12.976  -4.165  1.00  0.00     0.162 HD
BRANCH  44  46
HETATM   46  C28 UNL     1      -7.285  13.173  -6.267  1.00  0.00     0.083 C 
BRANCH  46  47
HETATM   47  C29 UNL     1      -7.560  11.779  -6.723  1.00  0.00     0.021 C 
HETATM   48  C30 UNL     1      -8.884  11.678  -7.461  1.00  0.00     0.007 C 
ENDBRANCH  46  47
BRANCH  46  49
HETATM   49  C31 UNL     1      -5.812  13.514  -6.291  1.00  0.00     0.021 C 
HETATM   50  C32 UNL     1      -4.958  12.304  -5.984  1.00  0.00     0.007 C 
ENDBRANCH  46  49
ENDBRANCH  44  46
ENDBRANCH  41  42
ENDBRANCH   1  29
TORSDOF 15
ENDMDL
MODEL 2
REMARK VINA RESULT: -7.933959169      2.121      5.335
REMARK  15 active torsions:
REMARK  status: ('A' for Active; 'I' for Inactive)
REMARK    1  A    between atoms: C2_2  and  C3_3 
REMARK    2  A    between atoms: C3_3  and  N1_4 
REMARK    3  A    between atoms: N1_4  and  C4_5 
REMARK       I    between atoms: N1_4  and  C7_8 
REMARK    4  A    between atoms: C4_5  and  C5_6 
REMARK       I    between atoms: C7_8  and  N2_10 
REMARK    5  A    between atoms: N2_10  and  C8_12 
REMARK    6  A    between atoms: C8_12  and  C9_13 
REMARK    7  A    between atoms: C9_13  and  N3_14 
REMARK       I    between atoms: N3_14  and  C10_16 
REMARK    8  A    between atoms: C10_16  and  C11_18 
REMARK    9  A    between atoms: C11_18  and  N4_19 
REMARK   10  A    between atoms: C11_18  and  C19_29 
REMARK   11  A    between atoms: N4_19  and  C12_22 
REMARK       I    between atoms: C19_29  and  N5_31 
REMARK   12  A    between atoms: C26_38  and  C27_39 
REMARK       I    between atoms: C27_39  and  N6_41 
REMARK   13  A    between atoms: N6_41  and  C28_43 
REMARK   14  A    between atoms: C28_43  and  C29_44 
REMARK   15  A    between atoms: C28_43  and  C31_46 
ROOT
HETATM    1  C11 UNL     1     -11.475  15.795   0.748  1.00  0.00     0.368 C 
ENDROOT
BRANCH   1   2
HETATM    2  C10 UNL     1     -12.864  16.195   0.997  1.00  0.00     0.258 C 
HETATM    3  N3  UNL     1     -13.619  16.993   0.104  1.00  0.00    -0.357 N 
ATOM      4  H3  UNL     1     -13.193  17.308  -0.767  1.00  0.00     0.162 HD
HETATM    5  O2  UNL     1     -13.426  15.806   2.077  1.00  0.00    -0.271 OA
BRANCH   3   6
HETATM    6  C9  UNL     1     -14.998  17.373   0.406  1.00  0.00     0.142 C 
BRANCH   6   7
HETATM    7  C8  UNL     1     -15.014  18.786   0.944  1.00  0.00     0.144 C 
BRANCH   7   8
HETATM    8  N2  UNL     1     -14.768  18.749   2.374  1.00  0.00    -0.341 N 
HETATM    9  C7  UNL     1     -13.528  19.192   2.900  1.00  0.00     0.318 C 
HETATM   10  N1  UNL     1     -13.239  19.171   4.291  1.00  0.00    -0.334 N 
HETATM   11  O1  UNL     1     -12.651  19.621   2.092  1.00  0.00    -0.247 OA
ATOM     12  H2  UNL     1     -15.492  18.404   3.004  1.00  0.00     0.164 HD
BRANCH  10  13
HETATM   13  C3  UNL     1     -11.953  19.659   4.709  1.00  0.00     0.127 C 
BRANCH  13  14
HETATM   14  C2  UNL     1     -10.937  18.598   4.918  1.00  0.00     0.015 C 
HETATM   15  C1  UNL     1     -10.863  18.175   6.358  1.00  0.00     0.006 C 
ENDBRANCH  13  14
ENDBRANCH  10  13
BRANCH  10  16
HETATM   16  C4  UNL     1     -14.236  18.680   5.233  1.00  0.00     0.127 C 
BRANCH  16  17
HETATM   17  C5  UNL     1     -14.974  19.847   5.882  1.00  0.00     0.015 C 
HETATM   18  C6  UNL     1     -16.452  19.691   5.631  1.00  0.00     0.006 C 
ENDBRANCH  16  17
ENDBRANCH  10  16
ENDBRANCH   7   8
ENDBRANCH   6   7
ENDBRANCH   3   6
ENDBRANCH   1   2
BRANCH   1  19
HETATM   19  N4  UNL     1     -10.608  16.193   1.872  1.00  0.00    -0.049 N 
ATOM     20  H42 UNL     1     -10.201  17.113   1.700  1.00  0.00     0.279 HD
ATOM     21  H41 UNL     1     -11.168  16.403   2.699  1.00  0.00     0.279 HD
BRANCH  19  22
HETATM   22  C12 UNL     1      -9.589  15.247   2.185  1.00  0.00     0.187 C 
HETATM   23  C13 UNL     1      -8.312  15.953   2.619  1.00  0.00     0.033 C 
HETATM   24  C14 UNL     1      -7.703  15.371   3.850  1.00  0.00     0.002 C 
HETATM   25  C15 UNL     1      -8.403  15.794   5.129  1.00  0.00     0.000 C 
HETATM   26  C16 UNL     1      -9.470  14.802   5.521  1.00  0.00     0.000 C 
HETATM   27  C17 UNL     1     -10.568  14.850   4.472  1.00  0.00     0.002 C 
HETATM   28  C18 UNL     1     -10.089  14.253   3.180  1.00  0.00     0.033 C 
ENDBRANCH  19  22
ENDBRANCH   1  19
BRANCH   1  29
HETATM   29  C19 UNL     1     -10.884  16.460  -0.427  1.00  0.00     0.260 C 
HETATM   30  O3  UNL     1     -10.417  17.636  -0.279  1.00  0.00    -0.270 OA
HETATM   31  N5  UNL     1     -10.814  15.855  -1.689  1.00  0.00    -0.350 N 
HETATM   32  C20 UNL     1     -11.259  14.530  -2.040  1.00  0.00     0.126 C 
HETATM   33  C35 UNL     1     -10.233  16.594  -2.841  1.00  0.00     0.126 C 
HETATM   34  C21 UNL     1     -10.358  13.952  -3.077  1.00  0.00     0.029 C 
HETATM   35  C22 UNL     1      -8.945  14.463  -3.061  1.00  0.00    -0.037 C 
HETATM   36  C23 UNL     1      -8.246  13.912  -1.860  1.00  0.00     0.010 C 
HETATM   37  C33 UNL     1      -8.264  13.935  -4.298  1.00  0.00     0.023 C 
HETATM   38  C34 UNL     1      -8.883  15.972  -3.131  1.00  0.00     0.029 C 
HETATM   39  C24 UNL     1      -6.791  14.289  -1.796  1.00  0.00     0.002 C 
HETATM   40  C25 UNL     1      -6.085  13.926  -3.054  1.00  0.00     0.014 C 
HETATM   41  C26 UNL     1      -6.787  14.223  -4.324  1.00  0.00     0.078 C 
BRANCH  41  42
HETATM   42  C27 UNL     1      -6.215  13.386  -5.407  1.00  0.00     0.222 C 
HETATM   43  O4  UNL     1      -6.492  13.679  -6.596  1.00  0.00    -0.273 OA
HETATM   44  N6  UNL     1      -5.370  12.272  -5.145  1.00  0.00    -0.356 N 
ATOM     45  H6  UNL     1      -5.158  12.048  -4.172  1.00  0.00     0.162 HD
BRANCH  44  46
HETATM   46  C28 UNL     1      -4.801  11.445  -6.167  1.00  0.00     0.083 C 
BRANCH  46  47
HETATM   47  C29 UNL     1      -5.590  10.187  -6.311  1.00  0.00     0.021 C 
HETATM   48  C30 UNL     1      -6.631  10.045  -5.214  1.00  0.00     0.007 C 
ENDBRANCH  46  47
BRANCH  46  49
HETATM   49  C31 UNL     1      -3.328  11.187  -5.940  1.00  0.00     0.021 C 
HETATM   50  C32 UNL     1      -3.057  10.744  -4.518  1.00  0.00     0.007 C 
ENDBRANCH  46  49
ENDBRANCH  44  46
ENDBRANCH  41  42
ENDBRANCH   1  29
TORSDOF 15
ENDMDL
MODEL 3
REMARK VINA RESULT: -7.868696856      4.973     12.756
REMARK  15 active torsions:
REMARK  status: ('A' for Active; 'I' for Inactive)
REMARK    1  A    between atoms: C2_2  and  C3_3 
REMARK    2  A    between atoms: C3_3  and  N1_4 
REMARK    3  A    between atoms: N1_4  and  C4_5 
REMARK       I    between atoms: N1_4  and  C7_8 
REMARK    4  A    between atoms: C4_5  and  C5_6 
REMARK       I    between atoms: C7_8  and  N2_10 
REMARK    5  A    between atoms: N2_10  and  C8_12 
REMARK    6  A    between atoms: C8_12  and  C9_13 
REMARK    7  A    between atoms: C9_13  and  N3_14 
REMARK       I    between atoms: N3_14  and  C10_16 
REMARK    8  A    between atoms: C10_16  and  C11_18 
REMARK    9  A    between atoms: C11_18  and  N4_19 
REMARK   10  A    between atoms: C11_18  and  C19_29 
REMARK   11  A    between atoms: N4_19  and  C12_22 
REMARK       I    between atoms: C19_29  and  N5_31 
REMARK   12  A    between atoms: C26_38  and  C27_39 
REMARK       I    between atoms: C27_39  and  N6_41 
REMARK   13  A    between atoms: N6_41  and  C28_43 
REMARK   14  A    between atoms: C28_43  and  C29_44 
REMARK   15  A    between atoms: C28_43  and  C31_46 
ROOT
HETATM    1  C11 UNL     1      -3.780   9.197  -1.863  1.00  0.00     0.368 C 
ENDROOT
BRANCH   1   2
HETATM    2  C10 UNL     1      -3.812   8.573  -3.190  1.00  0.00     0.258 C 
HETATM    3  N3  UNL     1      -3.126   9.093  -4.315  1.00  0.00    -0.357 N 
ATOM      4  H3  UNL     1      -2.571   9.941  -4.213  1.00  0.00     0.162 HD
HETATM    5  O2  UNL     1      -4.493   7.503  -3.344  1.00  0.00    -0.271 OA
BRANCH   3   6
HETATM    6  C9  UNL     1      -3.200   8.437  -5.619  1.00  0.00     0.142 C 
BRANCH   6   7
HETATM    7  C8  UNL     1      -3.380   9.488  -6.691  1.00  0.00     0.144 C 
BRANCH   7   8
HETATM    8  N2  UNL     1      -4.677  10.117  -6.522  1.00  0.00    -0.341 N 
HETATM    9  C7  UNL     1      -4.769  11.482  -6.151  1.00  0.00     0.318 C 
HETATM   10  N1  UNL     1      -6.016  12.141  -5.970  1.00  0.00    -0.334 N 
HETATM   11  O1  UNL     1      -3.696  12.132  -5.978  1.00  0.00    -0.247 OA
ATOM     12  H2  UNL     1      -5.527   9.573  -6.671  1.00  0.00     0.164 HD
BRANCH  10  13
HETATM   13  C3  UNL     1      -5.985  13.532  -5.608  1.00  0.00     0.127 C 
BRANCH  13  14
HETATM   14  C2  UNL     1      -6.280  13.796  -4.179  1.00  0.00     0.015 C 
HETATM   15  C1  UNL     1      -7.628  14.435  -3.998  1.00  0.00     0.006 C 
ENDBRANCH  13  14
ENDBRANCH  10  13
BRANCH  10  16
HETATM   16  C4  UNL     1      -7.259  11.407  -6.164  1.00  0.00     0.127 C 
BRANCH  16  17
HETATM   17  C5  UNL     1      -8.148  12.125  -7.176  1.00  0.00     0.015 C 
HETATM   18  C6  UNL     1      -9.487  11.436  -7.226  1.00  0.00     0.006 C 
ENDBRANCH  16  17
ENDBRANCH  10  16
ENDBRANCH   7   8
ENDBRANCH   6   7
ENDBRANCH   3   6
ENDBRANCH   1   2
BRANCH   1  19
HETATM   19  N4  UNL     1      -4.330   8.283  -0.845  1.00  0.00    -0.049 N 
ATOM     20  H42 UNL     1      -4.879   8.802  -0.159  1.00  0.00     0.279 HD
ATOM     21  H41 UNL     1      -5.063   7.699  -1.247  1.00  0.00     0.279 HD
BRANCH  19  22
HETATM   22  C12 UNL     1      -3.350   7.479  -0.194  1.00  0.00     0.187 C 
HETATM   23  C13 UNL     1      -2.197   8.335   0.310  1.00  0.00     0.033 C 
HETATM   24  C14 UNL     1      -1.796   8.023   1.712  1.00  0.00     0.002 C 
HETATM   25  C15 UNL     1      -2.726   8.618   2.754  1.00  0.00     0.000 C 
HETATM   26  C16 UNL     1      -3.810   7.640   3.138  1.00  0.00     0.000 C 
HETATM   27  C17 UNL     1      -4.705   7.427   1.929  1.00  0.00     0.002 C 
HETATM   28  C18 UNL     1      -3.983   6.645   0.870  1.00  0.00     0.033 C 
ENDBRANCH  19  22
ENDBRANCH   1  19
BRANCH   1  29
HETATM   29  C19 UNL     1      -4.624  10.402  -1.771  1.00  0.00     0.260 C 
HETATM   30  O3  UNL     1      -5.513  10.581  -2.666  1.00  0.00    -0.270 OA
HETATM   31  N5  UNL     1      -4.489  11.348  -0.747  1.00  0.00    -0.350 N 
HETATM   32  C20 UNL     1      -3.568  11.302   0.360  1.00  0.00     0.126 C 
HETATM   33  C35 UNL     1      -5.354  12.559  -0.731  1.00  0.00     0.126 C 
HETATM   34  C21 UNL     1      -4.201  11.901   1.569  1.00  0.00     0.029 C 
HETATM   35  C22 UNL     1      -5.698  11.806   1.628  1.00  0.00    -0.037 C 
HETATM   36  C23 UNL     1      -6.083  10.385   1.886  1.00  0.00     0.010 C 
HETATM   37  C33 UNL     1      -6.155  12.647   2.793  1.00  0.00     0.023 C 
HETATM   38  C34 UNL     1      -6.355  12.373   0.390  1.00  0.00     0.029 C 
HETATM   39  C24 UNL     1      -7.566  10.193   2.056  1.00  0.00     0.002 C 
HETATM   40  C25 UNL     1      -8.111  11.105   3.097  1.00  0.00     0.014 C 
HETATM   41  C26 UNL     1      -7.625  12.504   3.082  1.00  0.00     0.078 C 
BRANCH  41  42
HETATM   42  C27 UNL     1      -7.854  13.116   4.412  1.00  0.00     0.222 C 
HETATM   43  O4  UNL     1      -7.386  12.537   5.424  1.00  0.00    -0.273 OA
HETATM   44  N6  UNL     1      -8.581  14.328   4.581  1.00  0.00    -0.356 N 
ATOM     45  H6  UNL     1      -8.955  14.783   3.748  1.00  0.00     0.162 HD
BRANCH  44  46
HETATM   46  C28 UNL     1      -8.819  14.945   5.852  1.00  0.00     0.083 C 
BRANCH  46  47
HETATM   47  C29 UNL     1     -10.187  14.607   6.341  1.00  0.00     0.021 C 
HETATM   48  C30 UNL     1     -10.187  13.353   7.199  1.00  0.00     0.007 C 
ENDBRANCH  46  47
BRANCH  46  49
HETATM   49  C31 UNL     1      -8.563  16.435   5.820  1.00  0.00     0.021 C 
HETATM   50  C32 UNL     1      -9.853  17.216   5.695  1.00  0.00     0.007 C 
ENDBRANCH  46  49
ENDBRANCH  44  46
ENDBRANCH  41  42
ENDBRANCH   1  29
TORSDOF 15
ENDMDL
MODEL 4
REMARK VINA RESULT: -7.833660142      5.082     12.390
REMARK  15 active torsions:
REMARK  status: ('A' for Active; 'I' for Inactive)
REMARK    1  A    between atoms: C2_2  and  C3_3 
REMARK    2  A    between atoms: C3_3  and  N1_4 
REMARK    3  A    between atoms: N1_4  and  C4_5 
REMARK       I    between atoms: N1_4  and  C7_8 
REMARK    4  A    between atoms: C4_5  and  C5_6 
REMARK       I    between atoms: C7_8  and  N2_10 
REMARK    5  A    between atoms: N2_10  and  C8_12 
REMARK    6  A    between atoms: C8_12  and  C9_13 
REMARK    7  A    between atoms: C9_13  and  N3_14 
REMARK       I    between atoms: N3_14  and  C10_16 
REMARK    8  A    between atoms: C10_16  and  C11_18 
REMARK    9  A    between atoms: C11_18  and  N4_19 
REMARK   10  A    between atoms: C11_18  and  C19_29 
REMARK   11  A    between atoms: N4_19  and  C12_22 
REMARK       I    between atoms: C19_29  and  N5_31 
REMARK   12  A    between atoms: C26_38  and  C27_39 
REMARK       I    between atoms: C27_39  and  N6_41 
REMARK   13  A    between atoms: N6_41  and  C28_43 
REMARK   14  A    between atoms: C28_43  and  C29_44 
REMARK   15  A    between atoms: C28_43  and  C31_46 
ROOT
HETATM    1  C11 UNL     1      -4.158  10.752  -1.904  1.00  0.00     0.368 C 
ENDROOT
BRANCH   1   2
HETATM    2  C10 UNL     1      -3.908  11.087  -3.310  1.00  0.00     0.258 C 
HETATM    3  N3  UNL     1      -3.103  10.299  -4.169  1.00  0.00    -0.357 N 
ATOM      4  H3  UNL     1      -2.674   9.447  -3.810  1.00  0.00     0.162 HD
HETATM    5  O2  UNL     1      -4.441  12.144  -3.788  1.00  0.00    -0.271 OA
BRANCH   3   6
HETATM    6  C9  UNL     1      -2.877  10.684  -5.560  1.00  0.00     0.142 C 
BRANCH   6   7
HETATM    7  C8  UNL     1      -3.733   9.818  -6.458  1.00  0.00     0.144 C 
BRANCH   7   8
HETATM    8  N2  UNL     1      -5.031  10.446  -6.620  1.00  0.00    -0.341 N 
HETATM    9  C7  UNL     1      -6.135  10.023  -5.837  1.00  0.00     0.318 C 
HETATM   10  N1  UNL     1      -7.427  10.604  -5.963  1.00  0.00    -0.334 N 
HETATM   11  O1  UNL     1      -5.955   9.093  -4.996  1.00  0.00    -0.247 OA
ATOM     12  H2  UNL     1      -5.150  11.196  -7.301  1.00  0.00     0.164 HD
BRANCH  10  13
HETATM   13  C3  UNL     1      -8.466  10.104  -5.105  1.00  0.00     0.127 C 
BRANCH  13  14
HETATM   14  C2  UNL     1      -9.747   9.827  -5.798  1.00  0.00     0.015 C 
HETATM   15  C1  UNL     1      -9.772   8.445  -6.388  1.00  0.00     0.006 C 
ENDBRANCH  13  14
ENDBRANCH  10  13
BRANCH  10  16
HETATM   16  C4  UNL     1      -7.651  11.674  -6.926  1.00  0.00     0.127 C 
BRANCH  16  17
HETATM   17  C5  UNL     1      -7.678  13.027  -6.221  1.00  0.00     0.015 C 
HETATM   18  C6  UNL     1      -6.302  13.639  -6.286  1.00  0.00     0.006 C 
ENDBRANCH  16  17
ENDBRANCH  10  16
ENDBRANCH   7   8
ENDBRANCH   6   7
ENDBRANCH   3   6
ENDBRANCH   1   2
BRANCH   1  19
HETATM   19  N4  UNL     1      -3.769   9.358  -1.622  1.00  0.00    -0.049 N 
ATOM     20  H42 UNL     1      -4.481   8.895  -1.057  1.00  0.00     0.279 HD
ATOM     21  H41 UNL     1      -3.826   8.792  -2.469  1.00  0.00     0.279 HD
BRANCH  19  22
HETATM   22  C12 UNL     1      -2.485   9.223  -1.017  1.00  0.00     0.187 C 
HETATM   23  C13 UNL     1      -1.951  10.579  -0.577  1.00  0.00     0.033 C 
HETATM   24  C14 UNL     1      -1.391  10.575   0.805  1.00  0.00     0.002 C 
HETATM   25  C15 UNL     1      -2.453  10.613   1.889  1.00  0.00     0.000 C 
HETATM   26  C16 UNL     1      -2.829   9.220   2.333  1.00  0.00     0.000 C 
HETATM   27  C17 UNL     1      -3.517   8.523   1.172  1.00  0.00     0.002 C 
HETATM   28  C18 UNL     1      -2.531   8.215   0.082  1.00  0.00     0.033 C 
ENDBRANCH  19  22
ENDBRANCH   1  19
BRANCH   1  29
HETATM   29  C19 UNL     1      -5.586  10.816  -1.541  1.00  0.00     0.260 C 
HETATM   30  O3  UNL     1      -6.311   9.795  -1.776  1.00  0.00    -0.270 OA
HETATM   31  N5  UNL     1      -6.171  11.944  -0.951  1.00  0.00    -0.350 N 
HETATM   32  C20 UNL     1      -5.510  13.172  -0.586  1.00  0.00     0.126 C 
HETATM   33  C35 UNL     1      -7.625  11.954  -0.638  1.00  0.00     0.126 C 
HETATM   34  C21 UNL     1      -6.128  13.730   0.650  1.00  0.00     0.029 C 
HETATM   35  C22 UNL     1      -6.748  12.721   1.574  1.00  0.00    -0.037 C 
HETATM   36  C23 UNL     1      -5.660  11.936   2.233  1.00  0.00     0.010 C 
HETATM   37  C33 UNL     1      -7.500  13.486   2.634  1.00  0.00     0.023 C 
HETATM   38  C34 UNL     1      -7.754  11.842   0.866  1.00  0.00     0.029 C 
HETATM   39  C24 UNL     1      -6.171  10.955   3.253  1.00  0.00     0.002 C 
HETATM   40  C25 UNL     1      -7.045  11.624   4.253  1.00  0.00     0.014 C 
HETATM   41  C26 UNL     1      -8.027  12.604   3.734  1.00  0.00     0.078 C 
BRANCH  41  42
HETATM   42  C27 UNL     1      -8.445  13.507   4.833  1.00  0.00     0.222 C 
HETATM   43  O4  UNL     1      -7.919  13.353   5.963  1.00  0.00    -0.273 OA
HETATM   44  N6  UNL     1      -9.413  14.533   4.652  1.00  0.00    -0.356 N 
ATOM     45  H6  UNL     1      -9.830  14.643   3.727  1.00  0.00     0.162 HD
BRANCH  44  46
HETATM   46  C28 UNL     1      -9.838  15.422   5.693  1.00  0.00     0.083 C 
BRANCH  46  47
HETATM   47  C29 UNL     1     -11.318  15.598   5.648  1.00  0.00     0.021 C 
HETATM   48  C30 UNL     1     -12.024  14.331   5.196  1.00  0.00     0.007 C 
ENDBRANCH  46  47
BRANCH  46  49
HETATM   49  C31 UNL     1      -9.092  16.738   5.659  1.00  0.00     0.021 C 
HETATM   50  C32 UNL     1     -10.039  17.914   5.766  1.00  0.00     0.007 C 
ENDBRANCH  46  49
ENDBRANCH  44  46
ENDBRANCH  41  42
ENDBRANCH   1  29
TORSDOF 15
ENDMDL
MODEL 5
REMARK VINA RESULT: -7.833656291      4.322     12.164
REMARK  15 active torsions:
REMARK  status: ('A' for Active; 'I' for Inactive)
REMARK    1  A    between atoms: C2_2  and  C3_3 
REMARK    2  A    between atoms: C3_3  and  N1_4 
REMARK    3  A    between atoms: N1_4  and  C4_5 
REMARK       I    between atoms: N1_4  and  C7_8 
REMARK    4  A    between atoms: C4_5  and  C5_6 
REMARK       I    between atoms: C7_8  and  N2_10 
REMARK    5  A    between atoms: N2_10  and  C8_12 
REMARK    6  A    between atoms: C8_12  and  C9_13 
REMARK    7  A    between atoms: C9_13  and  N3_14 
REMARK       I    between atoms: N3_14  and  C10_16 
REMARK    8  A    between atoms: C10_16  and  C11_18 
REMARK    9  A    between atoms: C11_18  and  N4_19 
REMARK   10  A    between atoms: C11_18  and  C19_29 
REMARK   11  A    between atoms: N4_19  and  C12_22 
REMARK       I    between atoms: C19_29  and  N5_31 
REMARK   12  A    between atoms: C26_38  and  C27_39 
REMARK       I    between atoms: C27_39  and  N6_41 
REMARK   13  A    between atoms: N6_41  and  C28_43 
REMARK   14  A    between atoms: C28_43  and  C29_44 
REMARK   15  A    between atoms: C28_43  and  C31_46 
ROOT
HETATM    1  C11 UNL     1      -3.700  10.095  -2.412  1.00  0.00     0.368 C 
ENDROOT
BRANCH   1   2
HETATM    2  C10 UNL     1      -3.333   9.894  -3.818  1.00  0.00     0.258 C 
HETATM    3  N3  UNL     1      -4.119   9.152  -4.732  1.00  0.00    -0.357 N 
ATOM      4  H3  UNL     1      -4.993   8.734  -4.415  1.00  0.00     0.162 HD
HETATM    5  O2  UNL     1      -2.246  10.414  -4.244  1.00  0.00    -0.271 OA
BRANCH   3   6
HETATM    6  C9  UNL     1      -3.701   8.972  -6.121  1.00  0.00     0.142 C 
BRANCH   6   7
HETATM    7  C8  UNL     1      -4.041  10.221  -6.904  1.00  0.00     0.144 C 
BRANCH   7   8
HETATM    8  N2  UNL     1      -5.383  10.647  -6.554  1.00  0.00    -0.341 N 
HETATM    9  C7  UNL     1      -5.609  11.944  -6.029  1.00  0.00     0.318 C 
HETATM   10  N1  UNL     1      -6.904  12.406  -5.666  1.00  0.00    -0.334 N 
HETATM   11  O1  UNL     1      -4.614  12.715  -5.882  1.00  0.00    -0.247 OA
ATOM     12  H2  UNL     1      -6.168  10.009  -6.685  1.00  0.00     0.164 HD
BRANCH  10  13
HETATM   13  C3  UNL     1      -7.013  13.746  -5.160  1.00  0.00     0.127 C 
BRANCH  13  14
HETATM   14  C2  UNL     1      -8.347  14.081  -4.604  1.00  0.00     0.015 C 
HETATM   15  C1  UNL     1      -8.251  15.100  -3.504  1.00  0.00     0.006 C 
ENDBRANCH  13  14
ENDBRANCH  10  13
BRANCH  10  16
HETATM   16  C4  UNL     1      -8.057  11.532  -5.829  1.00  0.00     0.127 C 
BRANCH  16  17
HETATM   17  C5  UNL     1      -8.706  11.755  -7.192  1.00  0.00     0.015 C 
HETATM   18  C6  UNL     1     -10.051  11.075  -7.210  1.00  0.00     0.006 C 
ENDBRANCH  16  17
ENDBRANCH  10  16
ENDBRANCH   7   8
ENDBRANCH   6   7
ENDBRANCH   3   6
ENDBRANCH   1   2
BRANCH   1  19
HETATM   19  N4  UNL     1      -3.445   8.874  -1.626  1.00  0.00    -0.049 N 
ATOM     20  H42 UNL     1      -4.244   8.660  -1.029  1.00  0.00     0.279 HD
ATOM     21  H41 UNL     1      -3.453   8.052  -2.230  1.00  0.00     0.279 HD
BRANCH  19  22
HETATM   22  C12 UNL     1      -2.245   8.917  -0.857  1.00  0.00     0.187 C 
HETATM   23  C13 UNL     1      -1.812  10.356  -0.613  1.00  0.00     0.033 C 
HETATM   24  C14 UNL     1      -1.432  10.627   0.804  1.00  0.00     0.002 C 
HETATM   25  C15 UNL     1      -2.624  10.802   1.728  1.00  0.00     0.000 C 
HETATM   26  C16 UNL     1      -3.012   9.493   2.371  1.00  0.00     0.000 C 
HETATM   27  C17 UNL     1      -3.525   8.565   1.283  1.00  0.00     0.002 C 
HETATM   28  C18 UNL     1      -2.400   8.120   0.395  1.00  0.00     0.033 C 
ENDBRANCH  19  22
ENDBRANCH   1  19
BRANCH   1  29
HETATM   29  C19 UNL     1      -5.138  10.361  -2.223  1.00  0.00     0.260 C 
HETATM   30  O3  UNL     1      -5.925   9.364  -2.134  1.00  0.00    -0.270 OA
HETATM   31  N5  UNL     1      -5.667  11.655  -2.136  1.00  0.00    -0.350 N 
HETATM   32  C20 UNL     1      -4.935  12.896  -2.185  1.00  0.00     0.126 C 
HETATM   33  C35 UNL     1      -7.133  11.854  -1.977  1.00  0.00     0.126 C 
HETATM   34  C21 UNL     1      -5.583  13.900  -1.295  1.00  0.00     0.029 C 
HETATM   35  C22 UNL     1      -6.338  13.335  -0.126  1.00  0.00    -0.037 C 
HETATM   36  C23 UNL     1      -5.359  12.794   0.865  1.00  0.00     0.010 C 
HETATM   37  C33 UNL     1      -7.091  14.474   0.514  1.00  0.00     0.023 C 
HETATM   38  C34 UNL     1      -7.365  12.309  -0.552  1.00  0.00     0.029 C 
HETATM   39  C24 UNL     1      -6.009  12.283   2.123  1.00  0.00     0.002 C 
HETATM   40  C25 UNL     1      -6.889  13.317   2.732  1.00  0.00     0.014 C 
HETATM   41  C26 UNL     1      -7.754  14.086   1.808  1.00  0.00     0.078 C 
BRANCH  41  42
HETATM   42  C27 UNL     1      -8.168  15.350   2.464  1.00  0.00     0.222 C 
HETATM   43  O4  UNL     1      -7.680  16.428   2.042  1.00  0.00    -0.273 OA
HETATM   44  N6  UNL     1      -9.090  15.383   3.546  1.00  0.00    -0.356 N 
ATOM     45  H6  UNL     1      -9.475  14.497   3.877  1.00  0.00     0.162 HD
BRANCH  44  46
HETATM   46  C28 UNL     1      -9.510  16.587   4.201  1.00  0.00     0.083 C 
BRANCH  46  47
HETATM   47  C29 UNL     1      -9.092  16.567   5.632  1.00  0.00     0.021 C 
HETATM   48  C30 UNL     1      -8.448  15.246   6.016  1.00  0.00     0.007 C 
ENDBRANCH  46  47
BRANCH  46  49
HETATM   49  C31 UNL     1     -10.990  16.844   4.028  1.00  0.00     0.021 C 
HETATM   50  C32 UNL     1     -11.732  16.715   5.342  1.00  0.00     0.007 C 
ENDBRANCH  46  49
ENDBRANCH  44  46
ENDBRANCH  41  42
ENDBRANCH   1  29
TORSDOF 15
ENDMDL
