MODEL 1
REMARK VINA RESULT: -7.419002042      0.000      0.000
REMARK  4 active torsions:
REMARK  status: ('A' for Active; 'I' for Inactive)
REMARK    1  A    between atoms: O1_1  and  C1_3 
REMARK    2  A    between atoms: C1_3  and  C2_4 
REMARK    3  A    between atoms: C2_4  and  C3_5 
REMARK    4  A    between atoms: C3_5  and  C4_6 
ROOT
HETATM    1  C4  UNL     1       6.417  -5.984  11.070  1.00  0.00    -0.012 C 
HETATM    2  C5  UNL     1       5.818  -7.324  10.928  1.00  0.00     0.005 C 
HETATM    3  C6  UNL     1       4.464  -7.586  11.450  1.00  0.00     0.000 C 
HETATM    4  C7  UNL     1       3.445  -7.806  10.345  1.00  0.00     0.000 C 
HETATM    5  C8  UNL     1       2.913  -6.531   9.756  1.00  0.00     0.000 C 
HETATM    6  C9  UNL     1       2.144  -5.680  10.710  1.00  0.00     0.000 C 
HETATM    7  C10 UNL     1       2.544  -4.222  10.644  1.00  0.00     0.000 C 
HETATM    8  C11 UNL     1       3.489  -3.838  11.775  1.00  0.00     0.000 C 
HETATM    9  C12 UNL     1       4.900  -3.975  11.301  1.00  0.00     0.000 C 
HETATM   10  C13 UNL     1       5.709  -5.025  12.012  1.00  0.00     0.005 C 
ENDROOT
BRANCH   1  11
HETATM   11  C3  UNL     1       7.887  -5.904  11.267  1.00  0.00     0.045 C 
BRANCH  11  12
HETATM   12  C2  UNL     1       8.681  -4.865  10.617  1.00  0.00     0.082 C 
HETATM   13  C14 UNL     1       8.234  -4.302   9.323  1.00  0.00     0.040 C 
HETATM   14  C15 UNL     1       8.290  -5.295   8.183  1.00  0.00     0.005 C 
HETATM   15  C16 UNL     1       9.679  -5.907   8.129  1.00  0.00     0.026 C 
HETATM   16  C17 UNL     1       9.985  -6.443   9.493  1.00  0.00     0.168 C 
HETATM   17  O2  UNL     1       9.986  -5.455  10.426  1.00  0.00    -0.378 OA
BRANCH  12  18
HETATM   18  C1  UNL     1       9.081  -3.706  11.531  1.00  0.00     0.202 C 
BRANCH  18  19
HETATM   19  O1  UNL     1      10.452  -3.512  11.541  1.00  0.00    -0.398 OA
ATOM     20  H1  UNL     1      10.715  -2.823  10.941  1.00  0.00     0.209 HD
ENDBRANCH  18  19
ENDBRANCH  12  18
ENDBRANCH  11  12
ENDBRANCH   1  11
TORSDOF 4
ENDMDL
MODEL 2
REMARK VINA RESULT: -6.959173456      1.133      2.230
REMARK  4 active torsions:
REMARK  status: ('A' for Active; 'I' for Inactive)
REMARK    1  A    between atoms: O1_1  and  C1_3 
REMARK    2  A    between atoms: C1_3  and  C2_4 
REMARK    3  A    between atoms: C2_4  and  C3_5 
REMARK    4  A    between atoms: C3_5  and  C4_6 
ROOT
HETATM    1  C4  UNL     1       6.008  -6.075  11.029  1.00  0.00    -0.012 C 
HETATM    2  C5  UNL     1       5.424  -7.428  10.974  1.00  0.00     0.005 C 
HETATM    3  C6  UNL     1       4.055  -7.661  11.470  1.00  0.00     0.000 C 
HETATM    4  C7  UNL     1       3.076  -7.977  10.352  1.00  0.00     0.000 C 
HETATM    5  C8  UNL     1       2.556  -6.758   9.647  1.00  0.00     0.000 C 
HETATM    6  C9  UNL     1       1.748  -5.842  10.505  1.00  0.00     0.000 C 
HETATM    7  C10 UNL     1       2.140  -4.390  10.337  1.00  0.00     0.000 C 
HETATM    8  C11 UNL     1       3.044  -3.909  11.464  1.00  0.00     0.000 C 
HETATM    9  C12 UNL     1       4.471  -4.068  11.049  1.00  0.00     0.000 C 
HETATM   10  C13 UNL     1       5.263  -5.051  11.867  1.00  0.00     0.005 C 
ENDROOT
BRANCH   1  11
HETATM   11  C3  UNL     1       7.471  -5.966  11.267  1.00  0.00     0.045 C 
BRANCH  11  12
HETATM   12  C2  UNL     1       8.320  -5.159  10.395  1.00  0.00     0.082 C 
HETATM   13  C14 UNL     1       9.783  -5.386  10.380  1.00  0.00     0.040 C 
HETATM   14  C15 UNL     1      10.465  -5.008  11.676  1.00  0.00     0.005 C 
HETATM   15  C16 UNL     1      10.077  -3.586  12.041  1.00  0.00     0.026 C 
HETATM   16  C17 UNL     1       8.582  -3.512  12.030  1.00  0.00     0.168 C 
HETATM   17  O2  UNL     1       8.080  -3.793  10.799  1.00  0.00    -0.378 OA
BRANCH  12  18
HETATM   18  C1  UNL     1       7.835  -5.062   8.948  1.00  0.00     0.202 C 
BRANCH  18  19
HETATM   19  O1  UNL     1       8.841  -4.630   8.099  1.00  0.00    -0.398 OA
ATOM     20  H1  UNL     1       9.298  -5.360   7.696  1.00  0.00     0.209 HD
ENDBRANCH  18  19
ENDBRANCH  12  18
ENDBRANCH  11  12
ENDBRANCH   1  11
TORSDOF 4
ENDMDL
MODEL 3
REMARK VINA RESULT: -6.883661124      2.494      5.547
REMARK  4 active torsions:
REMARK  status: ('A' for Active; 'I' for Inactive)
REMARK    1  A    between atoms: O1_1  and  C1_3 
REMARK    2  A    between atoms: C1_3  and  C2_4 
REMARK    3  A    between atoms: C2_4  and  C3_5 
REMARK    4  A    between atoms: C3_5  and  C4_6 
ROOT
HETATM    1  C4  UNL     1       5.653  -5.756   9.946  1.00  0.00    -0.012 C 
HETATM    2  C5  UNL     1       5.222  -7.122   9.594  1.00  0.00     0.005 C 
HETATM    3  C6  UNL     1       5.863  -7.830   8.470  1.00  0.00     0.000 C 
HETATM    4  C7  UNL     1       6.721  -8.997   8.930  1.00  0.00     0.000 C 
HETATM    5  C8  UNL     1       8.092  -8.591   9.386  1.00  0.00     0.000 C 
HETATM    6  C9  UNL     1       8.948  -7.989   8.322  1.00  0.00     0.000 C 
HETATM    7  C10 UNL     1       9.650  -6.730   8.781  1.00  0.00     0.000 C 
HETATM    8  C11 UNL     1       8.946  -5.472   8.289  1.00  0.00     0.000 C 
HETATM    9  C12 UNL     1       7.989  -5.005   9.339  1.00  0.00     0.000 C 
HETATM   10  C13 UNL     1       6.540  -5.046   8.938  1.00  0.00     0.005 C 
ENDROOT
BRANCH   1  11
HETATM   11  C3  UNL     1       4.622  -4.823  10.469  1.00  0.00     0.045 C 
BRANCH  11  12
HETATM   12  C2  UNL     1       4.594  -4.442  11.878  1.00  0.00     0.082 C 
HETATM   13  C14 UNL     1       4.428  -5.483  12.917  1.00  0.00     0.040 C 
HETATM   14  C15 UNL     1       3.069  -6.146  12.894  1.00  0.00     0.005 C 
HETATM   15  C16 UNL     1       1.995  -5.073  12.937  1.00  0.00     0.026 C 
HETATM   16  C17 UNL     1       2.283  -4.107  11.830  1.00  0.00     0.168 C 
HETATM   17  O2  UNL     1       3.493  -3.512  11.993  1.00  0.00    -0.378 OA
BRANCH  12  18
HETATM   18  C1  UNL     1       5.729  -3.512  12.309  1.00  0.00     0.202 C 
BRANCH  18  19
HETATM   19  O1  UNL     1       6.887  -4.216  12.597  1.00  0.00    -0.398 OA
ATOM     20  H1  UNL     1       7.602  -3.968  12.023  1.00  0.00     0.209 HD
ENDBRANCH  18  19
ENDBRANCH  12  18
ENDBRANCH  11  12
ENDBRANCH   1  11
TORSDOF 4
ENDMDL
MODEL 4
REMARK VINA RESULT: -6.845894646      3.013      6.376
REMARK  4 active torsions:
REMARK  status: ('A' for Active; 'I' for Inactive)
REMARK    1  A    between atoms: O1_1  and  C1_3 
REMARK    2  A    between atoms: C1_3  and  C2_4 
REMARK    3  A    between atoms: C2_4  and  C3_5 
REMARK    4  A    between atoms: C3_5  and  C4_6 
ROOT
HETATM    1  C4  UNL     1       6.028  -6.620  10.963  1.00  0.00    -0.012 C 
HETATM    2  C5  UNL     1       6.947  -5.470  11.053  1.00  0.00     0.005 C 
HETATM    3  C6  UNL     1       8.402  -5.678  10.926  1.00  0.00     0.000 C 
HETATM    4  C7  UNL     1       8.963  -5.103   9.636  1.00  0.00     0.000 C 
HETATM    5  C8  UNL     1       8.784  -6.003   8.449  1.00  0.00     0.000 C 
HETATM    6  C9  UNL     1       9.512  -7.303   8.541  1.00  0.00     0.000 C 
HETATM    7  C10 UNL     1       8.651  -8.483   8.147  1.00  0.00     0.000 C 
HETATM    8  C11 UNL     1       8.109  -9.224   9.363  1.00  0.00     0.000 C 
HETATM    9  C12 UNL     1       6.755  -8.685   9.700  1.00  0.00     0.000 C 
HETATM   10  C13 UNL     1       6.661  -7.999  11.035  1.00  0.00     0.005 C 
ENDROOT
BRANCH   1  11
HETATM   11  C3  UNL     1       4.793  -6.580  11.788  1.00  0.00     0.045 C 
BRANCH  11  12
HETATM   12  C2  UNL     1       3.470  -6.592  11.169  1.00  0.00     0.082 C 
HETATM   13  C14 UNL     1       3.155  -5.627  10.091  1.00  0.00     0.040 C 
HETATM   14  C15 UNL     1       3.108  -4.191  10.563  1.00  0.00     0.005 C 
HETATM   15  C16 UNL     1       2.171  -4.094  11.755  1.00  0.00     0.026 C 
HETATM   16  C17 UNL     1       2.617  -5.109  12.760  1.00  0.00     0.168 C 
HETATM   17  O2  UNL     1       2.546  -6.370  12.257  1.00  0.00    -0.378 OA
BRANCH  12  18
HETATM   18  C1  UNL     1       2.986  -7.974  10.731  1.00  0.00     0.202 C 
BRANCH  18  19
HETATM   19  O1  UNL     1       1.776  -7.905  10.060  1.00  0.00    -0.398 OA
ATOM     20  H1  UNL     1       1.086  -8.358  10.531  1.00  0.00     0.209 HD
ENDBRANCH  18  19
ENDBRANCH  12  18
ENDBRANCH  11  12
ENDBRANCH   1  11
TORSDOF 4
ENDMDL
MODEL 5
REMARK VINA RESULT: -6.804599949      3.131      6.033
REMARK  4 active torsions:
REMARK  status: ('A' for Active; 'I' for Inactive)
REMARK    1  A    between atoms: O1_1  and  C1_3 
REMARK    2  A    between atoms: C1_3  and  C2_4 
REMARK    3  A    between atoms: C2_4  and  C3_5 
REMARK    4  A    between atoms: C3_5  and  C4_6 
ROOT
HETATM    1  C4  UNL     1       5.171  -4.704  10.705  1.00  0.00    -0.012 C 
HETATM    2  C5  UNL     1       5.735  -5.026   9.381  1.00  0.00     0.005 C 
HETATM    3  C6  UNL     1       7.048  -4.480   8.987  1.00  0.00     0.000 C 
HETATM    4  C7  UNL     1       8.122  -5.550   8.903  1.00  0.00     0.000 C 
HETATM    5  C8  UNL     1       8.727  -5.901  10.231  1.00  0.00     0.000 C 
HETATM    6  C9  UNL     1       9.465  -4.783  10.891  1.00  0.00     0.000 C 
HETATM    7  C10 UNL     1       9.114  -4.638  12.356  1.00  0.00     0.000 C 
HETATM    8  C11 UNL     1       8.117  -3.512  12.595  1.00  0.00     0.000 C 
HETATM    9  C12 UNL     1       6.732  -4.077  12.591  1.00  0.00     0.000 C 
HETATM   10  C13 UNL     1       5.851  -3.586  11.476  1.00  0.00     0.005 C 
ENDROOT
BRANCH   1  11
HETATM   11  C3  UNL     1       3.694  -4.576  10.812  1.00  0.00     0.045 C 
BRANCH  11  12
HETATM   12  C2  UNL     1       2.903  -5.557  11.548  1.00  0.00     0.082 C 
HETATM   13  C14 UNL     1       3.334  -6.974  11.579  1.00  0.00     0.040 C 
HETATM   14  C15 UNL     1       3.247  -7.660  10.235  1.00  0.00     0.005 C 
HETATM   15  C16 UNL     1       1.849  -7.466   9.670  1.00  0.00     0.026 C 
HETATM   16  C17 UNL     1       1.560  -5.997   9.687  1.00  0.00     0.168 C 
HETATM   17  O2  UNL     1       1.587  -5.500  10.951  1.00  0.00    -0.378 OA
BRANCH  12  18
HETATM   18  C1  UNL     1       2.531  -5.138  12.970  1.00  0.00     0.202 C 
BRANCH  18  19
HETATM   19  O1  UNL     1       1.458  -4.262  12.983  1.00  0.00    -0.398 OA
ATOM     20  H1  UNL     1       1.174  -4.042  12.103  1.00  0.00     0.209 HD
ENDBRANCH  18  19
ENDBRANCH  12  18
ENDBRANCH  11  12
ENDBRANCH   1  11
TORSDOF 4
ENDMDL
