MODEL 1
REMARK VINA RESULT: -9.802147599      0.000      0.000
REMARK  4 active torsions:
REMARK  status: ('A' for Active; 'I' for Inactive)
REMARK    1  A    between atoms: C5_5  and  O1_6 
REMARK    2  A    between atoms: C6_8  and  C8_10 
REMARK    3  A    between atoms: C8_10  and  C9_11 
REMARK    4  A    between atoms: C9_11  and  C10_12 
ROOT
HETATM    1  C1  UNL     1       9.809 -16.136  15.319  1.00  0.00     0.049 C 
HETATM    2  C2  UNL     1      10.195 -16.091  16.796  1.00  0.00     0.091 C 
HETATM    3  C3  UNL     1       8.949 -16.335  17.586  1.00  0.00     0.049 C 
HETATM    4  C4  UNL     1      11.298 -17.093  17.100  1.00  0.00     0.075 C 
HETATM    5  C5  UNL     1      12.389 -16.468  17.941  1.00  0.00     0.158 C 
HETATM    6  C6  UNL     1      12.972 -15.303  17.204  1.00  0.00     0.118 C 
HETATM    7  C7  UNL     1      13.927 -15.837  16.162  1.00  0.00     0.052 C 
HETATM    8  O2  UNL     1      11.890 -14.795  16.426  1.00  0.00    -0.227 OA
HETATM    9  O3  UNL     1      10.767 -14.827  17.068  1.00  0.00    -0.230 OA
ENDROOT
BRANCH   6  10
HETATM   10  C8  UNL     1      13.430 -14.178  18.009  1.00  0.00     0.044 C 
BRANCH  10  11
HETATM   11  C9  UNL     1      14.476 -13.263  17.555  1.00  0.00     0.008 C 
BRANCH  11  12
HETATM   12  C10 UNL     1      14.089 -12.089  16.729  1.00  0.00    -0.014 C 
HETATM   13  C11 UNL     1      14.503 -12.435  15.286  1.00  0.00     0.004 C 
HETATM   14  C12 UNL     1      15.955 -12.226  15.031  1.00  0.00     0.000 C 
HETATM   15  C13 UNL     1      16.335 -10.814  14.736  1.00  0.00     0.000 C 
HETATM   16  C14 UNL     1      15.167  -9.854  14.762  1.00  0.00     0.000 C 
HETATM   17  C15 UNL     1      14.485  -9.770  16.083  1.00  0.00     0.000 C 
HETATM   18  C16 UNL     1      14.910 -10.847  17.054  1.00  0.00     0.004 C 
ENDBRANCH  11  12
ENDBRANCH  10  11
ENDBRANCH   6  10
BRANCH   5  19
HETATM   19  O1  UNL     1      11.909 -16.201  19.182  1.00  0.00    -0.392 OA
ATOM     20  H1  UNL     1      12.448 -16.637  19.831  1.00  0.00     0.210 HD
ENDBRANCH   5  19
TORSDOF 4
ENDMDL
MODEL 2
REMARK VINA RESULT: -9.199715799      0.836      1.556
REMARK  4 active torsions:
REMARK  status: ('A' for Active; 'I' for Inactive)
REMARK    1  A    between atoms: C5_5  and  O1_6 
REMARK    2  A    between atoms: C6_8  and  C8_10 
REMARK    3  A    between atoms: C8_10  and  C9_11 
REMARK    4  A    between atoms: C9_11  and  C10_12 
ROOT
HETATM    1  C1  UNL     1      10.268 -17.599  15.578  1.00  0.00     0.049 C 
HETATM    2  C2  UNL     1      10.352 -16.618  16.747  1.00  0.00     0.091 C 
HETATM    3  C3  UNL     1       9.021 -16.629  17.430  1.00  0.00     0.049 C 
HETATM    4  C4  UNL     1      11.500 -16.977  17.677  1.00  0.00     0.075 C 
HETATM    5  C5  UNL     1      12.314 -15.755  18.040  1.00  0.00     0.158 C 
HETATM    6  C6  UNL     1      12.866 -15.142  16.791  1.00  0.00     0.118 C 
HETATM    7  C7  UNL     1      14.067 -15.951  16.361  1.00  0.00     0.052 C 
HETATM    8  O2  UNL     1      11.895 -15.439  15.789  1.00  0.00    -0.227 OA
HETATM    9  O3  UNL     1      10.684 -15.343  16.234  1.00  0.00    -0.230 OA
ENDROOT
BRANCH   6  10
HETATM   10  C8  UNL     1      13.003 -13.691  16.776  1.00  0.00     0.044 C 
BRANCH  10  11
HETATM   11  C9  UNL     1      14.107 -13.001  17.441  1.00  0.00     0.008 C 
BRANCH  11  12
HETATM   12  C10 UNL     1      15.225 -12.477  16.612  1.00  0.00    -0.014 C 
HETATM   13  C11 UNL     1      15.425 -11.015  17.051  1.00  0.00     0.004 C 
HETATM   14  C12 UNL     1      14.439 -10.083  16.439  1.00  0.00     0.000 C 
HETATM   15  C13 UNL     1      14.777  -9.647  15.052  1.00  0.00     0.000 C 
HETATM   16  C14 UNL     1      16.061 -10.247  14.525  1.00  0.00     0.000 C 
HETATM   17  C15 UNL     1      16.038 -11.734  14.436  1.00  0.00     0.000 C 
HETATM   18  C16 UNL     1      14.859 -12.366  15.137  1.00  0.00     0.004 C 
ENDBRANCH  11  12
ENDBRANCH  10  11
ENDBRANCH   6  10
BRANCH   5  19
HETATM   19  O1  UNL     1      11.572 -14.932  18.824  1.00  0.00    -0.392 OA
ATOM     20  H1  UNL     1      12.099 -14.627  19.552  1.00  0.00     0.210 HD
ENDBRANCH   5  19
TORSDOF 4
ENDMDL
MODEL 3
REMARK VINA RESULT: -8.576427608      1.421      1.972
REMARK  4 active torsions:
REMARK  status: ('A' for Active; 'I' for Inactive)
REMARK    1  A    between atoms: C5_5  and  O1_6 
REMARK    2  A    between atoms: C6_8  and  C8_10 
REMARK    3  A    between atoms: C8_10  and  C9_11 
REMARK    4  A    between atoms: C9_11  and  C10_12 
ROOT
HETATM    1  C1  UNL     1       9.246 -14.945  19.172  1.00  0.00     0.049 C 
HETATM    2  C2  UNL     1      10.248 -16.000  18.706  1.00  0.00     0.091 C 
HETATM    3  C3  UNL     1      10.286 -17.067  19.754  1.00  0.00     0.049 C 
HETATM    4  C4  UNL     1       9.876 -16.532  17.330  1.00  0.00     0.075 C 
HETATM    5  C5  UNL     1      11.083 -16.588  16.420  1.00  0.00     0.158 C 
HETATM    6  C6  UNL     1      11.656 -15.212  16.278  1.00  0.00     0.118 C 
HETATM    7  C7  UNL     1      10.806 -14.449  15.289  1.00  0.00     0.052 C 
HETATM    8  O2  UNL     1      11.365 -14.574  17.520  1.00  0.00    -0.227 OA
HETATM    9  O3  UNL     1      11.503 -15.374  18.527  1.00  0.00    -0.230 OA
ENDROOT
BRANCH   6  10
HETATM   10  C8  UNL     1      13.102 -15.114  16.124  1.00  0.00     0.044 C 
BRANCH  10  11
HETATM   11  C9  UNL     1      13.930 -14.290  17.003  1.00  0.00     0.008 C 
BRANCH  11  12
HETATM   12  C10 UNL     1      13.817 -12.811  16.910  1.00  0.00    -0.014 C 
HETATM   13  C11 UNL     1      13.841 -12.480  15.406  1.00  0.00     0.004 C 
HETATM   14  C12 UNL     1      15.214 -12.483  14.832  1.00  0.00     0.000 C 
HETATM   15  C13 UNL     1      15.982 -11.223  15.058  1.00  0.00     0.000 C 
HETATM   16  C14 UNL     1      15.219 -10.180  15.842  1.00  0.00     0.000 C 
HETATM   17  C15 UNL     1      14.839 -10.617  17.214  1.00  0.00     0.000 C 
HETATM   18  C16 UNL     1      15.044 -12.093  17.460  1.00  0.00     0.004 C 
ENDBRANCH  11  12
ENDBRANCH  10  11
ENDBRANCH   6  10
BRANCH   5  19
HETATM   19  O1  UNL     1      11.941 -17.542  16.862  1.00  0.00    -0.392 OA
ATOM     20  H1  UNL     1      11.600 -17.930  17.658  1.00  0.00     0.210 HD
ENDBRANCH   5  19
TORSDOF 4
ENDMDL
MODEL 4
REMARK VINA RESULT: -8.471479532      1.348      2.328
REMARK  4 active torsions:
REMARK  status: ('A' for Active; 'I' for Inactive)
REMARK    1  A    between atoms: C5_5  and  O1_6 
REMARK    2  A    between atoms: C6_8  and  C8_10 
REMARK    3  A    between atoms: C8_10  and  C9_11 
REMARK    4  A    between atoms: C9_11  and  C10_12 
ROOT
HETATM    1  C1  UNL     1       8.856 -15.003  19.091  1.00  0.00     0.049 C 
HETATM    2  C2  UNL     1       9.903 -16.063  18.754  1.00  0.00     0.091 C 
HETATM    3  C3  UNL     1       9.852 -17.094  19.837  1.00  0.00     0.049 C 
HETATM    4  C4  UNL     1       9.663 -16.643  17.369  1.00  0.00     0.075 C 
HETATM    5  C5  UNL     1      10.949 -16.718  16.576  1.00  0.00     0.158 C 
HETATM    6  C6  UNL     1      11.524 -15.342  16.441  1.00  0.00     0.118 C 
HETATM    7  C7  UNL     1      10.764 -14.620  15.353  1.00  0.00     0.052 C 
HETATM    8  O2  UNL     1      11.116 -14.666  17.629  1.00  0.00    -0.227 OA
HETATM    9  O3  UNL     1      11.166 -15.431  18.670  1.00  0.00    -0.230 OA
ENDROOT
BRANCH   6  10
HETATM   10  C8  UNL     1      12.977 -15.236  16.417  1.00  0.00     0.044 C 
BRANCH  10  11
HETATM   11  C9  UNL     1      13.693 -14.136  17.062  1.00  0.00     0.008 C 
BRANCH  11  12
HETATM   12  C10 UNL     1      14.799 -13.473  16.323  1.00  0.00    -0.014 C 
HETATM   13  C11 UNL     1      15.394 -12.438  17.296  1.00  0.00     0.004 C 
HETATM   14  C12 UNL     1      14.597 -11.184  17.372  1.00  0.00     0.000 C 
HETATM   15  C13 UNL     1      14.866 -10.212  16.272  1.00  0.00     0.000 C 
HETATM   16  C14 UNL     1      15.897 -10.693  15.277  1.00  0.00     0.000 C 
HETATM   17  C15 UNL     1      15.508 -11.941  14.563  1.00  0.00     0.000 C 
HETATM   18  C16 UNL     1      14.301 -12.629  15.156  1.00  0.00     0.004 C 
ENDBRANCH  11  12
ENDBRANCH  10  11
ENDBRANCH   6  10
BRANCH   5  19
HETATM   19  O1  UNL     1      11.769 -17.648  17.127  1.00  0.00    -0.392 OA
ATOM     20  H1  UNL     1      12.541 -17.752  16.584  1.00  0.00     0.210 HD
ENDBRANCH   5  19
TORSDOF 4
ENDMDL
MODEL 5
REMARK VINA RESULT: -8.318324546      1.432      2.628
REMARK  4 active torsions:
REMARK  status: ('A' for Active; 'I' for Inactive)
REMARK    1  A    between atoms: C5_5  and  O1_6 
REMARK    2  A    between atoms: C6_8  and  C8_10 
REMARK    3  A    between atoms: C8_10  and  C9_11 
REMARK    4  A    between atoms: C9_11  and  C10_12 
ROOT
HETATM    1  C1  UNL     1       8.918 -18.639  16.244  1.00  0.00     0.049 C 
HETATM    2  C2  UNL     1       9.420 -17.256  15.835  1.00  0.00     0.091 C 
HETATM    3  C3  UNL     1       8.721 -16.890  14.564  1.00  0.00     0.049 C 
HETATM    4  C4  UNL     1       9.196 -16.245  16.948  1.00  0.00     0.075 C 
HETATM    5  C5  UNL     1      10.431 -15.402  17.180  1.00  0.00     0.158 C 
HETATM    6  C6  UNL     1      11.574 -16.295  17.548  1.00  0.00     0.118 C 
HETATM    7  C7  UNL     1      11.425 -16.674  19.003  1.00  0.00     0.052 C 
HETATM    8  O2  UNL     1      11.308 -17.517  16.862  1.00  0.00    -0.227 OA
HETATM    9  O3  UNL     1      10.824 -17.320  15.679  1.00  0.00    -0.230 OA
ENDROOT
BRANCH   6  10
HETATM   10  C8  UNL     1      12.900 -15.884  17.102  1.00  0.00     0.044 C 
BRANCH  10  11
HETATM   11  C9  UNL     1      13.521 -14.634  17.537  1.00  0.00     0.008 C 
BRANCH  11  12
HETATM   12  C10 UNL     1      14.526 -13.989  16.651  1.00  0.00    -0.014 C 
HETATM   13  C11 UNL     1      15.309 -13.011  17.546  1.00  0.00     0.004 C 
HETATM   14  C12 UNL     1      14.588 -11.730  17.780  1.00  0.00     0.000 C 
HETATM   15  C13 UNL     1      14.725 -10.733  16.678  1.00  0.00     0.000 C 
HETATM   16  C14 UNL     1      15.566 -11.220  15.520  1.00  0.00     0.000 C 
HETATM   17  C15 UNL     1      15.017 -12.428  14.843  1.00  0.00     0.000 C 
HETATM   18  C16 UNL     1      13.889 -13.088  15.600  1.00  0.00     0.004 C 
ENDBRANCH  11  12
ENDBRANCH  10  11
ENDBRANCH   6  10
BRANCH   5  19
HETATM   19  O1  UNL     1      10.635 -14.593  16.109  1.00  0.00    -0.392 OA
ATOM     20  H1  UNL     1      10.315 -15.020  15.323  1.00  0.00     0.210 HD
ENDBRANCH   5  19
TORSDOF 4
ENDMDL
