MODEL 1
REMARK VINA RESULT: -10.013453775      0.000      0.000
REMARK  4 active torsions:
REMARK  status: ('A' for Active; 'I' for Inactive)
REMARK    1  A    between atoms: C2_2  and  C3_3 
REMARK    2  A    between atoms: C4_4  and  C5_5 
REMARK    3  A    between atoms: C5_5  and  C7_7 
REMARK    4  A    between atoms: C16_18  and  O3_19 
ROOT
HETATM    1  C5  UNL     1      11.593 -16.279  17.631  1.00  0.00     0.055 C 
HETATM    2  C6  UNL     1      11.738 -17.553  16.738  1.00  0.00     0.018 C 
ENDROOT
BRANCH   1   3
HETATM    3  C4  UNL     1      10.199 -16.141  18.008  1.00  0.00    -0.014 A 
HETATM    4  C3  UNL     1       9.095 -16.674  17.413  1.00  0.00     0.030 A 
HETATM    5  C16 UNL     1       8.007 -16.263  18.218  1.00  0.00     0.193 A 
HETATM    6  O2  UNL     1       8.482 -15.556  19.181  1.00  0.00    -0.299 OA
HETATM    7  C15 UNL     1       9.775 -15.442  19.119  1.00  0.00     0.153 A 
BRANCH   4   8
HETATM    8  C2  UNL     1       8.918 -17.468  16.185  1.00  0.00     0.007 C 
HETATM    9  C1  UNL     1       8.538 -17.064  15.018  1.00  0.00     0.012 C 
ENDBRANCH   4   8
BRANCH   5  10
HETATM   10  O3  UNL     1       6.701 -16.616  17.929  1.00  0.00    -0.340 OA
ATOM     11  H3  UNL     1       6.128 -17.008  18.577  1.00  0.00     0.220 HD
ENDBRANCH   5  10
ENDBRANCH   1   3
BRANCH   1  12
HETATM   12  C7  UNL     1      12.169 -15.195  16.746  1.00  0.00     0.097 A 
HETATM   13  C8  UNL     1      11.165 -14.898  15.609  1.00  0.00     0.050 C 
HETATM   14  O1  UNL     1      13.477 -15.340  16.219  1.00  0.00    -0.363 OA
HETATM   15  C9  UNL     1      13.039 -14.164  17.055  1.00  0.00     0.093 A 
HETATM   16  C10 UNL     1      14.056 -13.930  18.096  1.00  0.00     0.041 C 
HETATM   17  C14 UNL     1      12.993 -12.874  16.215  1.00  0.00     0.041 C 
HETATM   18  C11 UNL     1      14.974 -12.735  17.791  1.00  0.00     0.003 C 
HETATM   19  C12 UNL     1      15.404 -12.693  16.357  1.00  0.00     0.000 C 
HETATM   20  C13 UNL     1      14.251 -12.877  15.397  1.00  0.00     0.003 C 
ENDBRANCH   1  12
TORSDOF 4
ENDMDL
MODEL 2
REMARK VINA RESULT: -9.980533995      0.829      1.948
REMARK  4 active torsions:
REMARK  status: ('A' for Active; 'I' for Inactive)
REMARK    1  A    between atoms: C2_2  and  C3_3 
REMARK    2  A    between atoms: C4_4  and  C5_5 
REMARK    3  A    between atoms: C5_5  and  C7_7 
REMARK    4  A    between atoms: C16_18  and  O3_19 
ROOT
HETATM    1  C5  UNL     1      11.472 -16.212  17.501  1.00  0.00     0.055 C 
HETATM    2  C6  UNL     1      12.310 -17.460  17.075  1.00  0.00     0.018 C 
ENDROOT
BRANCH   1   3
HETATM    3  C4  UNL     1      10.067 -16.513  17.298  1.00  0.00    -0.014 A 
HETATM    4  C3  UNL     1       8.998 -16.168  18.068  1.00  0.00     0.030 A 
HETATM    5  C16 UNL     1       7.870 -16.674  17.382  1.00  0.00     0.193 A 
HETATM    6  O2  UNL     1       8.292 -17.253  16.315  1.00  0.00    -0.299 OA
HETATM    7  C15 UNL     1       9.585 -17.197  16.201  1.00  0.00     0.153 A 
BRANCH   4   8
HETATM    8  C2  UNL     1       8.894 -15.477  19.365  1.00  0.00     0.007 C 
HETATM    9  C1  UNL     1       9.385 -15.837  20.506  1.00  0.00     0.012 C 
ENDBRANCH   4   8
BRANCH   5  10
HETATM   10  O3  UNL     1       6.582 -16.516  17.863  1.00  0.00    -0.340 OA
ATOM     11  H3  UNL     1       5.948 -15.954  17.435  1.00  0.00     0.220 HD
ENDBRANCH   5  10
ENDBRANCH   1   3
BRANCH   1  12
HETATM   12  C7  UNL     1      12.064 -15.115  16.643  1.00  0.00     0.097 A 
HETATM   13  C8  UNL     1      11.043 -14.739  15.546  1.00  0.00     0.050 C 
HETATM   14  O1  UNL     1      13.352 -15.284  16.076  1.00  0.00    -0.363 OA
HETATM   15  C9  UNL     1      12.977 -14.127  16.969  1.00  0.00     0.093 A 
HETATM   16  C10 UNL     1      14.028 -13.970  17.990  1.00  0.00     0.041 C 
HETATM   17  C14 UNL     1      12.956 -12.805  16.180  1.00  0.00     0.041 C 
HETATM   18  C11 UNL     1      14.980 -12.796  17.707  1.00  0.00     0.003 C 
HETATM   19  C12 UNL     1      15.375 -12.713  16.264  1.00  0.00     0.000 C 
HETATM   20  C13 UNL     1      14.191 -12.819  15.329  1.00  0.00     0.003 C 
ENDBRANCH   1  12
TORSDOF 4
ENDMDL
MODEL 3
REMARK VINA RESULT: -9.567477800      1.104      2.657
REMARK  4 active torsions:
REMARK  status: ('A' for Active; 'I' for Inactive)
REMARK    1  A    between atoms: C2_2  and  C3_3 
REMARK    2  A    between atoms: C4_4  and  C5_5 
REMARK    3  A    between atoms: C5_5  and  C7_7 
REMARK    4  A    between atoms: C16_18  and  O3_19 
ROOT
HETATM    1  C5  UNL     1      10.959 -15.564  15.525  1.00  0.00     0.055 C 
HETATM    2  C6  UNL     1      10.560 -14.097  15.164  1.00  0.00     0.018 C 
ENDROOT
BRANCH   1   3
HETATM    3  C4  UNL     1       9.795 -16.232  16.076  1.00  0.00    -0.014 A 
HETATM    4  C3  UNL     1       9.220 -16.077  17.301  1.00  0.00     0.030 A 
HETATM    5  C16 UNL     1       8.092 -16.930  17.290  1.00  0.00     0.193 A 
HETATM    6  O2  UNL     1       8.055 -17.509  16.143  1.00  0.00    -0.299 OA
HETATM    7  C15 UNL     1       9.034 -17.143  15.372  1.00  0.00     0.153 A 
BRANCH   4   8
HETATM    8  C2  UNL     1       9.603 -15.283  18.481  1.00  0.00     0.007 C 
HETATM    9  C1  UNL     1       9.851 -15.698  19.680  1.00  0.00     0.012 C 
ENDBRANCH   4   8
BRANCH   5  10
HETATM   10  O3  UNL     1       7.244 -17.045  18.377  1.00  0.00    -0.340 OA
ATOM     11  H3  UNL     1       6.374 -16.664  18.383  1.00  0.00     0.220 HD
ENDBRANCH   5  10
ENDBRANCH   1   3
BRANCH   1  12
HETATM   12  C7  UNL     1      12.133 -15.361  16.458  1.00  0.00     0.097 A 
HETATM   13  C8  UNL     1      12.406 -16.686  17.205  1.00  0.00     0.050 C 
HETATM   14  O1  UNL     1      12.127 -14.276  17.370  1.00  0.00    -0.363 OA
HETATM   15  C9  UNL     1      13.215 -14.505  16.351  1.00  0.00     0.093 A 
HETATM   16  C10 UNL     1      13.478 -13.231  15.658  1.00  0.00     0.041 C 
HETATM   17  C14 UNL     1      14.540 -14.892  17.036  1.00  0.00     0.041 C 
HETATM   18  C11 UNL     1      14.760 -12.532  16.137  1.00  0.00     0.003 C 
HETATM   19  C12 UNL     1      14.915 -12.573  17.626  1.00  0.00     0.000 C 
HETATM   20  C13 UNL     1      14.687 -13.954  18.198  1.00  0.00     0.003 C 
ENDBRANCH   1  12
TORSDOF 4
ENDMDL
MODEL 4
REMARK VINA RESULT: -8.808821173      1.085      1.821
REMARK  4 active torsions:
REMARK  status: ('A' for Active; 'I' for Inactive)
REMARK    1  A    between atoms: C2_2  and  C3_3 
REMARK    2  A    between atoms: C4_4  and  C5_5 
REMARK    3  A    between atoms: C5_5  and  C7_7 
REMARK    4  A    between atoms: C16_18  and  O3_19 
ROOT
HETATM    1  C5  UNL     1      11.258 -15.521  16.215  1.00  0.00     0.055 C 
HETATM    2  C6  UNL     1      10.898 -14.337  15.262  1.00  0.00     0.018 C 
ENDROOT
BRANCH   1   3
HETATM    3  C4  UNL     1      10.140 -15.743  17.111  1.00  0.00    -0.014 A 
HETATM    4  C3  UNL     1       9.010 -16.476  16.905  1.00  0.00     0.030 A 
HETATM    5  C16 UNL     1       8.289 -16.392  18.118  1.00  0.00     0.193 A 
HETATM    6  O2  UNL     1       8.974 -15.666  18.928  1.00  0.00    -0.299 OA
HETATM    7  C15 UNL     1      10.083 -15.247  18.398  1.00  0.00     0.153 A 
BRANCH   4   8
HETATM    8  C2  UNL     1       8.500 -17.198  15.727  1.00  0.00     0.007 C 
HETATM    9  C1  UNL     1       9.173 -17.818  14.814  1.00  0.00     0.012 C 
ENDBRANCH   4   8
BRANCH   5  10
HETATM   10  O3  UNL     1       7.069 -17.021  18.296  1.00  0.00    -0.340 OA
ATOM     11  H3  UNL     1       6.919 -17.919  18.028  1.00  0.00     0.220 HD
ENDBRANCH   5  10
ENDBRANCH   1   3
BRANCH   1  12
HETATM   12  C7  UNL     1      12.552 -15.051  16.844  1.00  0.00     0.097 A 
HETATM   13  C8  UNL     1      13.205 -16.242  17.581  1.00  0.00     0.050 C 
HETATM   14  O1  UNL     1      12.553 -13.901  17.672  1.00  0.00    -0.363 OA
HETATM   15  C9  UNL     1      13.421 -14.049  16.447  1.00  0.00     0.093 A 
HETATM   16  C10 UNL     1      13.302 -12.819  15.644  1.00  0.00     0.041 C 
HETATM   17  C14 UNL     1      14.908 -14.158  16.833  1.00  0.00     0.041 C 
HETATM   18  C11 UNL     1      14.515 -11.885  15.779  1.00  0.00     0.003 C 
HETATM   19  C12 UNL     1      14.992 -11.764  17.194  1.00  0.00     0.000 C 
HETATM   20  C13 UNL     1      15.135 -13.106  17.877  1.00  0.00     0.003 C 
ENDBRANCH   1  12
TORSDOF 4
ENDMDL
MODEL 5
REMARK VINA RESULT: -8.596742482      1.354      1.900
REMARK  4 active torsions:
REMARK  status: ('A' for Active; 'I' for Inactive)
REMARK    1  A    between atoms: C2_2  and  C3_3 
REMARK    2  A    between atoms: C4_4  and  C5_5 
REMARK    3  A    between atoms: C5_5  and  C7_7 
REMARK    4  A    between atoms: C16_18  and  O3_19 
ROOT
HETATM    1  C5  UNL     1      11.437 -16.251  16.301  1.00  0.00     0.055 C 
HETATM    2  C6  UNL     1      10.099 -16.200  15.496  1.00  0.00     0.018 C 
ENDROOT
BRANCH   1   3
HETATM    3  C4  UNL     1      11.123 -16.493  17.697  1.00  0.00    -0.014 A 
HETATM    4  C3  UNL     1       9.920 -16.404  18.330  1.00  0.00     0.030 A 
HETATM    5  C16 UNL     1      10.176 -16.794  19.665  1.00  0.00     0.193 A 
HETATM    6  O2  UNL     1      11.427 -17.074  19.754  1.00  0.00    -0.299 OA
HETATM    7  C15 UNL     1      12.050 -16.917  18.625  1.00  0.00     0.153 A 
BRANCH   4   8
HETATM    8  C2  UNL     1       8.589 -15.967  17.873  1.00  0.00     0.007 C 
HETATM    9  C1  UNL     1       7.511 -16.670  17.758  1.00  0.00     0.012 C 
ENDBRANCH   4   8
BRANCH   5  10
HETATM   10  O3  UNL     1       9.182 -16.832  20.626  1.00  0.00    -0.340 OA
ATOM     11  H3  UNL     1       9.105 -17.547  21.246  1.00  0.00     0.220 HD
ENDBRANCH   5  10
ENDBRANCH   1   3
BRANCH   1  12
HETATM   12  C7  UNL     1      12.068 -14.916  15.967  1.00  0.00     0.097 A 
HETATM   13  C8  UNL     1      11.026 -14.047  15.228  1.00  0.00     0.050 C 
HETATM   14  O1  UNL     1      13.310 -14.877  15.286  1.00  0.00    -0.363 OA
HETATM   15  C9  UNL     1      13.068 -14.217  16.620  1.00  0.00     0.093 A 
HETATM   16  C10 UNL     1      14.177 -14.576  17.522  1.00  0.00     0.041 C 
HETATM   17  C14 UNL     1      13.108 -12.683  16.493  1.00  0.00     0.041 C 
HETATM   18  C11 UNL     1      15.200 -13.443  17.709  1.00  0.00     0.003 C 
HETATM   19  C12 UNL     1      15.529 -12.750  16.422  1.00  0.00     0.000 C 
HETATM   20  C13 UNL     1      14.296 -12.377  15.630  1.00  0.00     0.003 C 
ENDBRANCH   1  12
TORSDOF 4
ENDMDL
