MODEL 1
REMARK VINA RESULT: -7.494850875      0.000      0.000
REMARK  3 active torsions:
REMARK  status: ('A' for Active; 'I' for Inactive)
REMARK    1  A    between atoms: S1_2  and  C2_3 
REMARK    2  A    between atoms: C6_7  and  C7_8 
REMARK    3  A    between atoms: C8_9  and  C10_12 
ROOT
HETATM    1  C7  UNL     1      14.290 -11.840  15.773  1.00  0.00     0.037 C 
HETATM    2  C8  UNL     1      15.251 -11.203  15.257  1.00  0.00     0.121 C 
HETATM    3  C9  UNL     1      16.560 -11.572  14.886  1.00  0.00     0.106 C 
HETATM    4  N1  UNL     1      17.669 -11.841  14.566  1.00  0.00    -0.191 NA
ENDROOT
BRANCH   2   5
HETATM    5  C10 UNL     1      15.002  -9.728  14.955  1.00  0.00     0.220 C 
HETATM    6  O1  UNL     1      14.010  -9.144  15.440  1.00  0.00    -0.643 OA
HETATM    7  O2  UNL     1      15.924  -9.121  14.137  1.00  0.00    -0.643 OA
ENDBRANCH   2   5
BRANCH   1   8
HETATM    8  C6  UNL     1      13.858 -13.100  16.261  1.00  0.00    -0.048 C 
HETATM    9  C5  UNL     1      12.813 -13.708  15.577  1.00  0.00     0.016 C 
HETATM   10  C4  UNL     1      12.262 -15.005  15.973  1.00  0.00    -0.045 C 
HETATM   11  C2  UNL     1      10.969 -15.221  15.836  1.00  0.00    -0.020 C 
HETATM   12  C15 UNL     1      13.190 -16.000  16.500  1.00  0.00     0.041 C 
HETATM   13  C3  UNL     1      10.162 -14.036  15.258  1.00  0.00     0.056 C 
HETATM   14  C14 UNL     1      14.529 -15.347  16.764  1.00  0.00     0.018 C 
HETATM   15  C11 UNL     1      14.309 -13.919  17.357  1.00  0.00    -0.020 C 
HETATM   16  C12 UNL     1      15.613 -13.666  18.050  1.00  0.00     0.020 C 
HETATM   17  C13 UNL     1      13.251 -14.047  18.457  1.00  0.00     0.020 C 
BRANCH  11  18
HETATM   18  S1  UNL     1      10.002 -16.622  16.199  1.00  0.00    -0.139 SA
HETATM   19  C1  UNL     1       8.845 -16.450  17.510  1.00  0.00     0.095 C 
ENDBRANCH  11  18
ENDBRANCH   1   8
TORSDOF 3
ENDMDL
MODEL 2
REMARK VINA RESULT: -7.053217611      1.293      1.515
REMARK  3 active torsions:
REMARK  status: ('A' for Active; 'I' for Inactive)
REMARK    1  A    between atoms: S1_2  and  C2_3 
REMARK    2  A    between atoms: C6_7  and  C7_8 
REMARK    3  A    between atoms: C8_9  and  C10_12 
ROOT
HETATM    1  C7  UNL     1      14.623 -12.485  15.310  1.00  0.00     0.037 C 
HETATM    2  C8  UNL     1      15.069 -11.308  15.406  1.00  0.00     0.121 C 
HETATM    3  C9  UNL     1      15.168 -10.402  16.481  1.00  0.00     0.106 C 
HETATM    4  N1  UNL     1      15.263  -9.609  17.356  1.00  0.00    -0.191 NA
ENDROOT
BRANCH   2   5
HETATM    5  C10 UNL     1      15.627 -10.688  14.127  1.00  0.00     0.220 C 
HETATM    6  O1  UNL     1      15.924 -11.413  13.153  1.00  0.00    -0.643 OA
HETATM    7  O2  UNL     1      15.767  -9.322  14.136  1.00  0.00    -0.643 OA
ENDBRANCH   2   5
BRANCH   1   8
HETATM    8  C6  UNL     1      14.025 -13.564  16.012  1.00  0.00    -0.048 C 
HETATM    9  C5  UNL     1      12.885 -14.120  15.447  1.00  0.00     0.016 C 
HETATM   10  C4  UNL     1      12.162 -15.233  16.064  1.00  0.00    -0.045 C 
HETATM   11  C2  UNL     1      10.849 -15.276  15.969  1.00  0.00    -0.020 C 
HETATM   12  C15 UNL     1      12.951 -16.248  16.755  1.00  0.00     0.041 C 
HETATM   13  C3  UNL     1      10.207 -14.102  15.194  1.00  0.00     0.056 C 
HETATM   14  C14 UNL     1      14.377 -15.765  16.899  1.00  0.00     0.018 C 
HETATM   15  C11 UNL     1      14.383 -14.239  17.234  1.00  0.00    -0.020 C 
HETATM   16  C12 UNL     1      15.728 -14.066  17.869  1.00  0.00     0.020 C 
HETATM   17  C13 UNL     1      13.348 -14.018  18.340  1.00  0.00     0.020 C 
BRANCH  11  18
HETATM   18  S1  UNL     1       9.698 -16.434  16.573  1.00  0.00    -0.139 SA
HETATM   19  C1  UNL     1       9.129 -16.182  18.216  1.00  0.00     0.095 C 
ENDBRANCH  11  18
ENDBRANCH   1   8
TORSDOF 3
ENDMDL
MODEL 3
REMARK VINA RESULT: -6.455846834     10.803     12.574
REMARK  3 active torsions:
REMARK  status: ('A' for Active; 'I' for Inactive)
REMARK    1  A    between atoms: S1_2  and  C2_3 
REMARK    2  A    between atoms: C6_7  and  C7_8 
REMARK    3  A    between atoms: C8_9  and  C10_12 
ROOT
HETATM    1  C7  UNL     1       7.298  -5.735  10.997  1.00  0.00     0.037 C 
HETATM    2  C8  UNL     1       8.385  -5.255  10.569  1.00  0.00     0.121 C 
HETATM    3  C9  UNL     1       8.885  -5.013   9.274  1.00  0.00     0.106 C 
HETATM    4  N1  UNL     1       9.344  -4.800   8.203  1.00  0.00    -0.191 NA
ENDROOT
BRANCH   2   5
HETATM    5  C10 UNL     1       9.404  -4.836  11.627  1.00  0.00     0.220 C 
HETATM    6  O1  UNL     1      10.623  -4.814  11.353  1.00  0.00    -0.643 OA
HETATM    7  O2  UNL     1       8.887  -4.498  12.854  1.00  0.00    -0.643 OA
ENDBRANCH   2   5
BRANCH   1   8
HETATM    8  C6  UNL     1       6.038  -6.271  10.629  1.00  0.00    -0.048 C 
HETATM    9  C5  UNL     1       5.041  -5.357  10.309  1.00  0.00     0.016 C 
HETATM   10  C4  UNL     1       3.692  -5.768   9.916  1.00  0.00    -0.045 C 
HETATM   11  C2  UNL     1       2.665  -5.034  10.290  1.00  0.00    -0.020 C 
HETATM   12  C15 UNL     1       3.563  -6.984   9.119  1.00  0.00     0.041 C 
HETATM   13  C3  UNL     1       3.019  -3.785  11.130  1.00  0.00     0.056 C 
HETATM   14  C14 UNL     1       4.889  -7.711   9.091  1.00  0.00     0.018 C 
HETATM   15  C11 UNL     1       5.563  -7.626  10.498  1.00  0.00    -0.020 C 
HETATM   16  C12 UNL     1       6.501  -8.793  10.464  1.00  0.00     0.020 C 
HETATM   17  C13 UNL     1       4.487  -7.963  11.533  1.00  0.00     0.020 C 
BRANCH  11  18
HETATM   18  S1  UNL     1       0.959  -5.227  10.002  1.00  0.00    -0.139 SA
HETATM   19  C1  UNL     1       0.502  -5.843   8.420  1.00  0.00     0.095 C 
ENDBRANCH  11  18
ENDBRANCH   1   8
TORSDOF 3
ENDMDL
MODEL 4
REMARK VINA RESULT: -6.435757086      0.750      1.040
REMARK  3 active torsions:
REMARK  status: ('A' for Active; 'I' for Inactive)
REMARK    1  A    between atoms: S1_2  and  C2_3 
REMARK    2  A    between atoms: C6_7  and  C7_8 
REMARK    3  A    between atoms: C8_9  and  C10_12 
ROOT
HETATM    1  C7  UNL     1      14.195 -11.577  15.837  1.00  0.00     0.037 C 
HETATM    2  C8  UNL     1      15.126 -10.905  15.313  1.00  0.00     0.121 C 
HETATM    3  C9  UNL     1      16.419 -11.241  14.862  1.00  0.00     0.106 C 
HETATM    4  N1  UNL     1      17.513 -11.481  14.478  1.00  0.00    -0.191 NA
ENDROOT
BRANCH   2   5
HETATM    5  C10 UNL     1      14.853  -9.417  15.103  1.00  0.00     0.220 C 
HETATM    6  O1  UNL     1      15.783  -8.643  14.790  1.00  0.00    -0.643 OA
HETATM    7  O2  UNL     1      13.551  -9.018  15.280  1.00  0.00    -0.643 OA
ENDBRANCH   2   5
BRANCH   1   8
HETATM    8  C6  UNL     1      13.794 -12.865  16.275  1.00  0.00    -0.048 C 
HETATM    9  C5  UNL     1      12.755 -13.466  15.576  1.00  0.00     0.016 C 
HETATM   10  C4  UNL     1      12.235 -14.791  15.921  1.00  0.00    -0.045 C 
HETATM   11  C2  UNL     1      10.947 -15.028  15.788  1.00  0.00    -0.020 C 
HETATM   12  C15 UNL     1      13.190 -15.787  16.397  1.00  0.00     0.041 C 
HETATM   13  C3  UNL     1      10.108 -13.838  15.268  1.00  0.00     0.056 C 
HETATM   14  C14 UNL     1      14.518 -15.117  16.676  1.00  0.00     0.018 C 
HETATM   15  C11 UNL     1      14.273 -13.721  17.332  1.00  0.00    -0.020 C 
HETATM   16  C12 UNL     1      15.578 -13.469  18.022  1.00  0.00     0.020 C 
HETATM   17  C13 UNL     1      13.229 -13.918  18.434  1.00  0.00     0.020 C 
BRANCH  11  18
HETATM   18  S1  UNL     1      10.012 -16.464  16.099  1.00  0.00    -0.139 SA
HETATM   19  C1  UNL     1      10.890 -17.986  16.063  1.00  0.00     0.095 C 
ENDBRANCH  11  18
ENDBRANCH   1   8
TORSDOF 3
ENDMDL
MODEL 5
REMARK VINA RESULT: -5.983511689      0.886      1.057
REMARK  3 active torsions:
REMARK  status: ('A' for Active; 'I' for Inactive)
REMARK    1  A    between atoms: S1_2  and  C2_3 
REMARK    2  A    between atoms: C6_7  and  C7_8 
REMARK    3  A    between atoms: C8_9  and  C10_12 
ROOT
HETATM    1  C7  UNL     1      14.123 -11.959  16.129  1.00  0.00     0.037 C 
HETATM    2  C8  UNL     1      14.739 -11.237  15.296  1.00  0.00     0.121 C 
HETATM    3  C9  UNL     1      15.477 -11.530  14.131  1.00  0.00     0.106 C 
HETATM    4  N1  UNL     1      16.109 -11.734  13.151  1.00  0.00    -0.191 NA
ENDROOT
BRANCH   2   5
HETATM    5  C10 UNL     1      14.714  -9.733  15.554  1.00  0.00     0.220 C 
HETATM    6  O1  UNL     1      14.598  -8.932  14.603  1.00  0.00    -0.643 OA
HETATM    7  O2  UNL     1      14.826  -9.350  16.869  1.00  0.00    -0.643 OA
ENDBRANCH   2   5
BRANCH   1   8
HETATM    8  C6  UNL     1      13.763 -13.287  16.477  1.00  0.00    -0.048 C 
HETATM    9  C5  UNL     1      12.764 -13.882  15.718  1.00  0.00     0.016 C 
HETATM   10  C4  UNL     1      12.290 -15.244  15.968  1.00  0.00    -0.045 C 
HETATM   11  C2  UNL     1      11.015 -15.521  15.789  1.00  0.00    -0.020 C 
HETATM   12  C15 UNL     1      13.273 -16.231  16.404  1.00  0.00     0.041 C 
HETATM   13  C3  UNL     1      10.142 -14.333  15.323  1.00  0.00     0.056 C 
HETATM   14  C14 UNL     1      14.566 -15.530  16.756  1.00  0.00     0.018 C 
HETATM   15  C11 UNL     1      14.253 -14.188  17.490  1.00  0.00    -0.020 C 
HETATM   16  C12 UNL     1      15.532 -13.930  18.226  1.00  0.00     0.020 C 
HETATM   17  C13 UNL     1      13.194 -14.493  18.553  1.00  0.00     0.020 C 
BRANCH  11  18
HETATM   18  S1  UNL     1      10.131 -17.008  15.989  1.00  0.00    -0.139 SA
HETATM   19  C1  UNL     1       8.384 -16.901  15.835  1.00  0.00     0.095 C 
ENDBRANCH  11  18
ENDBRANCH   1   8
TORSDOF 3
ENDMDL
