MODEL 1
REMARK VINA RESULT: -7.427170614      0.000      0.000
REMARK  4 active torsions:
REMARK  status: ('A' for Active; 'I' for Inactive)
REMARK    1  A    between atoms: C2_2  and  C3_3 
REMARK    2  A    between atoms: C3_3  and  C4_4 
REMARK    3  A    between atoms: C4_4  and  S1_5 
REMARK    4  A    between atoms: S1_5  and  C5_6 
ROOT
HETATM    1  C5  UNL     1      13.165 -13.553  15.994  1.00  0.00     0.105 A 
HETATM    2  N1  UNL     1      13.654 -12.529  15.438  1.00  0.00    -0.356 N 
ATOM      3  H1  UNL     1      13.207 -12.036  14.667  1.00  0.00     0.162 HD
HETATM    4  C6  UNL     1      14.889 -12.143  16.003  1.00  0.00     0.105 A 
HETATM    5  C7  UNL     1      15.990 -12.135  14.965  1.00  0.00     0.053 C 
HETATM    6  C8  UNL     1      15.773 -11.023  13.993  1.00  0.00     0.004 C 
HETATM    7  C9  UNL     1      15.740  -9.701  14.718  1.00  0.00     0.000 C 
HETATM    8  C10 UNL     1      14.531  -9.687  15.649  1.00  0.00     0.004 C 
HETATM    9  C11 UNL     1      14.710 -10.786  16.647  1.00  0.00     0.053 C 
HETATM   10  N2  UNL     1      15.163 -13.086  17.046  1.00  0.00    -0.352 N 
ATOM     11  H2  UNL     1      15.976 -13.108  17.662  1.00  0.00     0.163 HD
HETATM   12  C12 UNL     1      14.064 -13.984  17.040  1.00  0.00     0.132 A 
HETATM   13  S2  UNL     1      13.862 -15.281  18.049  1.00  0.00    -0.058 SA
ENDROOT
BRANCH   1  14
HETATM   14  S1  UNL     1      11.630 -14.337  15.566  1.00  0.00    -0.109 SA
BRANCH  14  15
HETATM   15  C4  UNL     1      10.861 -14.977  17.060  1.00  0.00     0.081 C 
BRANCH  15  16
HETATM   16  C3  UNL     1       9.950 -16.171  16.739  1.00  0.00     0.010 C 
BRANCH  16  17
HETATM   17  C2  UNL     1      10.884 -17.313  16.376  1.00  0.00    -0.004 C 
HETATM   18  C1  UNL     1      10.234 -18.308  15.466  1.00  0.00     0.005 C 
ENDBRANCH  16  17
ENDBRANCH  15  16
ENDBRANCH  14  15
ENDBRANCH   1  14
TORSDOF 4
ENDMDL
MODEL 2
REMARK VINA RESULT: -7.305292335      0.723      1.324
REMARK  4 active torsions:
REMARK  status: ('A' for Active; 'I' for Inactive)
REMARK    1  A    between atoms: C2_2  and  C3_3 
REMARK    2  A    between atoms: C3_3  and  C4_4 
REMARK    3  A    between atoms: C4_4  and  S1_5 
REMARK    4  A    between atoms: S1_5  and  C5_6 
ROOT
HETATM    1  C5  UNL     1      13.176 -13.523  16.002  1.00  0.00     0.105 A 
HETATM    2  N1  UNL     1      13.664 -12.501  15.443  1.00  0.00    -0.356 N 
ATOM      3  H1  UNL     1      13.220 -12.016  14.664  1.00  0.00     0.162 HD
HETATM    4  C6  UNL     1      14.893 -12.105  16.013  1.00  0.00     0.105 A 
HETATM    5  C7  UNL     1      16.001 -12.099  14.984  1.00  0.00     0.053 C 
HETATM    6  C8  UNL     1      15.787 -10.996  14.001  1.00  0.00     0.004 C 
HETATM    7  C9  UNL     1      15.742  -9.669  14.716  1.00  0.00     0.000 C 
HETATM    8  C10 UNL     1      14.526  -9.653  15.638  1.00  0.00     0.004 C 
HETATM    9  C11 UNL     1      14.703 -10.744  16.646  1.00  0.00     0.053 C 
HETATM   10  N2  UNL     1      15.164 -13.039  17.066  1.00  0.00    -0.352 N 
ATOM     11  H2  UNL     1      15.972 -13.052  17.688  1.00  0.00     0.163 HD
HETATM   12  C12 UNL     1      14.069 -13.942  17.059  1.00  0.00     0.132 A 
HETATM   13  S2  UNL     1      13.866 -15.232  18.076  1.00  0.00    -0.058 SA
ENDROOT
BRANCH   1  14
HETATM   14  S1  UNL     1      11.648 -14.318  15.569  1.00  0.00    -0.109 SA
BRANCH  14  15
HETATM   15  C4  UNL     1      10.869 -14.947  17.063  1.00  0.00     0.081 C 
BRANCH  15  16
HETATM   16  C3  UNL     1      10.064 -16.220  16.766  1.00  0.00     0.010 C 
BRANCH  16  17
HETATM   17  C2  UNL     1       8.980 -16.277  17.829  1.00  0.00    -0.004 C 
HETATM   18  C1  UNL     1       9.400 -15.607  19.101  1.00  0.00     0.005 C 
ENDBRANCH  16  17
ENDBRANCH  15  16
ENDBRANCH  14  15
ENDBRANCH   1  14
TORSDOF 4
ENDMDL
MODEL 3
REMARK VINA RESULT: -6.665967330      1.986      6.816
REMARK  4 active torsions:
REMARK  status: ('A' for Active; 'I' for Inactive)
REMARK    1  A    between atoms: C2_2  and  C3_3 
REMARK    2  A    between atoms: C3_3  and  C4_4 
REMARK    3  A    between atoms: C4_4  and  S1_5 
REMARK    4  A    between atoms: S1_5  and  C5_6 
ROOT
HETATM    1  C5  UNL     1      12.166 -14.748  16.266  1.00  0.00     0.105 A 
HETATM    2  N1  UNL     1      10.984 -15.193  16.280  1.00  0.00    -0.356 N 
ATOM      3  H1  UNL     1      10.191 -14.706  15.862  1.00  0.00     0.162 HD
HETATM    4  C6  UNL     1      10.879 -16.437  16.939  1.00  0.00     0.105 A 
HETATM    5  C7  UNL     1       9.915 -16.364  18.103  1.00  0.00     0.053 C 
HETATM    6  C8  UNL     1       8.518 -16.198  17.605  1.00  0.00     0.004 C 
HETATM    7  C9  UNL     1       8.150 -17.351  16.705  1.00  0.00     0.000 C 
HETATM    8  C10 UNL     1       9.044 -17.307  15.469  1.00  0.00     0.004 C 
HETATM    9  C11 UNL     1      10.459 -17.475  15.923  1.00  0.00     0.053 C 
HETATM   10  N2  UNL     1      12.202 -16.768  17.378  1.00  0.00    -0.352 N 
ATOM     11  H2  UNL     1      12.493 -17.601  17.890  1.00  0.00     0.163 HD
HETATM   12  C12 UNL     1      13.022 -15.692  16.948  1.00  0.00     0.132 A 
HETATM   13  S2  UNL     1      14.653 -15.556  17.191  1.00  0.00    -0.058 SA
ENDROOT
BRANCH   1  14
HETATM   14  S1  UNL     1      12.696 -13.220  15.533  1.00  0.00    -0.109 SA
BRANCH  14  15
HETATM   15  C4  UNL     1      13.912 -12.444  16.607  1.00  0.00     0.081 C 
BRANCH  15  16
HETATM   16  C3  UNL     1      15.001 -11.743  15.784  1.00  0.00     0.010 C 
BRANCH  16  17
HETATM   17  C2  UNL     1      14.770 -10.255  15.980  1.00  0.00    -0.004 C 
HETATM   18  C1  UNL     1      15.284  -9.445  14.829  1.00  0.00     0.005 C 
ENDBRANCH  16  17
ENDBRANCH  15  16
ENDBRANCH  14  15
ENDBRANCH   1  14
TORSDOF 4
ENDMDL
MODEL 4
REMARK VINA RESULT: -6.648675193      1.790      6.631
REMARK  4 active torsions:
REMARK  status: ('A' for Active; 'I' for Inactive)
REMARK    1  A    between atoms: C2_2  and  C3_3 
REMARK    2  A    between atoms: C3_3  and  C4_4 
REMARK    3  A    between atoms: C4_4  and  S1_5 
REMARK    4  A    between atoms: S1_5  and  C5_6 
ROOT
HETATM    1  C5  UNL     1      12.371 -14.541  16.405  1.00  0.00     0.105 A 
HETATM    2  N1  UNL     1      11.437 -15.333  16.096  1.00  0.00    -0.356 N 
ATOM      3  H1  UNL     1      10.946 -15.308  15.203  1.00  0.00     0.162 HD
HETATM    4  C6  UNL     1      11.146 -16.256  17.124  1.00  0.00     0.105 A 
HETATM    5  C7  UNL     1       9.704 -16.148  17.569  1.00  0.00     0.053 C 
HETATM    6  C8  UNL     1       8.794 -16.639  16.492  1.00  0.00     0.004 C 
HETATM    7  C9  UNL     1       9.121 -18.072  16.153  1.00  0.00     0.000 C 
HETATM    8  C10 UNL     1      10.529 -18.124  15.568  1.00  0.00     0.004 C 
HETATM    9  C11 UNL     1      11.478 -17.643  16.620  1.00  0.00     0.053 C 
HETATM   10  N2  UNL     1      12.047 -15.956  18.197  1.00  0.00    -0.352 N 
ATOM     11  H2  UNL     1      12.113 -16.429  19.099  1.00  0.00     0.163 HD
HETATM   12  C12 UNL     1      12.828 -14.863  17.738  1.00  0.00     0.132 A 
HETATM   13  S2  UNL     1      14.033 -14.108  18.583  1.00  0.00    -0.058 SA
ENDROOT
BRANCH   1  14
HETATM   14  S1  UNL     1      13.020 -13.245  15.380  1.00  0.00    -0.109 SA
BRANCH  14  15
HETATM   15  C4  UNL     1      14.721 -12.912  15.859  1.00  0.00     0.081 C 
BRANCH  15  16
HETATM   16  C3  UNL     1      15.335 -11.817  14.975  1.00  0.00     0.010 C 
BRANCH  16  17
HETATM   17  C2  UNL     1      14.960 -10.501  15.633  1.00  0.00    -0.004 C 
HETATM   18  C1  UNL     1      14.971 -10.592  17.128  1.00  0.00     0.005 C 
ENDBRANCH  16  17
ENDBRANCH  15  16
ENDBRANCH  14  15
ENDBRANCH   1  14
TORSDOF 4
ENDMDL
MODEL 5
REMARK VINA RESULT: -6.419349845      1.731      6.618
REMARK  4 active torsions:
REMARK  status: ('A' for Active; 'I' for Inactive)
REMARK    1  A    between atoms: C2_2  and  C3_3 
REMARK    2  A    between atoms: C3_3  and  C4_4 
REMARK    3  A    between atoms: C4_4  and  S1_5 
REMARK    4  A    between atoms: S1_5  and  C5_6 
ROOT
HETATM    1  C5  UNL     1      12.878 -14.197  16.595  1.00  0.00     0.105 A 
HETATM    2  N1  UNL     1      11.773 -14.803  16.501  1.00  0.00    -0.356 N 
ATOM      3  H1  UNL     1      11.067 -14.587  15.798  1.00  0.00     0.162 HD
HETATM    4  C6  UNL     1      11.623 -15.812  17.477  1.00  0.00     0.105 A 
HETATM    5  C7  UNL     1      10.400 -15.571  18.335  1.00  0.00     0.053 C 
HETATM    6  C8  UNL     1       9.158 -15.778  17.532  1.00  0.00     0.004 C 
HETATM    7  C9  UNL     1       9.129 -17.180  16.978  1.00  0.00     0.000 C 
HETATM    8  C10 UNL     1      10.291 -17.342  16.002  1.00  0.00     0.004 C 
HETATM    9  C11 UNL     1      11.561 -17.148  16.769  1.00  0.00     0.053 C 
HETATM   10  N2  UNL     1      12.822 -15.792  18.261  1.00  0.00    -0.352 N 
ATOM     11  H2  UNL     1      13.052 -16.390  19.054  1.00  0.00     0.163 HD
HETATM   12  C12 UNL     1      13.622 -14.762  17.698  1.00  0.00     0.132 A 
HETATM   13  S2  UNL     1      15.124 -14.304  18.219  1.00  0.00    -0.058 SA
ENDROOT
BRANCH   1  14
HETATM   14  S1  UNL     1      13.431 -12.872  15.551  1.00  0.00    -0.109 SA
BRANCH  14  15
HETATM   15  C4  UNL     1      14.243 -11.626  16.563  1.00  0.00     0.081 C 
BRANCH  15  16
HETATM   16  C3  UNL     1      15.289 -10.855  15.747  1.00  0.00     0.010 C 
BRANCH  16  17
HETATM   17  C2  UNL     1      14.612  -9.560  15.332  1.00  0.00    -0.004 C 
HETATM   18  C1  UNL     1      15.447  -8.766  14.375  1.00  0.00     0.005 C 
ENDBRANCH  16  17
ENDBRANCH  15  16
ENDBRANCH  14  15
ENDBRANCH   1  14
TORSDOF 4
ENDMDL
