MODEL 1
REMARK VINA RESULT: -7.409730886      0.000      0.000
REMARK  8 active torsions:
REMARK  status: ('A' for Active; 'I' for Inactive)
REMARK    1  A    between atoms: C2_2  and  C3_3 
REMARK    2  A    between atoms: C3_3  and  C4_4 
REMARK    3  A    between atoms: C4_4  and  O1_5 
REMARK    4  A    between atoms: O1_5  and  C5_6 
REMARK    5  A    between atoms: C5_6  and  C6_8 
REMARK    6  A    between atoms: C14_16  and  C15_17 
REMARK    7  A    between atoms: C15_17  and  C16_18 
REMARK    8  A    between atoms: C16_18  and  C19_21 
ROOT
HETATM    1  C6  UNL     1      10.571 -27.313  16.369  1.00  0.00     0.056 A 
HETATM    2  C7  UNL     1       9.187 -27.327  16.665  1.00  0.00    -0.044 A 
HETATM    3  C8  UNL     1       8.167 -26.933  15.659  1.00  0.00     0.049 C 
HETATM    4  C9  UNL     1       8.848 -27.727  17.935  1.00  0.00     0.015 A 
HETATM    5  C10 UNL     1       9.805 -28.087  18.854  1.00  0.00    -0.055 A 
HETATM    6  C11 UNL     1       9.335 -28.503  20.200  1.00  0.00     0.049 C 
HETATM    7  C12 UNL     1      11.150 -28.073  18.563  1.00  0.00    -0.045 A 
HETATM    8  C13 UNL     1      12.067 -28.450  19.636  1.00  0.00     0.049 C 
HETATM    9  C14 UNL     1      11.532 -27.669  17.266  1.00  0.00    -0.016 A 
ENDROOT
BRANCH   1  10
HETATM   10  C5  UNL     1      10.814 -26.742  15.039  1.00  0.00     0.294 C 
HETATM   11  O2  UNL     1      11.087 -27.614  14.129  1.00  0.00    -0.259 OA
BRANCH  10  12
HETATM   12  O1  UNL     1      10.797 -25.455  14.660  1.00  0.00    -0.317 OA
BRANCH  12  13
HETATM   13  C4  UNL     1       9.986 -24.858  13.706  1.00  0.00     0.183 C 
BRANCH  13  14
HETATM   14  C3  UNL     1       9.046 -23.849  14.315  1.00  0.00     0.053 C 
BRANCH  14  15
HETATM   15  C2  UNL     1       7.918 -23.521  13.409  1.00  0.00    -0.035 C 
HETATM   16  C1  UNL     1       6.801 -24.224  13.452  1.00  0.00     0.007 C 
ENDBRANCH  14  15
ENDBRANCH  13  14
ENDBRANCH  12  13
ENDBRANCH  10  12
ENDBRANCH   1  10
BRANCH   9  17
HETATM   17  C15 UNL     1      12.950 -27.678  16.971  1.00  0.00    -0.005 C 
BRANCH  17  18
HETATM   18  C16 UNL     1      13.681 -28.905  16.619  1.00  0.00    -0.029 C 
HETATM   19  C17 UNL     1      12.821 -30.124  16.354  1.00  0.00     0.019 C 
HETATM   20  C18 UNL     1      14.690 -28.863  15.529  1.00  0.00     0.019 C 
BRANCH  18  21
HETATM   21  C19 UNL     1      14.506 -29.223  17.914  1.00  0.00     0.008 C 
HETATM   22  C20 UNL     1      15.602 -30.181  17.686  1.00  0.00     0.006 C 
ENDBRANCH  18  21
ENDBRANCH  17  18
ENDBRANCH   9  17
TORSDOF 8
ENDMDL
MODEL 2
REMARK VINA RESULT: -7.278440282      1.069      1.541
REMARK  8 active torsions:
REMARK  status: ('A' for Active; 'I' for Inactive)
REMARK    1  A    between atoms: C2_2  and  C3_3 
REMARK    2  A    between atoms: C3_3  and  C4_4 
REMARK    3  A    between atoms: C4_4  and  O1_5 
REMARK    4  A    between atoms: O1_5  and  C5_6 
REMARK    5  A    between atoms: C5_6  and  C6_8 
REMARK    6  A    between atoms: C14_16  and  C15_17 
REMARK    7  A    between atoms: C15_17  and  C16_18 
REMARK    8  A    between atoms: C16_18  and  C19_21 
ROOT
HETATM    1  C6  UNL     1      10.500 -27.866  16.913  1.00  0.00     0.056 A 
HETATM    2  C7  UNL     1       9.180 -27.444  17.199  1.00  0.00    -0.044 A 
HETATM    3  C8  UNL     1       8.314 -26.824  16.162  1.00  0.00     0.049 C 
HETATM    4  C9  UNL     1       8.752 -27.643  18.489  1.00  0.00     0.015 A 
HETATM    5  C10 UNL     1       9.566 -28.217  19.436  1.00  0.00    -0.055 A 
HETATM    6  C11 UNL     1       9.009 -28.387  20.802  1.00  0.00     0.049 C 
HETATM    7  C12 UNL     1      10.849 -28.628  19.155  1.00  0.00    -0.045 A 
HETATM    8  C13 UNL     1      11.623 -29.196  20.256  1.00  0.00     0.049 C 
HETATM    9  C14 UNL     1      11.320 -28.439  17.837  1.00  0.00    -0.016 A 
ENDROOT
BRANCH   1  10
HETATM   10  C5  UNL     1      10.888 -27.480  15.551  1.00  0.00     0.294 C 
HETATM   11  O2  UNL     1      11.266 -28.463  14.807  1.00  0.00    -0.259 OA
BRANCH  10  12
HETATM   12  O1  UNL     1      10.908 -26.258  14.997  1.00  0.00    -0.317 OA
BRANCH  12  13
HETATM   13  C4  UNL     1      10.170 -25.801  13.915  1.00  0.00     0.183 C 
BRANCH  13  14
HETATM   14  C3  UNL     1       9.939 -24.313  13.977  1.00  0.00     0.053 C 
BRANCH  14  15
HETATM   15  C2  UNL     1       8.534 -23.954  13.665  1.00  0.00    -0.035 C 
HETATM   16  C1  UNL     1       8.045 -22.785  14.038  1.00  0.00     0.007 C 
ENDBRANCH  14  15
ENDBRANCH  13  14
ENDBRANCH  12  13
ENDBRANCH  10  12
ENDBRANCH   1  10
BRANCH   9  17
HETATM   17  C15 UNL     1      12.666 -28.894  17.555  1.00  0.00    -0.005 C 
BRANCH  17  18
HETATM   18  C16 UNL     1      13.857 -28.076  17.830  1.00  0.00    -0.029 C 
HETATM   19  C17 UNL     1      13.633 -26.578  17.830  1.00  0.00     0.019 C 
HETATM   20  C18 UNL     1      14.683 -28.374  19.028  1.00  0.00     0.019 C 
BRANCH  18  21
HETATM   21  C19 UNL     1      14.797 -28.380  16.612  1.00  0.00     0.008 C 
HETATM   22  C20 UNL     1      14.773 -29.793  16.196  1.00  0.00     0.006 C 
ENDBRANCH  18  21
ENDBRANCH  17  18
ENDBRANCH   9  17
TORSDOF 8
ENDMDL
MODEL 3
REMARK VINA RESULT: -6.721953077      2.347      5.495
REMARK  8 active torsions:
REMARK  status: ('A' for Active; 'I' for Inactive)
REMARK    1  A    between atoms: C2_2  and  C3_3 
REMARK    2  A    between atoms: C3_3  and  C4_4 
REMARK    3  A    between atoms: C4_4  and  O1_5 
REMARK    4  A    between atoms: O1_5  and  C5_6 
REMARK    5  A    between atoms: C5_6  and  C6_8 
REMARK    6  A    between atoms: C14_16  and  C15_17 
REMARK    7  A    between atoms: C15_17  and  C16_18 
REMARK    8  A    between atoms: C16_18  and  C19_21 
ROOT
HETATM    1  C6  UNL     1       9.636 -27.830  17.622  1.00  0.00     0.056 A 
HETATM    2  C7  UNL     1       8.561 -26.921  17.481  1.00  0.00    -0.044 A 
HETATM    3  C8  UNL     1       7.623 -26.637  18.598  1.00  0.00     0.049 C 
HETATM    4  C9  UNL     1       8.440 -26.319  16.251  1.00  0.00     0.015 A 
HETATM    5  C10 UNL     1       9.316 -26.594  15.228  1.00  0.00    -0.055 A 
HETATM    6  C11 UNL     1       9.099 -25.892  13.938  1.00  0.00     0.049 C 
HETATM    7  C12 UNL     1      10.362 -27.478  15.369  1.00  0.00    -0.045 A 
HETATM    8  C13 UNL     1      11.204 -27.706  14.197  1.00  0.00     0.049 C 
HETATM    9  C14 UNL     1      10.514 -28.112  16.621  1.00  0.00    -0.016 A 
ENDROOT
BRANCH   1  10
HETATM   10  C5  UNL     1       9.580 -28.506  18.924  1.00  0.00     0.294 C 
HETATM   11  O2  UNL     1       8.847 -29.566  18.941  1.00  0.00    -0.259 OA
BRANCH  10  12
HETATM   12  O1  UNL     1      10.175 -28.162  20.076  1.00  0.00    -0.317 OA
BRANCH  12  13
HETATM   13  C4  UNL     1       9.943 -28.678  21.343  1.00  0.00     0.183 C 
BRANCH  13  14
HETATM   14  C3  UNL     1       8.786 -27.997  22.027  1.00  0.00     0.053 C 
BRANCH  14  15
HETATM   15  C2  UNL     1       8.662 -28.401  23.449  1.00  0.00    -0.035 C 
HETATM   16  C1  UNL     1       9.597 -29.141  24.016  1.00  0.00     0.007 C 
ENDBRANCH  14  15
ENDBRANCH  13  14
ENDBRANCH  12  13
ENDBRANCH  10  12
ENDBRANCH   1  10
BRANCH   9  17
HETATM   17  C15 UNL     1      11.631 -29.026  16.757  1.00  0.00    -0.005 C 
BRANCH  17  18
HETATM   18  C16 UNL     1      12.887 -28.652  17.426  1.00  0.00    -0.029 C 
HETATM   19  C17 UNL     1      13.076 -27.171  17.678  1.00  0.00     0.019 C 
HETATM   20  C18 UNL     1      13.273 -29.342  18.684  1.00  0.00     0.019 C 
BRANCH  18  21
HETATM   21  C19 UNL     1      13.989 -29.067  16.390  1.00  0.00     0.008 C 
HETATM   22  C20 UNL     1      15.338 -28.602  16.757  1.00  0.00     0.006 C 
ENDBRANCH  18  21
ENDBRANCH  17  18
ENDBRANCH   9  17
TORSDOF 8
ENDMDL
MODEL 4
REMARK VINA RESULT: -6.704516358      2.356      5.457
REMARK  8 active torsions:
REMARK  status: ('A' for Active; 'I' for Inactive)
REMARK    1  A    between atoms: C2_2  and  C3_3 
REMARK    2  A    between atoms: C3_3  and  C4_4 
REMARK    3  A    between atoms: C4_4  and  O1_5 
REMARK    4  A    between atoms: O1_5  and  C5_6 
REMARK    5  A    between atoms: C5_6  and  C6_8 
REMARK    6  A    between atoms: C14_16  and  C15_17 
REMARK    7  A    between atoms: C15_17  and  C16_18 
REMARK    8  A    between atoms: C16_18  and  C19_21 
ROOT
HETATM    1  C6  UNL     1       9.662 -27.843  17.641  1.00  0.00     0.056 A 
HETATM    2  C7  UNL     1       8.583 -26.942  17.476  1.00  0.00    -0.044 A 
HETATM    3  C8  UNL     1       7.628 -26.653  18.577  1.00  0.00     0.049 C 
HETATM    4  C9  UNL     1       8.476 -26.353  16.239  1.00  0.00     0.015 A 
HETATM    5  C10 UNL     1       9.368 -26.631  15.231  1.00  0.00    -0.055 A 
HETATM    6  C11 UNL     1       9.164 -25.943  13.931  1.00  0.00     0.049 C 
HETATM    7  C12 UNL     1      10.417 -27.508  15.395  1.00  0.00    -0.045 A 
HETATM    8  C13 UNL     1      11.277 -27.741  14.237  1.00  0.00     0.049 C 
HETATM    9  C14 UNL     1      10.556 -28.129  16.655  1.00  0.00    -0.016 A 
ENDROOT
BRANCH   1  10
HETATM   10  C5  UNL     1       9.592 -28.506  18.949  1.00  0.00     0.294 C 
HETATM   11  O2  UNL     1       8.861 -29.568  18.967  1.00  0.00    -0.259 OA
BRANCH  10  12
HETATM   12  O1  UNL     1      10.172 -28.150  20.104  1.00  0.00    -0.317 OA
BRANCH  12  13
HETATM   13  C4  UNL     1       9.941 -28.669  21.371  1.00  0.00     0.183 C 
BRANCH  13  14
HETATM   14  C3  UNL     1       8.786 -27.987  22.058  1.00  0.00     0.053 C 
BRANCH  14  15
HETATM   15  C2  UNL     1       8.632 -28.434  23.464  1.00  0.00    -0.035 C 
HETATM   16  C1  UNL     1       9.591 -29.121  24.055  1.00  0.00     0.007 C 
ENDBRANCH  14  15
ENDBRANCH  13  14
ENDBRANCH  12  13
ENDBRANCH  10  12
ENDBRANCH   1  10
BRANCH   9  17
HETATM   17  C15 UNL     1      11.676 -29.033  16.815  1.00  0.00    -0.005 C 
BRANCH  17  18
HETATM   18  C16 UNL     1      12.985 -28.596  17.325  1.00  0.00    -0.029 C 
HETATM   19  C17 UNL     1      14.172 -28.927  16.444  1.00  0.00     0.019 C 
HETATM   20  C18 UNL     1      13.164 -27.184  17.754  1.00  0.00     0.019 C 
BRANCH  18  21
HETATM   21  C19 UNL     1      13.164 -29.436  18.637  1.00  0.00     0.008 C 
HETATM   22  C20 UNL     1      14.570 -29.569  19.056  1.00  0.00     0.006 C 
ENDBRANCH  18  21
ENDBRANCH  17  18
ENDBRANCH   9  17
TORSDOF 8
ENDMDL
MODEL 5
REMARK VINA RESULT: -6.673073612      1.354      1.957
REMARK  8 active torsions:
REMARK  status: ('A' for Active; 'I' for Inactive)
REMARK    1  A    between atoms: C2_2  and  C3_3 
REMARK    2  A    between atoms: C3_3  and  C4_4 
REMARK    3  A    between atoms: C4_4  and  O1_5 
REMARK    4  A    between atoms: O1_5  and  C5_6 
REMARK    5  A    between atoms: C5_6  and  C6_8 
REMARK    6  A    between atoms: C14_16  and  C15_17 
REMARK    7  A    between atoms: C15_17  and  C16_18 
REMARK    8  A    between atoms: C16_18  and  C19_21 
ROOT
HETATM    1  C6  UNL     1       8.802 -27.112  16.886  1.00  0.00     0.056 A 
HETATM    2  C7  UNL     1       7.846 -26.387  17.637  1.00  0.00    -0.044 A 
HETATM    3  C8  UNL     1       6.962 -25.371  17.008  1.00  0.00     0.049 C 
HETATM    4  C9  UNL     1       7.786 -26.681  18.978  1.00  0.00     0.015 A 
HETATM    5  C10 UNL     1       8.611 -27.624  19.544  1.00  0.00    -0.055 A 
HETATM    6  C11 UNL     1       8.469 -27.868  21.002  1.00  0.00     0.049 C 
HETATM    7  C12 UNL     1       9.540 -28.328  18.811  1.00  0.00    -0.045 A 
HETATM    8  C13 UNL     1      10.377 -29.280  19.536  1.00  0.00     0.049 C 
HETATM    9  C14 UNL     1       9.625 -28.050  17.430  1.00  0.00    -0.016 A 
ENDROOT
BRANCH   1  10
HETATM   10  C5  UNL     1       8.866 -26.616  15.506  1.00  0.00     0.294 C 
HETATM   11  O2  UNL     1       8.152 -27.286  14.668  1.00  0.00    -0.259 OA
BRANCH  10  12
HETATM   12  O1  UNL     1       9.565 -25.581  15.016  1.00  0.00    -0.317 OA
BRANCH  12  13
HETATM   13  C4  UNL     1       9.462 -25.001  13.759  1.00  0.00     0.183 C 
BRANCH  13  14
HETATM   14  C3  UNL     1       9.100 -23.540  13.839  1.00  0.00     0.053 C 
BRANCH  14  15
HETATM   15  C2  UNL     1       7.634 -23.334  13.928  1.00  0.00    -0.035 C 
HETATM   16  C1  UNL     1       6.804 -24.179  13.344  1.00  0.00     0.007 C 
ENDBRANCH  14  15
ENDBRANCH  13  14
ENDBRANCH  12  13
ENDBRANCH  10  12
ENDBRANCH   1  10
BRANCH   9  17
HETATM   17  C15 UNL     1      10.595 -28.813  16.670  1.00  0.00    -0.005 C 
BRANCH  17  18
HETATM   18  C16 UNL     1      11.869 -28.243  16.206  1.00  0.00    -0.029 C 
HETATM   19  C17 UNL     1      11.990 -28.051  14.708  1.00  0.00     0.019 C 
HETATM   20  C18 UNL     1      12.377 -26.994  16.829  1.00  0.00     0.019 C 
BRANCH  18  21
HETATM   21  C19 UNL     1      12.921 -29.339  16.594  1.00  0.00     0.008 C 
HETATM   22  C20 UNL     1      14.310 -28.942  16.304  1.00  0.00     0.006 C 
ENDBRANCH  18  21
ENDBRANCH  17  18
ENDBRANCH   9  17
TORSDOF 8
ENDMDL
