MODEL 1
REMARK VINA RESULT: -9.128765886      0.000      0.000
REMARK  13 active torsions:
REMARK  status: ('A' for Active; 'I' for Inactive)
REMARK    1  A    between atoms: C2_2  and  C3_3 
REMARK    2  A    between atoms: C3_3  and  C4_4 
REMARK    3  A    between atoms: C3_3  and  O1_10 
REMARK    4  A    between atoms: C4_4  and  C5_5 
REMARK    5  A    between atoms: C5_5  and  C6_6 
REMARK    6  A    between atoms: C6_6  and  C7_7 
REMARK    7  A    between atoms: O1_10  and  C10_11 
REMARK    8  A    between atoms: C10_11  and  C11_12 
REMARK    9  A    between atoms: C11_12  and  C12_13 
REMARK   10  A    between atoms: C15_16  and  C16_17 
REMARK   11  A    between atoms: C16_17  and  C17_18 
REMARK   12  A    between atoms: C17_18  and  C18_19 
REMARK   13  A    between atoms: C18_19  and  O2_20 
ROOT
HETATM    1  C11 UNL     1      12.073 -28.698  14.901  1.00  0.00     0.064 C 
ENDROOT
BRANCH   1   2
HETATM    2  C10 UNL     1      12.728 -29.367  16.111  1.00  0.00     0.172 C 
BRANCH   2   3
HETATM    3  O1  UNL     1      14.025 -28.878  16.171  1.00  0.00    -0.386 OA
BRANCH   3   4
HETATM    4  C3  UNL     1      14.502 -28.715  17.452  1.00  0.00     0.121 C 
BRANCH   4   5
HETATM    5  C2  UNL     1      13.396 -28.390  18.439  1.00  0.00     0.027 C 
HETATM    6  C1  UNL     1      13.138 -26.894  18.361  1.00  0.00     0.007 C 
ENDBRANCH   4   5
BRANCH   4   7
HETATM    7  C4  UNL     1      15.215 -29.958  17.920  1.00  0.00     0.032 C 
BRANCH   7   8
HETATM    8  C5  UNL     1      16.066 -29.708  19.134  1.00  0.00     0.003 C 
BRANCH   8   9
HETATM    9  C6  UNL     1      17.523 -29.506  18.772  1.00  0.00     0.004 C 
BRANCH   9  10
HETATM   10  C7  UNL     1      18.323 -30.653  19.394  1.00  0.00    -0.023 C 
HETATM   11  C8  UNL     1      18.558 -31.749  18.382  1.00  0.00     0.009 C 
HETATM   12  C9  UNL     1      17.590 -31.248  20.566  1.00  0.00     0.009 C 
ENDBRANCH   9  10
ENDBRANCH   8   9
ENDBRANCH   7   8
ENDBRANCH   4   7
ENDBRANCH   3   4
ENDBRANCH   2   3
ENDBRANCH   1   2
BRANCH   1  13
HETATM   13  C12 UNL     1      10.905 -27.883  15.313  1.00  0.00    -0.056 A 
HETATM   14  C13 UNL     1      10.551 -26.804  14.506  1.00  0.00     0.007 A 
HETATM   15  C14 UNL     1       9.466 -26.005  14.842  1.00  0.00     0.007 A 
HETATM   16  C15 UNL     1       8.744 -26.281  15.972  1.00  0.00    -0.058 A 
HETATM   17  C19 UNL     1       9.091 -27.338  16.765  1.00  0.00     0.007 A 
HETATM   18  C20 UNL     1      10.167 -28.137  16.438  1.00  0.00     0.007 A 
BRANCH  16  19
HETATM   19  C16 UNL     1       7.586 -25.446  16.352  1.00  0.00     0.041 C 
BRANCH  19  20
HETATM   20  C17 UNL     1       7.883 -24.004  16.134  1.00  0.00     0.030 C 
BRANCH  20  21
HETATM   21  C18 UNL     1       6.865 -23.361  15.258  1.00  0.00     0.164 C 
BRANCH  21  22
HETATM   22  O2  UNL     1       7.138 -21.981  15.224  1.00  0.00    -0.401 OA
ATOM     23  H2  UNL     1       6.445 -21.561  14.727  1.00  0.00     0.209 HD
ENDBRANCH  21  22
ENDBRANCH  20  21
ENDBRANCH  19  20
ENDBRANCH  16  19
ENDBRANCH   1  13
TORSDOF 13
ENDMDL
MODEL 2
REMARK VINA RESULT: -9.099354380      0.129      1.020
REMARK  13 active torsions:
REMARK  status: ('A' for Active; 'I' for Inactive)
REMARK    1  A    between atoms: C2_2  and  C3_3 
REMARK    2  A    between atoms: C3_3  and  C4_4 
REMARK    3  A    between atoms: C3_3  and  O1_10 
REMARK    4  A    between atoms: C4_4  and  C5_5 
REMARK    5  A    between atoms: C5_5  and  C6_6 
REMARK    6  A    between atoms: C6_6  and  C7_7 
REMARK    7  A    between atoms: O1_10  and  C10_11 
REMARK    8  A    between atoms: C10_11  and  C11_12 
REMARK    9  A    between atoms: C11_12  and  C12_13 
REMARK   10  A    between atoms: C15_16  and  C16_17 
REMARK   11  A    between atoms: C16_17  and  C17_18 
REMARK   12  A    between atoms: C17_18  and  C18_19 
REMARK   13  A    between atoms: C18_19  and  O2_20 
ROOT
HETATM    1  C11 UNL     1      12.047 -28.665  14.834  1.00  0.00     0.064 C 
ENDROOT
BRANCH   1   2
HETATM    2  C10 UNL     1      12.628 -29.342  16.077  1.00  0.00     0.172 C 
BRANCH   2   3
HETATM    3  O1  UNL     1      13.979 -29.029  16.096  1.00  0.00    -0.386 OA
BRANCH   3   4
HETATM    4  C3  UNL     1      14.492 -28.844  17.360  1.00  0.00     0.121 C 
BRANCH   4   5
HETATM    5  C2  UNL     1      13.403 -28.646  18.397  1.00  0.00     0.027 C 
HETATM    6  C1  UNL     1      13.175 -27.149  18.541  1.00  0.00     0.007 C 
ENDBRANCH   4   5
BRANCH   4   7
HETATM    7  C4  UNL     1      15.342 -30.020  17.770  1.00  0.00     0.032 C 
BRANCH   7   8
HETATM    8  C5  UNL     1      16.099 -29.764  19.043  1.00  0.00     0.003 C 
BRANCH   8   9
HETATM    9  C6  UNL     1      17.570 -29.517  18.787  1.00  0.00     0.004 C 
BRANCH   9  10
HETATM   10  C7  UNL     1      18.355 -30.665  19.427  1.00  0.00    -0.023 C 
HETATM   11  C8  UNL     1      18.631 -31.751  18.415  1.00  0.00     0.009 C 
HETATM   12  C9  UNL     1      17.586 -31.273  20.568  1.00  0.00     0.009 C 
ENDBRANCH   9  10
ENDBRANCH   8   9
ENDBRANCH   7   8
ENDBRANCH   4   7
ENDBRANCH   3   4
ENDBRANCH   2   3
ENDBRANCH   1   2
BRANCH   1  13
HETATM   13  C12 UNL     1      10.896 -27.800  15.190  1.00  0.00    -0.056 A 
HETATM   14  C13 UNL     1      10.178 -28.118  16.340  1.00  0.00     0.007 A 
HETATM   15  C14 UNL     1       9.091 -27.343  16.722  1.00  0.00     0.007 A 
HETATM   16  C15 UNL     1       8.726 -26.263  15.963  1.00  0.00    -0.058 A 
HETATM   17  C19 UNL     1       9.430 -25.951  14.835  1.00  0.00     0.007 A 
HETATM   18  C20 UNL     1      10.511 -26.715  14.448  1.00  0.00     0.007 A 
BRANCH  16  19
HETATM   19  C16 UNL     1       7.574 -25.424  16.349  1.00  0.00     0.041 C 
BRANCH  19  20
HETATM   20  C17 UNL     1       7.883 -23.981  16.151  1.00  0.00     0.030 C 
BRANCH  20  21
HETATM   21  C18 UNL     1       6.864 -23.315  15.294  1.00  0.00     0.164 C 
BRANCH  21  22
HETATM   22  O2  UNL     1       7.197 -21.951  15.212  1.00  0.00    -0.401 OA
ATOM     23  H2  UNL     1       6.395 -21.466  15.054  1.00  0.00     0.209 HD
ENDBRANCH  21  22
ENDBRANCH  20  21
ENDBRANCH  19  20
ENDBRANCH  16  19
ENDBRANCH   1  13
TORSDOF 13
ENDMDL
MODEL 3
REMARK VINA RESULT: -9.048423759      1.151      1.579
REMARK  13 active torsions:
REMARK  status: ('A' for Active; 'I' for Inactive)
REMARK    1  A    between atoms: C2_2  and  C3_3 
REMARK    2  A    between atoms: C3_3  and  C4_4 
REMARK    3  A    between atoms: C3_3  and  O1_10 
REMARK    4  A    between atoms: C4_4  and  C5_5 
REMARK    5  A    between atoms: C5_5  and  C6_6 
REMARK    6  A    between atoms: C6_6  and  C7_7 
REMARK    7  A    between atoms: O1_10  and  C10_11 
REMARK    8  A    between atoms: C10_11  and  C11_12 
REMARK    9  A    between atoms: C11_12  and  C12_13 
REMARK   10  A    between atoms: C15_16  and  C16_17 
REMARK   11  A    between atoms: C16_17  and  C17_18 
REMARK   12  A    between atoms: C17_18  and  C18_19 
REMARK   13  A    between atoms: C18_19  and  O2_20 
ROOT
HETATM    1  C11 UNL     1      12.041 -28.440  15.127  1.00  0.00     0.064 C 
ENDROOT
BRANCH   1   2
HETATM    2  C10 UNL     1      12.132 -29.433  16.288  1.00  0.00     0.172 C 
BRANCH   2   3
HETATM    3  O1  UNL     1      13.483 -29.669  16.493  1.00  0.00    -0.386 OA
BRANCH   3   4
HETATM    4  C3  UNL     1      14.150 -28.621  17.084  1.00  0.00     0.121 C 
BRANCH   4   5
HETATM    5  C2  UNL     1      13.591 -28.286  18.455  1.00  0.00     0.027 C 
HETATM    6  C1  UNL     1      13.069 -26.858  18.399  1.00  0.00     0.007 C 
ENDBRANCH   4   5
BRANCH   4   7
HETATM    7  C4  UNL     1      15.619 -28.931  17.226  1.00  0.00     0.032 C 
BRANCH   7   8
HETATM    8  C5  UNL     1      15.965 -29.452  18.593  1.00  0.00     0.003 C 
BRANCH   8   9
HETATM    9  C6  UNL     1      17.462 -29.562  18.794  1.00  0.00     0.004 C 
BRANCH   9  10
HETATM   10  C7  UNL     1      17.751 -30.933  19.410  1.00  0.00    -0.023 C 
HETATM   11  C8  UNL     1      18.734 -31.702  18.559  1.00  0.00     0.009 C 
HETATM   12  C9  UNL     1      16.492 -31.748  19.526  1.00  0.00     0.009 C 
ENDBRANCH   9  10
ENDBRANCH   8   9
ENDBRANCH   7   8
ENDBRANCH   4   7
ENDBRANCH   3   4
ENDBRANCH   2   3
ENDBRANCH   1   2
BRANCH   1  13
HETATM   13  C12 UNL     1      10.808 -27.621  15.225  1.00  0.00    -0.056 A 
HETATM   14  C13 UNL     1       9.978 -27.829  16.325  1.00  0.00     0.007 A 
HETATM   15  C14 UNL     1       8.811 -27.090  16.468  1.00  0.00     0.007 A 
HETATM   16  C15 UNL     1       8.477 -26.155  15.525  1.00  0.00    -0.058 A 
HETATM   17  C19 UNL     1       9.291 -25.952  14.446  1.00  0.00     0.007 A 
HETATM   18  C20 UNL     1      10.452 -26.681  14.295  1.00  0.00     0.007 A 
BRANCH  16  19
HETATM   19  C16 UNL     1       7.241 -25.358  15.655  1.00  0.00     0.041 C 
BRANCH  19  20
HETATM   20  C17 UNL     1       6.875 -25.185  17.087  1.00  0.00     0.030 C 
BRANCH  20  21
HETATM   21  C18 UNL     1       5.631 -24.380  17.240  1.00  0.00     0.164 C 
BRANCH  21  22
HETATM   22  O2  UNL     1       5.797 -23.543  18.359  1.00  0.00    -0.401 OA
ATOM     23  H2  UNL     1       6.199 -24.058  19.049  1.00  0.00     0.209 HD
ENDBRANCH  21  22
ENDBRANCH  20  21
ENDBRANCH  19  20
ENDBRANCH  16  19
ENDBRANCH   1  13
TORSDOF 13
ENDMDL
MODEL 4
REMARK VINA RESULT: -9.010401471      1.405      2.029
REMARK  13 active torsions:
REMARK  status: ('A' for Active; 'I' for Inactive)
REMARK    1  A    between atoms: C2_2  and  C3_3 
REMARK    2  A    between atoms: C3_3  and  C4_4 
REMARK    3  A    between atoms: C3_3  and  O1_10 
REMARK    4  A    between atoms: C4_4  and  C5_5 
REMARK    5  A    between atoms: C5_5  and  C6_6 
REMARK    6  A    between atoms: C6_6  and  C7_7 
REMARK    7  A    between atoms: O1_10  and  C10_11 
REMARK    8  A    between atoms: C10_11  and  C11_12 
REMARK    9  A    between atoms: C11_12  and  C12_13 
REMARK   10  A    between atoms: C15_16  and  C16_17 
REMARK   11  A    between atoms: C16_17  and  C17_18 
REMARK   12  A    between atoms: C17_18  and  C18_19 
REMARK   13  A    between atoms: C18_19  and  O2_20 
ROOT
HETATM    1  C11 UNL     1      10.541 -28.284  17.421  1.00  0.00     0.064 C 
ENDROOT
BRANCH   1   2
HETATM    2  C10 UNL     1      11.909 -27.700  17.781  1.00  0.00     0.172 C 
BRANCH   2   3
HETATM    3  O1  UNL     1      12.524 -28.630  18.607  1.00  0.00    -0.386 OA
BRANCH   3   4
HETATM    4  C3  UNL     1      13.812 -28.941  18.236  1.00  0.00     0.121 C 
BRANCH   4   5
HETATM    5  C2  UNL     1      14.184 -28.339  16.894  1.00  0.00     0.027 C 
HETATM    6  C1  UNL     1      14.699 -29.467  16.014  1.00  0.00     0.007 C 
ENDBRANCH   4   5
BRANCH   4   7
HETATM    7  C4  UNL     1      14.799 -28.459  19.270  1.00  0.00     0.032 C 
BRANCH   7   8
HETATM    8  C5  UNL     1      15.697 -29.559  19.762  1.00  0.00     0.003 C 
BRANCH   8   9
HETATM    9  C6  UNL     1      16.980 -29.642  18.962  1.00  0.00     0.004 C 
BRANCH   9  10
HETATM   10  C7  UNL     1      17.101 -31.068  18.418  1.00  0.00    -0.023 C 
HETATM   11  C8  UNL     1      16.193 -32.006  19.177  1.00  0.00     0.009 C 
HETATM   12  C9  UNL     1      18.511 -31.576  18.546  1.00  0.00     0.009 C 
ENDBRANCH   9  10
ENDBRANCH   8   9
ENDBRANCH   7   8
ENDBRANCH   4   7
ENDBRANCH   3   4
ENDBRANCH   2   3
ENDBRANCH   1   2
BRANCH   1  13
HETATM   13  C12 UNL     1       9.785 -27.360  16.541  1.00  0.00    -0.056 A 
HETATM   14  C13 UNL     1      10.375 -26.987  15.335  1.00  0.00     0.007 A 
HETATM   15  C14 UNL     1       9.713 -26.125  14.471  1.00  0.00     0.007 A 
HETATM   16  C15 UNL     1       8.476 -25.641  14.809  1.00  0.00    -0.058 A 
HETATM   17  C19 UNL     1       7.899 -26.007  15.991  1.00  0.00     0.007 A 
HETATM   18  C20 UNL     1       8.549 -26.862  16.855  1.00  0.00     0.007 A 
BRANCH  16  19
HETATM   19  C16 UNL     1       7.752 -24.723  13.907  1.00  0.00     0.041 C 
BRANCH  19  20
HETATM   20  C17 UNL     1       8.429 -23.398  13.851  1.00  0.00     0.030 C 
BRANCH  20  21
HETATM   21  C18 UNL     1       7.483 -22.288  14.151  1.00  0.00     0.164 C 
BRANCH  21  22
HETATM   22  O2  UNL     1       7.199 -22.327  15.529  1.00  0.00    -0.401 OA
ATOM     23  H2  UNL     1       6.886 -21.467  15.784  1.00  0.00     0.209 HD
ENDBRANCH  21  22
ENDBRANCH  20  21
ENDBRANCH  19  20
ENDBRANCH  16  19
ENDBRANCH   1  13
TORSDOF 13
ENDMDL
MODEL 5
REMARK VINA RESULT: -9.003261311      1.266      1.945
REMARK  13 active torsions:
REMARK  status: ('A' for Active; 'I' for Inactive)
REMARK    1  A    between atoms: C2_2  and  C3_3 
REMARK    2  A    between atoms: C3_3  and  C4_4 
REMARK    3  A    between atoms: C3_3  and  O1_10 
REMARK    4  A    between atoms: C4_4  and  C5_5 
REMARK    5  A    between atoms: C5_5  and  C6_6 
REMARK    6  A    between atoms: C6_6  and  C7_7 
REMARK    7  A    between atoms: O1_10  and  C10_11 
REMARK    8  A    between atoms: C10_11  and  C11_12 
REMARK    9  A    between atoms: C11_12  and  C12_13 
REMARK   10  A    between atoms: C15_16  and  C16_17 
REMARK   11  A    between atoms: C16_17  and  C17_18 
REMARK   12  A    between atoms: C17_18  and  C18_19 
REMARK   13  A    between atoms: C18_19  and  O2_20 
ROOT
HETATM    1  C11 UNL     1      11.105 -28.347  17.189  1.00  0.00     0.064 C 
ENDROOT
BRANCH   1   2
HETATM    2  C10 UNL     1      12.267 -27.596  17.842  1.00  0.00     0.172 C 
BRANCH   2   3
HETATM    3  O1  UNL     1      12.865 -28.491  18.718  1.00  0.00    -0.386 OA
BRANCH   3   4
HETATM    4  C3  UNL     1      14.094 -28.947  18.298  1.00  0.00     0.121 C 
BRANCH   4   5
HETATM    5  C2  UNL     1      14.542 -28.284  17.009  1.00  0.00     0.027 C 
HETATM    6  C1  UNL     1      14.773 -29.385  15.985  1.00  0.00     0.007 C 
ENDBRANCH   4   5
BRANCH   4   7
HETATM    7  C4  UNL     1      15.144 -28.706  19.353  1.00  0.00     0.032 C 
BRANCH   7   8
HETATM    8  C5  UNL     1      16.032 -29.900  19.562  1.00  0.00     0.003 C 
BRANCH   8   9
HETATM    9  C6  UNL     1      17.392 -29.712  18.922  1.00  0.00     0.004 C 
BRANCH   9  10
HETATM   10  C7  UNL     1      18.319 -30.803  19.466  1.00  0.00    -0.023 C 
HETATM   11  C8  UNL     1      18.649 -31.807  18.387  1.00  0.00     0.009 C 
HETATM   12  C9  UNL     1      17.673 -31.538  20.608  1.00  0.00     0.009 C 
ENDBRANCH   9  10
ENDBRANCH   8   9
ENDBRANCH   7   8
ENDBRANCH   4   7
ENDBRANCH   3   4
ENDBRANCH   2   3
ENDBRANCH   1   2
BRANCH   1  13
HETATM   13  C12 UNL     1      10.305 -27.442  16.329  1.00  0.00    -0.056 A 
HETATM   14  C13 UNL     1       8.992 -27.176  16.713  1.00  0.00     0.007 A 
HETATM   15  C14 UNL     1       8.197 -26.336  15.946  1.00  0.00     0.007 A 
HETATM   16  C15 UNL     1       8.707 -25.767  14.809  1.00  0.00    -0.058 A 
HETATM   17  C19 UNL     1       9.993 -26.029  14.432  1.00  0.00     0.007 A 
HETATM   18  C20 UNL     1      10.791 -26.862  15.187  1.00  0.00     0.007 A 
BRANCH  16  19
HETATM   19  C16 UNL     1       7.880 -24.870  13.976  1.00  0.00     0.041 C 
BRANCH  19  20
HETATM   20  C17 UNL     1       8.501 -23.521  13.879  1.00  0.00     0.030 C 
BRANCH  20  21
HETATM   21  C18 UNL     1       7.502 -22.441  14.111  1.00  0.00     0.164 C 
BRANCH  21  22
HETATM   22  O2  UNL     1       7.294 -22.340  15.499  1.00  0.00    -0.401 OA
ATOM     23  H2  UNL     1       6.365 -22.202  15.643  1.00  0.00     0.209 HD
ENDBRANCH  21  22
ENDBRANCH  20  21
ENDBRANCH  19  20
ENDBRANCH  16  19
ENDBRANCH   1  13
TORSDOF 13
ENDMDL
