MODEL 1
REMARK VINA RESULT: -8.311218774      0.000      0.000
REMARK  12 active torsions:
REMARK  status: ('A' for Active; 'I' for Inactive)
REMARK    1  A    between atoms: C2_2  and  C3_3 
REMARK    2  A    between atoms: C3_3  and  C4_4 
REMARK    3  A    between atoms: C4_4  and  C5_5 
REMARK    4  A    between atoms: C5_5  and  C6_6 
REMARK    5  A    between atoms: C6_6  and  C7_7 
REMARK    6  A    between atoms: C6_6  and  C15_15 
REMARK    7  A    between atoms: C10_10  and  C11_11 
REMARK    8  A    between atoms: C15_15  and  O1_16 
REMARK    9  A    between atoms: C15_15  and  C16_18 
REMARK   10  A    between atoms: C16_18  and  C17_19 
REMARK   11  A    between atoms: C17_19  and  C18_21 
REMARK   12  A    between atoms: C18_21  and  C19_22 
ROOT
HETATM    1  C6  UNL     1       9.870 -26.631  15.968  1.00  0.00     0.048 C 
ENDROOT
BRANCH   1   2
HETATM    2  C5  UNL     1       8.815 -27.563  16.469  1.00  0.00     0.012 C 
BRANCH   2   3
HETATM    3  C4  UNL     1       8.583 -27.217  17.943  1.00  0.00     0.001 C 
BRANCH   3   4
HETATM    4  C3  UNL     1       9.229 -28.254  18.840  1.00  0.00    -0.000 C 
BRANCH   4   5
HETATM    5  C2  UNL     1       8.778 -28.023  20.249  1.00  0.00    -0.005 C 
HETATM    6  C1  UNL     1       9.632 -28.697  21.272  1.00  0.00     0.005 C 
ENDBRANCH   4   5
ENDBRANCH   3   4
ENDBRANCH   2   3
ENDBRANCH   1   2
BRANCH   1   7
HETATM    7  C7  UNL     1      11.185 -27.316  16.052  1.00  0.00    -0.051 A 
HETATM    8  C8  UNL     1      11.481 -28.325  15.178  1.00  0.00     0.008 A 
HETATM    9  C9  UNL     1      12.706 -28.961  15.259  1.00  0.00     0.007 A 
HETATM   10  C10 UNL     1      13.597 -28.552  16.231  1.00  0.00    -0.059 A 
HETATM   11  C13 UNL     1      13.323 -27.541  17.120  1.00  0.00     0.007 A 
HETATM   12  C14 UNL     1      12.077 -26.917  17.015  1.00  0.00     0.008 A 
BRANCH  10  13
HETATM   13  C11 UNL     1      14.906 -29.243  16.305  1.00  0.00     0.034 C 
HETATM   14  C12 UNL     1      15.429 -29.138  17.717  1.00  0.00     0.010 C 
ENDBRANCH  10  13
ENDBRANCH   1   7
BRANCH   1  15
HETATM   15  C15 UNL     1       9.673 -26.227  14.527  1.00  0.00     0.133 C 
BRANCH  15  16
HETATM   16  O1  UNL     1      10.297 -24.966  14.386  1.00  0.00    -0.394 OA
ATOM     17  H1  UNL     1       9.615 -24.365  14.110  1.00  0.00     0.210 HD
ENDBRANCH  15  16
BRANCH  15  18
HETATM   18  C16 UNL     1       8.228 -26.025  14.174  1.00  0.00     0.110 C 
BRANCH  18  19
HETATM   19  C17 UNL     1       7.950 -24.551  14.349  1.00  0.00     0.129 C 
HETATM   20  O2  UNL     1       8.059 -23.835  13.374  1.00  0.00    -0.298 OA
BRANCH  19  21
HETATM   21  C18 UNL     1       7.557 -24.023  15.688  1.00  0.00     0.078 C 
BRANCH  21  22
HETATM   22  C19 UNL     1       6.225 -24.638  16.050  1.00  0.00     0.003 C 
HETATM   23  C20 UNL     1       5.976 -24.520  17.533  1.00  0.00     0.005 C 
ENDBRANCH  21  22
ENDBRANCH  19  21
ENDBRANCH  18  19
ENDBRANCH  15  18
ENDBRANCH   1  15
TORSDOF 12
ENDMDL
MODEL 2
REMARK VINA RESULT: -8.067014013      1.977      5.991
REMARK  12 active torsions:
REMARK  status: ('A' for Active; 'I' for Inactive)
REMARK    1  A    between atoms: C2_2  and  C3_3 
REMARK    2  A    between atoms: C3_3  and  C4_4 
REMARK    3  A    between atoms: C4_4  and  C5_5 
REMARK    4  A    between atoms: C5_5  and  C6_6 
REMARK    5  A    between atoms: C6_6  and  C7_7 
REMARK    6  A    between atoms: C6_6  and  C15_15 
REMARK    7  A    between atoms: C10_10  and  C11_11 
REMARK    8  A    between atoms: C15_15  and  O1_16 
REMARK    9  A    between atoms: C15_15  and  C16_18 
REMARK   10  A    between atoms: C16_18  and  C17_19 
REMARK   11  A    between atoms: C17_19  and  C18_21 
REMARK   12  A    between atoms: C18_21  and  C19_22 
ROOT
HETATM    1  C6  UNL     1      10.356 -27.770  16.032  1.00  0.00     0.048 C 
ENDROOT
BRANCH   1   2
HETATM    2  C5  UNL     1      10.471 -27.391  17.473  1.00  0.00     0.012 C 
BRANCH   2   3
HETATM    3  C4  UNL     1       9.590 -28.366  18.260  1.00  0.00     0.001 C 
BRANCH   3   4
HETATM    4  C3  UNL     1      10.106 -28.523  19.676  1.00  0.00    -0.000 C 
BRANCH   4   5
HETATM    5  C2  UNL     1       8.967 -28.330  20.628  1.00  0.00    -0.005 C 
HETATM    6  C1  UNL     1       9.363 -28.417  22.066  1.00  0.00     0.005 C 
ENDBRANCH   4   5
ENDBRANCH   3   4
ENDBRANCH   2   3
ENDBRANCH   1   2
BRANCH   1   7
HETATM    7  C7  UNL     1       9.703 -26.656  15.300  1.00  0.00    -0.051 A 
HETATM    8  C8  UNL     1      10.468 -25.657  14.762  1.00  0.00     0.008 A 
HETATM    9  C9  UNL     1       9.857 -24.621  14.082  1.00  0.00     0.007 A 
HETATM   10  C10 UNL     1       8.481 -24.629  13.967  1.00  0.00    -0.059 A 
HETATM   11  C13 UNL     1       7.691 -25.620  14.497  1.00  0.00     0.007 A 
HETATM   12  C14 UNL     1       8.336 -26.655  15.181  1.00  0.00     0.008 A 
BRANCH  10  13
HETATM   13  C11 UNL     1       7.841 -23.512  13.234  1.00  0.00     0.034 C 
HETATM   14  C12 UNL     1       7.590 -22.380  14.201  1.00  0.00     0.010 C 
ENDBRANCH  10  13
ENDBRANCH   1   7
BRANCH   1  15
HETATM   15  C15 UNL     1      11.691 -28.012  15.371  1.00  0.00     0.133 C 
BRANCH  15  16
HETATM   16  O1  UNL     1      11.405 -28.373  14.034  1.00  0.00    -0.394 OA
ATOM     17  H1  UNL     1      11.754 -29.249  13.918  1.00  0.00     0.210 HD
ENDBRANCH  15  16
BRANCH  15  18
HETATM   18  C16 UNL     1      12.434 -29.171  15.971  1.00  0.00     0.110 C 
BRANCH  18  19
HETATM   19  C17 UNL     1      13.817 -28.664  16.301  1.00  0.00     0.129 C 
HETATM   20  O2  UNL     1      14.761 -29.195  15.749  1.00  0.00    -0.298 OA
BRANCH  19  21
HETATM   21  C18 UNL     1      13.988 -27.548  17.276  1.00  0.00     0.078 C 
BRANCH  21  22
HETATM   22  C19 UNL     1      13.776 -28.114  18.661  1.00  0.00     0.003 C 
HETATM   23  C20 UNL     1      15.025 -28.808  19.144  1.00  0.00     0.005 C 
ENDBRANCH  21  22
ENDBRANCH  19  21
ENDBRANCH  18  19
ENDBRANCH  15  18
ENDBRANCH   1  15
TORSDOF 12
ENDMDL
MODEL 3
REMARK VINA RESULT: -8.030545277      2.606      6.476
REMARK  12 active torsions:
REMARK  status: ('A' for Active; 'I' for Inactive)
REMARK    1  A    between atoms: C2_2  and  C3_3 
REMARK    2  A    between atoms: C3_3  and  C4_4 
REMARK    3  A    between atoms: C4_4  and  C5_5 
REMARK    4  A    between atoms: C5_5  and  C6_6 
REMARK    5  A    between atoms: C6_6  and  C7_7 
REMARK    6  A    between atoms: C6_6  and  C15_15 
REMARK    7  A    between atoms: C10_10  and  C11_11 
REMARK    8  A    between atoms: C15_15  and  O1_16 
REMARK    9  A    between atoms: C15_15  and  C16_18 
REMARK   10  A    between atoms: C16_18  and  C17_19 
REMARK   11  A    between atoms: C17_19  and  C18_21 
REMARK   12  A    between atoms: C18_21  and  C19_22 
ROOT
HETATM    1  C6  UNL     1      11.282 -28.495  17.115  1.00  0.00     0.048 C 
ENDROOT
BRANCH   1   2
HETATM    2  C5  UNL     1      11.619 -27.812  18.400  1.00  0.00     0.012 C 
BRANCH   2   3
HETATM    3  C4  UNL     1      11.232 -28.773  19.528  1.00  0.00     0.001 C 
BRANCH   3   4
HETATM    4  C3  UNL     1       9.865 -28.420  20.079  1.00  0.00    -0.000 C 
BRANCH   4   5
HETATM    5  C2  UNL     1       9.796 -28.851  21.511  1.00  0.00    -0.005 C 
HETATM    6  C1  UNL     1       8.783 -28.105  22.316  1.00  0.00     0.005 C 
ENDBRANCH   4   5
ENDBRANCH   3   4
ENDBRANCH   2   3
ENDBRANCH   1   2
BRANCH   1   7
HETATM    7  C7  UNL     1      10.443 -27.582  16.299  1.00  0.00    -0.051 A 
HETATM    8  C8  UNL     1      10.970 -26.989  15.186  1.00  0.00     0.008 A 
HETATM    9  C9  UNL     1      10.186 -26.138  14.429  1.00  0.00     0.007 A 
HETATM   10  C10 UNL     1       8.883 -25.916  14.827  1.00  0.00    -0.059 A 
HETATM   11  C13 UNL     1       8.330 -26.499  15.941  1.00  0.00     0.007 A 
HETATM   12  C14 UNL     1       9.146 -27.354  16.688  1.00  0.00     0.008 A 
BRANCH  10  13
HETATM   13  C11 UNL     1       8.055 -25.003  14.005  1.00  0.00     0.034 C 
HETATM   14  C12 UNL     1       8.860 -23.762  13.700  1.00  0.00     0.010 C 
ENDBRANCH  10  13
ENDBRANCH   1   7
BRANCH   1  15
HETATM   15  C15 UNL     1      12.496 -28.839  16.286  1.00  0.00     0.133 C 
BRANCH  15  16
HETATM   16  O1  UNL     1      12.587 -30.250  16.294  1.00  0.00    -0.394 OA
ATOM     17  H1  UNL     1      13.032 -30.480  17.101  1.00  0.00     0.210 HD
ENDBRANCH  15  16
BRANCH  15  18
HETATM   18  C16 UNL     1      13.774 -28.331  16.890  1.00  0.00     0.110 C 
BRANCH  18  19
HETATM   19  C17 UNL     1      14.592 -29.549  17.243  1.00  0.00     0.129 C 
HETATM   20  O2  UNL     1      15.167 -30.125  16.341  1.00  0.00    -0.298 OA
BRANCH  19  21
HETATM   21  C18 UNL     1      14.671 -30.006  18.661  1.00  0.00     0.078 C 
BRANCH  21  22
HETATM   22  C19 UNL     1      15.671 -29.124  19.371  1.00  0.00     0.003 C 
HETATM   23  C20 UNL     1      17.079 -29.560  19.052  1.00  0.00     0.005 C 
ENDBRANCH  21  22
ENDBRANCH  19  21
ENDBRANCH  18  19
ENDBRANCH  15  18
ENDBRANCH   1  15
TORSDOF 12
ENDMDL
MODEL 4
REMARK VINA RESULT: -8.030493318      2.610      6.502
REMARK  12 active torsions:
REMARK  status: ('A' for Active; 'I' for Inactive)
REMARK    1  A    between atoms: C2_2  and  C3_3 
REMARK    2  A    between atoms: C3_3  and  C4_4 
REMARK    3  A    between atoms: C4_4  and  C5_5 
REMARK    4  A    between atoms: C5_5  and  C6_6 
REMARK    5  A    between atoms: C6_6  and  C7_7 
REMARK    6  A    between atoms: C6_6  and  C15_15 
REMARK    7  A    between atoms: C10_10  and  C11_11 
REMARK    8  A    between atoms: C15_15  and  O1_16 
REMARK    9  A    between atoms: C15_15  and  C16_18 
REMARK   10  A    between atoms: C16_18  and  C17_19 
REMARK   11  A    between atoms: C17_19  and  C18_21 
REMARK   12  A    between atoms: C18_21  and  C19_22 
ROOT
HETATM    1  C6  UNL     1      11.331 -28.508  17.103  1.00  0.00     0.048 C 
ENDROOT
BRANCH   1   2
HETATM    2  C5  UNL     1      11.676 -27.808  18.376  1.00  0.00     0.012 C 
BRANCH   2   3
HETATM    3  C4  UNL     1      11.281 -28.747  19.520  1.00  0.00     0.001 C 
BRANCH   3   4
HETATM    4  C3  UNL     1       9.906 -28.392  20.049  1.00  0.00    -0.000 C 
BRANCH   4   5
HETATM    5  C2  UNL     1       9.792 -28.876  21.461  1.00  0.00    -0.005 C 
HETATM    6  C1  UNL     1       8.826 -28.093  22.289  1.00  0.00     0.005 C 
ENDBRANCH   4   5
ENDBRANCH   3   4
ENDBRANCH   2   3
ENDBRANCH   1   2
BRANCH   1   7
HETATM    7  C7  UNL     1      10.459 -27.619  16.295  1.00  0.00    -0.051 A 
HETATM    8  C8  UNL     1       9.162 -27.412  16.676  1.00  0.00     0.008 A 
HETATM    9  C9  UNL     1       8.352 -26.584  15.921  1.00  0.00     0.007 A 
HETATM   10  C10 UNL     1       8.887 -25.987  14.797  1.00  0.00    -0.059 A 
HETATM   11  C13 UNL     1      10.186 -26.178  14.394  1.00  0.00     0.007 A 
HETATM   12  C14 UNL     1      10.981 -27.021  15.175  1.00  0.00     0.008 A 
BRANCH  10  13
HETATM   13  C11 UNL     1       8.007 -25.101  14.000  1.00  0.00     0.034 C 
HETATM   14  C12 UNL     1       8.740 -23.810  13.725  1.00  0.00     0.010 C 
ENDBRANCH  10  13
ENDBRANCH   1   7
BRANCH   1  15
HETATM   15  C15 UNL     1      12.537 -28.834  16.256  1.00  0.00     0.133 C 
BRANCH  15  16
HETATM   16  O1  UNL     1      12.633 -30.245  16.240  1.00  0.00    -0.394 OA
ATOM     17  H1  UNL     1      13.484 -30.446  15.869  1.00  0.00     0.210 HD
ENDBRANCH  15  16
BRANCH  15  18
HETATM   18  C16 UNL     1      13.819 -28.330  16.852  1.00  0.00     0.110 C 
BRANCH  18  19
HETATM   19  C17 UNL     1      14.636 -29.551  17.198  1.00  0.00     0.129 C 
HETATM   20  O2  UNL     1      15.205 -30.126  16.291  1.00  0.00    -0.298 OA
BRANCH  19  21
HETATM   21  C18 UNL     1      14.723 -30.012  18.614  1.00  0.00     0.078 C 
BRANCH  21  22
HETATM   22  C19 UNL     1      15.715 -29.121  19.325  1.00  0.00     0.003 C 
HETATM   23  C20 UNL     1      17.127 -29.565  19.033  1.00  0.00     0.005 C 
ENDBRANCH  21  22
ENDBRANCH  19  21
ENDBRANCH  18  19
ENDBRANCH  15  18
ENDBRANCH   1  15
TORSDOF 12
ENDMDL
MODEL 5
REMARK VINA RESULT: -7.982782475      2.281      3.955
REMARK  12 active torsions:
REMARK  status: ('A' for Active; 'I' for Inactive)
REMARK    1  A    between atoms: C2_2  and  C3_3 
REMARK    2  A    between atoms: C3_3  and  C4_4 
REMARK    3  A    between atoms: C4_4  and  C5_5 
REMARK    4  A    between atoms: C5_5  and  C6_6 
REMARK    5  A    between atoms: C6_6  and  C7_7 
REMARK    6  A    between atoms: C6_6  and  C15_15 
REMARK    7  A    between atoms: C10_10  and  C11_11 
REMARK    8  A    between atoms: C15_15  and  O1_16 
REMARK    9  A    between atoms: C15_15  and  C16_18 
REMARK   10  A    between atoms: C16_18  and  C17_19 
REMARK   11  A    between atoms: C17_19  and  C18_21 
REMARK   12  A    between atoms: C18_21  and  C19_22 
ROOT
HETATM    1  C6  UNL     1      10.855 -27.224  15.466  1.00  0.00     0.048 C 
ENDROOT
BRANCH   1   2
HETATM    2  C5  UNL     1      11.056 -25.827  14.975  1.00  0.00     0.012 C 
BRANCH   2   3
HETATM    3  C4  UNL     1       9.903 -25.525  14.012  1.00  0.00     0.001 C 
BRANCH   3   4
HETATM    4  C3  UNL     1       9.817 -24.037  13.737  1.00  0.00    -0.000 C 
BRANCH   4   5
HETATM    5  C2  UNL     1       8.402 -23.692  13.390  1.00  0.00    -0.005 C 
HETATM    6  C1  UNL     1       7.914 -22.437  14.035  1.00  0.00     0.005 C 
ENDBRANCH   4   5
ENDBRANCH   3   4
ENDBRANCH   2   3
ENDBRANCH   1   2
BRANCH   1   7
HETATM    7  C7  UNL     1      12.126 -27.701  16.067  1.00  0.00    -0.051 A 
HETATM    8  C8  UNL     1      12.679 -27.017  17.114  1.00  0.00     0.008 A 
HETATM    9  C9  UNL     1      13.863 -27.463  17.672  1.00  0.00     0.007 A 
HETATM   10  C10 UNL     1      14.452 -28.596  17.147  1.00  0.00    -0.059 A 
HETATM   11  C13 UNL     1      13.916 -29.300  16.096  1.00  0.00     0.007 A 
HETATM   12  C14 UNL     1      12.720 -28.826  15.552  1.00  0.00     0.008 A 
BRANCH  10  13
HETATM   13  C11 UNL     1      15.719 -29.062  17.756  1.00  0.00     0.034 C 
HETATM   14  C12 UNL     1      15.738 -30.572  17.738  1.00  0.00     0.010 C 
ENDBRANCH  10  13
ENDBRANCH   1   7
BRANCH   1  15
HETATM   15  C15 UNL     1       9.792 -27.335  16.530  1.00  0.00     0.133 C 
BRANCH  15  16
HETATM   16  O1  UNL     1       9.788 -28.689  16.938  1.00  0.00    -0.394 OA
ATOM     17  H1  UNL     1      10.614 -28.831  17.384  1.00  0.00     0.210 HD
ENDBRANCH  15  16
BRANCH  15  18
HETATM   18  C16 UNL     1       8.414 -27.048  16.007  1.00  0.00     0.110 C 
BRANCH  18  19
HETATM   19  C17 UNL     1       7.760 -26.130  17.011  1.00  0.00     0.129 C 
HETATM   20  O2  UNL     1       7.571 -26.560  18.132  1.00  0.00    -0.298 OA
BRANCH  19  21
HETATM   21  C18 UNL     1       7.371 -24.746  16.611  1.00  0.00     0.078 C 
BRANCH  21  22
HETATM   22  C19 UNL     1       5.864 -24.660  16.667  1.00  0.00     0.003 C 
HETATM   23  C20 UNL     1       5.423 -23.915  17.903  1.00  0.00     0.005 C 
ENDBRANCH  21  22
ENDBRANCH  19  21
ENDBRANCH  18  19
ENDBRANCH  15  18
ENDBRANCH   1  15
TORSDOF 12
ENDMDL
