MODEL 1
REMARK VINA RESULT: -6.528428244      0.000      0.000
REMARK  11 active torsions:
REMARK  status: ('A' for Active; 'I' for Inactive)
REMARK    1  A    between atoms: O1_2  and  C2_3 
REMARK    2  A    between atoms: C3_5  and  O3_6 
REMARK    3  A    between atoms: O3_6  and  C4_7 
REMARK    4  A    between atoms: C6_12  and  O4_13 
REMARK    5  A    between atoms: C7_15  and  O5_16 
REMARK    6  A    between atoms: C8_18  and  O6_19 
REMARK    7  A    between atoms: C9_21  and  N2_22 
REMARK    8  A    between atoms: C10_26  and  N3_27 
REMARK    9  A    between atoms: C11_31  and  N4_32 
REMARK   10  A    between atoms: N4_32  and  N5_34 
REMARK   11  A    between atoms: N5_34  and  N6_35 
ROOT
HETATM    1  C2  UNL     1     -89.162  63.726  94.650  1.00  0.00     0.289 C 
HETATM    2  O2  UNL     1     -89.125  62.457  95.208  1.00  0.00    -0.327 OA
HETATM    3  C3  UNL     1     -87.870  62.001  95.499  1.00  0.00     0.298 C 
HETATM    4  C9  UNL     1     -86.887  63.016  95.983  1.00  0.00     0.271 C 
HETATM    5  C10 UNL     1     -87.598  64.194  96.545  1.00  0.00     0.248 C 
HETATM    6  C11 UNL     1     -88.537  64.770  95.510  1.00  0.00     0.202 C 
ENDROOT
BRANCH   3   7
HETATM    7  O3  UNL     1     -87.267  61.381  94.377  1.00  0.00    -0.324 OA
BRANCH   7   8
HETATM    8  C4  UNL     1     -87.344  60.011  94.417  1.00  0.00     0.354 C 
HETATM    9  N1  UNL     1     -87.753  59.590  93.064  1.00  0.00    -0.044 N 
HETATM   10  C5  UNL     1     -88.024  58.148  93.131  1.00  0.00     0.269 C 
ATOM     11  H12 UNL     1     -88.536  60.130  92.695  1.00  0.00     0.280 HD
ATOM     12  H11 UNL     1     -87.075  59.838  92.344  1.00  0.00     0.280 HD
HETATM   13  C6  UNL     1     -86.684  57.429  93.331  1.00  0.00     0.175 C 
HETATM   14  C7  UNL     1     -86.028  57.958  94.568  1.00  0.00     0.181 C 
HETATM   15  C8  UNL     1     -85.945  59.467  94.604  1.00  0.00     0.205 C 
BRANCH  13  16
HETATM   16  O4  UNL     1     -85.872  57.600  92.218  1.00  0.00    -0.391 OA
ATOM     17  H4  UNL     1     -85.043  57.152  92.340  1.00  0.00     0.210 HD
ENDBRANCH  13  16
BRANCH  14  18
HETATM   18  O5  UNL     1     -86.679  57.540  95.714  1.00  0.00    -0.390 OA
ATOM     19  H5  UNL     1     -87.178  58.243  96.113  1.00  0.00     0.210 HD
ENDBRANCH  14  18
BRANCH  15  20
HETATM   20  O6  UNL     1     -85.171  59.910  93.539  1.00  0.00    -0.388 OA
ATOM     21  H6  UNL     1     -84.560  59.218  93.316  1.00  0.00     0.210 HD
ENDBRANCH  15  20
ENDBRANCH   7   8
ENDBRANCH   3   7
BRANCH   4  22
HETATM   22  N2  UNL     1     -86.019  62.359  96.945  1.00  0.00    -0.068 N 
ATOM     23  H23 UNL     1     -86.384  61.460  97.260  1.00  0.00     0.275 HD
ATOM     24  H22 UNL     1     -85.155  62.014  96.530  1.00  0.00     0.275 HD
ATOM     25  H21 UNL     1     -85.859  63.014  97.710  1.00  0.00     0.275 HD
ENDBRANCH   4  22
BRANCH   1  26
HETATM   26  O1  UNL     1     -90.506  64.056  94.478  1.00  0.00    -0.364 OA
HETATM   27  C1  UNL     1     -91.162  64.223  95.693  1.00  0.00     0.204 C 
ENDBRANCH   1  26
BRANCH   5  28
HETATM   28  N3  UNL     1     -88.316  63.934  97.755  1.00  0.00    -0.071 N 
ATOM     29  H33 UNL     1     -87.856  63.198  98.289  1.00  0.00     0.274 HD
ATOM     30  H32 UNL     1     -88.210  64.714  98.404  1.00  0.00     0.274 HD
ATOM     31  H31 UNL     1     -89.303  63.714  97.623  1.00  0.00     0.274 HD
ENDBRANCH   5  28
BRANCH   6  32
HETATM   32  N4  UNL     1     -87.815  65.698  94.663  1.00  0.00    -0.241 N 
ATOM     33  H4  UNL     1     -87.461  65.417  93.748  1.00  0.00     0.197 HD
BRANCH  32  34
HETATM   34  N5  UNL     1     -87.645  66.837  95.091  1.00  0.00    -0.248 NA
BRANCH  34  35
HETATM   35  N6  UNL     1     -87.374  68.044  95.184  1.00  0.00    -0.261 N 
ATOM     36  H62 UNL     1     -86.378  67.916  95.003  1.00  0.00     0.193 HD
ATOM     37  H61 UNL     1     -87.441  69.054  95.311  1.00  0.00     0.193 HD
ENDBRANCH  34  35
ENDBRANCH  32  34
ENDBRANCH   6  32
TORSDOF 11
ENDMDL
MODEL 2
REMARK VINA RESULT: -6.343485299      2.889      4.560
REMARK  11 active torsions:
REMARK  status: ('A' for Active; 'I' for Inactive)
REMARK    1  A    between atoms: O1_2  and  C2_3 
REMARK    2  A    between atoms: C3_5  and  O3_6 
REMARK    3  A    between atoms: O3_6  and  C4_7 
REMARK    4  A    between atoms: C6_12  and  O4_13 
REMARK    5  A    between atoms: C7_15  and  O5_16 
REMARK    6  A    between atoms: C8_18  and  O6_19 
REMARK    7  A    between atoms: C9_21  and  N2_22 
REMARK    8  A    between atoms: C10_26  and  N3_27 
REMARK    9  A    between atoms: C11_31  and  N4_32 
REMARK   10  A    between atoms: N4_32  and  N5_34 
REMARK   11  A    between atoms: N5_34  and  N6_35 
ROOT
HETATM    1  C2  UNL     1     -87.942  67.276  95.204  1.00  0.00     0.289 C 
HETATM    2  O2  UNL     1     -88.124  65.996  94.702  1.00  0.00    -0.327 OA
HETATM    3  C3  UNL     1     -89.178  65.316  95.246  1.00  0.00     0.298 C 
HETATM    4  C9  UNL     1     -90.389  66.123  95.583  1.00  0.00     0.271 C 
HETATM    5  C10 UNL     1     -90.408  67.380  94.790  1.00  0.00     0.248 C 
HETATM    6  C11 UNL     1     -89.132  68.156  95.028  1.00  0.00     0.202 C 
ENDROOT
BRANCH   3   7
HETATM    7  O3  UNL     1     -88.809  64.652  96.442  1.00  0.00    -0.324 OA
BRANCH   7   8
HETATM    8  C4  UNL     1     -88.390  63.362  96.230  1.00  0.00     0.354 C 
HETATM    9  N1  UNL     1     -88.317  63.197  94.766  1.00  0.00    -0.044 N 
HETATM   10  C5  UNL     1     -88.055  61.774  94.512  1.00  0.00     0.269 C 
ATOM     11  H12 UNL     1     -89.142  63.547  94.280  1.00  0.00     0.280 HD
ATOM     12  H11 UNL     1     -87.636  63.816  94.326  1.00  0.00     0.280 HD
HETATM   13  C6  UNL     1     -86.623  61.473  94.970  1.00  0.00     0.175 C 
HETATM   14  C7  UNL     1     -86.486  61.843  96.414  1.00  0.00     0.181 C 
HETATM   15  C8  UNL     1     -86.966  63.243  96.722  1.00  0.00     0.205 C 
BRANCH  13  16
HETATM   16  O4  UNL     1     -85.707  62.163  94.186  1.00  0.00    -0.391 OA
ATOM     17  H4  UNL     1     -85.176  62.738  94.724  1.00  0.00     0.210 HD
ENDBRANCH  13  16
BRANCH  14  18
HETATM   18  O5  UNL     1     -87.173  60.967  97.235  1.00  0.00    -0.390 OA
ATOM     19  H5  UNL     1     -87.088  61.203  98.152  1.00  0.00     0.210 HD
ENDBRANCH  14  18
BRANCH  15  20
HETATM   20  O6  UNL     1     -86.194  64.158  96.017  1.00  0.00    -0.388 OA
ATOM     21  H6  UNL     1     -86.472  64.135  95.109  1.00  0.00     0.210 HD
ENDBRANCH  15  20
ENDBRANCH   7   8
ENDBRANCH   3   7
BRANCH   4  22
HETATM   22  N2  UNL     1     -91.551  65.283  95.350  1.00  0.00    -0.068 N 
ATOM     23  H23 UNL     1     -91.874  65.311  94.383  1.00  0.00     0.275 HD
ATOM     24  H22 UNL     1     -91.336  64.287  95.390  1.00  0.00     0.275 HD
ATOM     25  H21 UNL     1     -92.269  65.562  96.019  1.00  0.00     0.275 HD
ENDBRANCH   4  22
BRANCH   1  26
HETATM   26  O1  UNL     1     -86.878  67.842  94.502  1.00  0.00    -0.364 OA
HETATM   27  C1  UNL     1     -85.914  68.371  95.354  1.00  0.00     0.204 C 
ENDBRANCH   1  26
BRANCH   5  28
HETATM   28  N3  UNL     1     -90.604  67.195  93.385  1.00  0.00    -0.071 N 
ATOM     29  H33 UNL     1     -89.736  67.370  92.880  1.00  0.00     0.274 HD
ATOM     30  H32 UNL     1     -90.736  66.206  93.173  1.00  0.00     0.274 HD
ATOM     31  H31 UNL     1     -91.364  67.747  92.987  1.00  0.00     0.274 HD
ENDBRANCH   5  28
BRANCH   6  32
HETATM   32  N4  UNL     1     -89.279  68.982  96.209  1.00  0.00    -0.241 N 
ATOM     33  H4  UNL     1     -89.318  68.571  97.142  1.00  0.00     0.197 HD
BRANCH  32  34
HETATM   34  N5  UNL     1     -89.355  70.197  96.042  1.00  0.00    -0.248 NA
BRANCH  34  35
HETATM   35  N6  UNL     1     -89.721  71.327  95.684  1.00  0.00    -0.261 N 
ATOM     36  H62 UNL     1     -89.175  71.318  94.822  1.00  0.00     0.193 HD
ATOM     37  H61 UNL     1     -90.172  72.240  95.643  1.00  0.00     0.193 HD
ENDBRANCH  34  35
ENDBRANCH  32  34
ENDBRANCH   6  32
TORSDOF 11
ENDMDL
MODEL 3
REMARK VINA RESULT: -6.233357794      2.387      6.750
REMARK  11 active torsions:
REMARK  status: ('A' for Active; 'I' for Inactive)
REMARK    1  A    between atoms: O1_2  and  C2_3 
REMARK    2  A    between atoms: C3_5  and  O3_6 
REMARK    3  A    between atoms: O3_6  and  C4_7 
REMARK    4  A    between atoms: C6_12  and  O4_13 
REMARK    5  A    between atoms: C7_15  and  O5_16 
REMARK    6  A    between atoms: C8_18  and  O6_19 
REMARK    7  A    between atoms: C9_21  and  N2_22 
REMARK    8  A    between atoms: C10_26  and  N3_27 
REMARK    9  A    between atoms: C11_31  and  N4_32 
REMARK   10  A    between atoms: N4_32  and  N5_34 
REMARK   11  A    between atoms: N5_34  and  N6_35 
ROOT
HETATM    1  C2  UNL     1     -87.843  59.580  93.340  1.00  0.00     0.289 C 
HETATM    2  O2  UNL     1     -87.550  60.935  93.304  1.00  0.00    -0.327 OA
HETATM    3  C3  UNL     1     -87.372  61.511  94.530  1.00  0.00     0.298 C 
HETATM    4  C9  UNL     1     -86.705  60.672  95.571  1.00  0.00     0.271 C 
HETATM    5  C10 UNL     1     -85.911  59.592  94.930  1.00  0.00     0.248 C 
HETATM    6  C11 UNL     1     -86.799  58.767  94.026  1.00  0.00     0.202 C 
ENDROOT
BRANCH   3   7
HETATM    7  O3  UNL     1     -88.602  61.927  95.095  1.00  0.00    -0.324 OA
BRANCH   7   8
HETATM    8  C4  UNL     1     -88.859  63.261  94.895  1.00  0.00     0.354 C 
HETATM    9  N1  UNL     1     -90.225  63.488  95.402  1.00  0.00    -0.044 N 
HETATM   10  C5  UNL     1     -90.594  64.860  95.029  1.00  0.00     0.269 C 
ATOM     11  H12 UNL     1     -90.895  62.790  95.080  1.00  0.00     0.280 HD
ATOM     12  H11 UNL     1     -90.319  63.305  96.401  1.00  0.00     0.280 HD
HETATM   13  C6  UNL     1     -89.744  65.818  95.872  1.00  0.00     0.175 C 
HETATM   14  C7  UNL     1     -88.296  65.519  95.638  1.00  0.00     0.181 C 
HETATM   15  C8  UNL     1     -87.952  64.057  95.806  1.00  0.00     0.205 C 
BRANCH  13  16
HETATM   16  O4  UNL     1     -90.071  65.701  97.217  1.00  0.00    -0.391 OA
ATOM     17  H4  UNL     1     -90.085  66.556  97.631  1.00  0.00     0.210 HD
ENDBRANCH  13  16
BRANCH  14  18
HETATM   18  O5  UNL     1     -87.889  65.909  94.375  1.00  0.00    -0.390 OA
ATOM     19  H5  UNL     1     -86.945  65.860  94.278  1.00  0.00     0.210 HD
ENDBRANCH  14  18
BRANCH  15  20
HETATM   20  O6  UNL     1     -88.218  63.670  97.114  1.00  0.00    -0.388 OA
ATOM     21  H6  UNL     1     -87.767  64.273  97.693  1.00  0.00     0.210 HD
ENDBRANCH  15  20
ENDBRANCH   7   8
ENDBRANCH   3   7
BRANCH   4  22
HETATM   22  N2  UNL     1     -85.905  61.557  96.398  1.00  0.00    -0.068 N 
ATOM     23  H23 UNL     1     -86.292  62.498  96.464  1.00  0.00     0.275 HD
ATOM     24  H22 UNL     1     -85.951  61.324  97.389  1.00  0.00     0.275 HD
ATOM     25  H21 UNL     1     -84.953  61.543  96.030  1.00  0.00     0.275 HD
ENDBRANCH   4  22
BRANCH   1  26
HETATM   26  O1  UNL     1     -87.929  59.145  92.018  1.00  0.00    -0.364 OA
HETATM   27  C1  UNL     1     -86.687  58.789  91.504  1.00  0.00     0.204 C 
ENDBRANCH   1  26
BRANCH   5  28
HETATM   28  N3  UNL     1     -84.769  60.047  94.197  1.00  0.00    -0.071 N 
ATOM     29  H33 UNL     1     -84.284  60.779  94.715  1.00  0.00     0.274 HD
ATOM     30  H32 UNL     1     -84.044  59.329  94.188  1.00  0.00     0.274 HD
ATOM     31  H31 UNL     1     -84.971  60.358  93.247  1.00  0.00     0.274 HD
ENDBRANCH   5  28
BRANCH   6  32
HETATM   32  N4  UNL     1     -87.451  57.730  94.801  1.00  0.00    -0.241 N 
ATOM     33  H4  UNL     1     -88.461  57.594  94.761  1.00  0.00     0.197 HD
BRANCH  32  34
HETATM   34  N5  UNL     1     -86.738  57.023  95.509  1.00  0.00    -0.248 NA
BRANCH  34  35
HETATM   35  N6  UNL     1     -86.139  56.054  96.000  1.00  0.00    -0.261 N 
ATOM     36  H62 UNL     1     -85.217  56.485  95.925  1.00  0.00     0.193 HD
ATOM     37  H61 UNL     1     -85.921  55.150  96.418  1.00  0.00     0.193 HD
ENDBRANCH  34  35
ENDBRANCH  32  34
ENDBRANCH   6  32
TORSDOF 11
ENDMDL
MODEL 4
REMARK VINA RESULT: -6.005787040      2.652      4.551
REMARK  11 active torsions:
REMARK  status: ('A' for Active; 'I' for Inactive)
REMARK    1  A    between atoms: O1_2  and  C2_3 
REMARK    2  A    between atoms: C3_5  and  O3_6 
REMARK    3  A    between atoms: O3_6  and  C4_7 
REMARK    4  A    between atoms: C6_12  and  O4_13 
REMARK    5  A    between atoms: C7_15  and  O5_16 
REMARK    6  A    between atoms: C8_18  and  O6_19 
REMARK    7  A    between atoms: C9_21  and  N2_22 
REMARK    8  A    between atoms: C10_26  and  N3_27 
REMARK    9  A    between atoms: C11_31  and  N4_32 
REMARK   10  A    between atoms: N4_32  and  N5_34 
REMARK   11  A    between atoms: N5_34  and  N6_35 
ROOT
HETATM    1  C2  UNL     1     -90.584  65.870  94.814  1.00  0.00     0.289 C 
HETATM    2  O2  UNL     1     -89.522  65.435  95.592  1.00  0.00    -0.327 OA
HETATM    3  C3  UNL     1     -88.293  65.842  95.154  1.00  0.00     0.298 C 
HETATM    4  C9  UNL     1     -88.217  67.208  94.555  1.00  0.00     0.271 C 
HETATM    5  C10 UNL     1     -89.356  68.040  95.024  1.00  0.00     0.248 C 
HETATM    6  C11 UNL     1     -90.663  67.354  94.697  1.00  0.00     0.202 C 
ENDROOT
BRANCH   3   7
HETATM    7  O3  UNL     1     -87.768  64.960  94.178  1.00  0.00    -0.324 OA
BRANCH   7   8
HETATM    8  C4  UNL     1     -87.047  63.926  94.722  1.00  0.00     0.354 C 
HETATM    9  N1  UNL     1     -87.125  64.105  96.184  1.00  0.00    -0.044 N 
HETATM   10  C5  UNL     1     -86.210  63.125  96.782  1.00  0.00     0.269 C 
ATOM     11  H12 UNL     1     -86.939  65.063  96.481  1.00  0.00     0.280 HD
ATOM     12  H11 UNL     1     -88.076  64.040  96.546  1.00  0.00     0.280 HD
HETATM   13  C6  UNL     1     -86.813  61.731  96.568  1.00  0.00     0.175 C 
HETATM   14  C7  UNL     1     -87.026  61.513  95.102  1.00  0.00     0.181 C 
HETATM   15  C8  UNL     1     -87.783  62.637  94.433  1.00  0.00     0.205 C 
BRANCH  13  16
HETATM   16  O4  UNL     1     -88.003  61.604  97.274  1.00  0.00    -0.391 OA
ATOM     17  H4  UNL     1     -88.441  62.444  97.339  1.00  0.00     0.210 HD
ENDBRANCH  13  16
BRANCH  14  18
HETATM   18  O5  UNL     1     -85.830  61.345  94.429  1.00  0.00    -0.390 OA
ATOM     19  H5  UNL     1     -85.116  61.144  95.023  1.00  0.00     0.210 HD
ENDBRANCH  14  18
BRANCH  15  20
HETATM   20  O6  UNL     1     -89.050  62.736  94.995  1.00  0.00    -0.388 OA
ATOM     21  H6  UNL     1     -89.155  62.016  95.606  1.00  0.00     0.210 HD
ENDBRANCH  15  20
ENDBRANCH   7   8
ENDBRANCH   3   7
BRANCH   4  22
HETATM   22  N2  UNL     1     -86.921  67.765  94.901  1.00  0.00    -0.068 N 
ATOM     23  H23 UNL     1     -86.614  67.505  95.839  1.00  0.00     0.275 HD
ATOM     24  H22 UNL     1     -86.153  67.336  94.386  1.00  0.00     0.275 HD
ATOM     25  H21 UNL     1     -86.976  68.775  94.765  1.00  0.00     0.275 HD
ENDBRANCH   4  22
BRANCH   1  26
HETATM   26  O1  UNL     1     -91.752  65.423  95.432  1.00  0.00    -0.364 OA
HETATM   27  C1  UNL     1     -92.259  64.280  94.824  1.00  0.00     0.204 C 
ENDBRANCH   1  26
BRANCH   5  28
HETATM   28  N3  UNL     1     -89.320  68.367  96.417  1.00  0.00    -0.071 N 
ATOM     29  H33 UNL     1     -88.427  68.089  96.823  1.00  0.00     0.274 HD
ATOM     30  H32 UNL     1     -89.263  69.378  96.541  1.00  0.00     0.274 HD
ATOM     31  H31 UNL     1     -90.093  67.986  96.962  1.00  0.00     0.274 HD
ENDBRANCH   5  28
BRANCH   6  32
HETATM   32  N4  UNL     1     -91.064  67.693  93.346  1.00  0.00    -0.241 N 
ATOM     33  H4  UNL     1     -90.389  68.039  92.664  1.00  0.00     0.197 HD
BRANCH  32  34
HETATM   34  N5  UNL     1     -92.248  67.546  93.056  1.00  0.00    -0.248 NA
BRANCH  34  35
HETATM   35  N6  UNL     1     -93.432  67.174  93.044  1.00  0.00    -0.261 N 
ATOM     36  H62 UNL     1     -93.706  67.807  92.292  1.00  0.00     0.193 HD
ATOM     37  H61 UNL     1     -94.307  66.693  93.250  1.00  0.00     0.193 HD
ENDBRANCH  34  35
ENDBRANCH  32  34
ENDBRANCH   6  32
TORSDOF 11
ENDMDL
MODEL 5
REMARK VINA RESULT: -5.995368410      2.973      5.005
REMARK  11 active torsions:
REMARK  status: ('A' for Active; 'I' for Inactive)
REMARK    1  A    between atoms: O1_2  and  C2_3 
REMARK    2  A    between atoms: C3_5  and  O3_6 
REMARK    3  A    between atoms: O3_6  and  C4_7 
REMARK    4  A    between atoms: C6_12  and  O4_13 
REMARK    5  A    between atoms: C7_15  and  O5_16 
REMARK    6  A    between atoms: C8_18  and  O6_19 
REMARK    7  A    between atoms: C9_21  and  N2_22 
REMARK    8  A    between atoms: C10_26  and  N3_27 
REMARK    9  A    between atoms: C11_31  and  N4_32 
REMARK   10  A    between atoms: N4_32  and  N5_34 
REMARK   11  A    between atoms: N5_34  and  N6_35 
ROOT
HETATM    1  C2  UNL     1     -87.977  67.574  95.089  1.00  0.00     0.289 C 
HETATM    2  O2  UNL     1     -88.152  66.336  94.490  1.00  0.00    -0.327 OA
HETATM    3  C3  UNL     1     -89.189  65.602  94.995  1.00  0.00     0.298 C 
HETATM    4  C9  UNL     1     -90.404  66.364  95.412  1.00  0.00     0.271 C 
HETATM    5  C10 UNL     1     -90.449  67.680  94.722  1.00  0.00     0.248 C 
HETATM    6  C11 UNL     1     -89.179  68.451  95.000  1.00  0.00     0.202 C 
ENDROOT
BRANCH   3   7
HETATM    7  O3  UNL     1     -88.794  64.850  96.128  1.00  0.00    -0.324 OA
BRANCH   7   8
HETATM    8  C4  UNL     1     -87.693  64.064  95.892  1.00  0.00     0.354 C 
HETATM    9  N1  UNL     1     -87.322  63.487  97.197  1.00  0.00    -0.044 N 
HETATM   10  C5  UNL     1     -86.041  62.796  97.007  1.00  0.00     0.269 C 
ATOM     11  H12 UNL     1     -87.300  64.176  97.949  1.00  0.00     0.280 HD
ATOM     12  H11 UNL     1     -88.047  62.888  97.592  1.00  0.00     0.280 HD
HETATM   13  C6  UNL     1     -86.301  61.559  96.139  1.00  0.00     0.175 C 
HETATM   14  C7  UNL     1     -86.927  61.992  94.850  1.00  0.00     0.181 C 
HETATM   15  C8  UNL     1     -88.126  62.893  95.040  1.00  0.00     0.205 C 
BRANCH  13  16
HETATM   16  O4  UNL     1     -87.111  60.655  96.813  1.00  0.00    -0.391 OA
ATOM     17  H4  UNL     1     -87.776  60.306  96.231  1.00  0.00     0.210 HD
ENDBRANCH  13  16
BRANCH  14  18
HETATM   18  O5  UNL     1     -86.024  62.651  94.036  1.00  0.00    -0.390 OA
ATOM     19  H5  UNL     1     -85.126  62.424  94.249  1.00  0.00     0.210 HD
ENDBRANCH  14  18
BRANCH  15  20
HETATM   20  O6  UNL     1     -89.113  62.204  95.734  1.00  0.00    -0.388 OA
ATOM     21  H6  UNL     1     -89.333  61.428  95.233  1.00  0.00     0.210 HD
ENDBRANCH  15  20
ENDBRANCH   7   8
ENDBRANCH   3   7
BRANCH   4  22
HETATM   22  N2  UNL     1     -91.560  65.531  95.131  1.00  0.00    -0.068 N 
ATOM     23  H23 UNL     1     -91.537  65.122  94.197  1.00  0.00     0.275 HD
ATOM     24  H22 UNL     1     -91.559  64.658  95.658  1.00  0.00     0.275 HD
ATOM     25  H21 UNL     1     -92.393  66.096  95.299  1.00  0.00     0.275 HD
ENDBRANCH   4  22
BRANCH   1  26
HETATM   26  O1  UNL     1     -86.930  68.206  94.418  1.00  0.00    -0.364 OA
HETATM   27  C1  UNL     1     -85.846  68.450  95.254  1.00  0.00     0.204 C 
ENDBRANCH   1  26
BRANCH   5  28
HETATM   28  N3  UNL     1     -90.667  67.604  93.309  1.00  0.00    -0.071 N 
ATOM     29  H33 UNL     1     -90.071  66.886  92.897  1.00  0.00     0.274 HD
ATOM     30  H32 UNL     1     -91.584  67.204  93.113  1.00  0.00     0.274 HD
ATOM     31  H31 UNL     1     -90.552  68.488  92.814  1.00  0.00     0.274 HD
ENDBRANCH   5  28
BRANCH   6  32
HETATM   32  N4  UNL     1     -89.316  69.179  96.245  1.00  0.00    -0.241 N 
ATOM     33  H4  UNL     1     -89.312  68.698  97.144  1.00  0.00     0.197 HD
BRANCH  32  34
HETATM   34  N5  UNL     1     -89.437  70.399  96.174  1.00  0.00    -0.248 NA
BRANCH  34  35
HETATM   35  N6  UNL     1     -89.772  71.542  95.827  1.00  0.00    -0.261 N 
ATOM     36  H62 UNL     1     -88.934  71.987  96.200  1.00  0.00     0.193 HD
ATOM     37  H61 UNL     1     -90.284  72.335  95.441  1.00  0.00     0.193 HD
ENDBRANCH  34  35
ENDBRANCH  32  34
ENDBRANCH   6  32
TORSDOF 11
ENDMDL
