MODEL 1
REMARK VINA RESULT: -6.541400151      0.000      0.000
REMARK  8 active torsions:
REMARK  status: ('A' for Active; 'I' for Inactive)
REMARK    1  A    between atoms: C3_7  and  N4_8 
REMARK    2  A    between atoms: C4_14  and  O1_15 
REMARK    3  A    between atoms: O1_15  and  C5_16 
REMARK    4  A    between atoms: C5_16  and  C6_17 
REMARK    5  A    between atoms: C6_17  and  N6_18 
REMARK    6  A    between atoms: N6_18  and  C7_21 
REMARK    7  A    between atoms: C7_21  and  C8_22 
REMARK    8  A    between atoms: C8_22  and  N7_23 
ROOT
HETATM    1  C1  UNL     1     -34.529  23.273  -3.940  1.00  0.00     0.048 C 
HETATM    2  C2  UNL     1     -35.758  23.023  -4.343  1.00  0.00     0.087 C 
HETATM    3  N1  UNL     1     -36.752  23.952  -3.931  1.00  0.00    -0.284 N 
ATOM      4  H1  UNL     1     -36.427  24.836  -3.540  1.00  0.00     0.184 HD
HETATM    5  N2  UNL     1     -38.157  23.763  -4.016  1.00  0.00    -0.027 NA
HETATM    6  N3  UNL     1     -38.488  22.420  -3.856  1.00  0.00    -0.072 NA
HETATM    7  C3  UNL     1     -38.422  21.661  -5.071  1.00  0.00     0.396 C 
HETATM    8  N5  UNL     1     -37.083  21.284  -5.444  1.00  0.00    -0.328 N 
ATOM      9  H5  UNL     1     -37.020  20.451  -6.029  1.00  0.00     0.165 HD
HETATM   10  C4  UNL     1     -35.950  21.831  -5.157  1.00  0.00     0.168 C 
ENDROOT
BRANCH  10  11
HETATM   11  O1  UNL     1     -34.790  21.223  -5.677  1.00  0.00    -0.333 OA
BRANCH  11  12
HETATM   12  C5  UNL     1     -34.992  20.261  -6.671  1.00  0.00     0.204 C 
BRANCH  12  13
HETATM   13  C6  UNL     1     -34.634  18.868  -6.235  1.00  0.00     0.259 C 
BRANCH  13  14
HETATM   14  N6  UNL     1     -34.483  18.712  -4.825  1.00  0.00    -0.072 N 
ATOM     15  H62 UNL     1     -34.688  19.569  -4.311  1.00  0.00     0.277 HD
ATOM     16  H61 UNL     1     -35.210  18.127  -4.414  1.00  0.00     0.277 HD
BRANCH  14  17
HETATM   17  C7  UNL     1     -33.151  18.211  -4.564  1.00  0.00     0.259 C 
BRANCH  17  18
HETATM   18  C8  UNL     1     -32.415  19.043  -3.547  1.00  0.00     0.257 C 
BRANCH  18  19
HETATM   19  N7  UNL     1     -32.358  20.400  -4.061  1.00  0.00    -0.078 N 
ATOM     20  H73 UNL     1     -31.895  20.464  -4.969  1.00  0.00     0.274 HD
ATOM     21  H72 UNL     1     -33.268  20.756  -4.352  1.00  0.00     0.274 HD
ATOM     22  H71 UNL     1     -31.914  20.976  -3.346  1.00  0.00     0.274 HD
ENDBRANCH  18  19
ENDBRANCH  17  18
ENDBRANCH  14  17
ENDBRANCH  13  14
ENDBRANCH  12  13
ENDBRANCH  11  12
ENDBRANCH  10  11
BRANCH   7  23
HETATM   23  N4  UNL     1     -39.126  22.364  -6.113  1.00  0.00    -0.043 N 
ATOM     24  H43 UNL     1     -39.315  23.335  -5.863  1.00  0.00     0.278 HD
ATOM     25  H42 UNL     1     -38.539  22.535  -6.929  1.00  0.00     0.278 HD
ATOM     26  H41 UNL     1     -39.977  21.853  -6.350  1.00  0.00     0.278 HD
ENDBRANCH   7  23
TORSDOF 8
ENDMDL
MODEL 2
REMARK VINA RESULT: -6.309124370      1.240      2.055
REMARK  8 active torsions:
REMARK  status: ('A' for Active; 'I' for Inactive)
REMARK    1  A    between atoms: C3_7  and  N4_8 
REMARK    2  A    between atoms: C4_14  and  O1_15 
REMARK    3  A    between atoms: O1_15  and  C5_16 
REMARK    4  A    between atoms: C5_16  and  C6_17 
REMARK    5  A    between atoms: C6_17  and  N6_18 
REMARK    6  A    between atoms: N6_18  and  C7_21 
REMARK    7  A    between atoms: C7_21  and  C8_22 
REMARK    8  A    between atoms: C8_22  and  N7_23 
ROOT
HETATM    1  C1  UNL     1     -34.295  23.932  -3.670  1.00  0.00     0.048 C 
HETATM    2  C2  UNL     1     -35.390  23.299  -4.040  1.00  0.00     0.087 C 
HETATM    3  N1  UNL     1     -36.561  24.096  -4.164  1.00  0.00    -0.284 N 
ATOM      4  H1  UNL     1     -36.435  25.108  -4.162  1.00  0.00     0.184 HD
HETATM    5  N2  UNL     1     -37.890  23.611  -4.292  1.00  0.00    -0.027 NA
HETATM    6  N3  UNL     1     -38.049  22.412  -3.603  1.00  0.00    -0.072 NA
HETATM    7  C3  UNL     1     -37.670  21.256  -4.361  1.00  0.00     0.396 C 
HETATM    8  N5  UNL     1     -36.248  21.036  -4.407  1.00  0.00    -0.328 N 
ATOM      9  H5  UNL     1     -35.969  20.069  -4.568  1.00  0.00     0.165 HD
HETATM   10  C4  UNL     1     -35.270  21.867  -4.277  1.00  0.00     0.168 C 
ENDROOT
BRANCH  10  11
HETATM   11  O1  UNL     1     -33.963  21.346  -4.372  1.00  0.00    -0.333 OA
BRANCH  11  12
HETATM   12  C5  UNL     1     -33.570  20.482  -3.347  1.00  0.00     0.204 C 
BRANCH  12  13
HETATM   13  C6  UNL     1     -33.053  19.161  -3.846  1.00  0.00     0.259 C 
BRANCH  13  14
HETATM   14  N6  UNL     1     -33.113  19.002  -5.263  1.00  0.00    -0.072 N 
ATOM     15  H62 UNL     1     -33.071  19.892  -5.760  1.00  0.00     0.277 HD
ATOM     16  H61 UNL     1     -32.264  18.589  -5.648  1.00  0.00     0.277 HD
BRANCH  14  17
HETATM   17  C7  UNL     1     -34.299  18.239  -5.584  1.00  0.00     0.259 C 
BRANCH  17  18
HETATM   18  C8  UNL     1     -35.032  18.796  -6.777  1.00  0.00     0.257 C 
BRANCH  18  19
HETATM   19  N7  UNL     1     -34.256  19.920  -7.273  1.00  0.00    -0.078 N 
ATOM     20  H73 UNL     1     -34.512  20.194  -8.222  1.00  0.00     0.274 HD
ATOM     21  H72 UNL     1     -34.489  20.800  -6.814  1.00  0.00     0.274 HD
ATOM     22  H71 UNL     1     -33.272  19.671  -7.182  1.00  0.00     0.274 HD
ENDBRANCH  18  19
ENDBRANCH  17  18
ENDBRANCH  14  17
ENDBRANCH  13  14
ENDBRANCH  12  13
ENDBRANCH  11  12
ENDBRANCH  10  11
BRANCH   7  23
HETATM   23  N4  UNL     1     -38.279  21.318  -5.665  1.00  0.00    -0.043 N 
ATOM     24  H43 UNL     1     -38.952  20.566  -5.813  1.00  0.00     0.278 HD
ATOM     25  H42 UNL     1     -38.920  22.107  -5.754  1.00  0.00     0.278 HD
ATOM     26  H41 UNL     1     -37.551  21.331  -6.378  1.00  0.00     0.278 HD
ENDBRANCH   7  23
TORSDOF 8
ENDMDL
MODEL 3
REMARK VINA RESULT: -6.070435121      2.732      5.331
REMARK  8 active torsions:
REMARK  status: ('A' for Active; 'I' for Inactive)
REMARK    1  A    between atoms: C3_7  and  N4_8 
REMARK    2  A    between atoms: C4_14  and  O1_15 
REMARK    3  A    between atoms: O1_15  and  C5_16 
REMARK    4  A    between atoms: C5_16  and  C6_17 
REMARK    5  A    between atoms: C6_17  and  N6_18 
REMARK    6  A    between atoms: N6_18  and  C7_21 
REMARK    7  A    between atoms: C7_21  and  C8_22 
REMARK    8  A    between atoms: C8_22  and  N7_23 
ROOT
HETATM    1  C1  UNL     1     -32.059  19.045  -3.492  1.00  0.00     0.048 C 
HETATM    2  C2  UNL     1     -33.104  19.141  -4.288  1.00  0.00     0.087 C 
HETATM    3  N1  UNL     1     -33.565  17.925  -4.863  1.00  0.00    -0.284 N 
ATOM      4  H1  UNL     1     -33.198  17.057  -4.470  1.00  0.00     0.184 HD
HETATM    5  N2  UNL     1     -34.490  17.806  -5.934  1.00  0.00    -0.027 NA
HETATM    6  N3  UNL     1     -34.372  18.879  -6.813  1.00  0.00    -0.072 NA
HETATM    7  C3  UNL     1     -35.135  20.029  -6.425  1.00  0.00     0.396 C 
HETATM    8  N5  UNL     1     -34.511  20.813  -5.390  1.00  0.00    -0.328 N 
ATOM      9  H5  UNL     1     -34.787  21.794  -5.372  1.00  0.00     0.165 HD
HETATM   10  C4  UNL     1     -33.660  20.473  -4.483  1.00  0.00     0.168 C 
ENDROOT
BRANCH  10  11
HETATM   11  O1  UNL     1     -33.226  21.478  -3.596  1.00  0.00    -0.333 OA
BRANCH  11  12
HETATM   12  C5  UNL     1     -34.103  22.549  -3.403  1.00  0.00     0.204 C 
BRANCH  12  13
HETATM   13  C6  UNL     1     -33.482  23.888  -3.685  1.00  0.00     0.259 C 
BRANCH  13  14
HETATM   14  N6  UNL     1     -32.135  23.826  -4.151  1.00  0.00    -0.072 N 
ATOM     15  H62 UNL     1     -31.526  23.299  -3.525  1.00  0.00     0.277 HD
ATOM     16  H61 UNL     1     -32.031  23.233  -4.975  1.00  0.00     0.277 HD
BRANCH  14  17
HETATM   17  C7  UNL     1     -31.669  25.177  -4.375  1.00  0.00     0.259 C 
BRANCH  17  18
HETATM   18  C8  UNL     1     -30.278  25.215  -4.953  1.00  0.00     0.257 C 
BRANCH  18  19
HETATM   19  N7  UNL     1     -29.537  26.230  -4.224  1.00  0.00    -0.078 N 
ATOM     20  H73 UNL     1     -30.104  26.717  -3.530  1.00  0.00     0.274 HD
ATOM     21  H72 UNL     1     -28.849  25.838  -3.581  1.00  0.00     0.274 HD
ATOM     22  H71 UNL     1     -29.125  26.857  -4.914  1.00  0.00     0.274 HD
ENDBRANCH  18  19
ENDBRANCH  17  18
ENDBRANCH  14  17
ENDBRANCH  13  14
ENDBRANCH  12  13
ENDBRANCH  11  12
ENDBRANCH  10  11
BRANCH   7  23
HETATM   23  N4  UNL     1     -36.479  19.625  -6.102  1.00  0.00    -0.043 N 
ATOM     24  H43 UNL     1     -37.027  19.409  -6.934  1.00  0.00     0.278 HD
ATOM     25  H42 UNL     1     -36.510  18.705  -5.663  1.00  0.00     0.278 HD
ATOM     26  H41 UNL     1     -36.919  20.343  -5.526  1.00  0.00     0.278 HD
ENDBRANCH   7  23
TORSDOF 8
ENDMDL
MODEL 4
REMARK VINA RESULT: -6.056992657      1.445      2.735
REMARK  8 active torsions:
REMARK  status: ('A' for Active; 'I' for Inactive)
REMARK    1  A    between atoms: C3_7  and  N4_8 
REMARK    2  A    between atoms: C4_14  and  O1_15 
REMARK    3  A    between atoms: O1_15  and  C5_16 
REMARK    4  A    between atoms: C5_16  and  C6_17 
REMARK    5  A    between atoms: C6_17  and  N6_18 
REMARK    6  A    between atoms: N6_18  and  C7_21 
REMARK    7  A    between atoms: C7_21  and  C8_22 
REMARK    8  A    between atoms: C8_22  and  N7_23 
ROOT
HETATM    1  C1  UNL     1     -35.857  19.875  -6.089  1.00  0.00     0.048 C 
HETATM    2  C2  UNL     1     -36.688  20.738  -5.542  1.00  0.00     0.087 C 
HETATM    3  N1  UNL     1     -38.030  20.296  -5.378  1.00  0.00    -0.284 N 
ATOM      4  H1  UNL     1     -38.208  19.299  -5.500  1.00  0.00     0.184 HD
HETATM    5  N2  UNL     1     -39.145  21.116  -5.061  1.00  0.00    -0.027 NA
HETATM    6  N3  UNL     1     -38.994  22.391  -5.601  1.00  0.00    -0.072 NA
HETATM    7  C3  UNL     1     -38.240  23.283  -4.770  1.00  0.00     0.396 C 
HETATM    8  N5  UNL     1     -36.816  23.083  -4.851  1.00  0.00    -0.328 N 
ATOM      9  H5  UNL     1     -36.255  23.902  -4.620  1.00  0.00     0.165 HD
HETATM   10  C4  UNL     1     -36.137  22.034  -5.170  1.00  0.00     0.168 C 
ENDROOT
BRANCH  10  11
HETATM   11  O1  UNL     1     -34.732  22.146  -5.159  1.00  0.00    -0.333 OA
BRANCH  11  12
HETATM   12  C5  UNL     1     -34.139  22.329  -3.906  1.00  0.00     0.204 C 
BRANCH  12  13
HETATM   13  C6  UNL     1     -33.572  21.065  -3.324  1.00  0.00     0.259 C 
BRANCH  13  14
HETATM   14  N6  UNL     1     -32.597  20.424  -4.145  1.00  0.00    -0.072 N 
ATOM     15  H62 UNL     1     -32.558  20.814  -5.086  1.00  0.00     0.277 HD
ATOM     16  H61 UNL     1     -31.641  20.644  -3.864  1.00  0.00     0.277 HD
BRANCH  14  17
HETATM   17  C7  UNL     1     -32.865  19.002  -4.142  1.00  0.00     0.259 C 
BRANCH  17  18
HETATM   18  C8  UNL     1     -31.884  18.237  -3.293  1.00  0.00     0.257 C 
BRANCH  18  19
HETATM   19  N7  UNL     1     -32.098  16.824  -3.556  1.00  0.00    -0.078 N 
ATOM     20  H73 UNL     1     -32.595  16.652  -4.430  1.00  0.00     0.274 HD
ATOM     21  H72 UNL     1     -31.239  16.327  -3.792  1.00  0.00     0.274 HD
ATOM     22  H71 UNL     1     -32.573  16.434  -2.743  1.00  0.00     0.274 HD
ENDBRANCH  18  19
ENDBRANCH  17  18
ENDBRANCH  14  17
ENDBRANCH  13  14
ENDBRANCH  12  13
ENDBRANCH  11  12
ENDBRANCH  10  11
BRANCH   7  23
HETATM   23  N4  UNL     1     -38.747  23.225  -3.423  1.00  0.00    -0.043 N 
ATOM     24  H43 UNL     1     -39.712  23.547  -3.360  1.00  0.00     0.278 HD
ATOM     25  H42 UNL     1     -38.891  22.266  -3.105  1.00  0.00     0.278 HD
ATOM     26  H41 UNL     1     -38.125  23.746  -2.805  1.00  0.00     0.278 HD
ENDBRANCH   7  23
TORSDOF 8
ENDMDL
MODEL 5
REMARK VINA RESULT: -5.885255236      2.013      5.582
REMARK  8 active torsions:
REMARK  status: ('A' for Active; 'I' for Inactive)
REMARK    1  A    between atoms: C3_7  and  N4_8 
REMARK    2  A    between atoms: C4_14  and  O1_15 
REMARK    3  A    between atoms: O1_15  and  C5_16 
REMARK    4  A    between atoms: C5_16  and  C6_17 
REMARK    5  A    between atoms: C6_17  and  N6_18 
REMARK    6  A    between atoms: N6_18  and  C7_21 
REMARK    7  A    between atoms: C7_21  and  C8_22 
REMARK    8  A    between atoms: C8_22  and  N7_23 
ROOT
HETATM    1  C1  UNL     1     -34.254  21.404  -3.457  1.00  0.00     0.048 C 
HETATM    2  C2  UNL     1     -34.425  20.429  -4.325  1.00  0.00     0.087 C 
HETATM    3  N1  UNL     1     -33.304  19.582  -4.543  1.00  0.00    -0.284 N 
ATOM      4  H1  UNL     1     -32.532  19.655  -3.880  1.00  0.00     0.184 HD
HETATM    5  N2  UNL     1     -33.160  18.643  -5.599  1.00  0.00    -0.027 NA
HETATM    6  N3  UNL     1     -33.812  19.084  -6.748  1.00  0.00    -0.072 NA
HETATM    7  C3  UNL     1     -35.205  18.749  -6.785  1.00  0.00     0.396 C 
HETATM    8  N5  UNL     1     -36.030  19.619  -5.986  1.00  0.00    -0.328 N 
ATOM      9  H5  UNL     1     -37.003  19.680  -6.286  1.00  0.00     0.165 HD
HETATM   10  C4  UNL     1     -35.735  20.334  -4.954  1.00  0.00     0.168 C 
ENDROOT
BRANCH  10  11
HETATM   11  O1  UNL     1     -36.773  21.094  -4.378  1.00  0.00    -0.333 OA
BRANCH  11  12
HETATM   12  C5  UNL     1     -38.014  21.025  -5.018  1.00  0.00     0.204 C 
BRANCH  12  13
HETATM   13  C6  UNL     1     -38.803  22.301  -4.929  1.00  0.00     0.259 C 
BRANCH  13  14
HETATM   14  N6  UNL     1     -38.466  23.126  -3.814  1.00  0.00    -0.072 N 
ATOM     15  H62 UNL     1     -38.427  22.605  -2.938  1.00  0.00     0.277 HD
ATOM     16  H61 UNL     1     -37.494  23.435  -3.833  1.00  0.00     0.277 HD
BRANCH  14  17
HETATM   17  C7  UNL     1     -39.401  24.228  -3.766  1.00  0.00     0.259 C 
BRANCH  17  18
HETATM   18  C8  UNL     1     -38.747  25.516  -3.337  1.00  0.00     0.257 C 
BRANCH  18  19
HETATM   19  N7  UNL     1     -37.310  25.302  -3.376  1.00  0.00    -0.078 N 
ATOM     20  H73 UNL     1     -36.792  26.130  -3.672  1.00  0.00     0.274 HD
ATOM     21  H72 UNL     1     -36.895  25.210  -2.450  1.00  0.00     0.274 HD
ATOM     22  H71 UNL     1     -37.141  24.492  -3.972  1.00  0.00     0.274 HD
ENDBRANCH  18  19
ENDBRANCH  17  18
ENDBRANCH  14  17
ENDBRANCH  13  14
ENDBRANCH  12  13
ENDBRANCH  11  12
ENDBRANCH  10  11
BRANCH   7  23
HETATM   23  N4  UNL     1     -35.371  17.355  -6.463  1.00  0.00    -0.043 N 
ATOM     24  H43 UNL     1     -36.085  16.908  -7.037  1.00  0.00     0.278 HD
ATOM     25  H42 UNL     1     -34.573  16.793  -6.760  1.00  0.00     0.278 HD
ATOM     26  H41 UNL     1     -35.561  17.258  -5.465  1.00  0.00     0.278 HD
ENDBRANCH   7  23
TORSDOF 8
ENDMDL
