MODEL 1
REMARK VINA RESULT: -6.754324504      0.000      0.000
REMARK  8 active torsions:
REMARK  status: ('A' for Active; 'I' for Inactive)
REMARK    1  A    between atoms: C4_7  and  N3_8 
REMARK    2  A    between atoms: C5_13  and  S1_14 
REMARK    3  A    between atoms: S1_14  and  C6_15 
REMARK    4  A    between atoms: C6_15  and  O1_16 
REMARK    5  A    between atoms: C6_15  and  C7_20 
REMARK    6  A    between atoms: O1_16  and  N5_17 
REMARK    7  A    between atoms: C7_20  and  N6_21 
REMARK    8  A    between atoms: C7_20  and  N7_25 
ROOT
HETATM    1  N1  UNL     1     -35.152  24.485  -3.850  1.00  0.00    -0.191 NA
HETATM    2  C1  UNL     1     -35.916  23.663  -4.180  1.00  0.00     0.103 C 
HETATM    3  C2  UNL     1     -36.849  22.657  -4.565  1.00  0.00     0.094 A 
HETATM    4  C3  UNL     1     -38.222  22.925  -4.510  1.00  0.00     0.131 A 
HETATM    5  N2  UNL     1     -39.063  21.945  -4.883  1.00  0.00    -0.201 N 
ATOM      6  H2  UNL     1     -40.067  22.120  -4.850  1.00  0.00     0.183 HD
HETATM    7  C4  UNL     1     -38.625  20.743  -5.297  1.00  0.00     0.676 A 
HETATM    8  N4  UNL     1     -37.283  20.508  -5.340  1.00  0.00    -0.184 N 
ATOM      9  H4  UNL     1     -36.956  19.594  -5.654  1.00  0.00     0.185 HD
HETATM   10  C5  UNL     1     -36.372  21.433  -4.985  1.00  0.00     0.111 A 
ENDROOT
BRANCH  10  11
HETATM   11  S1  UNL     1     -34.616  21.139  -5.037  1.00  0.00    -0.071 SA
BRANCH  11  12
HETATM   12  C6  UNL     1     -34.207  19.388  -4.901  1.00  0.00     0.276 C 
BRANCH  12  13
HETATM   13  O1  UNL     1     -33.737  18.970  -6.144  1.00  0.00    -0.267 OA
BRANCH  13  14
HETATM   14  N5  UNL     1     -34.015  19.888  -7.119  1.00  0.00    -0.310 N 
ATOM     15  H52 UNL     1     -34.412  19.642  -8.025  1.00  0.00     0.184 HD
ATOM     16  H51 UNL     1     -33.775  20.834  -6.820  1.00  0.00     0.184 HD
ENDBRANCH  13  14
ENDBRANCH  12  13
BRANCH  12  17
HETATM   17  C7  UNL     1     -33.095  19.207  -3.906  1.00  0.00     0.419 C 
BRANCH  17  18
HETATM   18  N6  UNL     1     -32.132  20.258  -4.110  1.00  0.00    -0.047 N 
ATOM     19  H63 UNL     1     -32.441  20.948  -4.794  1.00  0.00     0.276 HD
ATOM     20  H62 UNL     1     -32.057  20.883  -3.308  1.00  0.00     0.276 HD
ATOM     21  H61 UNL     1     -31.240  19.830  -4.359  1.00  0.00     0.276 HD
ENDBRANCH  17  18
BRANCH  17  22
HETATM   22  N7  UNL     1     -32.433  17.937  -4.029  1.00  0.00    -0.047 N 
ATOM     23  H73 UNL     1     -32.900  17.347  -4.718  1.00  0.00     0.276 HD
ATOM     24  H72 UNL     1     -31.527  18.041  -4.486  1.00  0.00     0.276 HD
ATOM     25  H71 UNL     1     -32.338  17.449  -3.139  1.00  0.00     0.276 HD
ENDBRANCH  17  22
ENDBRANCH  12  17
ENDBRANCH  11  12
ENDBRANCH  10  11
BRANCH   7  26
HETATM   26  N3  UNL     1     -39.471  19.834  -5.644  1.00  0.00    -0.234 N 
ATOM     27  H32 UNL     1     -40.475  19.988  -5.553  1.00  0.00     0.174 HD
ATOM     28  H31 UNL     1     -39.139  18.945  -6.017  1.00  0.00     0.174 HD
ENDBRANCH   7  26
TORSDOF 8
ENDMDL
MODEL 2
REMARK VINA RESULT: -6.698388167      2.120      5.095
REMARK  8 active torsions:
REMARK  status: ('A' for Active; 'I' for Inactive)
REMARK    1  A    between atoms: C4_7  and  N3_8 
REMARK    2  A    between atoms: C5_13  and  S1_14 
REMARK    3  A    between atoms: S1_14  and  C6_15 
REMARK    4  A    between atoms: C6_15  and  O1_16 
REMARK    5  A    between atoms: C6_15  and  C7_20 
REMARK    6  A    between atoms: O1_16  and  N5_17 
REMARK    7  A    between atoms: C7_20  and  N6_21 
REMARK    8  A    between atoms: C7_20  and  N7_25 
ROOT
HETATM    1  N1  UNL     1     -33.493  23.670  -3.180  1.00  0.00    -0.191 NA
HETATM    2  C1  UNL     1     -33.751  22.632  -3.653  1.00  0.00     0.103 C 
HETATM    3  C2  UNL     1     -34.056  21.372  -4.245  1.00  0.00     0.094 A 
HETATM    4  C3  UNL     1     -33.121  20.332  -4.185  1.00  0.00     0.131 A 
HETATM    5  N2  UNL     1     -33.453  19.162  -4.756  1.00  0.00    -0.201 N 
ATOM      6  H2  UNL     1     -32.787  18.391  -4.724  1.00  0.00     0.183 HD
HETATM    7  C4  UNL     1     -34.635  18.974  -5.370  1.00  0.00     0.676 A 
HETATM    8  N4  UNL     1     -35.528  20.003  -5.415  1.00  0.00    -0.184 N 
ATOM      9  H4  UNL     1     -36.422  19.856  -5.883  1.00  0.00     0.185 HD
HETATM   10  C5  UNL     1     -35.275  21.206  -4.868  1.00  0.00     0.111 A 
ENDROOT
BRANCH  10  11
HETATM   11  S1  UNL     1     -36.432  22.561  -4.919  1.00  0.00    -0.071 SA
BRANCH  11  12
HETATM   12  C6  UNL     1     -38.127  22.008  -5.188  1.00  0.00     0.276 C 
BRANCH  12  13
HETATM   13  O1  UNL     1     -38.213  20.689  -4.749  1.00  0.00    -0.267 OA
BRANCH  13  14
HETATM   14  N5  UNL     1     -39.083  19.962  -5.516  1.00  0.00    -0.310 N 
ATOM     15  H52 UNL     1     -38.884  19.020  -5.849  1.00  0.00     0.184 HD
ATOM     16  H51 UNL     1     -39.940  20.483  -5.703  1.00  0.00     0.184 HD
ENDBRANCH  13  14
ENDBRANCH  12  13
BRANCH  12  17
HETATM   17  C7  UNL     1     -39.064  22.832  -4.349  1.00  0.00     0.419 C 
BRANCH  17  18
HETATM   18  N6  UNL     1     -40.071  23.391  -5.214  1.00  0.00    -0.047 N 
ATOM     19  H63 UNL     1     -39.931  23.140  -6.193  1.00  0.00     0.276 HD
ATOM     20  H62 UNL     1     -40.983  22.953  -5.089  1.00  0.00     0.276 HD
ATOM     21  H61 UNL     1     -40.095  24.400  -5.066  1.00  0.00     0.276 HD
ENDBRANCH  17  18
BRANCH  17  22
HETATM   22  N7  UNL     1     -38.401  23.901  -3.653  1.00  0.00    -0.047 N 
ATOM     23  H73 UNL     1     -39.076  24.506  -3.186  1.00  0.00     0.276 HD
ATOM     24  H72 UNL     1     -37.899  23.550  -2.838  1.00  0.00     0.276 HD
ATOM     25  H71 UNL     1     -37.782  24.445  -4.255  1.00  0.00     0.276 HD
ENDBRANCH  17  22
ENDBRANCH  12  17
ENDBRANCH  11  12
ENDBRANCH  10  11
BRANCH   7  26
HETATM   26  N3  UNL     1     -34.909  17.833  -5.905  1.00  0.00    -0.234 N 
ATOM     27  H32 UNL     1     -34.378  16.997  -5.661  1.00  0.00     0.174 HD
ATOM     28  H31 UNL     1     -35.667  17.757  -6.584  1.00  0.00     0.174 HD
ENDBRANCH   7  26
TORSDOF 8
ENDMDL
MODEL 3
REMARK VINA RESULT: -6.697719899      2.312      5.109
REMARK  8 active torsions:
REMARK  status: ('A' for Active; 'I' for Inactive)
REMARK    1  A    between atoms: C4_7  and  N3_8 
REMARK    2  A    between atoms: C5_13  and  S1_14 
REMARK    3  A    between atoms: S1_14  and  C6_15 
REMARK    4  A    between atoms: C6_15  and  O1_16 
REMARK    5  A    between atoms: C6_15  and  C7_20 
REMARK    6  A    between atoms: O1_16  and  N5_17 
REMARK    7  A    between atoms: C7_20  and  N6_21 
REMARK    8  A    between atoms: C7_20  and  N7_25 
ROOT
HETATM    1  N1  UNL     1     -33.655  23.581  -3.286  1.00  0.00    -0.191 NA
HETATM    2  C1  UNL     1     -33.813  22.496  -3.692  1.00  0.00     0.103 C 
HETATM    3  C2  UNL     1     -33.995  21.177  -4.201  1.00  0.00     0.094 A 
HETATM    4  C3  UNL     1     -33.042  20.189  -3.927  1.00  0.00     0.131 A 
HETATM    5  N2  UNL     1     -33.257  18.961  -4.428  1.00  0.00    -0.201 N 
ATOM      6  H2  UNL     1     -32.575  18.226  -4.240  1.00  0.00     0.183 HD
HETATM    7  C4  UNL     1     -34.339  18.668  -5.170  1.00  0.00     0.676 A 
HETATM    8  N4  UNL     1     -35.252  19.649  -5.423  1.00  0.00    -0.184 N 
ATOM      9  H4  UNL     1     -36.070  19.422  -5.987  1.00  0.00     0.185 HD
HETATM   10  C5  UNL     1     -35.114  20.904  -4.959  1.00  0.00     0.111 A 
ENDROOT
BRANCH  10  11
HETATM   11  S1  UNL     1     -36.298  22.196  -5.283  1.00  0.00    -0.071 SA
BRANCH  11  12
HETATM   12  C6  UNL     1     -37.751  22.080  -4.222  1.00  0.00     0.276 C 
BRANCH  12  13
HETATM   13  O1  UNL     1     -38.041  23.364  -3.766  1.00  0.00    -0.267 OA
BRANCH  13  14
HETATM   14  N5  UNL     1     -36.941  24.175  -3.822  1.00  0.00    -0.310 N 
ATOM     15  H52 UNL     1     -35.988  23.824  -3.913  1.00  0.00     0.184 HD
ATOM     16  H51 UNL     1     -37.200  25.160  -3.761  1.00  0.00     0.184 HD
ENDBRANCH  13  14
ENDBRANCH  12  13
BRANCH  12  17
HETATM   17  C7  UNL     1     -38.926  21.604  -5.028  1.00  0.00     0.419 C 
BRANCH  17  18
HETATM   18  N6  UNL     1     -38.711  20.220  -5.366  1.00  0.00    -0.047 N 
ATOM     19  H63 UNL     1     -37.769  19.902  -5.138  1.00  0.00     0.276 HD
ATOM     20  H62 UNL     1     -39.224  19.583  -4.757  1.00  0.00     0.276 HD
ATOM     21  H61 UNL     1     -38.941  20.093  -6.351  1.00  0.00     0.276 HD
ENDBRANCH  17  18
BRANCH  17  22
HETATM   22  N7  UNL     1     -39.118  22.356  -6.239  1.00  0.00    -0.047 N 
ATOM     23  H73 UNL     1     -39.270  23.343  -6.035  1.00  0.00     0.276 HD
ATOM     24  H72 UNL     1     -38.248  22.426  -6.765  1.00  0.00     0.276 HD
ATOM     25  H71 UNL     1     -39.869  21.985  -6.823  1.00  0.00     0.276 HD
ENDBRANCH  17  22
ENDBRANCH  12  17
ENDBRANCH  11  12
ENDBRANCH  10  11
BRANCH   7  26
HETATM   26  N3  UNL     1     -34.501  17.474  -5.630  1.00  0.00    -0.234 N 
ATOM     27  H32 UNL     1     -34.144  17.212  -6.548  1.00  0.00     0.174 HD
ATOM     28  H31 UNL     1     -34.992  16.776  -5.072  1.00  0.00     0.174 HD
ENDBRANCH   7  26
TORSDOF 8
ENDMDL
MODEL 4
REMARK VINA RESULT: -6.478543858      1.238      1.332
REMARK  8 active torsions:
REMARK  status: ('A' for Active; 'I' for Inactive)
REMARK    1  A    between atoms: C4_7  and  N3_8 
REMARK    2  A    between atoms: C5_13  and  S1_14 
REMARK    3  A    between atoms: S1_14  and  C6_15 
REMARK    4  A    between atoms: C6_15  and  O1_16 
REMARK    5  A    between atoms: C6_15  and  C7_20 
REMARK    6  A    between atoms: O1_16  and  N5_17 
REMARK    7  A    between atoms: C7_20  and  N6_21 
REMARK    8  A    between atoms: C7_20  and  N7_25 
ROOT
HETATM    1  N1  UNL     1     -33.476  23.468  -3.359  1.00  0.00    -0.191 NA
HETATM    2  C1  UNL     1     -34.504  23.185  -3.838  1.00  0.00     0.103 C 
HETATM    3  C2  UNL     1     -35.762  22.831  -4.407  1.00  0.00     0.094 A 
HETATM    4  C3  UNL     1     -36.902  23.581  -4.095  1.00  0.00     0.131 A 
HETATM    5  N2  UNL     1     -38.065  23.209  -4.656  1.00  0.00    -0.201 N 
ATOM      6  H2  UNL     1     -38.908  23.743  -4.442  1.00  0.00     0.183 HD
HETATM    7  C4  UNL     1     -38.156  22.157  -5.489  1.00  0.00     0.676 A 
HETATM    8  N4  UNL     1     -37.031  21.442  -5.775  1.00  0.00    -0.184 N 
ATOM      9  H4  UNL     1     -37.105  20.644  -6.406  1.00  0.00     0.185 HD
HETATM   10  C5  UNL     1     -35.826  21.747  -5.258  1.00  0.00     0.111 A 
ENDROOT
BRANCH  10  11
HETATM   11  S1  UNL     1     -34.348  20.821  -5.623  1.00  0.00    -0.071 SA
BRANCH  11  12
HETATM   12  C6  UNL     1     -34.233  19.301  -4.661  1.00  0.00     0.276 C 
BRANCH  12  13
HETATM   13  O1  UNL     1     -33.972  18.261  -5.549  1.00  0.00    -0.267 OA
BRANCH  13  14
HETATM   14  N5  UNL     1     -35.091  17.912  -6.254  1.00  0.00    -0.310 N 
ATOM     15  H52 UNL     1     -35.815  18.577  -6.523  1.00  0.00     0.184 HD
ATOM     16  H51 UNL     1     -35.100  16.915  -6.469  1.00  0.00     0.184 HD
ENDBRANCH  13  14
ENDBRANCH  12  13
BRANCH  12  17
HETATM   17  C7  UNL     1     -33.073  19.394  -3.710  1.00  0.00     0.419 C 
BRANCH  17  18
HETATM   18  N6  UNL     1     -32.280  20.540  -4.077  1.00  0.00    -0.047 N 
ATOM     19  H63 UNL     1     -31.565  20.318  -4.769  1.00  0.00     0.276 HD
ATOM     20  H62 UNL     1     -32.803  21.218  -4.631  1.00  0.00     0.276 HD
ATOM     21  H61 UNL     1     -31.891  20.945  -3.226  1.00  0.00     0.276 HD
ENDBRANCH  17  18
BRANCH  17  22
HETATM   22  N7  UNL     1     -32.237  18.224  -3.727  1.00  0.00    -0.047 N 
ATOM     23  H73 UNL     1     -31.501  18.312  -4.427  1.00  0.00     0.276 HD
ATOM     24  H72 UNL     1     -31.663  18.175  -2.886  1.00  0.00     0.276 HD
ATOM     25  H71 UNL     1     -32.764  17.361  -3.859  1.00  0.00     0.276 HD
ENDBRANCH  17  22
ENDBRANCH  12  17
ENDBRANCH  11  12
ENDBRANCH  10  11
BRANCH   7  26
HETATM   26  N3  UNL     1     -39.295  21.838  -6.001  1.00  0.00    -0.234 N 
ATOM     27  H32 UNL     1     -39.968  22.554  -6.273  1.00  0.00     0.174 HD
ATOM     28  H31 UNL     1     -39.533  20.856  -6.142  1.00  0.00     0.174 HD
ENDBRANCH   7  26
TORSDOF 8
ENDMDL
MODEL 5
REMARK VINA RESULT: -6.415456036      0.956      1.982
REMARK  8 active torsions:
REMARK  status: ('A' for Active; 'I' for Inactive)
REMARK    1  A    between atoms: C4_7  and  N3_8 
REMARK    2  A    between atoms: C5_13  and  S1_14 
REMARK    3  A    between atoms: S1_14  and  C6_15 
REMARK    4  A    between atoms: C6_15  and  O1_16 
REMARK    5  A    between atoms: C6_15  and  C7_20 
REMARK    6  A    between atoms: O1_16  and  N5_17 
REMARK    7  A    between atoms: C7_20  and  N6_21 
REMARK    8  A    between atoms: C7_20  and  N7_25 
ROOT
HETATM    1  N1  UNL     1     -35.374  24.506  -3.734  1.00  0.00    -0.191 NA
HETATM    2  C1  UNL     1     -36.098  23.658  -4.087  1.00  0.00     0.103 C 
HETATM    3  C2  UNL     1     -36.988  22.626  -4.502  1.00  0.00     0.094 A 
HETATM    4  C3  UNL     1     -38.256  22.957  -4.994  1.00  0.00     0.131 A 
HETATM    5  N2  UNL     1     -39.060  21.950  -5.373  1.00  0.00    -0.201 N 
ATOM      6  H2  UNL     1     -39.988  22.169  -5.735  1.00  0.00     0.183 HD
HETATM    7  C4  UNL     1     -38.683  20.661  -5.291  1.00  0.00     0.676 A 
HETATM    8  N4  UNL     1     -37.443  20.365  -4.807  1.00  0.00    -0.184 N 
ATOM      9  H4  UNL     1     -37.162  19.387  -4.747  1.00  0.00     0.185 HD
HETATM   10  C5  UNL     1     -36.575  21.313  -4.407  1.00  0.00     0.111 A 
ENDROOT
BRANCH  10  11
HETATM   11  S1  UNL     1     -34.952  20.940  -3.773  1.00  0.00    -0.071 SA
BRANCH  11  12
HETATM   12  C6  UNL     1     -33.895  20.156  -5.004  1.00  0.00     0.276 C 
BRANCH  12  13
HETATM   13  O1  UNL     1     -33.292  19.056  -4.400  1.00  0.00    -0.267 OA
BRANCH  13  14
HETATM   14  N5  UNL     1     -32.014  19.341  -4.004  1.00  0.00    -0.310 N 
ATOM     15  H52 UNL     1     -31.608  20.275  -4.046  1.00  0.00     0.184 HD
ATOM     16  H51 UNL     1     -31.533  18.507  -3.666  1.00  0.00     0.184 HD
ENDBRANCH  13  14
ENDBRANCH  12  13
BRANCH  12  17
HETATM   17  C7  UNL     1     -34.738  19.649  -6.141  1.00  0.00     0.419 C 
BRANCH  17  18
HETATM   18  N6  UNL     1     -34.853  18.219  -6.015  1.00  0.00    -0.047 N 
ATOM     19  H63 UNL     1     -34.269  17.842  -5.269  1.00  0.00     0.276 HD
ATOM     20  H62 UNL     1     -35.758  17.929  -5.643  1.00  0.00     0.276 HD
ATOM     21  H61 UNL     1     -34.650  17.801  -6.923  1.00  0.00     0.276 HD
ENDBRANCH  17  18
BRANCH  17  22
HETATM   22  N7  UNL     1     -34.185  19.961  -7.432  1.00  0.00    -0.047 N 
ATOM     23  H73 UNL     1     -34.907  19.939  -8.152  1.00  0.00     0.276 HD
ATOM     24  H72 UNL     1     -33.924  20.945  -7.488  1.00  0.00     0.276 HD
ATOM     25  H71 UNL     1     -33.401  19.360  -7.685  1.00  0.00     0.276 HD
ENDBRANCH  17  22
ENDBRANCH  12  17
ENDBRANCH  11  12
ENDBRANCH  10  11
BRANCH   7  26
HETATM   26  N3  UNL     1     -39.490  19.729  -5.667  1.00  0.00    -0.234 N 
ATOM     27  H32 UNL     1     -39.303  18.751  -5.446  1.00  0.00     0.174 HD
ATOM     28  H31 UNL     1     -40.332  19.965  -6.191  1.00  0.00     0.174 HD
ENDBRANCH   7  26
TORSDOF 8
ENDMDL
