MODEL 1
REMARK VINA RESULT: -6.895348233      0.000      0.000
REMARK  7 active torsions:
REMARK  status: ('A' for Active; 'I' for Inactive)
REMARK    1  A    between atoms: N2_6  and  C3_8 
REMARK    2  A    between atoms: C3_8  and  C4_9 
REMARK    3  A    between atoms: C4_9  and  C5_10 
REMARK    4  A    between atoms: C5_10  and  C6_11 
REMARK    5  A    between atoms: C6_11  and  O1_12 
REMARK    6  A    between atoms: O1_12  and  N3_13 
REMARK    7  A    between atoms: N7_22  and  N8_23 
ROOT
HETATM    1  N1  UNL     1     -35.819  19.826  -6.113  1.00  0.00    -0.380 N 
ATOM      2  H11 UNL     1     -36.325  19.143  -6.677  1.00  0.00     0.158 HD
ATOM      3  H12 UNL     1     -36.117  20.800  -6.059  1.00  0.00     0.158 HD
HETATM    4  C1  UNL     1     -34.786  19.444  -5.461  1.00  0.00     0.182 A 
HETATM    5  C2  UNL     1     -34.104  20.364  -4.700  1.00  0.00     0.151 A 
HETATM    6  N2  UNL     1     -34.494  21.578  -4.647  1.00  0.00    -0.373 N 
ATOM      7  H2  UNL     1     -35.318  21.875  -5.170  1.00  0.00     0.161 HD
HETATM    8  N4  UNL     1     -33.020  19.944  -4.021  1.00  0.00    -0.312 N 
ATOM      9  H4  UNL     1     -32.491  20.601  -3.448  1.00  0.00     0.170 HD
HETATM   10  C7  UNL     1     -32.638  18.658  -4.101  1.00  0.00     0.210 A 
HETATM   11  N5  UNL     1     -31.499  18.216  -3.386  1.00  0.00    -0.062 NA
HETATM   12  N6  UNL     1     -33.319  17.766  -4.852  1.00  0.00    -0.251 N 
ATOM     13  H6  UNL     1     -33.015  16.794  -4.900  1.00  0.00     0.192 HD
HETATM   14  N7  UNL     1     -34.395  18.169  -5.531  1.00  0.00    -0.181 N 
ENDROOT
BRANCH   6  15
HETATM   15  C3  UNL     1     -33.772  22.519  -3.851  1.00  0.00     0.121 C 
BRANCH  15  16
HETATM   16  C4  UNL     1     -34.536  23.845  -3.735  1.00  0.00     0.022 C 
BRANCH  16  17
HETATM   17  C5  UNL     1     -35.885  23.586  -4.386  1.00  0.00     0.030 C 
BRANCH  17  18
HETATM   18  C6  UNL     1     -36.935  24.553  -3.889  1.00  0.00     0.200 C 
BRANCH  18  19
HETATM   19  O1  UNL     1     -36.334  25.339  -2.906  1.00  0.00    -0.287 OA
BRANCH  19  20
HETATM   20  N3  UNL     1     -37.277  26.091  -2.251  1.00  0.00    -0.311 N 
ATOM     21  H32 UNL     1     -37.060  26.763  -1.514  1.00  0.00     0.184 HD
ATOM     22  H31 UNL     1     -38.210  25.881  -2.607  1.00  0.00     0.184 HD
ENDBRANCH  19  20
ENDBRANCH  18  19
ENDBRANCH  17  18
ENDBRANCH  16  17
ENDBRANCH  15  16
ENDBRANCH   6  15
BRANCH  14  23
HETATM   23  N8  UNL     1     -35.114  17.267  -6.313  1.00  0.00    -0.322 N 
ATOM     24  H82 UNL     1     -35.996  17.545  -6.745  1.00  0.00     0.179 HD
ATOM     25  H81 UNL     1     -34.757  16.322  -6.455  1.00  0.00     0.179 HD
ENDBRANCH  14  23
TORSDOF 7
ENDMDL
MODEL 2
REMARK VINA RESULT: -6.780963156      2.780      5.508
REMARK  7 active torsions:
REMARK  status: ('A' for Active; 'I' for Inactive)
REMARK    1  A    between atoms: N2_6  and  C3_8 
REMARK    2  A    between atoms: C3_8  and  C4_9 
REMARK    3  A    between atoms: C4_9  and  C5_10 
REMARK    4  A    between atoms: C5_10  and  C6_11 
REMARK    5  A    between atoms: C6_11  and  O1_12 
REMARK    6  A    between atoms: O1_12  and  N3_13 
REMARK    7  A    between atoms: N7_22  and  N8_23 
ROOT
HETATM    1  N1  UNL     1     -36.108  23.596  -4.352  1.00  0.00    -0.380 N 
ATOM      2  H11 UNL     1     -36.407  24.471  -3.920  1.00  0.00     0.158 HD
ATOM      3  H12 UNL     1     -35.127  23.413  -4.564  1.00  0.00     0.158 HD
HETATM    4  C1  UNL     1     -36.991  22.713  -4.634  1.00  0.00     0.182 A 
HETATM    5  C2  UNL     1     -36.588  21.535  -5.216  1.00  0.00     0.151 A 
HETATM    6  N2  UNL     1     -35.356  21.326  -5.473  1.00  0.00    -0.373 N 
ATOM      7  H2  UNL     1     -34.658  22.035  -5.246  1.00  0.00     0.161 HD
HETATM    8  N4  UNL     1     -37.531  20.618  -5.505  1.00  0.00    -0.312 N 
ATOM      9  H4  UNL     1     -37.267  19.733  -5.939  1.00  0.00     0.170 HD
HETATM   10  C7  UNL     1     -38.820  20.873  -5.221  1.00  0.00     0.210 A 
HETATM   11  N5  UNL     1     -39.811  19.908  -5.525  1.00  0.00    -0.062 NA
HETATM   12  N6  UNL     1     -39.199  22.035  -4.648  1.00  0.00    -0.251 N 
ATOM     13  H6  UNL     1     -40.182  22.210  -4.440  1.00  0.00     0.192 HD
HETATM   14  N7  UNL     1     -38.276  22.952  -4.357  1.00  0.00    -0.181 N 
ENDROOT
BRANCH   6  15
HETATM   15  C3  UNL     1     -34.958  20.095  -6.078  1.00  0.00     0.121 C 
BRANCH  15  16
HETATM   16  C4  UNL     1     -34.355  19.139  -5.039  1.00  0.00     0.022 C 
BRANCH  16  17
HETATM   17  C5  UNL     1     -33.273  19.943  -4.338  1.00  0.00     0.030 C 
BRANCH  17  18
HETATM   18  C6  UNL     1     -33.732  20.425  -2.982  1.00  0.00     0.200 C 
BRANCH  18  19
HETATM   19  O1  UNL     1     -33.798  21.817  -3.044  1.00  0.00    -0.287 OA
BRANCH  19  20
HETATM   20  N3  UNL     1     -32.839  22.305  -3.897  1.00  0.00    -0.311 N 
ATOM     21  H32 UNL     1     -31.886  22.534  -3.612  1.00  0.00     0.184 HD
ATOM     22  H31 UNL     1     -33.216  22.401  -4.839  1.00  0.00     0.184 HD
ENDBRANCH  19  20
ENDBRANCH  18  19
ENDBRANCH  17  18
ENDBRANCH  16  17
ENDBRANCH  15  16
ENDBRANCH   6  15
BRANCH  14  23
HETATM   23  N8  UNL     1     -38.643  24.160  -3.766  1.00  0.00    -0.322 N 
ATOM     24  H82 UNL     1     -38.907  24.959  -4.342  1.00  0.00     0.179 HD
ATOM     25  H81 UNL     1     -38.647  24.245  -2.749  1.00  0.00     0.179 HD
ENDBRANCH  14  23
TORSDOF 7
ENDMDL
MODEL 3
REMARK VINA RESULT: -6.768691990      1.820      3.345
REMARK  7 active torsions:
REMARK  status: ('A' for Active; 'I' for Inactive)
REMARK    1  A    between atoms: N2_6  and  C3_8 
REMARK    2  A    between atoms: C3_8  and  C4_9 
REMARK    3  A    between atoms: C4_9  and  C5_10 
REMARK    4  A    between atoms: C5_10  and  C6_11 
REMARK    5  A    between atoms: C6_11  and  O1_12 
REMARK    6  A    between atoms: O1_12  and  N3_13 
REMARK    7  A    between atoms: N7_22  and  N8_23 
ROOT
HETATM    1  N1  UNL     1     -34.728  18.894  -5.276  1.00  0.00    -0.380 N 
ATOM      2  H11 UNL     1     -33.986  18.202  -5.169  1.00  0.00     0.158 HD
ATOM      3  H12 UNL     1     -35.612  18.663  -5.727  1.00  0.00     0.158 HD
HETATM    4  C1  UNL     1     -34.536  20.079  -4.831  1.00  0.00     0.182 A 
HETATM    5  C2  UNL     1     -35.536  21.011  -4.974  1.00  0.00     0.151 A 
HETATM    6  N2  UNL     1     -36.635  20.701  -5.541  1.00  0.00    -0.373 N 
ATOM      7  H2  UNL     1     -36.781  19.755  -5.894  1.00  0.00     0.161 HD
HETATM    8  N4  UNL     1     -35.315  22.252  -4.500  1.00  0.00    -0.312 N 
ATOM      9  H4  UNL     1     -36.036  22.969  -4.590  1.00  0.00     0.170 HD
HETATM   10  C7  UNL     1     -34.144  22.544  -3.908  1.00  0.00     0.210 A 
HETATM   11  N5  UNL     1     -33.913  23.848  -3.409  1.00  0.00    -0.062 NA
HETATM   12  N6  UNL     1     -33.172  21.616  -3.774  1.00  0.00    -0.251 N 
ATOM     13  H6  UNL     1     -32.291  21.855  -3.322  1.00  0.00     0.192 HD
HETATM   14  N7  UNL     1     -33.376  20.383  -4.240  1.00  0.00    -0.181 N 
ENDROOT
BRANCH   6  15
HETATM   15  C3  UNL     1     -37.662  21.685  -5.680  1.00  0.00     0.121 C 
BRANCH  15  16
HETATM   16  C4  UNL     1     -38.446  21.852  -4.371  1.00  0.00     0.022 C 
BRANCH  16  17
HETATM   17  C5  UNL     1     -39.356  23.048  -4.601  1.00  0.00     0.030 C 
BRANCH  17  18
HETATM   18  C6  UNL     1     -38.925  24.239  -3.777  1.00  0.00     0.200 C 
BRANCH  18  19
HETATM   19  O1  UNL     1     -37.580  24.470  -4.065  1.00  0.00    -0.287 OA
BRANCH  19  20
HETATM   20  N3  UNL     1     -37.019  25.285  -3.114  1.00  0.00    -0.311 N 
ATOM     21  H32 UNL     1     -36.969  26.302  -3.191  1.00  0.00     0.184 HD
ATOM     22  H31 UNL     1     -36.667  24.731  -2.333  1.00  0.00     0.184 HD
ENDBRANCH  19  20
ENDBRANCH  18  19
ENDBRANCH  17  18
ENDBRANCH  16  17
ENDBRANCH  15  16
ENDBRANCH   6  15
BRANCH  14  23
HETATM   23  N8  UNL     1     -32.388  19.408  -4.114  1.00  0.00    -0.322 N 
ATOM     24  H82 UNL     1     -32.268  18.904  -3.235  1.00  0.00     0.179 HD
ATOM     25  H81 UNL     1     -31.781  19.197  -4.906  1.00  0.00     0.179 HD
ENDBRANCH  14  23
TORSDOF 7
ENDMDL
MODEL 4
REMARK VINA RESULT: -6.762132956      3.238      6.292
REMARK  7 active torsions:
REMARK  status: ('A' for Active; 'I' for Inactive)
REMARK    1  A    between atoms: N2_6  and  C3_8 
REMARK    2  A    between atoms: C3_8  and  C4_9 
REMARK    3  A    between atoms: C4_9  and  C5_10 
REMARK    4  A    between atoms: C5_10  and  C6_11 
REMARK    5  A    between atoms: C6_11  and  O1_12 
REMARK    6  A    between atoms: O1_12  and  N3_13 
REMARK    7  A    between atoms: N7_22  and  N8_23 
ROOT
HETATM    1  N1  UNL     1     -36.044  23.654  -4.274  1.00  0.00    -0.380 N 
ATOM      2  H11 UNL     1     -36.344  24.519  -3.822  1.00  0.00     0.158 HD
ATOM      3  H12 UNL     1     -35.063  23.477  -4.487  1.00  0.00     0.158 HD
HETATM    4  C1  UNL     1     -36.926  22.777  -4.577  1.00  0.00     0.182 A 
HETATM    5  C2  UNL     1     -36.521  21.613  -5.185  1.00  0.00     0.151 A 
HETATM    6  N2  UNL     1     -35.289  21.410  -5.443  1.00  0.00    -0.373 N 
ATOM      7  H2  UNL     1     -34.592  22.114  -5.199  1.00  0.00     0.161 HD
HETATM    8  N4  UNL     1     -37.463  20.702  -5.496  1.00  0.00    -0.312 N 
ATOM      9  H4  UNL     1     -37.198  19.827  -5.948  1.00  0.00     0.170 HD
HETATM   10  C7  UNL     1     -38.753  20.949  -5.209  1.00  0.00     0.210 A 
HETATM   11  N5  UNL     1     -39.743  19.992  -5.536  1.00  0.00    -0.062 NA
HETATM   12  N6  UNL     1     -39.134  22.098  -4.611  1.00  0.00    -0.251 N 
ATOM     13  H6  UNL     1     -40.117  22.268  -4.400  1.00  0.00     0.192 HD
HETATM   14  N7  UNL     1     -38.212  23.010  -4.297  1.00  0.00    -0.181 N 
ENDROOT
BRANCH   6  15
HETATM   15  C3  UNL     1     -34.889  20.193  -6.075  1.00  0.00     0.121 C 
BRANCH  15  16
HETATM   16  C4  UNL     1     -34.327  19.198  -5.050  1.00  0.00     0.022 C 
BRANCH  16  17
HETATM   17  C5  UNL     1     -33.434  20.026  -4.139  1.00  0.00     0.030 C 
BRANCH  17  18
HETATM   18  C6  UNL     1     -32.372  19.176  -3.483  1.00  0.00     0.200 C 
BRANCH  18  19
HETATM   19  O1  UNL     1     -32.201  18.046  -4.282  1.00  0.00    -0.287 OA
BRANCH  19  20
HETATM   20  N3  UNL     1     -32.057  16.924  -3.502  1.00  0.00    -0.311 N 
ATOM     21  H32 UNL     1     -32.492  16.025  -3.711  1.00  0.00     0.184 HD
ATOM     22  H31 UNL     1     -31.461  17.123  -2.699  1.00  0.00     0.184 HD
ENDBRANCH  19  20
ENDBRANCH  18  19
ENDBRANCH  17  18
ENDBRANCH  16  17
ENDBRANCH  15  16
ENDBRANCH   6  15
BRANCH  14  23
HETATM   23  N8  UNL     1     -38.580  24.204  -3.679  1.00  0.00    -0.322 N 
ATOM     24  H82 UNL     1     -37.991  25.033  -3.764  1.00  0.00     0.179 HD
ATOM     25  H81 UNL     1     -39.445  24.249  -3.140  1.00  0.00     0.179 HD
ENDBRANCH  14  23
TORSDOF 7
ENDMDL
MODEL 5
REMARK VINA RESULT: -6.729057884      1.889      3.178
REMARK  7 active torsions:
REMARK  status: ('A' for Active; 'I' for Inactive)
REMARK    1  A    between atoms: N2_6  and  C3_8 
REMARK    2  A    between atoms: C3_8  and  C4_9 
REMARK    3  A    between atoms: C4_9  and  C5_10 
REMARK    4  A    between atoms: C5_10  and  C6_11 
REMARK    5  A    between atoms: C6_11  and  O1_12 
REMARK    6  A    between atoms: O1_12  and  N3_13 
REMARK    7  A    between atoms: N7_22  and  N8_23 
ROOT
HETATM    1  N1  UNL     1     -34.239  21.108  -3.118  1.00  0.00    -0.380 N 
ATOM      2  H11 UNL     1     -33.321  21.147  -2.675  1.00  0.00     0.158 HD
ATOM      3  H12 UNL     1     -35.019  21.672  -2.781  1.00  0.00     0.158 HD
HETATM    4  C1  UNL     1     -34.408  20.330  -4.120  1.00  0.00     0.182 A 
HETATM    5  C2  UNL     1     -35.645  20.277  -4.718  1.00  0.00     0.151 A 
HETATM    6  N2  UNL     1     -36.608  20.991  -4.280  1.00  0.00    -0.373 N 
ATOM      7  H2  UNL     1     -36.465  21.609  -3.480  1.00  0.00     0.161 HD
HETATM    8  N4  UNL     1     -35.804  19.453  -5.770  1.00  0.00    -0.312 N 
ATOM      9  H4  UNL     1     -36.709  19.389  -6.237  1.00  0.00     0.170 HD
HETATM   10  C7  UNL     1     -34.768  18.715  -6.204  1.00  0.00     0.210 A 
HETATM   11  N5  UNL     1     -34.935  17.849  -7.312  1.00  0.00    -0.062 NA
HETATM   12  N6  UNL     1     -33.559  18.779  -5.607  1.00  0.00    -0.251 N 
ATOM     13  H6  UNL     1     -32.784  18.212  -5.950  1.00  0.00     0.192 HD
HETATM   14  N7  UNL     1     -33.387  19.590  -4.562  1.00  0.00    -0.181 N 
ENDROOT
BRANCH   6  15
HETATM   15  C3  UNL     1     -37.886  20.922  -4.915  1.00  0.00     0.121 C 
BRANCH  15  16
HETATM   16  C4  UNL     1     -38.212  22.235  -5.641  1.00  0.00     0.022 C 
BRANCH  16  17
HETATM   17  C5  UNL     1     -39.411  22.811  -4.904  1.00  0.00     0.030 C 
BRANCH  17  18
HETATM   18  C6  UNL     1     -38.989  23.818  -3.861  1.00  0.00     0.200 C 
BRANCH  18  19
HETATM   19  O1  UNL     1     -37.644  24.109  -4.094  1.00  0.00    -0.287 OA
BRANCH  19  20
HETATM   20  N3  UNL     1     -37.285  25.266  -3.447  1.00  0.00    -0.311 N 
ATOM     21  H32 UNL     1     -37.689  25.574  -2.562  1.00  0.00     0.184 HD
ATOM     22  H31 UNL     1     -36.567  25.760  -3.976  1.00  0.00     0.184 HD
ENDBRANCH  19  20
ENDBRANCH  18  19
ENDBRANCH  17  18
ENDBRANCH  16  17
ENDBRANCH  15  16
ENDBRANCH   6  15
BRANCH  14  23
HETATM   23  N8  UNL     1     -32.148  19.673  -3.929  1.00  0.00    -0.322 N 
ATOM     24  H82 UNL     1     -32.081  20.001  -2.965  1.00  0.00     0.179 HD
ATOM     25  H81 UNL     1     -31.303  19.404  -4.432  1.00  0.00     0.179 HD
ENDBRANCH  14  23
TORSDOF 7
ENDMDL
