MODEL 1
REMARK VINA RESULT: -6.503687418      0.000      0.000
REMARK  10 active torsions:
REMARK  status: ('A' for Active; 'I' for Inactive)
REMARK    1  A    between atoms: C2_6  and  N2_7 
REMARK    2  A    between atoms: N2_7  and  C3_9 
REMARK    3  A    between atoms: C3_9  and  C4_10 
REMARK    4  A    between atoms: C4_10  and  C5_11 
REMARK    5  A    between atoms: C5_11  and  N3_12 
REMARK    6  A    between atoms: C6_18  and  N5_19 
REMARK    7  A    between atoms: N5_19  and  C7_21 
REMARK    8  A    between atoms: C7_21  and  C8_22 
REMARK    9  A    between atoms: C8_22  and  N6_23 
REMARK   10  A    between atoms: C9_27  and  N7_28 
ROOT
HETATM    1  N1  UNL     1     -41.355 -13.426  13.112  1.00  0.00    -0.391 N 
ATOM      2  H11 UNL     1     -42.299 -13.280  13.471  1.00  0.00     0.157 HD
ATOM      3  H12 UNL     1     -41.250 -14.273  12.553  1.00  0.00     0.157 HD
HETATM    4  C1  UNL     1     -40.330 -12.635  13.314  1.00  0.00     0.108 A 
HETATM    5  S1  UNL     1     -38.761 -12.878  12.715  1.00  0.00    -0.034 SA
HETATM    6  C2  UNL     1     -37.685 -11.627  13.188  1.00  0.00     0.148 A 
HETATM    7  N4  UNL     1     -38.205 -10.652  13.945  1.00  0.00    -0.321 N 
ATOM      8  H4  UNL     1     -37.578  -9.901  14.235  1.00  0.00     0.169 HD
HETATM    9  C6  UNL     1     -39.493 -10.581  14.358  1.00  0.00     0.139 A 
HETATM   10  C9  UNL     1     -40.474 -11.479  14.077  1.00  0.00     0.179 A 
ENDROOT
BRANCH   6  11
HETATM   11  N2  UNL     1     -36.440 -11.614  12.839  1.00  0.00    -0.370 N 
ATOM     12  H2  UNL     1     -35.934 -12.495  12.746  1.00  0.00     0.161 HD
BRANCH  11  13
HETATM   13  C3  UNL     1     -35.766 -10.383  12.580  1.00  0.00     0.123 C 
BRANCH  13  14
HETATM   14  C4  UNL     1     -36.108  -9.803  11.230  1.00  0.00     0.047 C 
BRANCH  14  15
HETATM   15  C5  UNL     1     -35.336  -8.530  10.955  1.00  0.00     0.231 C 
BRANCH  15  16
HETATM   16  N3  UNL     1     -35.311  -7.695  12.140  1.00  0.00    -0.079 N 
ATOM     17  H33 UNL     1     -36.224  -7.285  12.337  1.00  0.00     0.274 HD
ATOM     18  H32 UNL     1     -35.207  -8.245  12.992  1.00  0.00     0.274 HD
ATOM     19  H31 UNL     1     -34.584  -6.984  12.054  1.00  0.00     0.274 HD
ENDBRANCH  15  16
ENDBRANCH  14  15
ENDBRANCH  13  14
ENDBRANCH  11  13
ENDBRANCH   6  11
BRANCH   9  20
HETATM   20  N5  UNL     1     -39.798  -9.419  15.170  1.00  0.00    -0.372 N 
ATOM     21  H5  UNL     1     -40.725  -9.002  15.089  1.00  0.00     0.161 HD
BRANCH  20  22
HETATM   22  C7  UNL     1     -38.870  -8.833  16.071  1.00  0.00     0.148 C 
BRANCH  22  23
HETATM   23  C8  UNL     1     -38.598  -7.407  15.654  1.00  0.00     0.249 C 
BRANCH  23  24
HETATM   24  N6  UNL     1     -39.387  -6.463  16.423  1.00  0.00    -0.078 N 
ATOM     25  H63 UNL     1     -39.963  -6.939  17.117  1.00  0.00     0.274 HD
ATOM     26  H62 UNL     1     -38.801  -5.914  17.051  1.00  0.00     0.274 HD
ATOM     27  H61 UNL     1     -39.951  -5.864  15.820  1.00  0.00     0.274 HD
ENDBRANCH  23  24
ENDBRANCH  22  23
ENDBRANCH  20  22
ENDBRANCH   9  20
BRANCH  10  28
HETATM   28  N7  UNL     1     -41.771 -11.230  14.599  1.00  0.00    -0.109 N 
HETATM   29  O1  UNL     1     -42.272 -12.004  15.411  1.00  0.00    -0.532 OA
HETATM   30  O2  UNL     1     -42.448 -10.127  14.192  1.00  0.00    -0.532 OA
ENDBRANCH  10  28
TORSDOF 10
ENDMDL
MODEL 2
REMARK VINA RESULT: -6.304666356      2.382      3.406
REMARK  10 active torsions:
REMARK  status: ('A' for Active; 'I' for Inactive)
REMARK    1  A    between atoms: C2_6  and  N2_7 
REMARK    2  A    between atoms: N2_7  and  C3_9 
REMARK    3  A    between atoms: C3_9  and  C4_10 
REMARK    4  A    between atoms: C4_10  and  C5_11 
REMARK    5  A    between atoms: C5_11  and  N3_12 
REMARK    6  A    between atoms: C6_18  and  N5_19 
REMARK    7  A    between atoms: N5_19  and  C7_21 
REMARK    8  A    between atoms: C7_21  and  C8_22 
REMARK    9  A    between atoms: C8_22  and  N6_23 
REMARK   10  A    between atoms: C9_27  and  N7_28 
ROOT
HETATM    1  N1  UNL     1     -38.110 -14.265  12.968  1.00  0.00    -0.391 N 
ATOM      2  H11 UNL     1     -38.752 -15.057  13.007  1.00  0.00     0.157 HD
ATOM      3  H12 UNL     1     -37.127 -14.531  12.897  1.00  0.00     0.157 HD
HETATM    4  C1  UNL     1     -38.452 -13.000  13.003  1.00  0.00     0.108 A 
HETATM    5  S1  UNL     1     -37.382 -11.684  12.938  1.00  0.00    -0.034 SA
HETATM    6  C2  UNL     1     -38.203 -10.178  13.006  1.00  0.00     0.148 A 
HETATM    7  N4  UNL     1     -39.537 -10.232  13.099  1.00  0.00    -0.321 N 
ATOM      8  H4  UNL     1     -40.040  -9.345  13.141  1.00  0.00     0.169 HD
HETATM    9  C6  UNL     1     -40.276 -11.368  13.143  1.00  0.00     0.139 A 
HETATM   10  C9  UNL     1     -39.793 -12.638  13.100  1.00  0.00     0.179 A 
ENDROOT
BRANCH   6  11
HETATM   11  N2  UNL     1     -37.578  -9.046  12.969  1.00  0.00    -0.370 N 
ATOM     12  H2  UNL     1     -38.110  -8.178  12.905  1.00  0.00     0.161 HD
BRANCH  11  13
HETATM   13  C3  UNL     1     -36.152  -8.997  13.016  1.00  0.00     0.123 C 
BRANCH  13  14
HETATM   14  C4  UNL     1     -35.561  -8.157  11.911  1.00  0.00     0.047 C 
BRANCH  14  15
HETATM   15  C5  UNL     1     -34.878  -9.010  10.863  1.00  0.00     0.231 C 
BRANCH  15  16
HETATM   16  N3  UNL     1     -35.865  -9.624   9.996  1.00  0.00    -0.079 N 
ATOM     17  H33 UNL     1     -36.667  -9.973  10.519  1.00  0.00     0.274 HD
ATOM     18  H32 UNL     1     -36.349  -8.934   9.421  1.00  0.00     0.274 HD
ATOM     19  H31 UNL     1     -35.431 -10.353   9.430  1.00  0.00     0.274 HD
ENDBRANCH  15  16
ENDBRANCH  14  15
ENDBRANCH  13  14
ENDBRANCH  11  13
ENDBRANCH   6  11
BRANCH   9  20
HETATM   20  N5  UNL     1     -41.705 -11.149  13.245  1.00  0.00    -0.372 N 
ATOM     21  H5  UNL     1     -42.311 -11.566  12.538  1.00  0.00     0.161 HD
BRANCH  20  22
HETATM   22  C7  UNL     1     -42.304 -10.382  14.279  1.00  0.00     0.148 C 
BRANCH  22  23
HETATM   23  C8  UNL     1     -43.634 -10.995  14.652  1.00  0.00     0.249 C 
BRANCH  23  24
HETATM   24  N6  UNL     1     -44.079 -11.954  13.660  1.00  0.00    -0.078 N 
ATOM     25  H63 UNL     1     -44.012 -11.572  12.717  1.00  0.00     0.274 HD
ATOM     26  H62 UNL     1     -43.420 -12.726  13.567  1.00  0.00     0.274 HD
ATOM     27  H61 UNL     1     -45.022 -12.291  13.858  1.00  0.00     0.274 HD
ENDBRANCH  23  24
ENDBRANCH  22  23
ENDBRANCH  20  22
ENDBRANCH   9  20
BRANCH  10  28
HETATM   28  N7  UNL     1     -40.729 -13.705  13.154  1.00  0.00    -0.109 N 
HETATM   29  O1  UNL     1     -40.760 -14.548  12.262  1.00  0.00    -0.532 OA
HETATM   30  O2  UNL     1     -41.587 -13.781  14.204  1.00  0.00    -0.532 OA
ENDBRANCH  10  28
TORSDOF 10
ENDMDL
MODEL 3
REMARK VINA RESULT: -6.266781662      1.598      3.762
REMARK  10 active torsions:
REMARK  status: ('A' for Active; 'I' for Inactive)
REMARK    1  A    between atoms: C2_6  and  N2_7 
REMARK    2  A    between atoms: N2_7  and  C3_9 
REMARK    3  A    between atoms: C3_9  and  C4_10 
REMARK    4  A    between atoms: C4_10  and  C5_11 
REMARK    5  A    between atoms: C5_11  and  N3_12 
REMARK    6  A    between atoms: C6_18  and  N5_19 
REMARK    7  A    between atoms: N5_19  and  C7_21 
REMARK    8  A    between atoms: C7_21  and  C8_22 
REMARK    9  A    between atoms: C8_22  and  N6_23 
REMARK   10  A    between atoms: C9_27  and  N7_28 
ROOT
HETATM    1  N1  UNL     1     -39.639  -8.727  15.558  1.00  0.00    -0.391 N 
ATOM      2  H11 UNL     1     -40.570  -8.894  15.941  1.00  0.00     0.157 HD
ATOM      3  H12 UNL     1     -39.154  -7.933  15.977  1.00  0.00     0.157 HD
HETATM    4  C1  UNL     1     -39.063  -9.432  14.615  1.00  0.00     0.108 A 
HETATM    5  S1  UNL     1     -37.514  -9.154  13.979  1.00  0.00    -0.034 SA
HETATM    6  C2  UNL     1     -37.103 -10.287  12.757  1.00  0.00     0.148 A 
HETATM    7  N4  UNL     1     -38.026 -11.214  12.472  1.00  0.00    -0.321 N 
ATOM      8  H4  UNL     1     -37.796 -11.895  11.748  1.00  0.00     0.169 HD
HETATM    9  C6  UNL     1     -39.239 -11.322  13.064  1.00  0.00     0.139 A 
HETATM   10  C9  UNL     1     -39.726 -10.516  14.044  1.00  0.00     0.179 A 
ENDROOT
BRANCH   6  11
HETATM   11  N2  UNL     1     -35.966 -10.259  12.141  1.00  0.00    -0.370 N 
ATOM     12  H2  UNL     1     -35.123 -10.570  12.623  1.00  0.00     0.161 HD
BRANCH  11  13
HETATM   13  C3  UNL     1     -35.877  -9.797  10.793  1.00  0.00     0.123 C 
BRANCH  13  14
HETATM   14  C4  UNL     1     -35.403  -8.367  10.697  1.00  0.00     0.047 C 
BRANCH  14  15
HETATM   15  C5  UNL     1     -34.526  -7.988  11.872  1.00  0.00     0.231 C 
BRANCH  15  16
HETATM   16  N3  UNL     1     -35.028  -6.783  12.502  1.00  0.00    -0.079 N 
ATOM     17  H33 UNL     1     -35.363  -6.106  11.818  1.00  0.00     0.274 HD
ATOM     18  H32 UNL     1     -35.907  -6.947  12.994  1.00  0.00     0.274 HD
ATOM     19  H31 UNL     1     -34.317  -6.384  13.116  1.00  0.00     0.274 HD
ENDBRANCH  15  16
ENDBRANCH  14  15
ENDBRANCH  13  14
ENDBRANCH  11  13
ENDBRANCH   6  11
BRANCH   9  20
HETATM   20  N5  UNL     1     -40.051 -12.417  12.570  1.00  0.00    -0.372 N 
ATOM     21  H5  UNL     1     -40.836 -12.199  11.956  1.00  0.00     0.161 HD
BRANCH  20  22
HETATM   22  C7  UNL     1     -39.809 -13.777  12.898  1.00  0.00     0.148 C 
BRANCH  22  23
HETATM   23  C8  UNL     1     -41.124 -14.472  13.162  1.00  0.00     0.249 C 
BRANCH  23  24
HETATM   24  N6  UNL     1     -42.252 -13.587  12.940  1.00  0.00    -0.078 N 
ATOM     25  H63 UNL     1     -42.336 -12.897  13.687  1.00  0.00     0.274 HD
ATOM     26  H62 UNL     1     -42.080 -12.955  12.158  1.00  0.00     0.274 HD
ATOM     27  H61 UNL     1     -43.121 -14.107  12.815  1.00  0.00     0.274 HD
ENDBRANCH  23  24
ENDBRANCH  22  23
ENDBRANCH  20  22
ENDBRANCH   9  20
BRANCH  10  28
HETATM   28  N7  UNL     1     -41.026 -10.791  14.545  1.00  0.00    -0.109 N 
HETATM   29  O1  UNL     1     -41.212 -11.748  15.293  1.00  0.00    -0.532 OA
HETATM   30  O2  UNL     1     -42.058  -9.985  14.188  1.00  0.00    -0.532 OA
ENDBRANCH  10  28
TORSDOF 10
ENDMDL
MODEL 4
REMARK VINA RESULT: -6.121275020      2.220      4.146
REMARK  10 active torsions:
REMARK  status: ('A' for Active; 'I' for Inactive)
REMARK    1  A    between atoms: C2_6  and  N2_7 
REMARK    2  A    between atoms: N2_7  and  C3_9 
REMARK    3  A    between atoms: C3_9  and  C4_10 
REMARK    4  A    between atoms: C4_10  and  C5_11 
REMARK    5  A    between atoms: C5_11  and  N3_12 
REMARK    6  A    between atoms: C6_18  and  N5_19 
REMARK    7  A    between atoms: N5_19  and  C7_21 
REMARK    8  A    between atoms: C7_21  and  C8_22 
REMARK    9  A    between atoms: C8_22  and  N6_23 
REMARK   10  A    between atoms: C9_27  and  N7_28 
ROOT
HETATM    1  N1  UNL     1     -42.364 -10.876  14.827  1.00  0.00    -0.391 N 
ATOM      2  H11 UNL     1     -43.116 -11.536  14.630  1.00  0.00     0.157 HD
ATOM      3  H12 UNL     1     -42.667 -10.035  15.318  1.00  0.00     0.157 HD
HETATM    4  C1  UNL     1     -41.103 -11.036  14.506  1.00  0.00     0.108 A 
HETATM    5  S1  UNL     1     -39.852  -9.938  14.835  1.00  0.00    -0.034 SA
HETATM    6  C2  UNL     1     -38.333 -10.495  14.262  1.00  0.00     0.148 A 
HETATM    7  N4  UNL     1     -38.330 -11.684  13.648  1.00  0.00    -0.321 N 
ATOM      8  H4  UNL     1     -37.434 -12.029  13.301  1.00  0.00     0.169 HD
HETATM    9  C6  UNL     1     -39.417 -12.468  13.448  1.00  0.00     0.139 A 
HETATM   10  C9  UNL     1     -40.689 -12.184  13.835  1.00  0.00     0.179 A 
ENDROOT
BRANCH   6  11
HETATM   11  N2  UNL     1     -37.244  -9.813  14.410  1.00  0.00    -0.370 N 
ATOM     12  H2  UNL     1     -36.655  -9.974  15.227  1.00  0.00     0.161 HD
BRANCH  11  13
HETATM   13  C3  UNL     1     -36.855  -8.837  13.444  1.00  0.00     0.123 C 
BRANCH  13  14
HETATM   14  C4  UNL     1     -35.937  -9.397  12.385  1.00  0.00     0.047 C 
BRANCH  14  15
HETATM   15  C5  UNL     1     -35.108  -8.313  11.732  1.00  0.00     0.231 C 
BRANCH  15  16
HETATM   16  N3  UNL     1     -35.180  -7.091  12.510  1.00  0.00    -0.079 N 
ATOM     17  H33 UNL     1     -34.388  -6.475  12.327  1.00  0.00     0.274 HD
ATOM     18  H32 UNL     1     -35.926  -6.476  12.186  1.00  0.00     0.274 HD
ATOM     19  H31 UNL     1     -35.271  -7.310  13.502  1.00  0.00     0.274 HD
ENDBRANCH  15  16
ENDBRANCH  14  15
ENDBRANCH  13  14
ENDBRANCH  11  13
ENDBRANCH   6  11
BRANCH   9  20
HETATM   20  N5  UNL     1     -39.141 -13.711  12.756  1.00  0.00    -0.372 N 
ATOM     21  H5  UNL     1     -39.915 -14.197  12.305  1.00  0.00     0.161 HD
BRANCH  20  22
HETATM   22  C7  UNL     1     -37.845 -14.285  12.674  1.00  0.00     0.148 C 
BRANCH  22  23
HETATM   23  C8  UNL     1     -37.917 -15.743  13.068  1.00  0.00     0.249 C 
BRANCH  23  24
HETATM   24  N6  UNL     1     -36.681 -16.195  13.679  1.00  0.00    -0.078 N 
ATOM     25  H63 UNL     1     -36.369 -15.551  14.407  1.00  0.00     0.274 HD
ATOM     26  H62 UNL     1     -36.832 -17.024  14.254  1.00  0.00     0.274 HD
ATOM     27  H61 UNL     1     -35.952 -16.351  12.983  1.00  0.00     0.274 HD
ENDBRANCH  23  24
ENDBRANCH  22  23
ENDBRANCH  20  22
ENDBRANCH   9  20
BRANCH  10  28
HETATM   28  N7  UNL     1     -41.700 -13.136  13.538  1.00  0.00    -0.109 N 
HETATM   29  O1  UNL     1     -41.603 -14.291  13.947  1.00  0.00    -0.532 OA
HETATM   30  O2  UNL     1     -42.773 -12.755  12.799  1.00  0.00    -0.532 OA
ENDBRANCH  10  28
TORSDOF 10
ENDMDL
MODEL 5
REMARK VINA RESULT: -6.108321434      2.318      4.195
REMARK  10 active torsions:
REMARK  status: ('A' for Active; 'I' for Inactive)
REMARK    1  A    between atoms: C2_6  and  N2_7 
REMARK    2  A    between atoms: N2_7  and  C3_9 
REMARK    3  A    between atoms: C3_9  and  C4_10 
REMARK    4  A    between atoms: C4_10  and  C5_11 
REMARK    5  A    between atoms: C5_11  and  N3_12 
REMARK    6  A    between atoms: C6_18  and  N5_19 
REMARK    7  A    between atoms: N5_19  and  C7_21 
REMARK    8  A    between atoms: C7_21  and  C8_22 
REMARK    9  A    between atoms: C8_22  and  N6_23 
REMARK   10  A    between atoms: C9_27  and  N7_28 
ROOT
HETATM    1  N1  UNL     1     -41.522 -10.115  14.405  1.00  0.00    -0.391 N 
ATOM      2  H11 UNL     1     -42.389 -10.654  14.410  1.00  0.00     0.157 HD
ATOM      3  H12 UNL     1     -41.628  -9.155  14.732  1.00  0.00     0.157 HD
HETATM    4  C1  UNL     1     -40.349 -10.558  14.024  1.00  0.00     0.108 A 
HETATM    5  S1  UNL     1     -38.908  -9.662  14.015  1.00  0.00    -0.034 SA
HETATM    6  C2  UNL     1     -37.574 -10.583  13.451  1.00  0.00     0.148 A 
HETATM    7  N4  UNL     1     -37.833 -11.849  13.101  1.00  0.00    -0.321 N 
ATOM      8  H4  UNL     1     -37.051 -12.410  12.764  1.00  0.00     0.169 HD
HETATM    9  C6  UNL     1     -39.048 -12.447  13.157  1.00  0.00     0.139 A 
HETATM   10  C9  UNL     1     -40.205 -11.870  13.577  1.00  0.00     0.179 A 
ENDROOT
BRANCH   6  11
HETATM   11  N2  UNL     1     -36.381 -10.093  13.366  1.00  0.00    -0.370 N 
ATOM     12  H2  UNL     1     -35.591 -10.621  13.739  1.00  0.00     0.161 HD
BRANCH  11  13
HETATM   13  C3  UNL     1     -36.154  -8.823  12.756  1.00  0.00     0.123 C 
BRANCH  13  14
HETATM   14  C4  UNL     1     -34.935  -8.813  11.866  1.00  0.00     0.047 C 
BRANCH  14  15
HETATM   15  C5  UNL     1     -35.310  -8.667  10.406  1.00  0.00     0.231 C 
BRANCH  15  16
HETATM   16  N3  UNL     1     -36.094  -9.808   9.974  1.00  0.00    -0.079 N 
ATOM     17  H33 UNL     1     -35.800 -10.669  10.435  1.00  0.00     0.274 HD
ATOM     18  H32 UNL     1     -37.050  -9.769  10.327  1.00  0.00     0.274 HD
ATOM     19  H31 UNL     1     -36.066  -9.890   8.958  1.00  0.00     0.274 HD
ENDBRANCH  15  16
ENDBRANCH  14  15
ENDBRANCH  13  14
ENDBRANCH  11  13
ENDBRANCH   6  11
BRANCH   9  20
HETATM   20  N5  UNL     1     -39.056 -13.829  12.720  1.00  0.00    -0.372 N 
ATOM     21  H5  UNL     1     -39.956 -14.289  12.583  1.00  0.00     0.161 HD
BRANCH  20  22
HETATM   22  C7  UNL     1     -37.873 -14.574  12.472  1.00  0.00     0.148 C 
BRANCH  22  23
HETATM   23  C8  UNL     1     -37.942 -15.887  13.216  1.00  0.00     0.249 C 
BRANCH  23  24
HETATM   24  N6  UNL     1     -36.637 -16.304  13.691  1.00  0.00    -0.078 N 
ATOM     25  H63 UNL     1     -36.044 -16.618  12.922  1.00  0.00     0.274 HD
ATOM     26  H62 UNL     1     -36.083 -15.507  14.004  1.00  0.00     0.274 HD
ATOM     27  H61 UNL     1     -36.710 -17.016  14.418  1.00  0.00     0.274 HD
ENDBRANCH  23  24
ENDBRANCH  22  23
ENDBRANCH  20  22
ENDBRANCH   9  20
BRANCH  10  28
HETATM   28  N7  UNL     1     -41.383 -12.663  13.567  1.00  0.00    -0.109 N 
HETATM   29  O1  UNL     1     -41.430 -13.711  14.206  1.00  0.00    -0.532 OA
HETATM   30  O2  UNL     1     -42.455 -12.248  12.845  1.00  0.00    -0.532 OA
ENDBRANCH  10  28
TORSDOF 10
ENDMDL
