MODEL 1
REMARK VINA RESULT: -7.721657698      0.000      0.000
REMARK  10 active torsions:
REMARK  status: ('A' for Active; 'I' for Inactive)
REMARK    1  A    between atoms: N1_1  and  C1_4 
REMARK    2  A    between atoms: C3_6  and  C4_7 
REMARK    3  A    between atoms: C4_7  and  O1_8 
REMARK    4  A    between atoms: O1_8  and  N2_9 
REMARK    5  A    between atoms: N2_9  and  N3_10 
REMARK    6  A    between atoms: N2_9  and  C5_13 
REMARK    7  A    between atoms: C5_13  and  C6_14 
REMARK    8  A    between atoms: C6_14  and  C7_15 
REMARK    9  A    between atoms: C7_15  and  C8_16 
REMARK   10  A    between atoms: C9_27  and  N9_28 
ROOT
HETATM    1  O1  UNL     1     -43.005 -12.793  13.817  1.00  0.00    -0.279 OA
ENDROOT
BRANCH   1   2
HETATM    2  C4  UNL     1     -42.382 -11.619  13.433  1.00  0.00     0.254 C 
BRANCH   2   3
HETATM    3  C3  UNL     1     -40.932 -11.631  13.780  1.00  0.00     0.055 A 
HETATM    4  C2  UNL     1     -40.419 -10.778  14.731  1.00  0.00     0.076 A 
HETATM    5  C1  UNL     1     -39.081 -10.787  15.056  1.00  0.00     0.116 A 
HETATM    6  N10 UNL     1     -38.263 -11.648  14.427  1.00  0.00    -0.177 N 
HETATM    7  C9  UNL     1     -38.774 -12.483  13.492  1.00  0.00     0.677 A 
ATOM      8  H10 UNL     1     -37.269 -11.672  14.651  1.00  0.00     0.185 HD
HETATM    9  N8  UNL     1     -40.070 -12.472  13.182  1.00  0.00    -0.193 N 
ATOM     10  H8  UNL     1     -40.417 -13.118  12.473  1.00  0.00     0.184 HD
BRANCH   5  11
HETATM   11  N1  UNL     1     -38.627  -9.976  15.951  1.00  0.00    -0.385 N 
ATOM     12  H12 UNL     1     -37.875 -10.256  16.580  1.00  0.00     0.157 HD
ATOM     13  H11 UNL     1     -39.021  -9.039  16.038  1.00  0.00     0.157 HD
ENDBRANCH   5  11
BRANCH   7  14
HETATM   14  N9  UNL     1     -37.978 -13.295  12.906  1.00  0.00    -0.234 N 
ATOM     15  H92 UNL     1     -38.378 -13.998  12.283  1.00  0.00     0.174 HD
ATOM     16  H91 UNL     1     -36.972 -13.232  13.063  1.00  0.00     0.174 HD
ENDBRANCH   7  14
ENDBRANCH   2   3
ENDBRANCH   1   2
BRANCH   1  17
HETATM   17  N2  UNL     1     -43.278 -13.596  12.743  1.00  0.00    -0.111 NA
BRANCH  17  18
HETATM   18  N3  UNL     1     -42.449 -14.735  12.815  1.00  0.00    -0.341 NA
ATOM     19  H32 UNL     1     -41.844 -14.751  13.636  1.00  0.00     0.173 HD
ATOM     20  H31 UNL     1     -41.917 -14.802  11.947  1.00  0.00     0.173 HD
ENDBRANCH  17  18
BRANCH  17  21
HETATM   21  C5  UNL     1     -44.659 -13.900  12.645  1.00  0.00     0.146 C 
BRANCH  21  22
HETATM   22  C6  UNL     1     -45.021 -15.337  12.636  1.00  0.00     0.026 C 
BRANCH  22  23
HETATM   23  C7  UNL     1     -45.829 -15.856  11.502  1.00  0.00     0.080 C 
BRANCH  23  24
HETATM   24  C8  UNL     1     -45.140 -15.554  10.190  1.00  0.00     0.113 A 
HETATM   25  N4  UNL     1     -43.821 -15.461   9.986  1.00  0.00    -0.272 N 
HETATM   26  N5  UNL     1     -43.582 -15.187   8.717  1.00  0.00    -0.227 N 
ATOM     27  H4  UNL     1     -43.107 -15.584  10.704  1.00  0.00     0.190 HD
HETATM   28  N6  UNL     1     -44.733 -15.103   8.109  1.00  0.00    -0.227 N 
ATOM     29  H5  UNL     1     -42.664 -15.063   8.289  1.00  0.00     0.210 HD
HETATM   30  N7  UNL     1     -45.697 -15.325   8.992  1.00  0.00    -0.272 N 
ATOM     31  H6  UNL     1     -44.869 -14.901   7.118  1.00  0.00     0.210 HD
ATOM     32  H7  UNL     1     -46.698 -15.322   8.792  1.00  0.00     0.190 HD
ENDBRANCH  23  24
ENDBRANCH  22  23
ENDBRANCH  21  22
ENDBRANCH  17  21
ENDBRANCH   1  17
TORSDOF 10
ENDMDL
MODEL 2
REMARK VINA RESULT: -7.527045561      0.766      1.812
REMARK  10 active torsions:
REMARK  status: ('A' for Active; 'I' for Inactive)
REMARK    1  A    between atoms: N1_1  and  C1_4 
REMARK    2  A    between atoms: C3_6  and  C4_7 
REMARK    3  A    between atoms: C4_7  and  O1_8 
REMARK    4  A    between atoms: O1_8  and  N2_9 
REMARK    5  A    between atoms: N2_9  and  N3_10 
REMARK    6  A    between atoms: N2_9  and  C5_13 
REMARK    7  A    between atoms: C5_13  and  C6_14 
REMARK    8  A    between atoms: C6_14  and  C7_15 
REMARK    9  A    between atoms: C7_15  and  C8_16 
REMARK   10  A    between atoms: C9_27  and  N9_28 
ROOT
HETATM    1  O1  UNL     1     -42.893 -12.859  13.790  1.00  0.00    -0.279 OA
ENDROOT
BRANCH   1   2
HETATM    2  C4  UNL     1     -42.477 -11.609  13.367  1.00  0.00     0.254 C 
BRANCH   2   3
HETATM    3  C3  UNL     1     -41.066 -11.338  13.768  1.00  0.00     0.055 A 
HETATM    4  C2  UNL     1     -40.037 -12.152  13.348  1.00  0.00     0.076 A 
HETATM    5  C1  UNL     1     -38.732 -11.905  13.713  1.00  0.00     0.116 A 
HETATM    6  N10 UNL     1     -38.465 -10.846  14.497  1.00  0.00    -0.177 N 
HETATM    7  C9  UNL     1     -39.481 -10.051  14.906  1.00  0.00     0.677 A 
ATOM      8  H10 UNL     1     -37.506 -10.644  14.780  1.00  0.00     0.185 HD
HETATM    9  N8  UNL     1     -40.742 -10.293  14.549  1.00  0.00    -0.193 N 
ATOM     10  H8  UNL     1     -41.479  -9.670  14.877  1.00  0.00     0.184 HD
BRANCH   5  11
HETATM   11  N1  UNL     1     -37.789 -12.684  13.306  1.00  0.00    -0.385 N 
ATOM     12  H12 UNL     1     -37.780 -13.043  12.351  1.00  0.00     0.157 HD
ATOM     13  H11 UNL     1     -37.036 -12.950  13.941  1.00  0.00     0.157 HD
ENDBRANCH   5  11
BRANCH   7  14
HETATM   14  N9  UNL     1     -39.203  -9.049  15.651  1.00  0.00    -0.234 N 
ATOM     15  H92 UNL     1     -38.381  -9.107  16.252  1.00  0.00     0.174 HD
ATOM     16  H91 UNL     1     -39.795  -8.218  15.637  1.00  0.00     0.174 HD
ENDBRANCH   7  14
ENDBRANCH   2   3
ENDBRANCH   1   2
BRANCH   1  17
HETATM   17  N2  UNL     1     -43.277 -13.646  12.739  1.00  0.00    -0.111 NA
BRANCH  17  18
HETATM   18  N3  UNL     1     -42.495 -14.820  12.750  1.00  0.00    -0.341 NA
ATOM     19  H32 UNL     1     -42.278 -15.178  11.820  1.00  0.00     0.173 HD
ATOM     20  H31 UNL     1     -42.967 -15.516  13.328  1.00  0.00     0.173 HD
ENDBRANCH  17  18
BRANCH  17  21
HETATM   21  C5  UNL     1     -44.673 -13.890  12.742  1.00  0.00     0.146 C 
BRANCH  21  22
HETATM   22  C6  UNL     1     -45.098 -15.301  12.576  1.00  0.00     0.026 C 
BRANCH  22  23
HETATM   23  C7  UNL     1     -45.953 -15.650  11.410  1.00  0.00     0.080 C 
BRANCH  23  24
HETATM   24  C8  UNL     1     -45.191 -15.429  10.122  1.00  0.00     0.113 A 
HETATM   25  N4  UNL     1     -43.862 -15.429   9.973  1.00  0.00    -0.272 N 
HETATM   26  N5  UNL     1     -43.553 -15.205   8.708  1.00  0.00    -0.227 N 
ATOM     27  H4  UNL     1     -43.188 -15.579  10.723  1.00  0.00     0.190 HD
HETATM   28  N6  UNL     1     -44.669 -15.062   8.050  1.00  0.00    -0.227 N 
ATOM     29  H5  UNL     1     -42.612 -15.154   8.318  1.00  0.00     0.210 HD
HETATM   30  N7  UNL     1     -45.682 -15.196   8.896  1.00  0.00    -0.272 N 
ATOM     31  H6  UNL     1     -44.751 -14.878   7.050  1.00  0.00     0.210 HD
ATOM     32  H7  UNL     1     -46.671 -15.132   8.654  1.00  0.00     0.190 HD
ENDBRANCH  23  24
ENDBRANCH  22  23
ENDBRANCH  21  22
ENDBRANCH  17  21
ENDBRANCH   1  17
TORSDOF 10
ENDMDL
MODEL 3
REMARK VINA RESULT: -7.245217651      1.990      7.366
REMARK  10 active torsions:
REMARK  status: ('A' for Active; 'I' for Inactive)
REMARK    1  A    between atoms: N1_1  and  C1_4 
REMARK    2  A    between atoms: C3_6  and  C4_7 
REMARK    3  A    between atoms: C4_7  and  O1_8 
REMARK    4  A    between atoms: O1_8  and  N2_9 
REMARK    5  A    between atoms: N2_9  and  N3_10 
REMARK    6  A    between atoms: N2_9  and  C5_13 
REMARK    7  A    between atoms: C5_13  and  C6_14 
REMARK    8  A    between atoms: C6_14  and  C7_15 
REMARK    9  A    between atoms: C7_15  and  C8_16 
REMARK   10  A    between atoms: C9_27  and  N9_28 
ROOT
HETATM    1  O1  UNL     1     -43.129 -11.781  15.246  1.00  0.00    -0.279 OA
ENDROOT
BRANCH   1   2
HETATM    2  C4  UNL     1     -43.999 -11.385  14.247  1.00  0.00     0.254 C 
BRANCH   2   3
HETATM    3  C3  UNL     1     -44.605 -12.558  13.552  1.00  0.00     0.055 A 
HETATM    4  C2  UNL     1     -45.944 -12.853  13.686  1.00  0.00     0.076 A 
HETATM    5  C1  UNL     1     -46.508 -13.934  13.046  1.00  0.00     0.116 A 
HETATM    6  N10 UNL     1     -45.730 -14.714  12.277  1.00  0.00    -0.177 N 
HETATM    7  C9  UNL     1     -44.415 -14.419  12.150  1.00  0.00     0.677 A 
ATOM      8  H10 UNL     1     -46.126 -15.520  11.794  1.00  0.00     0.185 HD
HETATM    9  N8  UNL     1     -43.873 -13.371  12.771  1.00  0.00    -0.193 N 
ATOM     10  H8  UNL     1     -42.878 -13.181  12.649  1.00  0.00     0.184 HD
BRANCH   5  11
HETATM   11  N1  UNL     1     -47.765 -14.186  13.190  1.00  0.00    -0.385 N 
ATOM     12  H12 UNL     1     -48.089 -14.855  13.888  1.00  0.00     0.157 HD
ATOM     13  H11 UNL     1     -48.451 -13.714  12.601  1.00  0.00     0.157 HD
ENDBRANCH   5  11
BRANCH   7  14
HETATM   14  N9  UNL     1     -43.693 -15.174  11.413  1.00  0.00    -0.234 N 
ATOM     15  H92 UNL     1     -42.965 -15.732  11.860  1.00  0.00     0.174 HD
ATOM     16  H91 UNL     1     -43.849 -15.211  10.406  1.00  0.00     0.174 HD
ENDBRANCH   7  14
ENDBRANCH   2   3
ENDBRANCH   1   2
BRANCH   1  17
HETATM   17  N2  UNL     1     -41.823 -11.609  14.877  1.00  0.00    -0.111 NA
BRANCH  17  18
HETATM   18  N3  UNL     1     -41.285 -12.868  14.537  1.00  0.00    -0.341 NA
ATOM     19  H32 UNL     1     -41.860 -13.655  14.838  1.00  0.00     0.173 HD
ATOM     20  H31 UNL     1     -40.337 -12.925  14.907  1.00  0.00     0.173 HD
ENDBRANCH  17  18
BRANCH  17  21
HETATM   21  C5  UNL     1     -41.684 -10.635  13.858  1.00  0.00     0.146 C 
BRANCH  21  22
HETATM   22  C6  UNL     1     -40.661 -10.905  12.819  1.00  0.00     0.026 C 
BRANCH  22  23
HETATM   23  C7  UNL     1     -39.361 -10.191  12.904  1.00  0.00     0.080 C 
BRANCH  23  24
HETATM   24  C8  UNL     1     -38.955 -10.018  14.350  1.00  0.00     0.113 A 
HETATM   25  N4  UNL     1     -38.539 -10.980  15.182  1.00  0.00    -0.272 N 
HETATM   26  N5  UNL     1     -38.270 -10.463  16.367  1.00  0.00    -0.227 N 
ATOM     27  H4  UNL     1     -38.444 -11.965  14.937  1.00  0.00     0.190 HD
HETATM   28  N6  UNL     1     -38.510  -9.183  16.301  1.00  0.00    -0.227 N 
ATOM     29  H5  UNL     1     -37.935 -10.972  17.185  1.00  0.00     0.210 HD
HETATM   30  N7  UNL     1     -38.929  -8.890  15.077  1.00  0.00    -0.272 N 
ATOM     31  H6  UNL     1     -38.395  -8.516  17.065  1.00  0.00     0.210 HD
ATOM     32  H7  UNL     1     -39.189  -7.962  14.743  1.00  0.00     0.190 HD
ENDBRANCH  23  24
ENDBRANCH  22  23
ENDBRANCH  21  22
ENDBRANCH  17  21
ENDBRANCH   1  17
TORSDOF 10
ENDMDL
MODEL 4
REMARK VINA RESULT: -7.186721181      3.083      7.330
REMARK  10 active torsions:
REMARK  status: ('A' for Active; 'I' for Inactive)
REMARK    1  A    between atoms: N1_1  and  C1_4 
REMARK    2  A    between atoms: C3_6  and  C4_7 
REMARK    3  A    between atoms: C4_7  and  O1_8 
REMARK    4  A    between atoms: O1_8  and  N2_9 
REMARK    5  A    between atoms: N2_9  and  N3_10 
REMARK    6  A    between atoms: N2_9  and  C5_13 
REMARK    7  A    between atoms: C5_13  and  C6_14 
REMARK    8  A    between atoms: C6_14  and  C7_15 
REMARK    9  A    between atoms: C7_15  and  C8_16 
REMARK   10  A    between atoms: C9_27  and  N9_28 
ROOT
HETATM    1  O1  UNL     1     -39.331 -12.130  13.700  1.00  0.00    -0.279 OA
ENDROOT
BRANCH   1   2
HETATM    2  C4  UNL     1     -40.374 -12.984  13.388  1.00  0.00     0.254 C 
BRANCH   2   3
HETATM    3  C3  UNL     1     -41.697 -12.318  13.565  1.00  0.00     0.055 A 
HETATM    4  C2  UNL     1     -41.788 -11.028  14.038  1.00  0.00     0.076 A 
HETATM    5  C1  UNL     1     -43.007 -10.408  14.202  1.00  0.00     0.116 A 
HETATM    6  N10 UNL     1     -44.128 -11.083  13.891  1.00  0.00    -0.177 N 
HETATM    7  C9  UNL     1     -44.030 -12.350  13.427  1.00  0.00     0.677 A 
ATOM      8  H10 UNL     1     -45.041 -10.644  14.005  1.00  0.00     0.185 HD
HETATM    9  N8  UNL     1     -42.849 -12.946  13.270  1.00  0.00    -0.193 N 
ATOM     10  H8  UNL     1     -42.817 -13.902  12.916  1.00  0.00     0.184 HD
BRANCH   5  11
HETATM   11  N1  UNL     1     -43.064  -9.199  14.647  1.00  0.00    -0.385 N 
ATOM     12  H12 UNL     1     -42.414  -8.486  14.315  1.00  0.00     0.157 HD
ATOM     13  H11 UNL     1     -43.765  -8.943  15.343  1.00  0.00     0.157 HD
ENDBRANCH   5  11
BRANCH   7  14
HETATM   14  N9  UNL     1     -45.109 -12.974  13.138  1.00  0.00    -0.234 N 
ATOM     15  H92 UNL     1     -45.183 -13.958  13.397  1.00  0.00     0.174 HD
ATOM     16  H91 UNL     1     -45.870 -12.490  12.660  1.00  0.00     0.174 HD
ENDBRANCH   7  14
ENDBRANCH   2   3
ENDBRANCH   1   2
BRANCH   1  17
HETATM   17  N2  UNL     1     -38.225 -12.383  12.936  1.00  0.00    -0.111 NA
BRANCH  17  18
HETATM   18  N3  UNL     1     -38.455 -13.560  12.193  1.00  0.00    -0.341 NA
ATOM     19  H32 UNL     1     -39.376 -13.970  12.349  1.00  0.00     0.173 HD
ATOM     20  H31 UNL     1     -37.704 -14.220  12.393  1.00  0.00     0.173 HD
ENDBRANCH  17  18
BRANCH  17  21
HETATM   21  C5  UNL     1     -37.864 -11.267  12.140  1.00  0.00     0.146 C 
BRANCH  21  22
HETATM   22  C6  UNL     1     -36.613 -10.565  12.514  1.00  0.00     0.026 C 
BRANCH  22  23
HETATM   23  C7  UNL     1     -36.714  -9.204  13.103  1.00  0.00     0.080 C 
BRANCH  23  24
HETATM   24  C8  UNL     1     -37.684  -9.210  14.264  1.00  0.00     0.113 A 
HETATM   25  N4  UNL     1     -37.841 -10.187  15.164  1.00  0.00    -0.272 N 
HETATM   26  N5  UNL     1     -38.776  -9.848  16.034  1.00  0.00    -0.227 N 
ATOM     27  H4  UNL     1     -37.318 -11.062  15.178  1.00  0.00     0.190 HD
HETATM   28  N6  UNL     1     -39.217  -8.668  15.698  1.00  0.00    -0.227 N 
ATOM     29  H5  UNL     1     -39.095 -10.408  16.825  1.00  0.00     0.210 HD
HETATM   30  N7  UNL     1     -38.562  -8.260  14.619  1.00  0.00    -0.272 N 
ATOM     31  H6  UNL     1     -39.945  -8.144  16.184  1.00  0.00     0.210 HD
ATOM     32  H7  UNL     1     -38.703  -7.372  14.138  1.00  0.00     0.190 HD
ENDBRANCH  23  24
ENDBRANCH  22  23
ENDBRANCH  21  22
ENDBRANCH  17  21
ENDBRANCH   1  17
TORSDOF 10
ENDMDL
MODEL 5
REMARK VINA RESULT: -7.131554948      2.872      3.552
REMARK  10 active torsions:
REMARK  status: ('A' for Active; 'I' for Inactive)
REMARK    1  A    between atoms: N1_1  and  C1_4 
REMARK    2  A    between atoms: C3_6  and  C4_7 
REMARK    3  A    between atoms: C4_7  and  O1_8 
REMARK    4  A    between atoms: O1_8  and  N2_9 
REMARK    5  A    between atoms: N2_9  and  N3_10 
REMARK    6  A    between atoms: N2_9  and  C5_13 
REMARK    7  A    between atoms: C5_13  and  C6_14 
REMARK    8  A    between atoms: C6_14  and  C7_15 
REMARK    9  A    between atoms: C7_15  and  C8_16 
REMARK   10  A    between atoms: C9_27  and  N9_28 
ROOT
HETATM    1  O1  UNL     1     -42.941 -11.584  12.590  1.00  0.00    -0.279 OA
ENDROOT
BRANCH   1   2
HETATM    2  C4  UNL     1     -42.467 -11.156  13.817  1.00  0.00     0.254 C 
BRANCH   2   3
HETATM    3  C3  UNL     1     -41.002 -11.404  13.954  1.00  0.00     0.055 A 
HETATM    4  C2  UNL     1     -40.238 -10.686  14.846  1.00  0.00     0.076 A 
HETATM    5  C1  UNL     1     -38.886 -10.912  14.977  1.00  0.00     0.116 A 
HETATM    6  N10 UNL     1     -38.307 -11.855  14.214  1.00  0.00    -0.177 N 
HETATM    7  C9  UNL     1     -39.064 -12.557  13.339  1.00  0.00     0.677 A 
ATOM      8  H10 UNL     1     -37.307 -12.040  14.294  1.00  0.00     0.185 HD
HETATM    9  N8  UNL     1     -40.373 -12.336  13.216  1.00  0.00    -0.193 N 
ATOM     10  H8  UNL     1     -40.909 -12.886  12.546  1.00  0.00     0.184 HD
BRANCH   5  11
HETATM   11  N1  UNL     1     -38.194 -10.224  15.820  1.00  0.00    -0.385 N 
ATOM     12  H12 UNL     1     -38.612  -9.880  16.684  1.00  0.00     0.157 HD
ATOM     13  H11 UNL     1     -37.213 -10.017  15.628  1.00  0.00     0.157 HD
ENDBRANCH   5  11
BRANCH   7  14
HETATM   14  N9  UNL     1     -38.492 -13.450  12.624  1.00  0.00    -0.234 N 
ATOM     15  H92 UNL     1     -38.983 -13.793  11.797  1.00  0.00     0.174 HD
ATOM     16  H91 UNL     1     -37.570 -13.802  12.881  1.00  0.00     0.174 HD
ENDBRANCH   7  14
ENDBRANCH   2   3
ENDBRANCH   1   2
BRANCH   1  17
HETATM   17  N2  UNL     1     -43.859 -12.589  12.725  1.00  0.00    -0.111 NA
BRANCH  17  18
HETATM   18  N3  UNL     1     -43.167 -13.803  12.919  1.00  0.00    -0.341 NA
ATOM     19  H32 UNL     1     -43.173 -14.415  12.103  1.00  0.00     0.173 HD
ATOM     20  H31 UNL     1     -43.549 -14.264  13.745  1.00  0.00     0.173 HD
ENDBRANCH  17  18
BRANCH  17  21
HETATM   21  C5  UNL     1     -44.810 -12.307  13.736  1.00  0.00     0.146 C 
BRANCH  21  22
HETATM   22  C6  UNL     1     -46.096 -13.041  13.660  1.00  0.00     0.026 C 
BRANCH  22  23
HETATM   23  C7  UNL     1     -46.771 -13.422  14.928  1.00  0.00     0.080 C 
BRANCH  23  24
HETATM   24  C8  UNL     1     -47.360 -14.810  14.809  1.00  0.00     0.113 A 
HETATM   25  N4  UNL     1     -46.756 -15.890  14.300  1.00  0.00    -0.272 N 
HETATM   26  N5  UNL     1     -47.571 -16.928  14.359  1.00  0.00    -0.227 N 
ATOM     27  H4  UNL     1     -45.808 -15.909  13.924  1.00  0.00     0.190 HD
HETATM   28  N6  UNL     1     -48.687 -16.522  14.898  1.00  0.00    -0.227 N 
ATOM     29  H5  UNL     1     -47.365 -17.875  14.041  1.00  0.00     0.210 HD
HETATM   30  N7  UNL     1     -48.578 -15.230  15.181  1.00  0.00    -0.272 N 
ATOM     31  H6  UNL     1     -49.508 -17.101  15.074  1.00  0.00     0.210 HD
ATOM     32  H7  UNL     1     -49.301 -14.653  15.610  1.00  0.00     0.190 HD
ENDBRANCH  23  24
ENDBRANCH  22  23
ENDBRANCH  21  22
ENDBRANCH  17  21
ENDBRANCH   1  17
TORSDOF 10
ENDMDL
