MODEL 1
REMARK VINA RESULT: -6.997102443      0.000      0.000
REMARK  7 active torsions:
REMARK  status: ('A' for Active; 'I' for Inactive)
REMARK    1  A    between atoms: N1_1  and  C1_4 
REMARK    2  A    between atoms: C2_7  and  N3_8 
REMARK    3  A    between atoms: C5_11  and  N4_12 
REMARK    4  A    between atoms: N4_12  and  N5_13 
REMARK    5  A    between atoms: N4_12  and  N6_16 
REMARK    6  A    between atoms: N6_16  and  O1_18 
REMARK    7  A    between atoms: C6_24  and  N9_25 
ROOT
HETATM    1  C1  UNL     1     -34.743 -19.197  -4.079  1.00  0.00     0.705 A 
HETATM    2  N2  UNL     1     -35.920 -19.765  -3.781  1.00  0.00    -0.020 N 
ATOM      3  H2  UNL     1     -36.588 -19.234  -3.221  1.00  0.00     0.203 HD
HETATM    4  C2  UNL     1     -36.267 -21.014  -4.189  1.00  0.00     0.728 A 
HETATM    5  N8  UNL     1     -35.405 -21.719  -4.921  1.00  0.00    -0.020 N 
ATOM      6  H8  UNL     1     -35.637 -22.659  -5.243  1.00  0.00     0.203 HD
HETATM    7  C6  UNL     1     -34.222 -21.160  -5.225  1.00  0.00     0.705 A 
HETATM    8  N10 UNL     1     -33.880 -19.922  -4.819  1.00  0.00    -0.022 N 
ATOM      9  H10 UNL     1     -32.971 -19.533  -5.071  1.00  0.00     0.203 HD
ENDROOT
BRANCH   4  10
HETATM   10  N3  UNL     1     -37.524 -21.557  -3.826  1.00  0.00    -0.121 N 
HETATM   11  C3  UNL     1     -38.022 -22.864  -4.259  1.00  0.00     0.175 C 
HETATM   12  C4  UNL     1     -39.488 -22.470  -4.514  1.00  0.00     0.104 C 
HETATM   13  C5  UNL     1     -39.686 -21.523  -3.361  1.00  0.00     0.140 C 
HETATM   14  N7  UNL     1     -38.528 -21.043  -3.023  1.00  0.00    -0.270 N 
ATOM     15  H7  UNL     1     -38.376 -20.376  -2.266  1.00  0.00     0.189 HD
BRANCH  13  16
HETATM   16  N4  UNL     1     -40.935 -21.219  -2.755  1.00  0.00    -0.170 N 
BRANCH  16  17
HETATM   17  N5  UNL     1     -41.754 -22.220  -2.247  1.00  0.00    -0.321 N 
ATOM     18  H52 UNL     1     -41.451 -23.187  -2.361  1.00  0.00     0.179 HD
ATOM     19  H51 UNL     1     -42.631 -21.999  -1.775  1.00  0.00     0.179 HD
ENDBRANCH  16  17
BRANCH  16  20
HETATM   20  N6  UNL     1     -41.379 -19.900  -2.650  1.00  0.00    -0.188 N 
ATOM     21  H6  UNL     1     -42.338 -19.630  -2.870  1.00  0.00     0.218 HD
BRANCH  20  22
HETATM   22  O1  UNL     1     -40.511 -19.061  -2.264  1.00  0.00    -0.273 OA
ATOM     23  H1  UNL     1     -40.771 -18.149  -2.320  1.00  0.00     0.246 HD
ENDBRANCH  20  22
ENDBRANCH  16  20
ENDBRANCH  13  16
ENDBRANCH   4  10
BRANCH   1  24
HETATM   24  N1  UNL     1     -34.475 -18.009  -3.659  1.00  0.00    -0.234 N 
ATOM     25  H12 UNL     1     -34.880 -17.171  -4.077  1.00  0.00     0.174 HD
ATOM     26  H11 UNL     1     -33.834 -17.875  -2.878  1.00  0.00     0.174 HD
ENDBRANCH   1  24
BRANCH   7  27
HETATM   27  N9  UNL     1     -33.388 -21.858  -5.939  1.00  0.00    -0.234 N 
ATOM     28  H92 UNL     1     -33.682 -22.228  -6.843  1.00  0.00     0.174 HD
ATOM     29  H91 UNL     1     -32.453 -22.013  -5.562  1.00  0.00     0.174 HD
ENDBRANCH   7  27
TORSDOF 7
ENDMDL
MODEL 2
REMARK VINA RESULT: -6.978407292      0.102      1.943
REMARK  7 active torsions:
REMARK  status: ('A' for Active; 'I' for Inactive)
REMARK    1  A    between atoms: N1_1  and  C1_4 
REMARK    2  A    between atoms: C2_7  and  N3_8 
REMARK    3  A    between atoms: C5_11  and  N4_12 
REMARK    4  A    between atoms: N4_12  and  N5_13 
REMARK    5  A    between atoms: N4_12  and  N6_16 
REMARK    6  A    between atoms: N6_16  and  O1_18 
REMARK    7  A    between atoms: C6_24  and  N9_25 
ROOT
HETATM    1  C1  UNL     1     -34.116 -21.188  -5.272  1.00  0.00     0.705 A 
HETATM    2  N2  UNL     1     -35.318 -21.664  -4.916  1.00  0.00    -0.020 N 
ATOM      3  H2  UNL     1     -35.589 -22.592  -5.242  1.00  0.00     0.203 HD
HETATM    4  C2  UNL     1     -36.192 -20.970  -4.140  1.00  0.00     0.728 A 
HETATM    5  N8  UNL     1     -35.851 -19.757  -3.707  1.00  0.00    -0.020 N 
ATOM      6  H8  UNL     1     -36.486 -19.212  -3.123  1.00  0.00     0.203 HD
HETATM    7  C6  UNL     1     -34.649 -19.269  -4.058  1.00  0.00     0.705 A 
HETATM    8  N10 UNL     1     -33.785 -19.960  -4.827  1.00  0.00    -0.022 N 
ATOM      9  H10 UNL     1     -32.881 -19.554  -5.072  1.00  0.00     0.203 HD
ENDROOT
BRANCH   4  10
HETATM   10  N3  UNL     1     -37.452 -21.530  -3.814  1.00  0.00    -0.121 N 
HETATM   11  C3  UNL     1     -37.930 -22.832  -4.282  1.00  0.00     0.175 C 
HETATM   12  C4  UNL     1     -39.393 -22.443  -4.561  1.00  0.00     0.104 C 
HETATM   13  C5  UNL     1     -39.624 -21.521  -3.395  1.00  0.00     0.140 C 
HETATM   14  N7  UNL     1     -38.476 -21.039  -3.023  1.00  0.00    -0.270 N 
ATOM     15  H7  UNL     1     -38.346 -20.385  -2.251  1.00  0.00     0.189 HD
BRANCH  13  16
HETATM   16  N4  UNL     1     -40.887 -21.238  -2.810  1.00  0.00    -0.170 N 
BRANCH  16  17
HETATM   17  N5  UNL     1     -41.718 -22.256  -2.358  1.00  0.00    -0.321 N 
ATOM     18  H52 UNL     1     -42.217 -22.108  -1.481  1.00  0.00     0.179 HD
ATOM     19  H51 UNL     1     -41.827 -23.124  -2.882  1.00  0.00     0.179 HD
ENDBRANCH  16  17
BRANCH  16  20
HETATM   20  N6  UNL     1     -41.334 -19.923  -2.670  1.00  0.00    -0.188 N 
ATOM     21  H6  UNL     1     -42.307 -19.659  -2.828  1.00  0.00     0.218 HD
BRANCH  20  22
HETATM   22  O1  UNL     1     -40.450 -19.079  -2.333  1.00  0.00    -0.273 OA
ATOM     23  H1  UNL     1     -40.765 -18.335  -1.833  1.00  0.00     0.246 HD
ENDBRANCH  20  22
ENDBRANCH  16  20
ENDBRANCH  13  16
ENDBRANCH   4  10
BRANCH   1  24
HETATM   24  N1  UNL     1     -33.334 -21.897  -6.010  1.00  0.00    -0.234 N 
ATOM     25  H12 UNL     1     -33.646 -22.736  -6.499  1.00  0.00     0.174 HD
ATOM     26  H11 UNL     1     -32.357 -21.629  -6.125  1.00  0.00     0.174 HD
ENDBRANCH   1  24
BRANCH   7  27
HETATM   27  N9  UNL     1     -34.328 -18.084  -3.630  1.00  0.00    -0.234 N 
ATOM     28  H92 UNL     1     -35.059 -17.397  -3.444  1.00  0.00     0.174 HD
ATOM     29  H91 UNL     1     -33.338 -17.881  -3.492  1.00  0.00     0.174 HD
ENDBRANCH   7  27
TORSDOF 7
ENDMDL
MODEL 3
REMARK VINA RESULT: -6.892325315      2.325      6.050
REMARK  7 active torsions:
REMARK  status: ('A' for Active; 'I' for Inactive)
REMARK    1  A    between atoms: N1_1  and  C1_4 
REMARK    2  A    between atoms: C2_7  and  N3_8 
REMARK    3  A    between atoms: C5_11  and  N4_12 
REMARK    4  A    between atoms: N4_12  and  N5_13 
REMARK    5  A    between atoms: N4_12  and  N6_16 
REMARK    6  A    between atoms: N6_16  and  O1_18 
REMARK    7  A    between atoms: C6_24  and  N9_25 
ROOT
HETATM    1  C1  UNL     1     -41.272 -20.462  -2.301  1.00  0.00     0.705 A 
HETATM    2  N2  UNL     1     -40.027 -20.277  -2.765  1.00  0.00    -0.020 N 
ATOM      3  H2  UNL     1     -39.545 -19.410  -2.529  1.00  0.00     0.203 HD
HETATM    4  C2  UNL     1     -39.378 -21.190  -3.535  1.00  0.00     0.728 A 
HETATM    5  N8  UNL     1     -39.997 -22.328  -3.851  1.00  0.00    -0.020 N 
ATOM      6  H8  UNL     1     -39.535 -23.032  -4.426  1.00  0.00     0.203 HD
HETATM    7  C6  UNL     1     -41.244 -22.523  -3.393  1.00  0.00     0.705 A 
HETATM    8  N10 UNL     1     -41.886 -21.616  -2.630  1.00  0.00    -0.022 N 
ATOM      9  H10 UNL     1     -42.833 -21.803  -2.302  1.00  0.00     0.203 HD
ENDROOT
BRANCH   4  10
HETATM   10  N3  UNL     1     -38.068 -20.923  -4.002  1.00  0.00    -0.121 N 
HETATM   11  C3  UNL     1     -37.064 -21.947  -4.297  1.00  0.00     0.175 C 
HETATM   12  C4  UNL     1     -35.834 -21.226  -3.718  1.00  0.00     0.104 C 
HETATM   13  C5  UNL     1     -36.156 -19.819  -4.147  1.00  0.00     0.140 C 
HETATM   14  N7  UNL     1     -37.443 -19.721  -4.289  1.00  0.00    -0.270 N 
ATOM     15  H7  UNL     1     -37.930 -18.871  -4.574  1.00  0.00     0.189 HD
BRANCH  13  16
HETATM   16  N4  UNL     1     -35.202 -18.788  -4.358  1.00  0.00    -0.170 N 
BRANCH  16  17
HETATM   17  N5  UNL     1     -35.202 -17.634  -3.584  1.00  0.00    -0.321 N 
ATOM     18  H52 UNL     1     -35.143 -16.738  -4.067  1.00  0.00     0.179 HD
ATOM     19  H51 UNL     1     -35.257 -17.677  -2.567  1.00  0.00     0.179 HD
ENDBRANCH  16  17
BRANCH  16  20
HETATM   20  N6  UNL     1     -34.229 -18.905  -5.352  1.00  0.00    -0.188 N 
ATOM     21  H6  UNL     1     -33.232 -18.826  -5.149  1.00  0.00     0.218 HD
BRANCH  20  22
HETATM   22  O1  UNL     1     -34.667 -19.114  -6.522  1.00  0.00    -0.273 OA
ATOM     23  H1  UNL     1     -34.085 -18.859  -7.228  1.00  0.00     0.246 HD
ENDBRANCH  20  22
ENDBRANCH  16  20
ENDBRANCH  13  16
ENDBRANCH   4  10
BRANCH   1  24
HETATM   24  N1  UNL     1     -41.832 -19.555  -1.577  1.00  0.00    -0.234 N 
ATOM     25  H12 UNL     1     -42.385 -18.796  -1.972  1.00  0.00     0.174 HD
ATOM     26  H11 UNL     1     -41.729 -19.577  -0.563  1.00  0.00     0.174 HD
ENDBRANCH   1  24
BRANCH   7  27
HETATM   27  N9  UNL     1     -41.838 -23.637  -3.709  1.00  0.00    -0.234 N 
ATOM     28  H92 UNL     1     -42.060 -23.833  -4.685  1.00  0.00     0.174 HD
ATOM     29  H91 UNL     1     -42.064 -24.285  -2.955  1.00  0.00     0.174 HD
ENDBRANCH   7  27
TORSDOF 7
ENDMDL
MODEL 4
REMARK VINA RESULT: -6.830546654      1.913      5.888
REMARK  7 active torsions:
REMARK  status: ('A' for Active; 'I' for Inactive)
REMARK    1  A    between atoms: N1_1  and  C1_4 
REMARK    2  A    between atoms: C2_7  and  N3_8 
REMARK    3  A    between atoms: C5_11  and  N4_12 
REMARK    4  A    between atoms: N4_12  and  N5_13 
REMARK    5  A    between atoms: N4_12  and  N6_16 
REMARK    6  A    between atoms: N6_16  and  O1_18 
REMARK    7  A    between atoms: C6_24  and  N9_25 
ROOT
HETATM    1  C1  UNL     1     -41.109 -20.460  -2.367  1.00  0.00     0.705 A 
HETATM    2  N2  UNL     1     -39.888 -20.351  -2.909  1.00  0.00    -0.020 N 
ATOM      3  H2  UNL     1     -39.354 -19.498  -2.737  1.00  0.00     0.203 HD
HETATM    4  C2  UNL     1     -39.327 -21.322  -3.677  1.00  0.00     0.728 A 
HETATM    5  N8  UNL     1     -40.012 -22.440  -3.910  1.00  0.00    -0.020 N 
ATOM      6  H8  UNL     1     -39.617 -23.187  -4.482  1.00  0.00     0.203 HD
HETATM    7  C6  UNL     1     -41.238 -22.560  -3.372  1.00  0.00     0.705 A 
HETATM    8  N10 UNL     1     -41.792 -21.596  -2.611  1.00  0.00    -0.022 N 
ATOM      9  H10 UNL     1     -42.725 -21.725  -2.221  1.00  0.00     0.203 HD
ENDROOT
BRANCH   4  10
HETATM   10  N3  UNL     1     -38.036 -21.133  -4.230  1.00  0.00    -0.121 N 
HETATM   11  C3  UNL     1     -37.071 -22.206  -4.475  1.00  0.00     0.175 C 
HETATM   12  C4  UNL     1     -35.798 -21.467  -4.027  1.00  0.00     0.104 C 
HETATM   13  C5  UNL     1     -36.111 -20.099  -4.570  1.00  0.00     0.140 C 
HETATM   14  N7  UNL     1     -37.401 -19.981  -4.658  1.00  0.00    -0.270 N 
ATOM     15  H7  UNL     1     -37.883 -19.148  -4.999  1.00  0.00     0.189 HD
BRANCH  13  16
HETATM   16  N4  UNL     1     -35.146 -19.117  -4.923  1.00  0.00    -0.170 N 
BRANCH  16  17
HETATM   17  N5  UNL     1     -34.489 -19.157  -6.147  1.00  0.00    -0.321 N 
ATOM     18  H52 UNL     1     -34.744 -19.897  -6.800  1.00  0.00     0.179 HD
ATOM     19  H51 UNL     1     -33.774 -18.471  -6.388  1.00  0.00     0.179 HD
ENDBRANCH  16  17
BRANCH  16  20
HETATM   20  N6  UNL     1     -34.830 -18.077  -4.049  1.00  0.00    -0.188 N 
ATOM     21  H6  UNL     1     -33.867 -17.785  -3.876  1.00  0.00     0.218 HD
BRANCH  20  22
HETATM   22  O1  UNL     1     -35.817 -17.518  -3.484  1.00  0.00    -0.273 OA
ATOM     23  H1  UNL     1     -35.599 -16.833  -2.863  1.00  0.00     0.246 HD
ENDBRANCH  20  22
ENDBRANCH  16  20
ENDBRANCH  13  16
ENDBRANCH   4  10
BRANCH   1  24
HETATM   24  N1  UNL     1     -41.584 -19.501  -1.649  1.00  0.00    -0.234 N 
ATOM     25  H12 UNL     1     -41.603 -19.531  -0.629  1.00  0.00     0.174 HD
ATOM     26  H11 UNL     1     -41.964 -18.667  -2.096  1.00  0.00     0.174 HD
ENDBRANCH   1  24
BRANCH   7  27
HETATM   27  N9  UNL     1     -41.898 -23.656  -3.608  1.00  0.00    -0.234 N 
ATOM     28  H92 UNL     1     -42.110 -23.923  -4.569  1.00  0.00     0.174 HD
ATOM     29  H91 UNL     1     -42.184 -24.219  -2.807  1.00  0.00     0.174 HD
ENDBRANCH   7  27
TORSDOF 7
ENDMDL
MODEL 5
REMARK VINA RESULT: -6.812493873      2.332      6.357
REMARK  7 active torsions:
REMARK  status: ('A' for Active; 'I' for Inactive)
REMARK    1  A    between atoms: N1_1  and  C1_4 
REMARK    2  A    between atoms: C2_7  and  N3_8 
REMARK    3  A    between atoms: C5_11  and  N4_12 
REMARK    4  A    between atoms: N4_12  and  N5_13 
REMARK    5  A    between atoms: N4_12  and  N6_16 
REMARK    6  A    between atoms: N6_16  and  O1_18 
REMARK    7  A    between atoms: C6_24  and  N9_25 
ROOT
HETATM    1  C1  UNL     1     -41.253 -22.587  -3.394  1.00  0.00     0.705 A 
HETATM    2  N2  UNL     1     -40.017 -22.282  -3.814  1.00  0.00    -0.020 N 
ATOM      3  H2  UNL     1     -39.521 -22.959  -4.394  1.00  0.00     0.203 HD
HETATM    4  C2  UNL     1     -39.394 -21.115  -3.505  1.00  0.00     0.728 A 
HETATM    5  N8  UNL     1     -40.030 -20.222  -2.747  1.00  0.00    -0.020 N 
ATOM      6  H8  UNL     1     -39.589 -19.337  -2.499  1.00  0.00     0.203 HD
HETATM    7  C6  UNL     1     -41.269 -20.517  -2.320  1.00  0.00     0.705 A 
HETATM    8  N10 UNL     1     -41.885 -21.676  -2.629  1.00  0.00    -0.022 N 
ATOM      9  H10 UNL     1     -42.827 -21.862  -2.284  1.00  0.00     0.203 HD
ENDROOT
BRANCH   4  10
HETATM   10  N3  UNL     1     -38.080 -20.865  -3.972  1.00  0.00    -0.121 N 
HETATM   11  C3  UNL     1     -37.096 -21.903  -4.284  1.00  0.00     0.175 C 
HETATM   12  C4  UNL     1     -35.851 -21.211  -3.699  1.00  0.00     0.104 C 
HETATM   13  C5  UNL     1     -36.149 -19.794  -4.108  1.00  0.00     0.140 C 
HETATM   14  N7  UNL     1     -37.435 -19.671  -4.245  1.00  0.00    -0.270 N 
ATOM     15  H7  UNL     1     -37.908 -18.809  -4.518  1.00  0.00     0.189 HD
BRANCH  13  16
HETATM   16  N4  UNL     1     -35.178 -18.777  -4.309  1.00  0.00    -0.170 N 
BRANCH  16  17
HETATM   17  N5  UNL     1     -35.167 -17.624  -3.533  1.00  0.00    -0.321 N 
ATOM     18  H52 UNL     1     -36.055 -17.301  -3.150  1.00  0.00     0.179 HD
ATOM     19  H51 UNL     1     -34.303 -17.115  -3.352  1.00  0.00     0.179 HD
ENDBRANCH  16  17
BRANCH  16  20
HETATM   20  N6  UNL     1     -34.198 -18.906  -5.295  1.00  0.00    -0.188 N 
ATOM     21  H6  UNL     1     -33.203 -18.928  -5.073  1.00  0.00     0.218 HD
BRANCH  20  22
HETATM   22  O1  UNL     1     -34.628 -18.995  -6.484  1.00  0.00    -0.273 OA
ATOM     23  H1  UNL     1     -34.342 -19.762  -6.966  1.00  0.00     0.246 HD
ENDBRANCH  20  22
ENDBRANCH  16  20
ENDBRANCH  13  16
ENDBRANCH   4  10
BRANCH   1  24
HETATM   24  N1  UNL     1     -41.787 -23.713  -3.723  1.00  0.00    -0.234 N 
ATOM     25  H12 UNL     1     -41.802 -24.521  -3.100  1.00  0.00     0.174 HD
ATOM     26  H11 UNL     1     -42.218 -23.825  -4.640  1.00  0.00     0.174 HD
ENDBRANCH   1  24
BRANCH   7  27
HETATM   27  N9  UNL     1     -41.881 -19.638  -1.581  1.00  0.00    -0.234 N 
ATOM     28  H92 UNL     1     -41.354 -19.104  -0.889  1.00  0.00     0.174 HD
ATOM     29  H91 UNL     1     -42.883 -19.513  -1.723  1.00  0.00     0.174 HD
ENDBRANCH   7  27
TORSDOF 7
ENDMDL
