MODEL 1
REMARK VINA RESULT: -6.867669545      0.000      0.000
REMARK  9 active torsions:
REMARK  status: ('A' for Active; 'I' for Inactive)
REMARK    1  A    between atoms: N1_1  and  N2_4 
REMARK    2  A    between atoms: N2_4  and  C1_5 
REMARK    3  A    between atoms: C1_5  and  N3_6 
REMARK    4  A    between atoms: C1_5  and  O1_10 
REMARK    5  A    between atoms: O1_10  and  C2_11 
REMARK    6  A    between atoms: C2_11  and  C3_12 
REMARK    7  A    between atoms: C3_12  and  N4_13 
REMARK    8  A    between atoms: N4_13  and  N5_15 
REMARK       I    between atoms: C4_17  and  N7_19 
REMARK    9  A    between atoms: N7_19  and  C5_21 
ROOT
HETATM    1  N4  UNL     1     -39.503 -21.005  -3.080  1.00  0.00    -0.265 N 
ATOM      2  H4  UNL     1     -39.880 -20.062  -2.980  1.00  0.00     0.196 HD
ENDROOT
BRANCH   1   3
HETATM    3  C3  UNL     1     -40.264 -22.037  -3.152  1.00  0.00    -0.028 C 
BRANCH   3   4
HETATM    4  C2  UNL     1     -41.136 -22.981  -3.452  1.00  0.00     0.277 C 
BRANCH   4   5
HETATM    5  O1  UNL     1     -41.423 -23.184  -4.764  1.00  0.00    -0.333 OA
BRANCH   5   6
HETATM    6  C1  UNL     1     -42.622 -23.615  -5.317  1.00  0.00     0.435 C 
BRANCH   6   7
HETATM    7  N2  UNL     1     -43.284 -22.584  -6.116  1.00  0.00    -0.087 NA
BRANCH   7   8
HETATM    8  N1  UNL     1     -44.320 -21.972  -5.438  1.00  0.00    -0.344 N 
ATOM      9  H12 UNL     1     -44.220 -21.073  -4.967  1.00  0.00     0.172 HD
ATOM     10  H11 UNL     1     -45.181 -22.519  -5.464  1.00  0.00     0.172 HD
ENDBRANCH   7   8
ENDBRANCH   6   7
BRANCH   6  11
HETATM   11  N3  UNL     1     -43.509 -23.991  -4.222  1.00  0.00    -0.037 N 
ATOM     12  H33 UNL     1     -44.101 -23.220  -3.915  1.00  0.00     0.279 HD
ATOM     13  H32 UNL     1     -44.250 -24.627  -4.518  1.00  0.00     0.279 HD
ATOM     14  H31 UNL     1     -42.943 -24.376  -3.465  1.00  0.00     0.279 HD
ENDBRANCH   6  11
ENDBRANCH   5   6
ENDBRANCH   4   5
ENDBRANCH   3   4
ENDBRANCH   1   3
BRANCH   1  15
HETATM   15  N5  UNL     1     -38.130 -21.251  -3.145  1.00  0.00    -0.267 N 
HETATM   16  C4  UNL     1     -37.639 -21.511  -4.307  1.00  0.00     0.209 C 
HETATM   17  N6  UNL     1     -38.456 -21.548  -5.475  1.00  0.00    -0.062 NA
HETATM   18  N7  UNL     1     -36.242 -21.778  -4.490  1.00  0.00    -0.314 N 
ATOM     19  H7  UNL     1     -35.879 -22.710  -4.288  1.00  0.00     0.170 HD
ATOM     20  H5  UNL     1     -37.543 -21.224  -2.311  1.00  0.00     0.190 HD
BRANCH  18  21
HETATM   21  C5  UNL     1     -35.439 -20.865  -4.904  1.00  0.00     0.137 A 
HETATM   22  C6  UNL     1     -35.652 -19.517  -4.738  1.00  0.00     0.154 A 
HETATM   23  N8  UNL     1     -34.596 -18.878  -5.302  1.00  0.00    -0.292 N 
HETATM   24  N9  UNL     1     -33.770 -19.783  -5.794  1.00  0.00    -0.021 NA
ATOM     25  H8  UNL     1     -34.464 -17.868  -5.340  1.00  0.00     0.183 HD
HETATM   26  N10 UNL     1     -34.272 -20.988  -5.559  1.00  0.00    -0.268 N 
ATOM     27  H10 UNL     1     -33.839 -21.871  -5.833  1.00  0.00     0.186 HD
ENDBRANCH  18  21
ENDBRANCH   1  15
TORSDOF 9
ENDMDL
MODEL 2
REMARK VINA RESULT: -6.848409426      3.256      4.398
REMARK  9 active torsions:
REMARK  status: ('A' for Active; 'I' for Inactive)
REMARK    1  A    between atoms: N1_1  and  N2_4 
REMARK    2  A    between atoms: N2_4  and  C1_5 
REMARK    3  A    between atoms: C1_5  and  N3_6 
REMARK    4  A    between atoms: C1_5  and  O1_10 
REMARK    5  A    between atoms: O1_10  and  C2_11 
REMARK    6  A    between atoms: C2_11  and  C3_12 
REMARK    7  A    between atoms: C3_12  and  N4_13 
REMARK    8  A    between atoms: N4_13  and  N5_15 
REMARK       I    between atoms: C4_17  and  N7_19 
REMARK    9  A    between atoms: N7_19  and  C5_21 
ROOT
HETATM    1  N4  UNL     1     -36.827 -17.473  -2.945  1.00  0.00    -0.265 N 
ATOM      2  H4  UNL     1     -36.868 -16.742  -2.234  1.00  0.00     0.196 HD
ENDROOT
BRANCH   1   3
HETATM    3  C3  UNL     1     -37.828 -18.239  -3.190  1.00  0.00    -0.028 C 
BRANCH   3   4
HETATM    4  C2  UNL     1     -38.667 -19.215  -3.480  1.00  0.00     0.277 C 
BRANCH   4   5
HETATM    5  O1  UNL     1     -38.156 -20.464  -3.634  1.00  0.00    -0.333 OA
BRANCH   5   6
HETATM    6  C1  UNL     1     -37.596 -21.021  -4.777  1.00  0.00     0.435 C 
BRANCH   6   7
HETATM    7  N2  UNL     1     -38.536 -21.861  -5.520  1.00  0.00    -0.087 NA
BRANCH   7   8
HETATM    8  N1  UNL     1     -38.978 -22.941  -4.781  1.00  0.00    -0.344 N 
ATOM      9  H12 UNL     1     -38.413 -23.776  -4.629  1.00  0.00     0.172 HD
ATOM     10  H11 UNL     1     -39.920 -22.804  -4.414  1.00  0.00     0.172 HD
ENDBRANCH   7   8
ENDBRANCH   6   7
BRANCH   6  11
HETATM   11  N3  UNL     1     -36.465 -21.844  -4.365  1.00  0.00    -0.037 N 
ATOM     12  H33 UNL     1     -36.610 -22.281  -3.454  1.00  0.00     0.279 HD
ATOM     13  H32 UNL     1     -36.381 -22.699  -4.917  1.00  0.00     0.279 HD
ATOM     14  H31 UNL     1     -35.621 -21.273  -4.396  1.00  0.00     0.279 HD
ENDBRANCH   6  11
ENDBRANCH   5   6
ENDBRANCH   4   5
ENDBRANCH   3   4
ENDBRANCH   1   3
BRANCH   1  15
HETATM   15  N5  UNL     1     -35.680 -17.700  -3.708  1.00  0.00    -0.267 N 
HETATM   16  C4  UNL     1     -34.813 -18.521  -3.226  1.00  0.00     0.209 C 
HETATM   17  N6  UNL     1     -35.010 -19.171  -1.972  1.00  0.00    -0.062 NA
HETATM   18  N7  UNL     1     -33.598 -18.829  -3.925  1.00  0.00    -0.314 N 
ATOM     19  H7  UNL     1     -32.809 -18.185  -3.864  1.00  0.00     0.170 HD
ATOM     20  H5  UNL     1     -35.536 -17.237  -4.605  1.00  0.00     0.190 HD
BRANCH  18  21
HETATM   21  C5  UNL     1     -33.487 -19.898  -4.627  1.00  0.00     0.137 A 
HETATM   22  C6  UNL     1     -33.743 -19.966  -5.977  1.00  0.00     0.154 A 
HETATM   23  N8  UNL     1     -33.517 -21.249  -6.356  1.00  0.00    -0.292 N 
HETATM   24  N9  UNL     1     -33.140 -21.943  -5.298  1.00  0.00    -0.021 NA
ATOM     25  H8  UNL     1     -33.621 -21.616  -7.302  1.00  0.00     0.183 HD
HETATM   26  N10 UNL     1     -33.120 -21.134  -4.246  1.00  0.00    -0.268 N 
ATOM     27  H10 UNL     1     -32.866 -21.407  -3.296  1.00  0.00     0.186 HD
ENDBRANCH  18  21
ENDBRANCH   1  15
TORSDOF 9
ENDMDL
MODEL 3
REMARK VINA RESULT: -6.742652700      2.400      2.833
REMARK  9 active torsions:
REMARK  status: ('A' for Active; 'I' for Inactive)
REMARK    1  A    between atoms: N1_1  and  N2_4 
REMARK    2  A    between atoms: N2_4  and  C1_5 
REMARK    3  A    between atoms: C1_5  and  N3_6 
REMARK    4  A    between atoms: C1_5  and  O1_10 
REMARK    5  A    between atoms: O1_10  and  C2_11 
REMARK    6  A    between atoms: C2_11  and  C3_12 
REMARK    7  A    between atoms: C3_12  and  N4_13 
REMARK    8  A    between atoms: N4_13  and  N5_15 
REMARK       I    between atoms: C4_17  and  N7_19 
REMARK    9  A    between atoms: N7_19  and  C5_21 
ROOT
HETATM    1  N4  UNL     1     -39.449 -20.708  -3.211  1.00  0.00    -0.265 N 
ATOM      2  H4  UNL     1     -39.743 -19.743  -3.362  1.00  0.00     0.196 HD
ENDROOT
BRANCH   1   3
HETATM    3  C3  UNL     1     -40.294 -21.654  -3.013  1.00  0.00    -0.028 C 
BRANCH   3   4
HETATM    4  C2  UNL     1     -41.301 -22.437  -2.675  1.00  0.00     0.277 C 
BRANCH   4   5
HETATM    5  O1  UNL     1     -41.838 -22.279  -1.438  1.00  0.00    -0.333 OA
BRANCH   5   6
HETATM    6  C1  UNL     1     -42.698 -21.277  -1.004  1.00  0.00     0.435 C 
BRANCH   6   7
HETATM    7  N2  UNL     1     -42.027 -20.267  -0.187  1.00  0.00    -0.087 NA
BRANCH   7   8
HETATM    8  N1  UNL     1     -41.666 -19.150  -0.915  1.00  0.00    -0.344 N 
ATOM      9  H12 UNL     1     -42.071 -18.228  -0.753  1.00  0.00     0.172 HD
ATOM     10  H11 UNL     1     -40.959 -19.356  -1.621  1.00  0.00     0.172 HD
ENDBRANCH   7   8
ENDBRANCH   6   7
BRANCH   6  11
HETATM   11  N3  UNL     1     -43.743 -21.902  -0.202  1.00  0.00    -0.037 N 
ATOM     12  H33 UNL     1     -44.435 -21.231   0.131  1.00  0.00     0.279 HD
ATOM     13  H32 UNL     1     -44.369 -22.484  -0.758  1.00  0.00     0.279 HD
ATOM     14  H31 UNL     1     -43.301 -22.419   0.559  1.00  0.00     0.279 HD
ENDBRANCH   6  11
ENDBRANCH   5   6
ENDBRANCH   4   5
ENDBRANCH   3   4
ENDBRANCH   1   3
BRANCH   1  15
HETATM   15  N5  UNL     1     -38.103 -21.079  -3.209  1.00  0.00    -0.267 N 
HETATM   16  C4  UNL     1     -37.610 -21.492  -4.325  1.00  0.00     0.209 C 
HETATM   17  N6  UNL     1     -38.398 -21.569  -5.510  1.00  0.00    -0.062 NA
HETATM   18  N7  UNL     1     -36.238 -21.898  -4.437  1.00  0.00    -0.314 N 
ATOM     19  H7  UNL     1     -35.967 -22.834  -4.136  1.00  0.00     0.170 HD
ATOM     20  H5  UNL     1     -37.536 -21.024  -2.362  1.00  0.00     0.190 HD
BRANCH  18  21
HETATM   21  C5  UNL     1     -35.346 -21.104  -4.908  1.00  0.00     0.137 A 
HETATM   22  C6  UNL     1     -35.460 -19.733  -4.917  1.00  0.00     0.154 A 
HETATM   23  N8  UNL     1     -34.330 -19.247  -5.489  1.00  0.00    -0.292 N 
HETATM   24  N9  UNL     1     -33.554 -20.263  -5.819  1.00  0.00    -0.021 NA
ATOM     25  H8  UNL     1     -34.117 -18.261  -5.639  1.00  0.00     0.183 HD
HETATM   26  N10 UNL     1     -34.160 -21.391  -5.472  1.00  0.00    -0.268 N 
ATOM     27  H10 UNL     1     -33.786 -22.330  -5.612  1.00  0.00     0.186 HD
ENDBRANCH  18  21
ENDBRANCH   1  15
TORSDOF 9
ENDMDL
MODEL 4
REMARK VINA RESULT: -6.707792366      2.578      3.176
REMARK  9 active torsions:
REMARK  status: ('A' for Active; 'I' for Inactive)
REMARK    1  A    between atoms: N1_1  and  N2_4 
REMARK    2  A    between atoms: N2_4  and  C1_5 
REMARK    3  A    between atoms: C1_5  and  N3_6 
REMARK    4  A    between atoms: C1_5  and  O1_10 
REMARK    5  A    between atoms: O1_10  and  C2_11 
REMARK    6  A    between atoms: C2_11  and  C3_12 
REMARK    7  A    between atoms: C3_12  and  N4_13 
REMARK    8  A    between atoms: N4_13  and  N5_15 
REMARK       I    between atoms: C4_17  and  N7_19 
REMARK    9  A    between atoms: N7_19  and  C5_21 
ROOT
HETATM    1  N4  UNL     1     -40.988 -19.523  -1.959  1.00  0.00    -0.265 N 
ATOM      2  H4  UNL     1     -40.735 -18.660  -1.477  1.00  0.00     0.196 HD
ENDROOT
BRANCH   1   3
HETATM    3  C3  UNL     1     -42.085 -20.143  -1.713  1.00  0.00    -0.028 C 
BRANCH   3   4
HETATM    4  C2  UNL     1     -43.319 -20.604  -1.634  1.00  0.00     0.277 C 
BRANCH   4   5
HETATM    5  O1  UNL     1     -43.857 -21.167  -2.747  1.00  0.00    -0.333 OA
BRANCH   5   6
HETATM    6  C1  UNL     1     -44.130 -20.556  -3.964  1.00  0.00     0.435 C 
BRANCH   6   7
HETATM    7  N2  UNL     1     -45.265 -19.636  -3.896  1.00  0.00    -0.087 NA
BRANCH   7   8
HETATM    8  N1  UNL     1     -45.191 -18.634  -4.844  1.00  0.00    -0.344 N 
ATOM      9  H12 UNL     1     -44.905 -17.680  -4.620  1.00  0.00     0.172 HD
ATOM     10  H11 UNL     1     -45.452 -18.956  -5.776  1.00  0.00     0.172 HD
ENDBRANCH   7   8
ENDBRANCH   6   7
BRANCH   6  11
HETATM   11  N3  UNL     1     -44.441 -21.604  -4.929  1.00  0.00    -0.037 N 
ATOM     12  H33 UNL     1     -44.390 -22.538  -4.524  1.00  0.00     0.279 HD
ATOM     13  H32 UNL     1     -45.429 -21.618  -5.187  1.00  0.00     0.279 HD
ATOM     14  H31 UNL     1     -43.827 -21.492  -5.736  1.00  0.00     0.279 HD
ENDBRANCH   6  11
ENDBRANCH   5   6
ENDBRANCH   4   5
ENDBRANCH   3   4
ENDBRANCH   1   3
BRANCH   1  15
HETATM   15  N5  UNL     1     -40.163 -20.099  -2.927  1.00  0.00    -0.267 N 
HETATM   16  C4  UNL     1     -39.208 -19.368  -3.389  1.00  0.00     0.209 C 
HETATM   17  N6  UNL     1     -39.000 -18.032  -2.937  1.00  0.00    -0.062 NA
HETATM   18  N7  UNL     1     -38.300 -19.858  -4.385  1.00  0.00    -0.314 N 
ATOM     19  H7  UNL     1     -38.583 -19.855  -5.365  1.00  0.00     0.170 HD
ATOM     20  H5  UNL     1     -40.308 -21.055  -3.252  1.00  0.00     0.190 HD
BRANCH  18  21
HETATM   21  C5  UNL     1     -37.138 -20.301  -4.066  1.00  0.00     0.137 A 
HETATM   22  C6  UNL     1     -36.552 -21.409  -4.632  1.00  0.00     0.154 A 
HETATM   23  N8  UNL     1     -35.340 -21.558  -4.042  1.00  0.00    -0.292 N 
HETATM   24  N9  UNL     1     -35.180 -20.593  -3.155  1.00  0.00    -0.021 NA
ATOM     25  H8  UNL     1     -34.664 -22.294  -4.249  1.00  0.00     0.183 HD
HETATM   26  N10 UNL     1     -36.263 -19.828  -3.162  1.00  0.00    -0.268 N 
ATOM     27  H10 UNL     1     -36.410 -19.007  -2.572  1.00  0.00     0.186 HD
ENDBRANCH  18  21
ENDBRANCH   1  15
TORSDOF 9
ENDMDL
MODEL 5
REMARK VINA RESULT: -6.696381453      1.357      1.664
REMARK  9 active torsions:
REMARK  status: ('A' for Active; 'I' for Inactive)
REMARK    1  A    between atoms: N1_1  and  N2_4 
REMARK    2  A    between atoms: N2_4  and  C1_5 
REMARK    3  A    between atoms: C1_5  and  N3_6 
REMARK    4  A    between atoms: C1_5  and  O1_10 
REMARK    5  A    between atoms: O1_10  and  C2_11 
REMARK    6  A    between atoms: C2_11  and  C3_12 
REMARK    7  A    between atoms: C3_12  and  N4_13 
REMARK    8  A    between atoms: N4_13  and  N5_15 
REMARK       I    between atoms: C4_17  and  N7_19 
REMARK    9  A    between atoms: N7_19  and  C5_21 
ROOT
HETATM    1  N4  UNL     1     -39.760 -21.481  -2.633  1.00  0.00    -0.265 N 
ATOM      2  H4  UNL     1     -39.972 -20.857  -1.854  1.00  0.00     0.196 HD
ENDROOT
BRANCH   1   3
HETATM    3  C3  UNL     1     -40.584 -22.384  -3.025  1.00  0.00    -0.028 C 
BRANCH   3   4
HETATM    4  C2  UNL     1     -41.545 -23.109  -3.567  1.00  0.00     0.277 C 
BRANCH   4   5
HETATM    5  O1  UNL     1     -41.625 -23.144  -4.922  1.00  0.00    -0.333 OA
BRANCH   5   6
HETATM    6  C1  UNL     1     -42.656 -23.652  -5.702  1.00  0.00     0.435 C 
BRANCH   6   7
HETATM    7  N2  UNL     1     -43.546 -22.612  -6.217  1.00  0.00    -0.087 NA
BRANCH   7   8
HETATM    8  N1  UNL     1     -44.791 -22.636  -5.621  1.00  0.00    -0.344 N 
ATOM      9  H12 UNL     1     -44.986 -23.160  -4.767  1.00  0.00     0.172 HD
ATOM     10  H11 UNL     1     -45.479 -22.079  -6.128  1.00  0.00     0.172 HD
ENDBRANCH   7   8
ENDBRANCH   6   7
BRANCH   6  11
HETATM   11  N3  UNL     1     -43.439 -24.559  -4.870  1.00  0.00    -0.037 N 
ATOM     12  H33 UNL     1     -43.519 -25.492  -5.276  1.00  0.00     0.279 HD
ATOM     13  H32 UNL     1     -42.953 -24.822  -4.012  1.00  0.00     0.279 HD
ATOM     14  H31 UNL     1     -44.347 -24.131  -4.691  1.00  0.00     0.279 HD
ENDBRANCH   6  11
ENDBRANCH   5   6
ENDBRANCH   4   5
ENDBRANCH   3   4
ENDBRANCH   1   3
BRANCH   1  15
HETATM   15  N5  UNL     1     -38.556 -21.404  -3.336  1.00  0.00    -0.267 N 
HETATM   16  C4  UNL     1     -38.314 -20.304  -3.959  1.00  0.00     0.209 C 
HETATM   17  N6  UNL     1     -39.230 -19.211  -3.936  1.00  0.00    -0.062 NA
HETATM   18  N7  UNL     1     -37.108 -20.115  -4.712  1.00  0.00    -0.314 N 
ATOM     19  H7  UNL     1     -37.042 -20.496  -5.656  1.00  0.00     0.170 HD
ATOM     20  H5  UNL     1     -37.898 -22.184  -3.354  1.00  0.00     0.190 HD
BRANCH  18  21
HETATM   21  C5  UNL     1     -36.109 -19.476  -4.219  1.00  0.00     0.137 A 
HETATM   22  C6  UNL     1     -34.959 -19.186  -4.916  1.00  0.00     0.154 A 
HETATM   23  N8  UNL     1     -34.146 -18.508  -4.068  1.00  0.00    -0.292 N 
HETATM   24  N9  UNL     1     -34.758 -18.382  -2.905  1.00  0.00    -0.021 NA
ATOM     25  H8  UNL     1     -33.216 -18.153  -4.292  1.00  0.00     0.183 HD
HETATM   26  N10 UNL     1     -35.947 -18.966  -2.987  1.00  0.00    -0.268 N 
ATOM     27  H10 UNL     1     -36.631 -19.019  -2.231  1.00  0.00     0.186 HD
ENDBRANCH  18  21
ENDBRANCH   1  15
TORSDOF 9
ENDMDL
