MODEL 1
REMARK VINA RESULT: -7.098224296      0.000      0.000
REMARK  6 active torsions:
REMARK  status: ('A' for Active; 'I' for Inactive)
REMARK    1  A    between atoms: N1_1  and  C1_4 
REMARK    2  A    between atoms: C3_13  and  N5_14 
REMARK    3  A    between atoms: N5_14  and  N6_16 
REMARK    4  A    between atoms: C4_18  and  C5_19 
REMARK    5  A    between atoms: C5_19  and  N7_20 
REMARK    6  A    between atoms: C5_19  and  C6_24 
ROOT
HETATM    1  C1  UNL     1     -35.309 -19.658  -4.822  1.00  0.00     0.160 A 
HETATM    2  N2  UNL     1     -34.668 -18.544  -4.406  1.00  0.00    -0.279 N 
ATOM      3  H2  UNL     1     -33.714 -18.371  -4.725  1.00  0.00     0.189 HD
HETATM    4  N3  UNL     1     -35.247 -17.667  -3.594  1.00  0.00    -0.250 N 
ATOM      5  H3  UNL     1     -34.748 -16.831  -3.290  1.00  0.00     0.192 HD
HETATM    6  C2  UNL     1     -36.505 -17.905  -3.178  1.00  0.00     0.340 A 
HETATM    7  O1  UNL     1     -37.051 -17.062  -2.400  1.00  0.00    -0.245 OA
HETATM    8  N4  UNL     1     -37.161 -19.009  -3.580  1.00  0.00    -0.289 N 
ATOM      9  H4  UNL     1     -38.114 -19.163  -3.249  1.00  0.00     0.172 HD
HETATM   10  C3  UNL     1     -36.598 -19.927  -4.411  1.00  0.00     0.170 A 
ENDROOT
BRANCH  10  11
HETATM   11  N5  UNL     1     -37.312 -21.084  -4.820  1.00  0.00    -0.283 N 
ATOM     12  H5  UNL     1     -36.887 -21.769  -5.445  1.00  0.00     0.188 HD
BRANCH  11  13
HETATM   13  N6  UNL     1     -38.613 -21.256  -4.344  1.00  0.00    -0.312 N 
HETATM   14  C4  UNL     1     -38.834 -22.205  -3.500  1.00  0.00     0.122 C 
ATOM     15  H6  UNL     1     -39.369 -20.648  -4.657  1.00  0.00     0.185 HD
BRANCH  14  16
HETATM   16  C5  UNL     1     -40.205 -22.418  -2.973  1.00  0.00     0.311 C 
BRANCH  16  17
HETATM   17  N7  UNL     1     -40.780 -21.123  -2.690  1.00  0.00    -0.062 N 
ATOM     18  H73 UNL     1     -40.491 -20.753  -1.784  1.00  0.00     0.275 HD
ATOM     19  H72 UNL     1     -40.388 -20.381  -3.270  1.00  0.00     0.275 HD
ATOM     20  H71 UNL     1     -41.793 -21.202  -2.780  1.00  0.00     0.275 HD
ENDBRANCH  16  17
BRANCH  16  21
HETATM   21  C6  UNL     1     -40.981 -23.108  -4.042  1.00  0.00     0.266 C 
HETATM   22  N8  UNL     1     -42.048 -23.972  -3.670  1.00  0.00    -0.060 NA
HETATM   23  O2  UNL     1     -40.704 -22.933  -5.261  1.00  0.00    -0.274 OA
ENDBRANCH  16  21
ENDBRANCH  14  16
ENDBRANCH  11  13
ENDBRANCH  10  11
BRANCH   1  24
HETATM   24  N1  UNL     1     -34.751 -20.518  -5.615  1.00  0.00    -0.381 N 
ATOM     25  H12 UNL     1     -33.820 -20.290  -5.965  1.00  0.00     0.157 HD
ATOM     26  H11 UNL     1     -35.214 -21.386  -5.885  1.00  0.00     0.157 HD
ENDBRANCH   1  24
TORSDOF 6
ENDMDL
MODEL 2
REMARK VINA RESULT: -6.913107198      2.143      5.383
REMARK  6 active torsions:
REMARK  status: ('A' for Active; 'I' for Inactive)
REMARK    1  A    between atoms: N1_1  and  C1_4 
REMARK    2  A    between atoms: C3_13  and  N5_14 
REMARK    3  A    between atoms: N5_14  and  N6_16 
REMARK    4  A    between atoms: C4_18  and  C5_19 
REMARK    5  A    between atoms: C5_19  and  N7_20 
REMARK    6  A    between atoms: C5_19  and  C6_24 
ROOT
HETATM    1  C1  UNL     1     -39.922 -21.596  -3.250  1.00  0.00     0.160 A 
HETATM    2  N2  UNL     1     -40.773 -20.680  -2.739  1.00  0.00    -0.279 N 
ATOM      3  H2  UNL     1     -41.693 -20.982  -2.416  1.00  0.00     0.189 HD
HETATM    4  N3  UNL     1     -40.445 -19.397  -2.647  1.00  0.00    -0.250 N 
ATOM      5  H3  UNL     1     -41.101 -18.719  -2.259  1.00  0.00     0.192 HD
HETATM    6  C2  UNL     1     -39.230 -19.009  -3.076  1.00  0.00     0.340 A 
HETATM    7  O1  UNL     1     -38.924 -17.779  -2.985  1.00  0.00    -0.245 OA
HETATM    8  N4  UNL     1     -38.366 -19.905  -3.589  1.00  0.00    -0.289 N 
ATOM      9  H4  UNL     1     -37.453 -19.582  -3.906  1.00  0.00     0.172 HD
HETATM   10  C3  UNL     1     -38.670 -21.226  -3.698  1.00  0.00     0.170 A 
ENDROOT
BRANCH  10  11
HETATM   11  N5  UNL     1     -37.741 -22.152  -4.242  1.00  0.00    -0.283 N 
ATOM     12  H5  UNL     1     -37.922 -23.155  -4.212  1.00  0.00     0.188 HD
BRANCH  11  13
HETATM   13  N6  UNL     1     -36.573 -21.650  -4.818  1.00  0.00    -0.312 N 
HETATM   14  C4  UNL     1     -35.559 -21.434  -4.053  1.00  0.00     0.122 C 
ATOM     15  H6  UNL     1     -36.524 -21.458  -5.818  1.00  0.00     0.185 HD
BRANCH  14  16
HETATM   16  C5  UNL     1     -34.301 -20.899  -4.632  1.00  0.00     0.311 C 
BRANCH  16  17
HETATM   17  N7  UNL     1     -33.843 -21.829  -5.639  1.00  0.00    -0.062 N 
ATOM     18  H73 UNL     1     -34.003 -22.802  -5.380  1.00  0.00     0.275 HD
ATOM     19  H72 UNL     1     -34.420 -21.816  -6.480  1.00  0.00     0.275 HD
ATOM     20  H71 UNL     1     -32.862 -21.627  -5.831  1.00  0.00     0.275 HD
ENDBRANCH  16  17
BRANCH  16  21
HETATM   21  C6  UNL     1     -34.629 -19.583  -5.251  1.00  0.00     0.266 C 
HETATM   22  N8  UNL     1     -35.620 -18.765  -4.643  1.00  0.00    -0.060 NA
HETATM   23  O2  UNL     1     -34.041 -19.193  -6.297  1.00  0.00    -0.274 OA
ENDBRANCH  16  21
ENDBRANCH  14  16
ENDBRANCH  11  13
ENDBRANCH  10  11
BRANCH   1  24
HETATM   24  N1  UNL     1     -40.235 -22.850  -3.343  1.00  0.00    -0.381 N 
ATOM     25  H12 UNL     1     -41.003 -23.092  -3.968  1.00  0.00     0.157 HD
ATOM     26  H11 UNL     1     -39.742 -23.572  -2.817  1.00  0.00     0.157 HD
ENDBRANCH   1  24
TORSDOF 6
ENDMDL
MODEL 3
REMARK VINA RESULT: -6.909304455      2.084      2.772
REMARK  6 active torsions:
REMARK  status: ('A' for Active; 'I' for Inactive)
REMARK    1  A    between atoms: N1_1  and  C1_4 
REMARK    2  A    between atoms: C3_13  and  N5_14 
REMARK    3  A    between atoms: N5_14  and  N6_16 
REMARK    4  A    between atoms: C4_18  and  C5_19 
REMARK    5  A    between atoms: C5_19  and  N7_20 
REMARK    6  A    between atoms: C5_19  and  C6_24 
ROOT
HETATM    1  C1  UNL     1     -35.466 -18.149  -3.581  1.00  0.00     0.160 A 
HETATM    2  N2  UNL     1     -34.126 -17.977  -3.560  1.00  0.00    -0.279 N 
ATOM      3  H2  UNL     1     -33.745 -17.078  -3.265  1.00  0.00     0.189 HD
HETATM    4  N3  UNL     1     -33.292 -18.949  -3.914  1.00  0.00    -0.250 N 
ATOM      5  H3  UNL     1     -32.284 -18.802  -3.892  1.00  0.00     0.192 HD
HETATM    6  C2  UNL     1     -33.806 -20.130  -4.303  1.00  0.00     0.340 A 
HETATM    7  O1  UNL     1     -33.001 -21.054  -4.641  1.00  0.00    -0.245 OA
HETATM    8  N4  UNL     1     -35.137 -20.322  -4.332  1.00  0.00    -0.289 N 
ATOM      9  H4  UNL     1     -35.498 -21.228  -4.630  1.00  0.00     0.172 HD
HETATM   10  C3  UNL     1     -36.019 -19.350  -3.976  1.00  0.00     0.170 A 
ENDROOT
BRANCH  10  11
HETATM   11  N5  UNL     1     -37.420 -19.577  -4.015  1.00  0.00    -0.283 N 
ATOM     12  H5  UNL     1     -38.079 -18.801  -3.951  1.00  0.00     0.188 HD
BRANCH  11  13
HETATM   13  N6  UNL     1     -37.869 -20.892  -4.142  1.00  0.00    -0.312 N 
HETATM   14  C4  UNL     1     -38.906 -21.252  -3.467  1.00  0.00     0.122 C 
ATOM     15  H6  UNL     1     -37.389 -21.552  -4.754  1.00  0.00     0.185 HD
BRANCH  14  16
HETATM   16  C5  UNL     1     -39.411 -22.644  -3.577  1.00  0.00     0.311 C 
BRANCH  16  17
HETATM   17  N7  UNL     1     -40.855 -22.592  -3.617  1.00  0.00    -0.062 N 
ATOM     18  H73 UNL     1     -41.206 -21.858  -4.231  1.00  0.00     0.275 HD
ATOM     19  H72 UNL     1     -41.265 -23.387  -4.107  1.00  0.00     0.275 HD
ATOM     20  H71 UNL     1     -41.192 -22.501  -2.659  1.00  0.00     0.275 HD
ENDBRANCH  16  17
BRANCH  16  21
HETATM   21  C6  UNL     1     -38.876 -23.203  -4.851  1.00  0.00     0.266 C 
HETATM   22  N8  UNL     1     -37.846 -24.181  -4.795  1.00  0.00    -0.060 NA
HETATM   23  O2  UNL     1     -39.325 -22.820  -5.967  1.00  0.00    -0.274 OA
ENDBRANCH  16  21
ENDBRANCH  14  16
ENDBRANCH  11  13
ENDBRANCH  10  11
BRANCH   1  24
HETATM   24  N1  UNL     1     -36.286 -17.206  -3.237  1.00  0.00    -0.381 N 
ATOM     25  H12 UNL     1     -35.915 -16.256  -3.209  1.00  0.00     0.157 HD
ATOM     26  H11 UNL     1     -37.260 -17.395  -3.002  1.00  0.00     0.157 HD
ENDBRANCH   1  24
TORSDOF 6
ENDMDL
MODEL 4
REMARK VINA RESULT: -6.896673591      2.201      2.919
REMARK  6 active torsions:
REMARK  status: ('A' for Active; 'I' for Inactive)
REMARK    1  A    between atoms: N1_1  and  C1_4 
REMARK    2  A    between atoms: C3_13  and  N5_14 
REMARK    3  A    between atoms: N5_14  and  N6_16 
REMARK    4  A    between atoms: C4_18  and  C5_19 
REMARK    5  A    between atoms: C5_19  and  N7_20 
REMARK    6  A    between atoms: C5_19  and  C6_24 
ROOT
HETATM    1  C1  UNL     1     -35.317 -18.262  -3.653  1.00  0.00     0.160 A 
HETATM    2  N2  UNL     1     -33.986 -18.057  -3.555  1.00  0.00    -0.279 N 
ATOM      3  H2  UNL     1     -33.645 -17.186  -3.147  1.00  0.00     0.189 HD
HETATM    4  N3  UNL     1     -33.107 -18.960  -3.977  1.00  0.00    -0.250 N 
ATOM      5  H3  UNL     1     -32.106 -18.788  -3.895  1.00  0.00     0.192 HD
HETATM    6  C2  UNL     1     -33.567 -20.105  -4.514  1.00  0.00     0.340 A 
HETATM    7  O1  UNL     1     -32.720 -20.963  -4.915  1.00  0.00    -0.245 OA
HETATM    8  N4  UNL     1     -34.889 -20.329  -4.621  1.00  0.00    -0.289 N 
ATOM      9  H4  UNL     1     -35.208 -21.206  -5.033  1.00  0.00     0.172 HD
HETATM   10  C3  UNL     1     -35.815 -19.427  -4.200  1.00  0.00     0.170 A 
ENDROOT
BRANCH  10  11
HETATM   11  N5  UNL     1     -37.206 -19.687  -4.324  1.00  0.00    -0.283 N 
ATOM     12  H5  UNL     1     -37.864 -18.935  -4.527  1.00  0.00     0.188 HD
BRANCH  11  13
HETATM   13  N6  UNL     1     -37.645 -21.001  -4.160  1.00  0.00    -0.312 N 
HETATM   14  C4  UNL     1     -38.453 -21.489  -5.037  1.00  0.00     0.122 C 
ATOM     15  H6  UNL     1     -37.335 -21.561  -3.365  1.00  0.00     0.185 HD
BRANCH  14  16
HETATM   16  C5  UNL     1     -38.942 -22.884  -4.893  1.00  0.00     0.311 C 
BRANCH  16  17
HETATM   17  N7  UNL     1     -37.794 -23.741  -4.700  1.00  0.00    -0.062 N 
ATOM     18  H73 UNL     1     -37.801 -24.554  -5.316  1.00  0.00     0.275 HD
ATOM     19  H72 UNL     1     -36.927 -23.322  -5.038  1.00  0.00     0.275 HD
ATOM     20  H71 UNL     1     -37.753 -23.992  -3.713  1.00  0.00     0.275 HD
ENDBRANCH  16  17
BRANCH  16  21
HETATM   21  C6  UNL     1     -39.822 -22.916  -3.691  1.00  0.00     0.266 C 
HETATM   22  N8  UNL     1     -41.140 -23.435  -3.817  1.00  0.00    -0.060 NA
HETATM   23  O2  UNL     1     -39.412 -22.493  -2.575  1.00  0.00    -0.274 OA
ENDBRANCH  16  21
ENDBRANCH  14  16
ENDBRANCH  11  13
ENDBRANCH  10  11
BRANCH   1  24
HETATM   24  N1  UNL     1     -36.180 -17.386  -3.244  1.00  0.00    -0.381 N 
ATOM     25  H12 UNL     1     -36.046 -16.422  -3.552  1.00  0.00     0.157 HD
ATOM     26  H11 UNL     1     -36.963 -17.637  -2.639  1.00  0.00     0.157 HD
ENDBRANCH   1  24
TORSDOF 6
ENDMDL
MODEL 5
REMARK VINA RESULT: -6.825952055      1.638      2.292
REMARK  6 active torsions:
REMARK  status: ('A' for Active; 'I' for Inactive)
REMARK    1  A    between atoms: N1_1  and  C1_4 
REMARK    2  A    between atoms: C3_13  and  N5_14 
REMARK    3  A    between atoms: N5_14  and  N6_16 
REMARK    4  A    between atoms: C4_18  and  C5_19 
REMARK    5  A    between atoms: C5_19  and  N7_20 
REMARK    6  A    between atoms: C5_19  and  C6_24 
ROOT
HETATM    1  C1  UNL     1     -34.688 -18.725  -3.720  1.00  0.00     0.160 A 
HETATM    2  N2  UNL     1     -35.044 -17.435  -3.533  1.00  0.00    -0.279 N 
ATOM      3  H2  UNL     1     -34.337 -16.706  -3.629  1.00  0.00     0.189 HD
HETATM    4  N3  UNL     1     -36.289 -17.092  -3.226  1.00  0.00    -0.250 N 
ATOM      5  H3  UNL     1     -36.540 -16.113  -3.089  1.00  0.00     0.192 HD
HETATM    6  C2  UNL     1     -37.214 -18.061  -3.101  1.00  0.00     0.340 A 
HETATM    7  O1  UNL     1     -38.403 -17.724  -2.807  1.00  0.00    -0.245 OA
HETATM    8  N4  UNL     1     -36.882 -19.352  -3.283  1.00  0.00    -0.289 N 
ATOM      9  H4  UNL     1     -37.604 -20.066  -3.182  1.00  0.00     0.172 HD
HETATM   10  C3  UNL     1     -35.616 -19.739  -3.597  1.00  0.00     0.170 A 
ENDROOT
BRANCH  10  11
HETATM   11  N5  UNL     1     -35.291 -21.109  -3.784  1.00  0.00    -0.283 N 
ATOM     12  H5  UNL     1     -34.319 -21.418  -3.808  1.00  0.00     0.188 HD
BRANCH  11  13
HETATM   13  N6  UNL     1     -36.338 -22.018  -3.935  1.00  0.00    -0.312 N 
HETATM   14  C4  UNL     1     -37.255 -21.756  -4.802  1.00  0.00     0.122 C 
ATOM     15  H6  UNL     1     -36.377 -22.869  -3.374  1.00  0.00     0.185 HD
BRANCH  14  16
HETATM   16  C5  UNL     1     -38.385 -22.701  -4.989  1.00  0.00     0.311 C 
BRANCH  16  17
HETATM   17  N7  UNL     1     -37.862 -24.045  -4.893  1.00  0.00    -0.062 N 
ATOM     18  H73 UNL     1     -37.149 -24.242  -5.596  1.00  0.00     0.275 HD
ATOM     19  H72 UNL     1     -37.280 -24.184  -4.067  1.00  0.00     0.275 HD
ATOM     20  H71 UNL     1     -38.649 -24.692  -4.936  1.00  0.00     0.275 HD
ENDBRANCH  16  17
BRANCH  16  21
HETATM   21  C6  UNL     1     -39.357 -22.443  -3.889  1.00  0.00     0.266 C 
HETATM   22  N8  UNL     1     -39.423 -21.141  -3.320  1.00  0.00    -0.060 NA
HETATM   23  O2  UNL     1     -40.114 -23.359  -3.463  1.00  0.00    -0.274 OA
ENDBRANCH  16  21
ENDBRANCH  14  16
ENDBRANCH  11  13
ENDBRANCH  10  11
BRANCH   1  24
HETATM   24  N1  UNL     1     -33.475 -19.068  -4.019  1.00  0.00    -0.381 N 
ATOM     25  H12 UNL     1     -33.355 -19.924  -4.562  1.00  0.00     0.157 HD
ATOM     26  H11 UNL     1     -32.668 -18.516  -3.729  1.00  0.00     0.157 HD
ENDBRANCH   1  24
TORSDOF 6
ENDMDL
