MODEL 1
REMARK VINA RESULT: -7.742557982      0.000      0.000
REMARK  5 active torsions:
REMARK  status: ('A' for Active; 'I' for Inactive)
REMARK    1  A    between atoms: C2_2  and  C3_3 
REMARK    2  A    between atoms: C2_2  and  N3_10 
REMARK       I    between atoms: C3_3  and  N1_5 
REMARK    3  A    between atoms: N1_5  and  N2_7 
REMARK    4  A    between atoms: C4_15  and  N6_16 
REMARK       I    between atoms: N6_16  and  C5_18 
REMARK       I    between atoms: C5_18  and  N7_20 
REMARK    5  A    between atoms: N7_20  and  N8_22 
ROOT
HETATM    1  N3  UNL     1     -36.250 -19.484  -4.148  1.00  0.00    -0.247 N 
HETATM    2  N4  UNL     1     -36.799 -20.537  -4.764  1.00  0.00    -0.237 N 
ATOM      3  H4  UNL     1     -36.298 -21.178  -5.377  1.00  0.00     0.208 HD
HETATM    4  N5  UNL     1     -38.079 -20.629  -4.466  1.00  0.00    -0.268 N 
ATOM      5  H5  UNL     1     -38.714 -21.347  -4.814  1.00  0.00     0.190 HD
HETATM    6  C4  UNL     1     -38.417 -19.634  -3.638  1.00  0.00     0.168 A 
HETATM    7  C6  UNL     1     -37.251 -18.922  -3.448  1.00  0.00     0.180 A 
HETATM    8  N9  UNL     1     -37.151 -17.780  -2.637  1.00  0.00    -0.077 NA
ENDROOT
BRANCH   1   9
HETATM    9  C2  UNL     1     -34.859 -19.061  -4.236  1.00  0.00     0.200 C 
HETATM   10  C1  UNL     1     -34.252 -18.747  -2.888  1.00  0.00     0.044 C 
BRANCH   9  11
HETATM   11  C3  UNL     1     -34.024 -20.030  -5.001  1.00  0.00     0.260 C 
HETATM   12  O1  UNL     1     -33.795 -19.865  -6.231  1.00  0.00    -0.269 OA
HETATM   13  N1  UNL     1     -33.452 -21.176  -4.388  1.00  0.00    -0.275 N 
ATOM     14  H1  UNL     1     -33.612 -21.346  -3.395  1.00  0.00     0.189 HD
BRANCH  13  15
HETATM   15  N2  UNL     1     -32.682 -22.065  -5.110  1.00  0.00    -0.343 N 
ATOM     16  H22 UNL     1     -31.894 -21.699  -5.647  1.00  0.00     0.176 HD
ATOM     17  H21 UNL     1     -32.887 -23.064  -5.111  1.00  0.00     0.176 HD
ENDBRANCH  13  15
ENDBRANCH   9  11
ENDBRANCH   1   9
BRANCH   6  18
HETATM   18  N6  UNL     1     -39.671 -19.307  -3.038  1.00  0.00    -0.289 N 
HETATM   19  C5  UNL     1     -40.709 -20.247  -2.888  1.00  0.00     0.340 C 
HETATM   20  O2  UNL     1     -40.545 -21.414  -3.287  1.00  0.00    -0.245 OA
HETATM   21  N7  UNL     1     -41.922 -19.872  -2.291  1.00  0.00    -0.258 N 
ATOM     22  H7  UNL     1     -42.050 -18.915  -1.966  1.00  0.00     0.191 HD
ATOM     23  H6  UNL     1     -39.821 -18.354  -2.706  1.00  0.00     0.172 HD
BRANCH  21  24
HETATM   24  N8  UNL     1     -42.959 -20.799  -2.138  1.00  0.00    -0.341 N 
ATOM     25  H82 UNL     1     -42.894 -21.691  -2.627  1.00  0.00     0.177 HD
ATOM     26  H81 UNL     1     -43.763 -20.587  -1.548  1.00  0.00     0.177 HD
ENDBRANCH  21  24
ENDBRANCH   6  18
TORSDOF 5
ENDMDL
MODEL 2
REMARK VINA RESULT: -7.651726184      1.049      1.084
REMARK  5 active torsions:
REMARK  status: ('A' for Active; 'I' for Inactive)
REMARK    1  A    between atoms: C2_2  and  C3_3 
REMARK    2  A    between atoms: C2_2  and  N3_10 
REMARK       I    between atoms: C3_3  and  N1_5 
REMARK    3  A    between atoms: N1_5  and  N2_7 
REMARK    4  A    between atoms: C4_15  and  N6_16 
REMARK       I    between atoms: N6_16  and  C5_18 
REMARK       I    between atoms: C5_18  and  N7_20 
REMARK    5  A    between atoms: N7_20  and  N8_22 
ROOT
HETATM    1  N3  UNL     1     -37.127 -19.629  -3.738  1.00  0.00    -0.247 N 
HETATM    2  N4  UNL     1     -37.519 -20.884  -3.984  1.00  0.00    -0.237 N 
ATOM      3  H4  UNL     1     -36.912 -21.626  -4.330  1.00  0.00     0.208 HD
HETATM    4  N5  UNL     1     -38.801 -21.026  -3.718  1.00  0.00    -0.268 N 
ATOM      5  H5  UNL     1     -39.332 -21.890  -3.827  1.00  0.00     0.190 HD
HETATM    6  C4  UNL     1     -39.298 -19.863  -3.283  1.00  0.00     0.168 A 
HETATM    7  C6  UNL     1     -38.227 -18.993  -3.301  1.00  0.00     0.180 A 
HETATM    8  N9  UNL     1     -38.304 -17.645  -2.918  1.00  0.00    -0.077 NA
ENDROOT
BRANCH   1   9
HETATM    9  C2  UNL     1     -35.783 -19.094  -3.914  1.00  0.00     0.200 C 
HETATM   10  C1  UNL     1     -35.002 -19.027  -2.623  1.00  0.00     0.044 C 
BRANCH   9  11
HETATM   11  C3  UNL     1     -35.026 -19.815  -4.976  1.00  0.00     0.260 C 
HETATM   12  O1  UNL     1     -34.866 -19.309  -6.122  1.00  0.00    -0.269 OA
HETATM   13  N1  UNL     1     -34.453 -21.095  -4.753  1.00  0.00    -0.275 N 
ATOM     14  H1  UNL     1     -34.558 -21.538  -3.841  1.00  0.00     0.189 HD
BRANCH  13  15
HETATM   15  N2  UNL     1     -33.755 -21.750  -5.747  1.00  0.00    -0.343 N 
ATOM     16  H22 UNL     1     -34.175 -21.809  -6.676  1.00  0.00     0.176 HD
ATOM     17  H21 UNL     1     -32.842 -22.168  -5.566  1.00  0.00     0.176 HD
ENDBRANCH  13  15
ENDBRANCH   9  11
ENDBRANCH   1   9
BRANCH   6  18
HETATM   18  N6  UNL     1     -40.619 -19.510  -2.871  1.00  0.00    -0.289 N 
HETATM   19  C5  UNL     1     -41.488 -20.424  -2.244  1.00  0.00     0.340 C 
HETATM   20  O2  UNL     1     -41.107 -21.589  -2.032  1.00  0.00    -0.245 OA
HETATM   21  N7  UNL     1     -42.777 -20.026  -1.859  1.00  0.00    -0.258 N 
ATOM     22  H7  UNL     1     -43.083 -19.069  -2.036  1.00  0.00     0.191 HD
ATOM     23  H6  UNL     1     -40.947 -18.559  -3.038  1.00  0.00     0.172 HD
BRANCH  21  24
HETATM   24  N8  UNL     1     -43.647 -20.926  -1.236  1.00  0.00    -0.341 N 
ATOM     25  H82 UNL     1     -43.453 -21.924  -1.310  1.00  0.00     0.177 HD
ATOM     26  H81 UNL     1     -44.460 -20.591  -0.718  1.00  0.00     0.177 HD
ENDBRANCH  21  24
ENDBRANCH   6  18
TORSDOF 5
ENDMDL
MODEL 3
REMARK VINA RESULT: -7.440424750      2.230      7.192
REMARK  5 active torsions:
REMARK  status: ('A' for Active; 'I' for Inactive)
REMARK    1  A    between atoms: C2_2  and  C3_3 
REMARK    2  A    between atoms: C2_2  and  N3_10 
REMARK       I    between atoms: C3_3  and  N1_5 
REMARK    3  A    between atoms: N1_5  and  N2_7 
REMARK    4  A    between atoms: C4_15  and  N6_16 
REMARK       I    between atoms: N6_16  and  C5_18 
REMARK       I    between atoms: C5_18  and  N7_20 
REMARK    5  A    between atoms: N7_20  and  N8_22 
ROOT
HETATM    1  N3  UNL     1     -40.529 -21.295  -2.950  1.00  0.00    -0.247 N 
HETATM    2  N4  UNL     1     -40.082 -20.041  -2.828  1.00  0.00    -0.237 N 
ATOM      3  H4  UNL     1     -40.593 -19.282  -2.378  1.00  0.00     0.208 HD
HETATM    4  N5  UNL     1     -38.888 -19.923  -3.370  1.00  0.00    -0.268 N 
ATOM      5  H5  UNL     1     -38.339 -19.064  -3.405  1.00  0.00     0.190 HD
HETATM    6  C4  UNL     1     -38.505 -21.103  -3.870  1.00  0.00     0.168 A 
HETATM    7  C6  UNL     1     -39.553 -21.958  -3.594  1.00  0.00     0.180 A 
HETATM    8  N9  UNL     1     -39.573 -23.317  -3.949  1.00  0.00    -0.077 NA
ENDROOT
BRANCH   1   9
HETATM    9  C2  UNL     1     -41.807 -21.807  -2.473  1.00  0.00     0.200 C 
HETATM   10  C1  UNL     1     -42.019 -21.578  -0.995  1.00  0.00     0.044 C 
BRANCH   9  11
HETATM   11  C3  UNL     1     -42.952 -21.294  -3.278  1.00  0.00     0.260 C 
HETATM   12  O1  UNL     1     -43.327 -21.883  -4.329  1.00  0.00    -0.269 OA
HETATM   13  N1  UNL     1     -43.671 -20.128  -2.903  1.00  0.00    -0.275 N 
ATOM     14  H1  UNL     1     -43.400 -19.623  -2.059  1.00  0.00     0.189 HD
BRANCH  13  15
HETATM   15  N2  UNL     1     -44.729 -19.665  -3.659  1.00  0.00    -0.343 N 
ATOM     16  H22 UNL     1     -44.618 -19.622  -4.672  1.00  0.00     0.176 HD
ATOM     17  H21 UNL     1     -45.603 -19.372  -3.222  1.00  0.00     0.176 HD
ENDBRANCH  13  15
ENDBRANCH   9  11
ENDBRANCH   1   9
BRANCH   6  18
HETATM   18  N6  UNL     1     -37.307 -21.485  -4.547  1.00  0.00    -0.289 N 
HETATM   19  C5  UNL     1     -36.025 -21.225  -4.025  1.00  0.00     0.340 C 
HETATM   20  O2  UNL     1     -35.912 -20.640  -2.932  1.00  0.00    -0.245 OA
HETATM   21  N7  UNL     1     -34.880 -21.621  -4.731  1.00  0.00    -0.258 N 
ATOM     22  H7  UNL     1     -34.980 -22.100  -5.626  1.00  0.00     0.191 HD
ATOM     23  H6  UNL     1     -37.383 -21.966  -5.443  1.00  0.00     0.172 HD
BRANCH  21  24
HETATM   24  N8  UNL     1     -33.602 -21.367  -4.222  1.00  0.00    -0.341 N 
ATOM     25  H82 UNL     1     -33.425 -21.549  -3.235  1.00  0.00     0.177 HD
ATOM     26  H81 UNL     1     -32.863 -21.008  -4.825  1.00  0.00     0.177 HD
ENDBRANCH  21  24
ENDBRANCH   6  18
TORSDOF 5
ENDMDL
MODEL 4
REMARK VINA RESULT: -7.406843121      2.536      6.942
REMARK  5 active torsions:
REMARK  status: ('A' for Active; 'I' for Inactive)
REMARK    1  A    between atoms: C2_2  and  C3_3 
REMARK    2  A    between atoms: C2_2  and  N3_10 
REMARK       I    between atoms: C3_3  and  N1_5 
REMARK    3  A    between atoms: N1_5  and  N2_7 
REMARK    4  A    between atoms: C4_15  and  N6_16 
REMARK       I    between atoms: N6_16  and  C5_18 
REMARK       I    between atoms: C5_18  and  N7_20 
REMARK    5  A    between atoms: N7_20  and  N8_22 
ROOT
HETATM    1  N3  UNL     1     -40.255 -21.514  -2.969  1.00  0.00    -0.247 N 
HETATM    2  N4  UNL     1     -39.967 -20.216  -2.834  1.00  0.00    -0.237 N 
ATOM      3  H4  UNL     1     -40.545 -19.540  -2.336  1.00  0.00     0.208 HD
HETATM    4  N5  UNL     1     -38.831 -19.932  -3.436  1.00  0.00    -0.268 N 
ATOM      5  H5  UNL     1     -38.400 -19.008  -3.474  1.00  0.00     0.190 HD
HETATM    6  C4  UNL     1     -38.329 -21.041  -3.989  1.00  0.00     0.168 A 
HETATM    7  C6  UNL     1     -39.241 -22.030  -3.684  1.00  0.00     0.180 A 
HETATM    8  N9  UNL     1     -39.106 -23.372  -4.077  1.00  0.00    -0.077 NA
ENDROOT
BRANCH   1   9
HETATM    9  C2  UNL     1     -41.429 -22.198  -2.440  1.00  0.00     0.200 C 
HETATM   10  C1  UNL     1     -42.137 -21.407  -1.366  1.00  0.00     0.044 C 
BRANCH   9  11
HETATM   11  C3  UNL     1     -42.366 -22.621  -3.519  1.00  0.00     0.260 C 
HETATM   12  O1  UNL     1     -43.142 -21.793  -4.071  1.00  0.00    -0.269 OA
HETATM   13  N1  UNL     1     -42.430 -23.965  -3.974  1.00  0.00    -0.275 N 
ATOM     14  H1  UNL     1     -41.818 -24.665  -3.554  1.00  0.00     0.189 HD
BRANCH  13  15
HETATM   15  N2  UNL     1     -43.303 -24.341  -4.974  1.00  0.00    -0.343 N 
ATOM     16  H22 UNL     1     -44.149 -24.849  -4.712  1.00  0.00     0.176 HD
ATOM     17  H21 UNL     1     -43.116 -24.121  -5.951  1.00  0.00     0.176 HD
ENDBRANCH  13  15
ENDBRANCH   9  11
ENDBRANCH   1   9
BRANCH   6  18
HETATM   18  N6  UNL     1     -37.132 -21.249  -4.740  1.00  0.00    -0.289 N 
HETATM   19  C5  UNL     1     -35.853 -21.229  -4.150  1.00  0.00     0.340 C 
HETATM   20  O2  UNL     1     -35.742 -21.024  -2.928  1.00  0.00    -0.245 OA
HETATM   21  N7  UNL     1     -34.709 -21.439  -4.934  1.00  0.00    -0.258 N 
ATOM     22  H7  UNL     1     -34.807 -21.607  -5.935  1.00  0.00     0.191 HD
ATOM     23  H6  UNL     1     -37.206 -21.419  -5.743  1.00  0.00     0.172 HD
BRANCH  21  24
HETATM   24  N8  UNL     1     -33.435 -21.421  -4.357  1.00  0.00    -0.341 N 
ATOM     25  H82 UNL     1     -33.179 -20.634  -3.762  1.00  0.00     0.177 HD
ATOM     26  H81 UNL     1     -32.775 -22.179  -4.528  1.00  0.00     0.177 HD
ENDBRANCH  21  24
ENDBRANCH   6  18
TORSDOF 5
ENDMDL
MODEL 5
REMARK VINA RESULT: -7.331231793      2.544      6.908
REMARK  5 active torsions:
REMARK  status: ('A' for Active; 'I' for Inactive)
REMARK    1  A    between atoms: C2_2  and  C3_3 
REMARK    2  A    between atoms: C2_2  and  N3_10 
REMARK       I    between atoms: C3_3  and  N1_5 
REMARK    3  A    between atoms: N1_5  and  N2_7 
REMARK    4  A    between atoms: C4_15  and  N6_16 
REMARK       I    between atoms: N6_16  and  C5_18 
REMARK       I    between atoms: C5_18  and  N7_20 
REMARK    5  A    between atoms: N7_20  and  N8_22 
ROOT
HETATM    1  N3  UNL     1     -40.298 -21.488  -2.927  1.00  0.00    -0.247 N 
HETATM    2  N4  UNL     1     -40.062 -20.179  -2.793  1.00  0.00    -0.237 N 
ATOM      3  H4  UNL     1     -40.677 -19.523  -2.311  1.00  0.00     0.208 HD
HETATM    4  N5  UNL     1     -38.924 -19.854  -3.370  1.00  0.00    -0.268 N 
ATOM      5  H5  UNL     1     -38.528 -18.915  -3.404  1.00  0.00     0.190 HD
HETATM    6  C4  UNL     1     -38.368 -20.946  -3.906  1.00  0.00     0.168 A 
HETATM    7  C6  UNL     1     -39.249 -21.968  -3.616  1.00  0.00     0.180 A 
HETATM    8  N9  UNL     1     -39.054 -23.305  -3.999  1.00  0.00    -0.077 NA
ENDROOT
BRANCH   1   9
HETATM    9  C2  UNL     1     -41.456 -22.213  -2.421  1.00  0.00     0.200 C 
HETATM   10  C1  UNL     1     -42.191 -21.465  -1.334  1.00  0.00     0.044 C 
BRANCH   9  11
HETATM   11  C3  UNL     1     -42.376 -22.636  -3.515  1.00  0.00     0.260 C 
HETATM   12  O1  UNL     1     -43.164 -21.814  -4.059  1.00  0.00    -0.269 OA
HETATM   13  N1  UNL     1     -42.409 -23.973  -3.994  1.00  0.00    -0.275 N 
ATOM     14  H1  UNL     1     -41.786 -24.667  -3.581  1.00  0.00     0.189 HD
BRANCH  13  15
HETATM   15  N2  UNL     1     -43.266 -24.349  -5.007  1.00  0.00    -0.343 N 
ATOM     16  H22 UNL     1     -42.872 -24.798  -5.834  1.00  0.00     0.176 HD
ATOM     17  H21 UNL     1     -44.271 -24.187  -4.938  1.00  0.00     0.176 HD
ENDBRANCH  13  15
ENDBRANCH   9  11
ENDBRANCH   1   9
BRANCH   6  18
HETATM   18  N6  UNL     1     -37.147 -21.112  -4.629  1.00  0.00    -0.289 N 
HETATM   19  C5  UNL     1     -36.235 -20.057  -4.828  1.00  0.00     0.340 C 
HETATM   20  O2  UNL     1     -36.485 -18.931  -4.364  1.00  0.00    -0.245 OA
HETATM   21  N7  UNL     1     -35.050 -20.274  -5.547  1.00  0.00    -0.258 N 
ATOM     22  H7  UNL     1     -34.851 -21.200  -5.925  1.00  0.00     0.191 HD
ATOM     23  H6  UNL     1     -36.928 -22.029  -5.016  1.00  0.00     0.172 HD
BRANCH  21  24
HETATM   24  N8  UNL     1     -34.137 -19.234  -5.751  1.00  0.00    -0.341 N 
ATOM     25  H82 UNL     1     -33.784 -18.728  -4.939  1.00  0.00     0.177 HD
ATOM     26  H81 UNL     1     -33.831 -18.986  -6.691  1.00  0.00     0.177 HD
ENDBRANCH  21  24
ENDBRANCH   6  18
TORSDOF 5
ENDMDL
