MODEL 1
REMARK VINA RESULT: -8.330398813      0.000      0.000
REMARK  2 active torsions:
REMARK  status: ('A' for Active; 'I' for Inactive)
REMARK    1  A    between atoms: N1_1  and  N2_4 
REMARK    2  A    between atoms: N3_6  and  C1_8 
ROOT
HETATM    1  C1  UNL     1     -17.505  -1.241  -5.341  1.00  0.00     0.060 A 
HETATM    2  C2  UNL     1     -17.223   0.113  -5.274  1.00  0.00     0.032 A 
HETATM    3  C3  UNL     1     -16.873   0.663  -4.059  1.00  0.00     0.003 A 
HETATM    4  C4  UNL     1     -16.806  -0.129  -2.935  1.00  0.00     0.012 A 
HETATM    5  C5  UNL     1     -17.084  -1.488  -2.977  1.00  0.00    -0.024 A 
HETATM    6  C6  UNL     1     -17.023  -2.288  -1.874  1.00  0.00     0.012 A 
HETATM    7  C7  UNL     1     -17.311  -3.629  -1.984  1.00  0.00     0.001 A 
HETATM    8  C8  UNL     1     -17.665  -4.218  -3.179  1.00  0.00     0.001 A 
HETATM    9  C9  UNL     1     -17.721  -3.384  -4.290  1.00  0.00     0.014 A 
HETATM   10  C10 UNL     1     -17.434  -2.032  -4.197  1.00  0.00     0.002 A 
ENDROOT
BRANCH   1  11
HETATM   11  N3  UNL     1     -17.874  -1.870  -6.570  1.00  0.00    -0.286 N 
HETATM   12  N2  UNL     1     -19.082  -1.839  -6.956  1.00  0.00    -0.249 N 
ATOM     13  H2  UNL     1     -19.351  -2.286  -7.833  1.00  0.00     0.207 HD
ATOM     14  H3  UNL     1     -17.168  -2.342  -7.135  1.00  0.00     0.188 HD
BRANCH  12  15
HETATM   15  N1  UNL     1     -20.054  -1.181  -6.165  1.00  0.00    -0.331 N 
ATOM     16  H12 UNL     1     -20.820  -0.690  -6.625  1.00  0.00     0.178 HD
ATOM     17  H11 UNL     1     -19.978  -1.206  -5.149  1.00  0.00     0.178 HD
ENDBRANCH  12  15
ENDBRANCH   1  11
TORSDOF 2
ENDMDL
MODEL 2
REMARK VINA RESULT: -8.301231817      2.640      3.792
REMARK  2 active torsions:
REMARK  status: ('A' for Active; 'I' for Inactive)
REMARK    1  A    between atoms: N1_1  and  N2_4 
REMARK    2  A    between atoms: N3_6  and  C1_8 
ROOT
HETATM    1  C1  UNL     1     -17.375   0.423  -2.417  1.00  0.00     0.060 A 
HETATM    2  C2  UNL     1     -17.226  -0.032  -1.118  1.00  0.00     0.032 A 
HETATM    3  C3  UNL     1     -16.991  -1.373  -0.902  1.00  0.00     0.003 A 
HETATM    4  C4  UNL     1     -16.907  -2.240  -1.968  1.00  0.00     0.012 A 
HETATM    5  C5  UNL     1     -17.053  -1.809  -3.279  1.00  0.00    -0.024 A 
HETATM    6  C6  UNL     1     -16.973  -2.653  -4.348  1.00  0.00     0.012 A 
HETATM    7  C7  UNL     1     -17.127  -2.160  -5.623  1.00  0.00     0.001 A 
HETATM    8  C8  UNL     1     -17.363  -0.827  -5.882  1.00  0.00     0.001 A 
HETATM    9  C9  UNL     1     -17.441   0.016  -4.778  1.00  0.00     0.014 A 
HETATM   10  C10 UNL     1     -17.288  -0.463  -3.487  1.00  0.00     0.002 A 
ENDROOT
BRANCH   1  11
HETATM   11  N3  UNL     1     -17.622   1.801  -2.706  1.00  0.00    -0.286 N 
HETATM   12  N2  UNL     1     -18.812   2.237  -2.729  1.00  0.00    -0.249 N 
ATOM     13  H2  UNL     1     -18.994   3.220  -2.934  1.00  0.00     0.207 HD
ATOM     14  H3  UNL     1     -16.842   2.432  -2.892  1.00  0.00     0.188 HD
BRANCH  12  15
HETATM   15  N1  UNL     1     -19.887   1.355  -2.469  1.00  0.00    -0.331 N 
ATOM     16  H12 UNL     1     -20.838   1.722  -2.449  1.00  0.00     0.178 HD
ATOM     17  H11 UNL     1     -19.700   0.366  -2.306  1.00  0.00     0.178 HD
ENDBRANCH  12  15
ENDBRANCH   1  11
TORSDOF 2
ENDMDL
MODEL 3
REMARK VINA RESULT: -8.219200108      0.792      2.914
REMARK  2 active torsions:
REMARK  status: ('A' for Active; 'I' for Inactive)
REMARK    1  A    between atoms: N1_1  and  N2_4 
REMARK    2  A    between atoms: N3_6  and  C1_8 
ROOT
HETATM    1  C1  UNL     1     -17.534  -2.448  -4.747  1.00  0.00     0.060 A 
HETATM    2  C2  UNL     1     -17.773  -3.771  -4.412  1.00  0.00     0.032 A 
HETATM    3  C3  UNL     1     -17.645  -4.160  -3.095  1.00  0.00     0.003 A 
HETATM    4  C4  UNL     1     -17.286  -3.241  -2.135  1.00  0.00     0.012 A 
HETATM    5  C5  UNL     1     -17.042  -1.911  -2.446  1.00  0.00    -0.024 A 
HETATM    6  C6  UNL     1     -16.685  -0.987  -1.508  1.00  0.00     0.012 A 
HETATM    7  C7  UNL     1     -16.457   0.317  -1.884  1.00  0.00     0.001 A 
HETATM    8  C8  UNL     1     -16.574   0.747  -3.188  1.00  0.00     0.001 A 
HETATM    9  C9  UNL     1     -16.938  -0.212  -4.128  1.00  0.00     0.014 A 
HETATM   10  C10 UNL     1     -17.172  -1.529  -3.767  1.00  0.00     0.002 A 
ENDROOT
BRANCH   1  11
HETATM   11  N3  UNL     1     -17.649  -1.984  -6.093  1.00  0.00    -0.286 N 
HETATM   12  N2  UNL     1     -18.797  -1.789  -6.598  1.00  0.00    -0.249 N 
ATOM     13  H2  UNL     1     -18.885  -1.457  -7.558  1.00  0.00     0.207 HD
ATOM     14  H3  UNL     1     -16.811  -1.809  -6.648  1.00  0.00     0.188 HD
BRANCH  12  15
HETATM   15  N1  UNL     1     -19.954  -2.034  -5.821  1.00  0.00    -0.331 N 
ATOM     16  H12 UNL     1     -20.636  -1.287  -5.695  1.00  0.00     0.178 HD
ATOM     17  H11 UNL     1     -20.093  -2.952  -5.399  1.00  0.00     0.178 HD
ENDBRANCH  12  15
ENDBRANCH   1  11
TORSDOF 2
ENDMDL
MODEL 4
REMARK VINA RESULT: -8.066322111      2.440      3.114
REMARK  2 active torsions:
REMARK  status: ('A' for Active; 'I' for Inactive)
REMARK    1  A    between atoms: N1_1  and  N2_4 
REMARK    2  A    between atoms: N3_6  and  C1_8 
ROOT
HETATM    1  C1  UNL     1     -16.923   0.030  -3.863  1.00  0.00     0.060 A 
HETATM    2  C2  UNL     1     -17.144   0.247  -5.213  1.00  0.00     0.032 A 
HETATM    3  C3  UNL     1     -17.502  -0.819  -6.011  1.00  0.00     0.003 A 
HETATM    4  C4  UNL     1     -17.636  -2.076  -5.466  1.00  0.00     0.012 A 
HETATM    5  C5  UNL     1     -17.419  -2.318  -4.116  1.00  0.00    -0.024 A 
HETATM    6  C6  UNL     1     -17.546  -3.557  -3.559  1.00  0.00     0.012 A 
HETATM    7  C7  UNL     1     -17.318  -3.729  -2.213  1.00  0.00     0.001 A 
HETATM    8  C8  UNL     1     -16.958  -2.690  -1.381  1.00  0.00     0.001 A 
HETATM    9  C9  UNL     1     -16.834  -1.437  -1.970  1.00  0.00     0.014 A 
HETATM   10  C10 UNL     1     -17.061  -1.245  -3.323  1.00  0.00     0.002 A 
ENDROOT
BRANCH   1  11
HETATM   11  N3  UNL     1     -16.549   1.094  -2.984  1.00  0.00    -0.286 N 
HETATM   12  N2  UNL     1     -17.440   1.860  -2.507  1.00  0.00    -0.249 N 
ATOM     13  H2  UNL     1     -17.179   2.620  -1.879  1.00  0.00     0.207 HD
ATOM     14  H3  UNL     1     -15.569   1.236  -2.742  1.00  0.00     0.188 HD
BRANCH  12  15
HETATM   15  N1  UNL     1     -18.798   1.655  -2.849  1.00  0.00    -0.331 N 
ATOM     16  H12 UNL     1     -19.317   0.903  -2.396  1.00  0.00     0.178 HD
ATOM     17  H11 UNL     1     -19.240   2.258  -3.542  1.00  0.00     0.178 HD
ENDBRANCH  12  15
ENDBRANCH   1  11
TORSDOF 2
ENDMDL
MODEL 5
REMARK VINA RESULT: -7.821214212      1.244      3.242
REMARK  2 active torsions:
REMARK  status: ('A' for Active; 'I' for Inactive)
REMARK    1  A    between atoms: N1_1  and  N2_4 
REMARK    2  A    between atoms: N3_6  and  C1_8 
ROOT
HETATM    1  C1  UNL     1     -19.423  -2.238  -4.106  1.00  0.00     0.060 A 
HETATM    2  C2  UNL     1     -19.211  -3.598  -3.954  1.00  0.00     0.032 A 
HETATM    3  C3  UNL     1     -18.093  -4.028  -3.270  1.00  0.00     0.003 A 
HETATM    4  C4  UNL     1     -17.207  -3.112  -2.751  1.00  0.00     0.012 A 
HETATM    5  C5  UNL     1     -17.397  -1.744  -2.890  1.00  0.00    -0.024 A 
HETATM    6  C6  UNL     1     -16.529  -0.822  -2.383  1.00  0.00     0.012 A 
HETATM    7  C7  UNL     1     -16.777   0.520  -2.557  1.00  0.00     0.001 A 
HETATM    8  C8  UNL     1     -17.882   0.991  -3.233  1.00  0.00     0.001 A 
HETATM    9  C9  UNL     1     -18.753   0.034  -3.742  1.00  0.00     0.014 A 
HETATM   10  C10 UNL     1     -18.520  -1.322  -3.576  1.00  0.00     0.002 A 
ENDROOT
BRANCH   1  11
HETATM   11  N3  UNL     1     -20.562  -1.731  -4.803  1.00  0.00    -0.286 N 
HETATM   12  N2  UNL     1     -20.525  -1.606  -6.065  1.00  0.00    -0.249 N 
ATOM     13  H2  UNL     1     -21.336  -1.245  -6.569  1.00  0.00     0.207 HD
ATOM     14  H3  UNL     1     -21.403  -1.469  -4.289  1.00  0.00     0.188 HD
BRANCH  12  15
HETATM   15  N1  UNL     1     -19.355  -1.971  -6.771  1.00  0.00    -0.331 N 
ATOM     16  H12 UNL     1     -19.316  -1.825  -7.780  1.00  0.00     0.178 HD
ATOM     17  H11 UNL     1     -18.566  -2.375  -6.266  1.00  0.00     0.178 HD
ENDBRANCH  12  15
ENDBRANCH   1  11
TORSDOF 2
ENDMDL
