MODEL 1
REMARK VINA RESULT: -7.402476528      0.000      0.000
REMARK  0 active torsions:
REMARK  status: ('A' for Active; 'I' for Inactive)
ROOT
HETATM    1  S1  UNL     1     -17.715  -0.989  -6.218  1.00  0.00    -0.059 SA
HETATM    2  C1  UNL     1     -17.285  -0.746  -4.667  1.00  0.00     0.111 A 
HETATM    3  N1  UNL     1     -16.912   0.511  -4.283  1.00  0.00    -0.356 N 
ATOM      4  H1  UNL     1     -16.912   1.263  -4.972  1.00  0.00     0.166 HD
HETATM    5  C2  UNL     1     -16.548   0.779  -3.024  1.00  0.00     0.090 A 
HETATM    6  C3  UNL     1     -16.555  -0.246  -2.115  1.00  0.00     0.029 A 
HETATM    7  C4  UNL     1     -16.918  -1.538  -2.429  1.00  0.00    -0.022 A 
HETATM    8  C5  UNL     1     -16.920  -2.566  -1.497  1.00  0.00     0.012 A 
HETATM    9  C6  UNL     1     -17.286  -3.831  -1.847  1.00  0.00     0.001 A 
HETATM   10  C7  UNL     1     -17.655  -4.058  -3.162  1.00  0.00     0.001 A 
HETATM   11  C8  UNL     1     -17.666  -3.065  -4.118  1.00  0.00     0.015 A 
HETATM   12  C9  UNL     1     -17.288  -1.772  -3.742  1.00  0.00     0.012 A 
ENDROOT
TORSDOF 0
ENDMDL
MODEL 2
REMARK VINA RESULT: -7.328153233      1.530      3.161
REMARK  0 active torsions:
REMARK  status: ('A' for Active; 'I' for Inactive)
ROOT
HETATM    1  S1  UNL     1     -17.539  -1.956  -6.205  1.00  0.00    -0.059 SA
HETATM    2  C1  UNL     1     -17.494  -2.551  -4.691  1.00  0.00     0.111 A 
HETATM    3  N1  UNL     1     -17.778  -3.874  -4.502  1.00  0.00    -0.356 N 
ATOM      4  H1  UNL     1     -18.011  -4.454  -5.309  1.00  0.00     0.166 HD
HETATM    5  C2  UNL     1     -17.759  -4.427  -3.285  1.00  0.00     0.090 A 
HETATM    6  C3  UNL     1     -17.444  -3.630  -2.215  1.00  0.00     0.029 A 
HETATM    7  C4  UNL     1     -17.147  -2.289  -2.328  1.00  0.00    -0.022 A 
HETATM    8  C5  UNL     1     -16.830  -1.494  -1.237  1.00  0.00     0.012 A 
HETATM    9  C6  UNL     1     -16.540  -0.171  -1.391  1.00  0.00     0.001 A 
HETATM   10  C7  UNL     1     -16.574   0.355  -2.671  1.00  0.00     0.001 A 
HETATM   11  C8  UNL     1     -16.884  -0.401  -3.781  1.00  0.00     0.015 A 
HETATM   12  C9  UNL     1     -17.177  -1.757  -3.607  1.00  0.00     0.012 A 
ENDROOT
TORSDOF 0
ENDMDL
MODEL 3
REMARK VINA RESULT: -7.219718187      2.072      3.357
REMARK  0 active torsions:
REMARK  status: ('A' for Active; 'I' for Inactive)
ROOT
HETATM    1  S1  UNL     1     -17.861  -4.375  -3.526  1.00  0.00    -0.059 SA
HETATM    2  C1  UNL     1     -17.375  -2.948  -2.915  1.00  0.00     0.111 A 
HETATM    3  N1  UNL     1     -17.040  -2.885  -1.591  1.00  0.00    -0.356 N 
ATOM      4  H1  UNL     1     -17.102  -3.730  -1.021  1.00  0.00     0.166 HD
HETATM    5  C2  UNL     1     -16.633  -1.745  -1.025  1.00  0.00     0.090 A 
HETATM    6  C3  UNL     1     -16.557  -0.623  -1.809  1.00  0.00     0.029 A 
HETATM    7  C4  UNL     1     -16.878  -0.609  -3.149  1.00  0.00    -0.022 A 
HETATM    8  C5  UNL     1     -16.796   0.534  -3.930  1.00  0.00     0.012 A 
HETATM    9  C6  UNL     1     -17.122   0.506  -5.254  1.00  0.00     0.001 A 
HETATM   10  C7  UNL     1     -17.538  -0.699  -5.793  1.00  0.00     0.001 A 
HETATM   11  C8  UNL     1     -17.633  -1.857  -5.051  1.00  0.00     0.015 A 
HETATM   12  C9  UNL     1     -17.294  -1.812  -3.695  1.00  0.00     0.012 A 
ENDROOT
TORSDOF 0
ENDMDL
MODEL 4
REMARK VINA RESULT: -7.088411812      1.802      2.951
REMARK  0 active torsions:
REMARK  status: ('A' for Active; 'I' for Inactive)
ROOT
HETATM    1  S1  UNL     1     -17.992  -4.491  -3.814  1.00  0.00    -0.059 SA
HETATM    2  C1  UNL     1     -17.628  -2.935  -4.123  1.00  0.00     0.111 A 
HETATM    3  N1  UNL     1     -17.713  -2.489  -5.412  1.00  0.00    -0.356 N 
ATOM      4  H1  UNL     1     -18.000  -3.138  -6.145  1.00  0.00     0.166 HD
HETATM    5  C2  UNL     1     -17.428  -1.224  -5.734  1.00  0.00     0.090 A 
HETATM    6  C3  UNL     1     -17.044  -0.369  -4.734  1.00  0.00     0.029 A 
HETATM    7  C4  UNL     1     -16.936  -0.747  -3.412  1.00  0.00    -0.022 A 
HETATM    8  C5  UNL     1     -16.546   0.128  -2.410  1.00  0.00     0.012 A 
HETATM    9  C6  UNL     1     -16.451  -0.285  -1.114  1.00  0.00     0.001 A 
HETATM   10  C7  UNL     1     -16.756  -1.605  -0.830  1.00  0.00     0.001 A 
HETATM   11  C8  UNL     1     -17.148  -2.506  -1.798  1.00  0.00     0.015 A 
HETATM   12  C9  UNL     1     -17.240  -2.067  -3.122  1.00  0.00     0.012 A 
ENDROOT
TORSDOF 0
ENDMDL
MODEL 5
REMARK VINA RESULT: -7.053460971      1.553      2.538
REMARK  0 active torsions:
REMARK  status: ('A' for Active; 'I' for Inactive)
ROOT
HETATM    1  S1  UNL     1     -16.561   1.050  -2.703  1.00  0.00    -0.059 SA
HETATM    2  C1  UNL     1     -16.951  -0.125  -3.759  1.00  0.00     0.111 A 
HETATM    3  N1  UNL     1     -17.097   0.204  -5.077  1.00  0.00    -0.356 N 
ATOM      4  H1  UNL     1     -16.960   1.173  -5.367  1.00  0.00     0.166 HD
HETATM    5  C2  UNL     1     -17.416  -0.713  -5.996  1.00  0.00     0.090 A 
HETATM    6  C3  UNL     1     -17.595  -2.008  -5.586  1.00  0.00     0.029 A 
HETATM    7  C4  UNL     1     -17.465  -2.415  -4.275  1.00  0.00    -0.022 A 
HETATM    8  C5  UNL     1     -17.650  -3.729  -3.874  1.00  0.00     0.012 A 
HETATM    9  C6  UNL     1     -17.511  -4.092  -2.567  1.00  0.00     0.001 A 
HETATM   10  C7  UNL     1     -17.181  -3.106  -1.653  1.00  0.00     0.001 A 
HETATM   11  C8  UNL     1     -16.988  -1.789  -2.011  1.00  0.00     0.015 A 
HETATM   12  C9  UNL     1     -17.134  -1.433  -3.356  1.00  0.00     0.012 A 
ENDROOT
TORSDOF 0
ENDMDL
