MODEL 1
REMARK VINA RESULT: -6.627215630      0.000      0.000
REMARK  0 active torsions:
REMARK  status: ('A' for Active; 'I' for Inactive)
ROOT
HETATM    1  C1  UNL     1     -16.457  -1.636  -0.445  1.00  0.00     0.229 C 
HETATM    2  N1  UNL     1     -16.929  -1.624  -1.515  1.00  0.00    -0.429 NA
HETATM    3  C2  UNL     1     -17.488  -1.589  -2.783  1.00  0.00     0.106 A 
HETATM    4  C3  UNL     1     -16.744  -1.856  -3.917  1.00  0.00     0.045 A 
HETATM    5  C4  UNL     1     -17.307  -1.819  -5.176  1.00  0.00     0.015 A 
HETATM    6  C5  UNL     1     -18.643  -1.513  -5.336  1.00  0.00    -0.026 A 
HETATM    7  C6  UNL     1     -19.238  -1.469  -6.598  1.00  0.00     0.012 A 
HETATM    8  C7  UNL     1     -20.553  -1.172  -6.796  1.00  0.00     0.001 A 
HETATM    9  C8  UNL     1     -21.319  -0.900  -5.659  1.00  0.00     0.001 A 
HETATM   10  C9  UNL     1     -20.745  -0.939  -4.407  1.00  0.00     0.012 A 
HETATM   11  C10 UNL     1     -19.413  -1.243  -4.223  1.00  0.00    -0.023 A 
HETATM   12  C11 UNL     1     -18.829  -1.284  -2.973  1.00  0.00     0.057 A 
ENDROOT
TORSDOF 0
ENDMDL
MODEL 2
REMARK VINA RESULT: -6.549295144      2.250      4.748
REMARK  0 active torsions:
REMARK  status: ('A' for Active; 'I' for Inactive)
ROOT
HETATM    1  C1  UNL     1     -22.144  -0.370  -5.701  1.00  0.00     0.229 C 
HETATM    2  N1  UNL     1     -21.268  -0.828  -5.075  1.00  0.00    -0.429 NA
HETATM    3  C2  UNL     1     -20.244  -1.372  -4.315  1.00  0.00     0.106 A 
HETATM    4  C3  UNL     1     -19.842  -2.686  -4.465  1.00  0.00     0.045 A 
HETATM    5  C4  UNL     1     -18.822  -3.220  -3.705  1.00  0.00     0.015 A 
HETATM    6  C5  UNL     1     -18.170  -2.447  -2.766  1.00  0.00    -0.026 A 
HETATM    7  C6  UNL     1     -17.134  -2.963  -1.986  1.00  0.00     0.012 A 
HETATM    8  C7  UNL     1     -16.467  -2.231  -1.049  1.00  0.00     0.001 A 
HETATM    9  C8  UNL     1     -16.861  -0.901  -0.886  1.00  0.00     0.001 A 
HETATM   10  C9  UNL     1     -17.883  -0.378  -1.650  1.00  0.00     0.012 A 
HETATM   11  C10 UNL     1     -18.548  -1.131  -2.594  1.00  0.00    -0.023 A 
HETATM   12  C11 UNL     1     -19.572  -0.617  -3.364  1.00  0.00     0.057 A 
ENDROOT
TORSDOF 0
ENDMDL
MODEL 3
REMARK VINA RESULT: -6.487865252      2.623      4.920
REMARK  0 active torsions:
REMARK  status: ('A' for Active; 'I' for Inactive)
ROOT
HETATM    1  C1  UNL     1     -17.821  -1.993  -7.869  1.00  0.00     0.229 C 
HETATM    2  N1  UNL     1     -17.618  -1.648  -6.769  1.00  0.00    -0.429 NA
HETATM    3  C2  UNL     1     -17.357  -1.248  -5.468  1.00  0.00     0.106 A 
HETATM    4  C3  UNL     1     -17.181   0.083  -5.136  1.00  0.00     0.045 A 
HETATM    5  C4  UNL     1     -16.921   0.475  -3.838  1.00  0.00     0.015 A 
HETATM    6  C5  UNL     1     -16.832  -0.462  -2.829  1.00  0.00    -0.026 A 
HETATM    7  C6  UNL     1     -16.571  -0.092  -1.509  1.00  0.00     0.012 A 
HETATM    8  C7  UNL     1     -16.476  -0.988  -0.486  1.00  0.00     0.001 A 
HETATM    9  C8  UNL     1     -16.652  -2.336  -0.806  1.00  0.00     0.001 A 
HETATM   10  C9  UNL     1     -16.910  -2.716  -2.105  1.00  0.00     0.012 A 
HETATM   11  C10 UNL     1     -17.004  -1.798  -3.130  1.00  0.00    -0.023 A 
HETATM   12  C11 UNL     1     -17.262  -2.169  -4.434  1.00  0.00     0.057 A 
ENDROOT
TORSDOF 0
ENDMDL
MODEL 4
REMARK VINA RESULT: -6.475656632      0.805      2.104
REMARK  0 active torsions:
REMARK  status: ('A' for Active; 'I' for Inactive)
ROOT
HETATM    1  C1  UNL     1     -16.106  -1.974  -0.343  1.00  0.00     0.229 C 
HETATM    2  N1  UNL     1     -16.960  -1.817  -1.127  1.00  0.00    -0.429 NA
HETATM    3  C2  UNL     1     -17.972  -1.651  -2.060  1.00  0.00     0.106 A 
HETATM    4  C3  UNL     1     -19.285  -1.439  -1.684  1.00  0.00     0.045 A 
HETATM    5  C4  UNL     1     -20.287  -1.275  -2.619  1.00  0.00     0.015 A 
HETATM    6  C5  UNL     1     -19.999  -1.318  -3.968  1.00  0.00    -0.026 A 
HETATM    7  C6  UNL     1     -20.994  -1.154  -4.933  1.00  0.00     0.012 A 
HETATM    8  C7  UNL     1     -20.749  -1.190  -6.273  1.00  0.00     0.001 A 
HETATM    9  C8  UNL     1     -19.426  -1.403  -6.670  1.00  0.00     0.001 A 
HETATM   10  C9  UNL     1     -18.434  -1.567  -5.728  1.00  0.00     0.012 A 
HETATM   11  C10 UNL     1     -18.698  -1.527  -4.374  1.00  0.00    -0.023 A 
HETATM   12  C11 UNL     1     -17.711  -1.690  -3.423  1.00  0.00     0.057 A 
ENDROOT
TORSDOF 0
ENDMDL
MODEL 5
REMARK VINA RESULT: -6.365381759      1.242      1.672
REMARK  0 active torsions:
REMARK  status: ('A' for Active; 'I' for Inactive)
ROOT
HETATM    1  C1  UNL     1     -19.094  -1.648   0.380  1.00  0.00     0.229 C 
HETATM    2  N1  UNL     1     -18.805  -1.714  -0.751  1.00  0.00    -0.429 NA
HETATM    3  C2  UNL     1     -18.465  -1.770  -2.094  1.00  0.00     0.106 A 
HETATM    4  C3  UNL     1     -17.174  -2.041  -2.508  1.00  0.00     0.045 A 
HETATM    5  C4  UNL     1     -16.842  -2.095  -3.847  1.00  0.00     0.015 A 
HETATM    6  C5  UNL     1     -17.801  -1.880  -4.815  1.00  0.00    -0.026 A 
HETATM    7  C6  UNL     1     -17.492  -1.930  -6.175  1.00  0.00     0.012 A 
HETATM    8  C7  UNL     1     -18.411  -1.724  -7.160  1.00  0.00     0.001 A 
HETATM    9  C8  UNL     1     -19.720  -1.450  -6.757  1.00  0.00     0.001 A 
HETATM   10  C9  UNL     1     -20.040  -1.396  -5.417  1.00  0.00     0.012 A 
HETATM   11  C10 UNL     1     -19.099  -1.609  -4.432  1.00  0.00    -0.023 A 
HETATM   12  C11 UNL     1     -19.409  -1.558  -3.089  1.00  0.00     0.057 A 
ENDROOT
TORSDOF 0
ENDMDL
