MODEL 1
REMARK VINA RESULT: -6.443033849      0.000      0.000
REMARK  1 active torsions:
REMARK  status: ('A' for Active; 'I' for Inactive)
REMARK    1  A    between atoms: O1_1  and  N1_3 
ROOT
HETATM    1  N1  UNL     1     -17.146  -0.639  -5.009  1.00  0.00    -0.228 N 
HETATM    2  C1  UNL     1     -17.408  -1.639  -5.853  1.00  0.00     0.173 A 
HETATM    3  S1  UNL     1     -17.435  -3.003  -4.826  1.00  0.00    -0.080 SA
HETATM    4  C2  UNL     1     -17.105  -2.217  -3.349  1.00  0.00     0.035 A 
HETATM    5  C3  UNL     1     -16.957  -2.640  -2.012  1.00  0.00     0.021 A 
HETATM    6  C4  UNL     1     -16.685  -1.716  -1.036  1.00  0.00     0.002 A 
HETATM    7  C5  UNL     1     -16.570  -0.408  -1.429  1.00  0.00     0.002 A 
HETATM    8  C6  UNL     1     -16.710   0.009  -2.715  1.00  0.00     0.033 A 
HETATM    9  C7  UNL     1     -16.989  -0.913  -3.736  1.00  0.00     0.079 A 
ENDROOT
BRANCH   1  10
HETATM   10  O1  UNL     1     -17.062   0.651  -5.597  1.00  0.00    -0.282 OA
ATOM     11  H1  UNL     1     -17.298   1.375  -5.029  1.00  0.00     0.245 HD
ENDBRANCH   1  10
TORSDOF 1
ENDMDL
MODEL 2
REMARK VINA RESULT: -6.433563788      1.503      2.024
REMARK  1 active torsions:
REMARK  status: ('A' for Active; 'I' for Inactive)
REMARK    1  A    between atoms: O1_1  and  N1_3 
ROOT
HETATM    1  N1  UNL     1     -16.892  -0.067  -3.859  1.00  0.00    -0.228 N 
HETATM    2  C1  UNL     1     -17.143   0.175  -5.148  1.00  0.00     0.173 A 
HETATM    3  S1  UNL     1     -17.638  -1.353  -5.730  1.00  0.00    -0.080 SA
HETATM    4  C2  UNL     1     -17.497  -2.236  -4.278  1.00  0.00     0.035 A 
HETATM    5  C3  UNL     1     -17.722  -3.578  -3.909  1.00  0.00     0.021 A 
HETATM    6  C4  UNL     1     -17.503  -3.969  -2.612  1.00  0.00     0.002 A 
HETATM    7  C5  UNL     1     -17.071  -3.008  -1.735  1.00  0.00     0.002 A 
HETATM    8  C6  UNL     1     -16.851  -1.713  -2.082  1.00  0.00     0.033 A 
HETATM    9  C7  UNL     1     -17.065  -1.283  -3.400  1.00  0.00     0.079 A 
ENDROOT
BRANCH   1  10
HETATM   10  O1  UNL     1     -16.450   1.050  -3.103  1.00  0.00    -0.282 OA
ATOM     11  H1  UNL     1     -15.556   1.002  -2.785  1.00  0.00     0.245 HD
ENDBRANCH   1  10
TORSDOF 1
ENDMDL
MODEL 3
REMARK VINA RESULT: -6.318915286      1.693      2.648
REMARK  1 active torsions:
REMARK  status: ('A' for Active; 'I' for Inactive)
REMARK    1  A    between atoms: O1_1  and  N1_3 
ROOT
HETATM    1  N1  UNL     1     -17.040  -0.384  -4.335  1.00  0.00    -0.228 N 
HETATM    2  C1  UNL     1     -16.690   0.622  -3.531  1.00  0.00     0.173 A 
HETATM    3  S1  UNL     1     -16.598  -0.132  -2.001  1.00  0.00    -0.080 SA
HETATM    4  C2  UNL     1     -17.017  -1.716  -2.472  1.00  0.00     0.035 A 
HETATM    5  C3  UNL     1     -17.168  -2.944  -1.796  1.00  0.00     0.021 A 
HETATM    6  C4  UNL     1     -17.526  -4.065  -2.501  1.00  0.00     0.002 A 
HETATM    7  C5  UNL     1     -17.718  -3.919  -3.850  1.00  0.00     0.002 A 
HETATM    8  C6  UNL     1     -17.575  -2.740  -4.511  1.00  0.00     0.033 A 
HETATM    9  C7  UNL     1     -17.210  -1.576  -3.817  1.00  0.00     0.079 A 
ENDROOT
BRANCH   1  10
HETATM   10  O1  UNL     1     -17.195  -0.044  -5.705  1.00  0.00    -0.282 OA
ATOM     11  H1  UNL     1     -16.487  -0.318  -6.277  1.00  0.00     0.245 HD
ENDBRANCH   1  10
TORSDOF 1
ENDMDL
MODEL 4
REMARK VINA RESULT: -6.251453266      1.773      2.427
REMARK  1 active torsions:
REMARK  status: ('A' for Active; 'I' for Inactive)
REMARK    1  A    between atoms: O1_1  and  N1_3 
ROOT
HETATM    1  N1  UNL     1     -17.428  -1.269  -5.431  1.00  0.00    -0.228 N 
HETATM    2  C1  UNL     1     -17.221   0.050  -5.425  1.00  0.00     0.173 A 
HETATM    3  S1  UNL     1     -16.944   0.382  -3.773  1.00  0.00    -0.080 SA
HETATM    4  C2  UNL     1     -17.109  -1.202  -3.164  1.00  0.00     0.035 A 
HETATM    5  C3  UNL     1     -17.026  -1.785  -1.883  1.00  0.00     0.021 A 
HETATM    6  C4  UNL     1     -17.219  -3.136  -1.740  1.00  0.00     0.002 A 
HETATM    7  C5  UNL     1     -17.485  -3.852  -2.878  1.00  0.00     0.002 A 
HETATM    8  C6  UNL     1     -17.568  -3.299  -4.116  1.00  0.00     0.033 A 
HETATM    9  C7  UNL     1     -17.376  -1.920  -4.294  1.00  0.00     0.079 A 
ENDROOT
BRANCH   1  10
HETATM   10  O1  UNL     1     -17.692  -1.840  -6.704  1.00  0.00    -0.282 OA
ATOM     11  H1  UNL     1     -17.149  -2.584  -6.938  1.00  0.00     0.245 HD
ENDBRANCH   1  10
TORSDOF 1
ENDMDL
MODEL 5
REMARK VINA RESULT: -6.198834454      2.319      2.864
REMARK  1 active torsions:
REMARK  status: ('A' for Active; 'I' for Inactive)
REMARK    1  A    between atoms: O1_1  and  N1_3 
ROOT
HETATM    1  N1  UNL     1     -17.313  -3.149  -3.090  1.00  0.00    -0.228 N 
HETATM    2  C1  UNL     1     -17.635  -3.624  -4.295  1.00  0.00     0.173 A 
HETATM    3  S1  UNL     1     -17.580  -2.229  -5.278  1.00  0.00    -0.080 SA
HETATM    4  C2  UNL     1     -17.142  -1.093  -4.084  1.00  0.00     0.035 A 
HETATM    5  C3  UNL     1     -16.895   0.295  -4.080  1.00  0.00     0.021 A 
HETATM    6  C4  UNL     1     -16.553   0.918  -2.907  1.00  0.00     0.002 A 
HETATM    7  C5  UNL     1     -16.470   0.134  -1.785  1.00  0.00     0.002 A 
HETATM    8  C6  UNL     1     -16.708  -1.203  -1.779  1.00  0.00     0.033 A 
HETATM    9  C7  UNL     1     -17.060  -1.869  -2.964  1.00  0.00     0.079 A 
ENDROOT
BRANCH   1  10
HETATM   10  O1  UNL     1     -17.278  -4.110  -2.044  1.00  0.00    -0.282 OA
ATOM     11  H1  UNL     1     -18.119  -4.324  -1.658  1.00  0.00     0.245 HD
ENDBRANCH   1  10
TORSDOF 1
ENDMDL
