MODEL 1
REMARK VINA RESULT: -7.281314472      0.000      0.000
REMARK  5 active torsions:
REMARK  status: ('A' for Active; 'I' for Inactive)
REMARK    1  A    between atoms: C2_2  and  C3_4 
REMARK    2  A    between atoms: C3_4  and  N1_5 
REMARK    3  A    between atoms: C3_4  and  C4_9 
REMARK    4  A    between atoms: C4_9  and  N2_10 
REMARK       I    between atoms: N3_12  and  C6_13 
REMARK    5  A    between atoms: C6_13  and  C7_15 
ROOT
HETATM    1  N2  UNL     1     -20.965 -44.724  25.989  1.00  0.00     0.118 N 
HETATM    2  C5  UNL     1     -20.488 -43.369  26.148  1.00  0.00     0.401 C 
HETATM    3  N3  UNL     1     -20.759 -42.544  25.008  1.00  0.00    -0.326 N 
HETATM    4  C6  UNL     1     -21.130 -41.211  25.202  1.00  0.00     0.225 C 
HETATM    5  O1  UNL     1     -21.217 -40.756  26.382  1.00  0.00    -0.273 OA
HETATM    6  C11 UNL     1     -20.644 -43.080  23.682  1.00  0.00     0.130 C 
HETATM    7  C12 UNL     1     -21.044 -44.517  23.545  1.00  0.00     0.061 C 
HETATM    8  C13 UNL     1     -20.548 -45.293  24.724  1.00  0.00     0.163 C 
HETATM    9  C14 UNL     1     -19.047 -45.455  24.652  1.00  0.00     0.042 C 
HETATM   10  C15 UNL     1     -18.760 -46.721  23.905  1.00  0.00     0.003 C 
HETATM   11  C16 UNL     1     -20.073 -47.340  23.555  1.00  0.00     0.003 C 
HETATM   12  C17 UNL     1     -21.029 -46.721  24.572  1.00  0.00     0.042 C 
ENDROOT
BRANCH   1  13
HETATM   13  C4  UNL     1     -22.410 -44.697  26.042  1.00  0.00     0.314 C 
BRANCH  13  14
HETATM   14  C3  UNL     1     -22.983 -44.732  27.415  1.00  0.00     0.255 C 
BRANCH  14  15
HETATM   15  C2  UNL     1     -23.375 -43.354  27.899  1.00  0.00     0.034 C 
HETATM   16  C1  UNL     1     -24.132 -42.547  27.177  1.00  0.00     0.034 C 
HETATM   17 CL1  UNL     1     -22.822 -42.777  29.468  1.00  0.00    -0.088 Cl
ENDBRANCH  14  15
BRANCH  14  18
HETATM   18  N1  UNL     1     -21.906 -45.194  28.308  1.00  0.00    -0.069 N 
ATOM     19  H13 UNL     1     -21.002 -44.768  28.105  1.00  0.00     0.275 HD
ATOM     20  H12 UNL     1     -21.997 -44.848  29.264  1.00  0.00     0.275 HD
ATOM     21  H11 UNL     1     -21.898 -46.211  28.245  1.00  0.00     0.275 HD
ENDBRANCH  14  18
ENDBRANCH  13  14
ENDBRANCH   1  13
BRANCH   4  22
HETATM   22  C7  UNL     1     -21.410 -40.375  24.016  1.00  0.00     0.078 C 
HETATM   23  C8  UNL     1     -22.121 -39.051  24.321  1.00  0.00     0.014 C 
HETATM   24  C9  UNL     1     -21.321 -38.496  23.134  1.00  0.00     0.002 C 
HETATM   25  C10 UNL     1     -20.257 -39.539  23.502  1.00  0.00     0.014 C 
ENDBRANCH   4  22
TORSDOF 5
ENDMDL
MODEL 2
REMARK VINA RESULT: -7.116775949      1.957      2.513
REMARK  5 active torsions:
REMARK  status: ('A' for Active; 'I' for Inactive)
REMARK    1  A    between atoms: C2_2  and  C3_4 
REMARK    2  A    between atoms: C3_4  and  N1_5 
REMARK    3  A    between atoms: C3_4  and  C4_9 
REMARK    4  A    between atoms: C4_9  and  N2_10 
REMARK       I    between atoms: N3_12  and  C6_13 
REMARK    5  A    between atoms: C6_13  and  C7_15 
ROOT
HETATM    1  N2  UNL     1     -20.577 -45.970  24.852  1.00  0.00     0.118 N 
HETATM    2  C5  UNL     1     -19.979 -44.725  25.274  1.00  0.00     0.401 C 
HETATM    3  N3  UNL     1     -20.685 -43.574  24.792  1.00  0.00    -0.326 N 
HETATM    4  C6  UNL     1     -20.819 -42.458  25.621  1.00  0.00     0.225 C 
HETATM    5  O1  UNL     1     -20.311 -42.483  26.782  1.00  0.00    -0.273 OA
HETATM    6  C11 UNL     1     -21.244 -43.567  23.470  1.00  0.00     0.130 C 
HETATM    7  C12 UNL     1     -21.770 -44.889  23.001  1.00  0.00     0.061 C 
HETATM    8  C13 UNL     1     -20.844 -45.983  23.428  1.00  0.00     0.163 C 
HETATM    9  C14 UNL     1     -19.567 -45.934  22.620  1.00  0.00     0.042 C 
HETATM   10  C15 UNL     1     -19.760 -46.794  21.410  1.00  0.00     0.003 C 
HETATM   11  C16 UNL     1     -21.129 -47.386  21.497  1.00  0.00     0.003 C 
HETATM   12  C17 UNL     1     -21.449 -47.299  22.988  1.00  0.00     0.042 C 
ENDROOT
BRANCH   1  13
HETATM   13  C4  UNL     1     -21.824 -46.130  25.568  1.00  0.00     0.314 C 
BRANCH  13  14
HETATM   14  C3  UNL     1     -21.735 -45.890  27.034  1.00  0.00     0.255 C 
BRANCH  14  15
HETATM   15  C2  UNL     1     -21.783 -47.180  27.821  1.00  0.00     0.034 C 
HETATM   16  C1  UNL     1     -20.742 -47.990  27.905  1.00  0.00     0.034 C 
HETATM   17 CL1  UNL     1     -23.257 -47.648  28.663  1.00  0.00    -0.088 Cl
ENDBRANCH  14  15
BRANCH  14  18
HETATM   18  N1  UNL     1     -22.939 -45.130  27.410  1.00  0.00    -0.069 N 
ATOM     19  H13 UNL     1     -23.310 -45.387  28.325  1.00  0.00     0.275 HD
ATOM     20  H12 UNL     1     -22.749 -44.150  27.622  1.00  0.00     0.275 HD
ATOM     21  H11 UNL     1     -23.607 -45.258  26.651  1.00  0.00     0.275 HD
ENDBRANCH  14  18
ENDBRANCH  13  14
ENDBRANCH   1  13
BRANCH   4  22
HETATM   22  C7  UNL     1     -21.554 -41.282  25.112  1.00  0.00     0.078 C 
HETATM   23  C8  UNL     1     -21.562 -40.075  26.057  1.00  0.00     0.014 C 
HETATM   24  C9  UNL     1     -21.566 -39.232  24.774  1.00  0.00     0.002 C 
HETATM   25  C10 UNL     1     -20.808 -40.402  24.132  1.00  0.00     0.014 C 
ENDBRANCH   4  22
TORSDOF 5
ENDMDL
MODEL 3
REMARK VINA RESULT: -7.114736248      3.451      6.153
REMARK  5 active torsions:
REMARK  status: ('A' for Active; 'I' for Inactive)
REMARK    1  A    between atoms: C2_2  and  C3_4 
REMARK    2  A    between atoms: C3_4  and  N1_5 
REMARK    3  A    between atoms: C3_4  and  C4_9 
REMARK    4  A    between atoms: C4_9  and  N2_10 
REMARK       I    between atoms: N3_12  and  C6_13 
REMARK    5  A    between atoms: C6_13  and  C7_15 
ROOT
HETATM    1  N2  UNL     1     -22.295 -45.937  26.322  1.00  0.00     0.118 N 
HETATM    2  C5  UNL     1     -22.233 -47.270  26.876  1.00  0.00     0.401 C 
HETATM    3  N3  UNL     1     -20.892 -47.765  26.991  1.00  0.00    -0.326 N 
HETATM    4  C6  UNL     1     -20.539 -48.530  28.105  1.00  0.00     0.225 C 
HETATM    5  O1  UNL     1     -21.412 -48.775  28.992  1.00  0.00    -0.273 OA
HETATM    6  C11 UNL     1     -19.925 -47.482  25.969  1.00  0.00     0.130 C 
HETATM    7  C12 UNL     1     -20.061 -46.136  25.327  1.00  0.00     0.061 C 
HETATM    8  C13 UNL     1     -21.508 -45.822  25.111  1.00  0.00     0.163 C 
HETATM    9  C14 UNL     1     -22.069 -46.676  23.997  1.00  0.00     0.042 C 
HETATM   10  C15 UNL     1     -21.884 -45.929  22.713  1.00  0.00     0.003 C 
HETATM   11  C16 UNL     1     -21.248 -44.620  23.046  1.00  0.00     0.003 C 
HETATM   12  C17 UNL     1     -21.596 -44.431  24.521  1.00  0.00     0.042 C 
ENDROOT
BRANCH   1  13
HETATM   13  C4  UNL     1     -21.777 -45.018  27.312  1.00  0.00     0.314 C 
BRANCH  13  14
HETATM   14  C3  UNL     1     -22.802 -44.452  28.230  1.00  0.00     0.255 C 
BRANCH  14  15
HETATM   15  C2  UNL     1     -22.574 -42.980  28.491  1.00  0.00     0.034 C 
HETATM   16  C1  UNL     1     -22.101 -42.168  27.562  1.00  0.00     0.034 C 
HETATM   17 CL1  UNL     1     -22.939 -42.294  30.071  1.00  0.00    -0.088 Cl
ENDBRANCH  14  15
BRANCH  14  18
HETATM   18  N1  UNL     1     -22.630 -45.133  29.524  1.00  0.00    -0.069 N 
ATOM     19  H13 UNL     1     -23.383 -45.787  29.740  1.00  0.00     0.275 HD
ATOM     20  H12 UNL     1     -21.869 -45.812  29.526  1.00  0.00     0.275 HD
ATOM     21  H11 UNL     1     -22.519 -44.398  30.222  1.00  0.00     0.275 HD
ENDBRANCH  14  18
ENDBRANCH  13  14
ENDBRANCH   1  13
BRANCH   4  22
HETATM   22  C7  UNL     1     -19.152 -49.029  28.211  1.00  0.00     0.078 C 
HETATM   23  C8  UNL     1     -18.470 -48.739  29.553  1.00  0.00     0.014 C 
HETATM   24  C9  UNL     1     -17.744 -50.073  29.326  1.00  0.00     0.002 C 
HETATM   25  C10 UNL     1     -18.995 -50.497  28.545  1.00  0.00     0.014 C 
ENDBRANCH   4  22
TORSDOF 5
ENDMDL
MODEL 4
REMARK VINA RESULT: -7.041449437      2.898      5.761
REMARK  5 active torsions:
REMARK  status: ('A' for Active; 'I' for Inactive)
REMARK    1  A    between atoms: C2_2  and  C3_4 
REMARK    2  A    between atoms: C3_4  and  N1_5 
REMARK    3  A    between atoms: C3_4  and  C4_9 
REMARK    4  A    between atoms: C4_9  and  N2_10 
REMARK       I    between atoms: N3_12  and  C6_13 
REMARK    5  A    between atoms: C6_13  and  C7_15 
ROOT
HETATM    1  N2  UNL     1     -21.983 -44.431  25.636  1.00  0.00     0.118 N 
HETATM    2  C5  UNL     1     -22.856 -45.437  26.195  1.00  0.00     0.401 C 
HETATM    3  N3  UNL     1     -22.159 -46.628  26.583  1.00  0.00    -0.326 N 
HETATM    4  C6  UNL     1     -22.544 -47.296  27.747  1.00  0.00     0.225 C 
HETATM    5  O1  UNL     1     -23.503 -46.839  28.438  1.00  0.00    -0.273 OA
HETATM    6  C11 UNL     1     -21.082 -47.132  25.779  1.00  0.00     0.130 C 
HETATM    7  C12 UNL     1     -20.242 -46.082  25.119  1.00  0.00     0.061 C 
HETATM    8  C13 UNL     1     -21.118 -44.980  24.612  1.00  0.00     0.163 C 
HETATM    9  C14 UNL     1     -21.905 -45.448  23.408  1.00  0.00     0.042 C 
HETATM   10  C15 UNL     1     -21.093 -45.144  22.187  1.00  0.00     0.003 C 
HETATM   11  C16 UNL     1     -19.841 -44.469  22.640  1.00  0.00     0.003 C 
HETATM   12  C17 UNL     1     -20.222 -43.917  24.012  1.00  0.00     0.042 C 
ENDROOT
BRANCH   1  13
HETATM   13  C4  UNL     1     -21.168 -43.902  26.708  1.00  0.00     0.314 C 
BRANCH  13  14
HETATM   14  C3  UNL     1     -21.603 -42.575  27.223  1.00  0.00     0.255 C 
BRANCH  14  15
HETATM   15  C2  UNL     1     -22.870 -42.676  28.043  1.00  0.00     0.034 C 
HETATM   16  C1  UNL     1     -22.847 -42.928  29.340  1.00  0.00     0.034 C 
HETATM   17 CL1  UNL     1     -24.440 -42.454  27.277  1.00  0.00    -0.088 Cl
ENDBRANCH  14  15
BRANCH  14  18
HETATM   18  N1  UNL     1     -21.936 -41.756  26.046  1.00  0.00    -0.069 N 
ATOM     19  H13 UNL     1     -22.328 -42.296  25.274  1.00  0.00     0.275 HD
ATOM     20  H12 UNL     1     -22.739 -41.144  26.192  1.00  0.00     0.275 HD
ATOM     21  H11 UNL     1     -21.085 -41.253  25.796  1.00  0.00     0.275 HD
ENDBRANCH  14  18
ENDBRANCH  13  14
ENDBRANCH   1  13
BRANCH   4  22
HETATM   22  C7  UNL     1     -21.813 -48.521  28.136  1.00  0.00     0.078 C 
HETATM   23  C8  UNL     1     -20.772 -48.319  29.243  1.00  0.00     0.014 C 
HETATM   24  C9  UNL     1     -21.137 -49.748  29.670  1.00  0.00     0.002 C 
HETATM   25  C10 UNL     1     -22.528 -49.449  29.094  1.00  0.00     0.014 C 
ENDBRANCH   4  22
TORSDOF 5
ENDMDL
MODEL 5
REMARK VINA RESULT: -6.982507179      2.058      2.554
REMARK  5 active torsions:
REMARK  status: ('A' for Active; 'I' for Inactive)
REMARK    1  A    between atoms: C2_2  and  C3_4 
REMARK    2  A    between atoms: C3_4  and  N1_5 
REMARK    3  A    between atoms: C3_4  and  C4_9 
REMARK    4  A    between atoms: C4_9  and  N2_10 
REMARK       I    between atoms: N3_12  and  C6_13 
REMARK    5  A    between atoms: C6_13  and  C7_15 
ROOT
HETATM    1  N2  UNL     1     -20.325 -45.851  24.399  1.00  0.00     0.118 N 
HETATM    2  C5  UNL     1     -19.790 -44.631  24.958  1.00  0.00     0.401 C 
HETATM    3  N3  UNL     1     -20.567 -43.475  24.622  1.00  0.00    -0.326 N 
HETATM    4  C6  UNL     1     -20.750 -42.473  25.578  1.00  0.00     0.225 C 
HETATM    5  O1  UNL     1     -20.222 -42.604  26.723  1.00  0.00    -0.273 OA
HETATM    6  C11 UNL     1     -21.146 -43.345  23.315  1.00  0.00     0.130 C 
HETATM    7  C12 UNL     1     -21.605 -44.631  22.698  1.00  0.00     0.061 C 
HETATM    8  C13 UNL     1     -20.613 -45.712  22.986  1.00  0.00     0.163 C 
HETATM    9  C14 UNL     1     -19.354 -45.497  22.177  1.00  0.00     0.042 C 
HETATM   10  C15 UNL     1     -19.518 -46.219  20.876  1.00  0.00     0.003 C 
HETATM   11  C16 UNL     1     -20.850 -46.894  20.905  1.00  0.00     0.003 C 
HETATM   12  C17 UNL     1     -21.151 -47.000  22.399  1.00  0.00     0.042 C 
ENDROOT
BRANCH   1  13
HETATM   13  C4  UNL     1     -21.550 -46.164  25.102  1.00  0.00     0.314 C 
BRANCH  13  14
HETATM   14  C3  UNL     1     -21.413 -47.206  26.156  1.00  0.00     0.255 C 
BRANCH  14  15
HETATM   15  C2  UNL     1     -21.593 -46.631  27.543  1.00  0.00     0.034 C 
HETATM   16  C1  UNL     1     -22.214 -45.483  27.752  1.00  0.00     0.034 C 
HETATM   17 CL1  UNL     1     -20.970 -47.494  28.946  1.00  0.00    -0.088 Cl
ENDBRANCH  14  15
BRANCH  14  18
HETATM   18  N1  UNL     1     -20.025 -47.694  26.088  1.00  0.00    -0.069 N 
ATOM     19  H13 UNL     1     -19.756 -48.019  25.159  1.00  0.00     0.275 HD
ATOM     20  H12 UNL     1     -19.331 -46.951  26.168  1.00  0.00     0.275 HD
ATOM     21  H11 UNL     1     -19.938 -48.409  26.808  1.00  0.00     0.275 HD
ENDBRANCH  14  18
ENDBRANCH  13  14
ENDBRANCH   1  13
BRANCH   4  22
HETATM   22  C7  UNL     1     -21.557 -41.289  25.217  1.00  0.00     0.078 C 
HETATM   23  C8  UNL     1     -21.526 -40.156  26.250  1.00  0.00     0.014 C 
HETATM   24  C9  UNL     1     -21.655 -39.221  25.038  1.00  0.00     0.002 C 
HETATM   25  C10 UNL     1     -20.916 -40.313  24.253  1.00  0.00     0.014 C 
ENDBRANCH   4  22
TORSDOF 5
ENDMDL
