MODEL 1
REMARK VINA RESULT: -7.174971707      0.000      0.000
REMARK  5 active torsions:
REMARK  status: ('A' for Active; 'I' for Inactive)
REMARK    1  A    between atoms: C2_2  and  N1_4 
REMARK    2  A    between atoms: N1_4  and  C5_6 
REMARK    3  A    between atoms: C5_6  and  C6_7 
REMARK       I    between atoms: C6_7  and  N2_9 
REMARK    4  A    between atoms: C9_12  and  N3_14 
REMARK       I    between atoms: N3_14  and  C11_16 
REMARK    5  A    between atoms: C11_16  and  C12_18 
ROOT
HETATM    1  C6  UNL     1     -22.038 -42.381  25.995  1.00  0.00     0.248 C 
HETATM    2  O1  UNL     1     -23.124 -41.892  26.393  1.00  0.00    -0.271 OA
HETATM    3  N2  UNL     1     -21.658 -43.696  26.323  1.00  0.00    -0.348 N 
HETATM    4  C7  UNL     1     -22.557 -44.503  27.145  1.00  0.00     0.128 C 
HETATM    5  C8  UNL     1     -23.008 -45.623  26.228  1.00  0.00     0.053 C 
HETATM    6  C9  UNL     1     -21.861 -46.443  25.775  1.00  0.00     0.063 C 
HETATM    7  C10 UNL     1     -22.091 -46.784  24.297  1.00  0.00     0.041 C 
HETATM    8  C16 UNL     1     -20.510 -45.820  25.870  1.00  0.00     0.215 C 
HETATM    9  F1  UNL     1     -19.717 -46.294  24.828  1.00  0.00    -0.245 F 
HETATM   10  C17 UNL     1     -20.442 -44.342  25.916  1.00  0.00     0.165 C 
ENDROOT
BRANCH   6  11
HETATM   11  N3  UNL     1     -21.911 -47.739  26.456  1.00  0.00    -0.349 N 
HETATM   12  C11 UNL     1     -21.508 -47.887  27.809  1.00  0.00     0.226 C 
HETATM   13  O2  UNL     1     -21.089 -46.924  28.499  1.00  0.00    -0.273 OA
ATOM     14  H3  UNL     1     -22.244 -48.557  25.944  1.00  0.00     0.163 HD
BRANCH  12  15
HETATM   15  C12 UNL     1     -21.569 -49.220  28.468  1.00  0.00     0.030 C 
HETATM   16  C13 UNL     1     -21.690 -50.333  27.454  1.00  0.00     0.024 C 
HETATM   17  C14 UNL     1     -22.777 -49.222  29.390  1.00  0.00     0.024 C 
HETATM   18  C15 UNL     1     -20.350 -49.501  29.307  1.00  0.00     0.024 C 
ENDBRANCH  12  15
ENDBRANCH   6  11
BRANCH   1  19
HETATM   19  C5  UNL     1     -21.154 -41.547  25.168  1.00  0.00     0.374 C 
BRANCH  19  20
HETATM   20  N1  UNL     1     -21.644 -40.222  24.955  1.00  0.00     0.096 N 
HETATM   21  C4  UNL     1     -21.457 -39.322  26.048  1.00  0.00     0.310 C 
BRANCH  20  22
HETATM   22  C2  UNL     1     -21.131 -39.721  23.710  1.00  0.00     0.215 C 
HETATM   23  C1  UNL     1     -20.781 -40.891  22.817  1.00  0.00     0.042 C 
HETATM   24  C3  UNL     1     -22.095 -38.839  22.981  1.00  0.00     0.042 C 
ENDBRANCH  20  22
ENDBRANCH  19  20
ENDBRANCH   1  19
TORSDOF 5
ENDMDL
MODEL 2
REMARK VINA RESULT: -6.941313237      1.353      2.002
REMARK  5 active torsions:
REMARK  status: ('A' for Active; 'I' for Inactive)
REMARK    1  A    between atoms: C2_2  and  N1_4 
REMARK    2  A    between atoms: N1_4  and  C5_6 
REMARK    3  A    between atoms: C5_6  and  C6_7 
REMARK       I    between atoms: C6_7  and  N2_9 
REMARK    4  A    between atoms: C9_12  and  N3_14 
REMARK       I    between atoms: N3_14  and  C11_16 
REMARK    5  A    between atoms: C11_16  and  C12_18 
ROOT
HETATM    1  C6  UNL     1     -21.251 -41.262  25.307  1.00  0.00     0.248 C 
HETATM    2  O1  UNL     1     -22.113 -40.624  25.959  1.00  0.00    -0.271 OA
HETATM    3  N2  UNL     1     -20.855 -42.560  25.682  1.00  0.00    -0.348 N 
HETATM    4  C7  UNL     1     -21.471 -43.170  26.858  1.00  0.00     0.128 C 
HETATM    5  C8  UNL     1     -22.262 -44.341  26.309  1.00  0.00     0.053 C 
HETATM    6  C9  UNL     1     -21.378 -45.318  25.634  1.00  0.00     0.063 C 
HETATM    7  C10 UNL     1     -22.106 -45.809  24.376  1.00  0.00     0.041 C 
HETATM    8  C16 UNL     1     -20.040 -44.826  25.197  1.00  0.00     0.215 C 
HETATM    9  F1  UNL     1     -19.668 -45.498  24.035  1.00  0.00    -0.245 F 
HETATM   10  C17 UNL     1     -19.881 -43.368  25.003  1.00  0.00     0.165 C 
ENDROOT
BRANCH   6  11
HETATM   11  N3  UNL     1     -21.269 -46.513  26.475  1.00  0.00    -0.349 N 
HETATM   12  C11 UNL     1     -22.298 -46.883  27.382  1.00  0.00     0.226 C 
HETATM   13  O2  UNL     1     -23.354 -46.215  27.515  1.00  0.00    -0.273 OA
ATOM     14  H3  UNL     1     -20.433 -47.094  26.408  1.00  0.00     0.163 HD
BRANCH  12  15
HETATM   15  C12 UNL     1     -22.153 -48.101  28.223  1.00  0.00     0.030 C 
HETATM   16  C13 UNL     1     -23.420 -48.398  28.992  1.00  0.00     0.024 C 
HETATM   17  C14 UNL     1     -21.004 -47.862  29.187  1.00  0.00     0.024 C 
HETATM   18  C15 UNL     1     -21.822 -49.324  27.407  1.00  0.00     0.024 C 
ENDBRANCH  12  15
ENDBRANCH   6  11
BRANCH   1  19
HETATM   19  C5  UNL     1     -20.648 -40.624  24.127  1.00  0.00     0.374 C 
BRANCH  19  20
HETATM   20  N1  UNL     1     -21.558 -40.444  23.041  1.00  0.00     0.096 N 
HETATM   21  C4  UNL     1     -22.016 -39.106  22.846  1.00  0.00     0.310 C 
BRANCH  20  22
HETATM   22  C2  UNL     1     -21.003 -41.035  21.855  1.00  0.00     0.215 C 
HETATM   23  C1  UNL     1     -19.507 -40.809  21.848  1.00  0.00     0.042 C 
HETATM   24  C3  UNL     1     -21.261 -42.504  21.743  1.00  0.00     0.042 C 
ENDBRANCH  20  22
ENDBRANCH  19  20
ENDBRANCH   1  19
TORSDOF 5
ENDMDL
MODEL 3
REMARK VINA RESULT: -6.922268256      4.550      6.627
REMARK  5 active torsions:
REMARK  status: ('A' for Active; 'I' for Inactive)
REMARK    1  A    between atoms: C2_2  and  N1_4 
REMARK    2  A    between atoms: N1_4  and  C5_6 
REMARK    3  A    between atoms: C5_6  and  C6_7 
REMARK       I    between atoms: C6_7  and  N2_9 
REMARK    4  A    between atoms: C9_12  and  N3_14 
REMARK       I    between atoms: N3_14  and  C11_16 
REMARK    5  A    between atoms: C11_16  and  C12_18 
ROOT
HETATM    1  C6  UNL     1     -17.724 -45.726  22.606  1.00  0.00     0.248 C 
HETATM    2  O1  UNL     1     -16.722 -45.960  23.325  1.00  0.00    -0.271 OA
HETATM    3  N2  UNL     1     -19.008 -45.565  23.162  1.00  0.00    -0.348 N 
HETATM    4  C7  UNL     1     -19.166 -45.674  24.610  1.00  0.00     0.128 C 
HETATM    5  C8  UNL     1     -19.580 -44.284  25.053  1.00  0.00     0.053 C 
HETATM    6  C9  UNL     1     -20.862 -43.882  24.431  1.00  0.00     0.063 C 
HETATM    7  C10 UNL     1     -20.746 -42.401  24.049  1.00  0.00     0.041 C 
HETATM    8  C16 UNL     1     -21.273 -44.616  23.200  1.00  0.00     0.215 C 
HETATM    9  F1  UNL     1     -21.979 -43.748  22.369  1.00  0.00    -0.245 F 
HETATM   10  C17 UNL     1     -20.211 -45.296  22.426  1.00  0.00     0.165 C 
ENDROOT
BRANCH   6  11
HETATM   11  N3  UNL     1     -21.910 -43.908  25.455  1.00  0.00    -0.349 N 
HETATM   12  C11 UNL     1     -21.714 -43.331  26.738  1.00  0.00     0.226 C 
HETATM   13  O2  UNL     1     -20.640 -42.766  27.068  1.00  0.00    -0.273 OA
ATOM     14  H3  UNL     1     -22.803 -44.352  25.242  1.00  0.00     0.163 HD
BRANCH  12  15
HETATM   15  C12 UNL     1     -22.799 -43.378  27.754  1.00  0.00     0.030 C 
HETATM   16  C13 UNL     1     -23.035 -44.786  28.247  1.00  0.00     0.024 C 
HETATM   17  C14 UNL     1     -24.061 -42.835  27.106  1.00  0.00     0.024 C 
HETATM   18  C15 UNL     1     -22.494 -42.523  28.956  1.00  0.00     0.024 C 
ENDBRANCH  12  15
ENDBRANCH   6  11
BRANCH   1  19
HETATM   19  C5  UNL     1     -17.536 -45.621  21.152  1.00  0.00     0.374 C 
BRANCH  19  20
HETATM   20  N1  UNL     1     -17.075 -46.826  20.541  1.00  0.00     0.096 N 
HETATM   21  C4  UNL     1     -18.023 -47.482  19.698  1.00  0.00     0.310 C 
BRANCH  20  22
HETATM   22  C2  UNL     1     -15.815 -46.580  19.897  1.00  0.00     0.215 C 
HETATM   23  C1  UNL     1     -14.701 -47.078  20.792  1.00  0.00     0.042 C 
HETATM   24  C3  UNL     1     -15.687 -47.248  18.564  1.00  0.00     0.042 C 
ENDBRANCH  20  22
ENDBRANCH  19  20
ENDBRANCH   1  19
TORSDOF 5
ENDMDL
MODEL 4
REMARK VINA RESULT: -6.914830399      1.791      7.318
REMARK  5 active torsions:
REMARK  status: ('A' for Active; 'I' for Inactive)
REMARK    1  A    between atoms: C2_2  and  N1_4 
REMARK    2  A    between atoms: N1_4  and  C5_6 
REMARK    3  A    between atoms: C5_6  and  C6_7 
REMARK       I    between atoms: C6_7  and  N2_9 
REMARK    4  A    between atoms: C9_12  and  N3_14 
REMARK       I    between atoms: N3_14  and  C11_16 
REMARK    5  A    between atoms: C11_16  and  C12_18 
ROOT
HETATM    1  C6  UNL     1     -22.779 -45.746  27.756  1.00  0.00     0.248 C 
HETATM    2  O1  UNL     1     -22.866 -44.998  28.761  1.00  0.00    -0.271 OA
HETATM    3  N2  UNL     1     -22.605 -45.222  26.461  1.00  0.00    -0.348 N 
HETATM    4  C7  UNL     1     -22.523 -43.773  26.294  1.00  0.00     0.128 C 
HETATM    5  C8  UNL     1     -21.107 -43.526  25.812  1.00  0.00     0.053 C 
HETATM    6  C9  UNL     1     -20.854 -44.201  24.518  1.00  0.00     0.063 C 
HETATM    7  C10 UNL     1     -19.435 -44.781  24.569  1.00  0.00     0.041 C 
HETATM    8  C16 UNL     1     -21.768 -45.321  24.154  1.00  0.00     0.215 C 
HETATM    9  F1  UNL     1     -21.056 -46.265  23.417  1.00  0.00    -0.245 F 
HETATM   10  C17 UNL     1     -22.495 -45.992  25.253  1.00  0.00     0.165 C 
ENDROOT
BRANCH   6  11
HETATM   11  N3  UNL     1     -20.790 -43.186  23.462  1.00  0.00    -0.349 N 
HETATM   12  C11 UNL     1     -20.692 -41.802  23.764  1.00  0.00     0.226 C 
HETATM   13  O2  UNL     1     -20.653 -41.367  24.943  1.00  0.00    -0.273 OA
ATOM     14  H3  UNL     1     -20.816 -43.482  22.486  1.00  0.00     0.163 HD
BRANCH  12  15
HETATM   15  C12 UNL     1     -20.631 -40.799  22.667  1.00  0.00     0.030 C 
HETATM   16  C13 UNL     1     -19.204 -40.472  22.294  1.00  0.00     0.024 C 
HETATM   17  C14 UNL     1     -21.343 -39.546  23.149  1.00  0.00     0.024 C 
HETATM   18  C15 UNL     1     -21.328 -41.273  21.419  1.00  0.00     0.024 C 
ENDBRANCH  12  15
ENDBRANCH   6  11
BRANCH   1  19
HETATM   19  C5  UNL     1     -22.864 -47.200  27.953  1.00  0.00     0.374 C 
BRANCH  19  20
HETATM   20  N1  UNL     1     -21.948 -47.705  28.925  1.00  0.00     0.096 N 
HETATM   21  C4  UNL     1     -22.383 -48.873  29.622  1.00  0.00     0.310 C 
BRANCH  20  22
HETATM   22  C2  UNL     1     -20.651 -47.851  28.324  1.00  0.00     0.215 C 
HETATM   23  C1  UNL     1     -19.711 -48.475  29.333  1.00  0.00     0.042 C 
HETATM   24  C3  UNL     1     -20.657 -48.699  27.092  1.00  0.00     0.042 C 
ENDBRANCH  20  22
ENDBRANCH  19  20
ENDBRANCH   1  19
TORSDOF 5
ENDMDL
MODEL 5
REMARK VINA RESULT: -6.863599909      2.161      7.655
REMARK  5 active torsions:
REMARK  status: ('A' for Active; 'I' for Inactive)
REMARK    1  A    between atoms: C2_2  and  N1_4 
REMARK    2  A    between atoms: N1_4  and  C5_6 
REMARK    3  A    between atoms: C5_6  and  C6_7 
REMARK       I    between atoms: C6_7  and  N2_9 
REMARK    4  A    between atoms: C9_12  and  N3_14 
REMARK       I    between atoms: N3_14  and  C11_16 
REMARK    5  A    between atoms: C11_16  and  C12_18 
ROOT
HETATM    1  C6  UNL     1     -21.047 -48.168  24.397  1.00  0.00     0.248 C 
HETATM    2  O1  UNL     1     -21.890 -48.809  23.723  1.00  0.00    -0.271 OA
HETATM    3  N2  UNL     1     -20.618 -46.884  24.011  1.00  0.00    -0.348 N 
HETATM    4  C7  UNL     1     -21.176 -46.292  22.798  1.00  0.00     0.128 C 
HETATM    5  C8  UNL     1     -21.974 -45.099  23.288  1.00  0.00     0.053 C 
HETATM    6  C9  UNL     1     -21.104 -44.118  23.978  1.00  0.00     0.063 C 
HETATM    7  C10 UNL     1     -21.878 -43.591  25.194  1.00  0.00     0.041 C 
HETATM    8  C16 UNL     1     -19.793 -44.618  24.481  1.00  0.00     0.215 C 
HETATM    9  F1  UNL     1     -19.460 -43.926  25.643  1.00  0.00    -0.245 F 
HETATM   10  C17 UNL     1     -19.662 -46.073  24.713  1.00  0.00     0.165 C 
ENDROOT
BRANCH   6  11
HETATM   11  N3  UNL     1     -20.944 -42.944  23.117  1.00  0.00    -0.349 N 
HETATM   12  C11 UNL     1     -20.791 -41.639  23.657  1.00  0.00     0.226 C 
HETATM   13  O2  UNL     1     -20.781 -41.416  24.893  1.00  0.00    -0.273 OA
ATOM     14  H3  UNL     1     -20.944 -43.066  22.104  1.00  0.00     0.163 HD
BRANCH  12  15
HETATM   15  C12 UNL     1     -20.633 -40.468  22.752  1.00  0.00     0.030 C 
HETATM   16  C13 UNL     1     -19.209 -40.329  22.269  1.00  0.00     0.024 C 
HETATM   17  C14 UNL     1     -21.042 -39.228  23.529  1.00  0.00     0.024 C 
HETATM   18  C15 UNL     1     -21.517 -40.561  21.536  1.00  0.00     0.024 C 
ENDBRANCH  12  15
ENDBRANCH   6  11
BRANCH   1  19
HETATM   19  C5  UNL     1     -20.503 -48.787  25.615  1.00  0.00     0.374 C 
BRANCH  19  20
HETATM   20  N1  UNL     1     -21.422 -48.816  26.707  1.00  0.00     0.096 N 
HETATM   21  C4  UNL     1     -21.544 -50.077  27.366  1.00  0.00     0.310 C 
BRANCH  20  22
HETATM   22  C2  UNL     1     -21.130 -47.732  27.603  1.00  0.00     0.215 C 
HETATM   23  C1  UNL     1     -22.277 -46.744  27.569  1.00  0.00     0.042 C 
HETATM   24  C3  UNL     1     -20.920 -48.168  29.019  1.00  0.00     0.042 C 
ENDBRANCH  20  22
ENDBRANCH  19  20
ENDBRANCH   1  19
TORSDOF 5
ENDMDL
