MODEL 1
REMARK VINA RESULT: -8.430584366      0.000      0.000
REMARK  4 active torsions:
REMARK  status: ('A' for Active; 'I' for Inactive)
REMARK       I    between atoms: C1_2  and  N1_3 
REMARK    1  A    between atoms: C1_2  and  C11_19 
REMARK    2  A    between atoms: N1_3  and  S1_5 
REMARK    3  A    between atoms: S1_5  and  N2_8 
REMARK    4  A    between atoms: C4_11  and  C5_13 
ROOT
HETATM    1  S1  UNL     1     -22.459 -44.773  27.862  1.00  0.00     0.305 S 
HETATM    2  O2  UNL     1     -23.733 -45.208  27.151  1.00  0.00    -0.188 OA
HETATM    3  O3  UNL     1     -22.834 -43.593  28.701  1.00  0.00    -0.188 OA
ENDROOT
BRANCH   1   4
HETATM    4  N1  UNL     1     -21.897 -46.085  28.802  1.00  0.00    -0.241 N 
HETATM    5  C1  UNL     1     -21.628 -47.366  28.248  1.00  0.00     0.236 C 
HETATM    6  O1  UNL     1     -21.804 -47.564  27.013  1.00  0.00    -0.272 OA
ATOM      7  H1  UNL     1     -21.750 -45.943  29.802  1.00  0.00     0.182 HD
BRANCH   5   8
HETATM    8  C11 UNL     1     -21.145 -48.470  29.068  1.00  0.00     0.079 C 
HETATM    9  C12 UNL     1     -22.319 -49.374  29.482  1.00  0.00     0.014 C 
HETATM   10  C13 UNL     1     -21.626 -50.594  30.062  1.00  0.00     0.001 C 
HETATM   11  C14 UNL     1     -20.226 -50.583  29.460  1.00  0.00     0.001 C 
HETATM   12  C15 UNL     1     -20.243 -49.455  28.404  1.00  0.00     0.014 C 
ENDBRANCH   5   8
ENDBRANCH   1   4
BRANCH   1  13
HETATM   13  N2  UNL     1     -21.255 -44.347  26.710  1.00  0.00    -0.190 NA
HETATM   14  C2  UNL     1     -21.709 -44.617  25.374  1.00  0.00     0.112 C 
HETATM   15  C3  UNL     1     -21.377 -43.374  24.577  1.00  0.00     0.060 C 
HETATM   16  C4  UNL     1     -21.641 -42.287  25.609  1.00  0.00     0.121 C 
HETATM   17  F1  UNL     1     -23.004 -42.189  25.773  1.00  0.00    -0.241 F 
HETATM   18  C10 UNL     1     -20.959 -42.926  26.806  1.00  0.00     0.152 C 
BRANCH  16  19
HETATM   19  C5  UNL     1     -21.001 -41.017  25.162  1.00  0.00     0.026 C 
HETATM   20  C6  UNL     1     -21.912 -39.828  25.284  1.00  0.00     0.008 C 
HETATM   21  C7  UNL     1     -21.357 -38.876  24.230  1.00  0.00     0.001 C 
HETATM   22  C8  UNL     1     -21.116 -39.788  23.065  1.00  0.00     0.001 C 
HETATM   23  C9  UNL     1     -20.692 -41.130  23.680  1.00  0.00     0.008 C 
ENDBRANCH  16  19
ENDBRANCH   1  13
TORSDOF 4
ENDMDL
MODEL 2
REMARK VINA RESULT: -7.967699052      4.228      7.850
REMARK  4 active torsions:
REMARK  status: ('A' for Active; 'I' for Inactive)
REMARK       I    between atoms: C1_2  and  N1_3 
REMARK    1  A    between atoms: C1_2  and  C11_19 
REMARK    2  A    between atoms: N1_3  and  S1_5 
REMARK    3  A    between atoms: S1_5  and  N2_8 
REMARK    4  A    between atoms: C4_11  and  C5_13 
ROOT
HETATM    1  S1  UNL     1     -20.798 -44.110  21.281  1.00  0.00     0.305 S 
HETATM    2  O2  UNL     1     -21.351 -43.583  19.964  1.00  0.00    -0.188 OA
HETATM    3  O3  UNL     1     -19.351 -44.404  21.036  1.00  0.00    -0.188 OA
ENDROOT
BRANCH   1   4
HETATM    4  N1  UNL     1     -21.023 -42.908  22.475  1.00  0.00    -0.241 N 
HETATM    5  C1  UNL     1     -20.306 -41.680  22.471  1.00  0.00     0.236 C 
HETATM    6  O1  UNL     1     -19.465 -41.449  21.558  1.00  0.00    -0.272 OA
ATOM      7  H1  UNL     1     -21.698 -43.078  23.220  1.00  0.00     0.182 HD
BRANCH   5   8
HETATM    8  C11 UNL     1     -20.517 -40.666  23.497  1.00  0.00     0.079 C 
HETATM    9  C12 UNL     1     -21.499 -39.596  22.989  1.00  0.00     0.014 C 
HETATM   10  C13 UNL     1     -21.823 -38.805  24.243  1.00  0.00     0.001 C 
HETATM   11  C14 UNL     1     -21.508 -39.743  25.402  1.00  0.00     0.001 C 
HETATM   12  C15 UNL     1     -21.195 -41.109  24.749  1.00  0.00     0.014 C 
ENDBRANCH   5   8
ENDBRANCH   1   4
BRANCH   1  13
HETATM   13  N2  UNL     1     -21.641 -45.535  21.748  1.00  0.00    -0.190 NA
HETATM   14  C2  UNL     1     -20.733 -46.639  21.893  1.00  0.00     0.112 C 
HETATM   15  C3  UNL     1     -21.097 -47.288  23.211  1.00  0.00     0.060 C 
HETATM   16  C4  UNL     1     -21.458 -46.068  24.047  1.00  0.00     0.121 C 
HETATM   17  F1  UNL     1     -20.290 -45.406  24.346  1.00  0.00    -0.241 F 
HETATM   18  C10 UNL     1     -22.301 -45.324  23.027  1.00  0.00     0.152 C 
BRANCH  16  19
HETATM   19  C5  UNL     1     -22.222 -46.505  25.252  1.00  0.00     0.026 C 
HETATM   20  C6  UNL     1     -22.594 -45.362  26.155  1.00  0.00     0.008 C 
HETATM   21  C7  UNL     1     -22.731 -46.044  27.511  1.00  0.00     0.001 C 
HETATM   22  C8  UNL     1     -21.534 -46.946  27.543  1.00  0.00     0.001 C 
HETATM   23  C9  UNL     1     -21.328 -47.399  26.090  1.00  0.00     0.008 C 
ENDBRANCH  16  19
ENDBRANCH   1  13
TORSDOF 4
ENDMDL
MODEL 3
REMARK VINA RESULT: -7.940322438      4.549      7.623
REMARK  4 active torsions:
REMARK  status: ('A' for Active; 'I' for Inactive)
REMARK       I    between atoms: C1_2  and  N1_3 
REMARK    1  A    between atoms: C1_2  and  C11_19 
REMARK    2  A    between atoms: N1_3  and  S1_5 
REMARK    3  A    between atoms: S1_5  and  N2_8 
REMARK    4  A    between atoms: C4_11  and  C5_13 
ROOT
HETATM    1  S1  UNL     1     -20.993 -44.362  21.525  1.00  0.00     0.305 S 
HETATM    2  O2  UNL     1     -21.911 -44.660  20.349  1.00  0.00    -0.188 OA
HETATM    3  O3  UNL     1     -19.596 -44.502  21.007  1.00  0.00    -0.188 OA
ENDROOT
BRANCH   1   4
HETATM    4  N1  UNL     1     -21.325 -42.778  22.076  1.00  0.00    -0.241 N 
HETATM    5  C1  UNL     1     -20.323 -41.776  22.175  1.00  0.00     0.236 C 
HETATM    6  O1  UNL     1     -19.133 -42.045  21.850  1.00  0.00    -0.272 OA
ATOM      7  H1  UNL     1     -22.281 -42.544  22.343  1.00  0.00     0.182 HD
BRANCH   5   8
HETATM    8  C11 UNL     1     -20.629 -40.429  22.643  1.00  0.00     0.079 C 
HETATM    9  C12 UNL     1     -21.865 -39.882  21.907  1.00  0.00     0.014 C 
HETATM   10  C13 UNL     1     -22.210 -38.633  22.697  1.00  0.00     0.001 C 
HETATM   11  C14 UNL     1     -21.579 -38.838  24.069  1.00  0.00     0.001 C 
HETATM   12  C15 UNL     1     -21.057 -40.294  24.065  1.00  0.00     0.014 C 
ENDBRANCH   5   8
ENDBRANCH   1   4
BRANCH   1  13
HETATM   13  N2  UNL     1     -21.286 -45.477  22.802  1.00  0.00    -0.190 NA
HETATM   14  C2  UNL     1     -20.067 -46.123  23.204  1.00  0.00     0.112 C 
HETATM   15  C3  UNL     1     -20.054 -46.053  24.716  1.00  0.00     0.060 C 
HETATM   16  C4  UNL     1     -20.681 -44.685  24.949  1.00  0.00     0.121 C 
HETATM   17  F1  UNL     1     -19.753 -43.734  24.592  1.00  0.00    -0.241 F 
HETATM   18  C10 UNL     1     -21.827 -44.778  23.957  1.00  0.00     0.152 C 
BRANCH  16  19
HETATM   19  C5  UNL     1     -21.125 -44.583  26.369  1.00  0.00     0.026 C 
HETATM   20  C6  UNL     1     -22.555 -45.002  26.567  1.00  0.00     0.008 C 
HETATM   21  C7  UNL     1     -22.955 -44.231  27.820  1.00  0.00     0.001 C 
HETATM   22  C8  UNL     1     -22.377 -42.872  27.563  1.00  0.00     0.001 C 
HETATM   23  C9  UNL     1     -21.078 -43.124  26.784  1.00  0.00     0.008 C 
ENDBRANCH  16  19
ENDBRANCH   1  13
TORSDOF 4
ENDMDL
MODEL 4
REMARK VINA RESULT: -7.859240667      3.085      7.602
REMARK  4 active torsions:
REMARK  status: ('A' for Active; 'I' for Inactive)
REMARK       I    between atoms: C1_2  and  N1_3 
REMARK    1  A    between atoms: C1_2  and  C11_19 
REMARK    2  A    between atoms: N1_3  and  S1_5 
REMARK    3  A    between atoms: S1_5  and  N2_8 
REMARK    4  A    between atoms: C4_11  and  C5_13 
ROOT
HETATM    1  S1  UNL     1     -21.681 -45.192  23.108  1.00  0.00     0.305 S 
HETATM    2  O2  UNL     1     -22.630 -44.873  21.960  1.00  0.00    -0.188 OA
HETATM    3  O3  UNL     1     -20.378 -45.568  22.476  1.00  0.00    -0.188 OA
ENDROOT
BRANCH   1   4
HETATM    4  N1  UNL     1     -21.547 -43.801  24.093  1.00  0.00    -0.241 N 
HETATM    5  C1  UNL     1     -20.901 -42.613  23.657  1.00  0.00     0.236 C 
HETATM    6  O1  UNL     1     -20.398 -42.561  22.500  1.00  0.00    -0.272 OA
ATOM      7  H1  UNL     1     -21.947 -43.825  25.031  1.00  0.00     0.182 HD
BRANCH   5   8
HETATM    8  C11 UNL     1     -20.801 -41.436  24.512  1.00  0.00     0.079 C 
HETATM    9  C12 UNL     1     -21.336 -40.198  23.772  1.00  0.00     0.014 C 
HETATM   10  C13 UNL     1     -21.431 -39.155  24.870  1.00  0.00     0.001 C 
HETATM   11  C14 UNL     1     -21.508 -39.947  26.170  1.00  0.00     0.001 C 
HETATM   12  C15 UNL     1     -21.648 -41.426  25.740  1.00  0.00     0.014 C 
ENDBRANCH   5   8
ENDBRANCH   1   4
BRANCH   1  13
HETATM   13  N2  UNL     1     -22.304 -46.492  24.047  1.00  0.00    -0.190 NA
HETATM   14  C2  UNL     1     -21.452 -47.645  23.948  1.00  0.00     0.112 C 
HETATM   15  C3  UNL     1     -21.264 -48.129  25.370  1.00  0.00     0.060 C 
HETATM   16  C4  UNL     1     -21.212 -46.807  26.123  1.00  0.00     0.121 C 
HETATM   17  F1  UNL     1     -20.003 -46.214  25.842  1.00  0.00    -0.241 F 
HETATM   18  C10 UNL     1     -22.374 -46.102  25.447  1.00  0.00     0.152 C 
BRANCH  16  19
HETATM   19  C5  UNL     1     -21.429 -47.059  27.577  1.00  0.00     0.026 C 
HETATM   20  C6  UNL     1     -21.371 -48.519  27.933  1.00  0.00     0.008 C 
HETATM   21  C7  UNL     1     -22.224 -48.587  29.194  1.00  0.00     0.001 C 
HETATM   22  C8  UNL     1     -23.400 -47.729  28.836  1.00  0.00     0.001 C 
HETATM   23  C9  UNL     1     -22.836 -46.619  27.938  1.00  0.00     0.008 C 
ENDBRANCH  16  19
ENDBRANCH   1  13
TORSDOF 4
ENDMDL
MODEL 5
REMARK VINA RESULT: -7.799450432      1.448      1.838
REMARK  4 active torsions:
REMARK  status: ('A' for Active; 'I' for Inactive)
REMARK       I    between atoms: C1_2  and  N1_3 
REMARK    1  A    between atoms: C1_2  and  C11_19 
REMARK    2  A    between atoms: N1_3  and  S1_5 
REMARK    3  A    between atoms: S1_5  and  N2_8 
REMARK    4  A    between atoms: C4_11  and  C5_13 
ROOT
HETATM    1  S1  UNL     1     -22.358 -46.257  26.094  1.00  0.00     0.305 S 
HETATM    2  O2  UNL     1     -22.834 -46.330  24.650  1.00  0.00    -0.188 OA
HETATM    3  O3  UNL     1     -23.459 -45.596  26.862  1.00  0.00    -0.188 OA
ENDROOT
BRANCH   1   4
HETATM    4  N1  UNL     1     -22.053 -47.849  26.638  1.00  0.00    -0.241 N 
HETATM    5  C1  UNL     1     -21.747 -48.151  27.992  1.00  0.00     0.236 C 
HETATM    6  O1  UNL     1     -21.692 -47.221  28.844  1.00  0.00    -0.272 OA
ATOM      7  H1  UNL     1     -22.092 -48.613  25.962  1.00  0.00     0.182 HD
BRANCH   5   8
HETATM    8  C11 UNL     1     -21.495 -49.517  28.435  1.00  0.00     0.079 C 
HETATM    9  C12 UNL     1     -19.981 -49.763  28.553  1.00  0.00     0.014 C 
HETATM   10  C13 UNL     1     -19.904 -51.092  29.283  1.00  0.00     0.001 C 
HETATM   11  C14 UNL     1     -21.239 -51.230  30.005  1.00  0.00     0.001 C 
HETATM   12  C15 UNL     1     -21.953 -49.872  29.809  1.00  0.00     0.014 C 
ENDBRANCH   5   8
ENDBRANCH   1   4
BRANCH   1  13
HETATM   13  N2  UNL     1     -20.907 -45.338  26.193  1.00  0.00    -0.190 NA
HETATM   14  C2  UNL     1     -20.197 -45.372  24.945  1.00  0.00     0.112 C 
HETATM   15  C3  UNL     1     -19.814 -43.936  24.661  1.00  0.00     0.060 C 
HETATM   16  C4  UNL     1     -21.036 -43.198  25.191  1.00  0.00     0.121 C 
HETATM   17  F1  UNL     1     -22.069 -43.417  24.309  1.00  0.00    -0.241 F 
HETATM   18  C10 UNL     1     -21.219 -43.950  26.496  1.00  0.00     0.152 C 
BRANCH  16  19
HETATM   19  C5  UNL     1     -20.701 -41.756  25.371  1.00  0.00     0.026 C 
HETATM   20  C6  UNL     1     -21.681 -41.034  26.252  1.00  0.00     0.008 C 
HETATM   21  C7  UNL     1     -21.555 -39.591  25.775  1.00  0.00     0.001 C 
HETATM   22  C8  UNL     1     -21.530 -39.745  24.284  1.00  0.00     0.001 C 
HETATM   23  C9  UNL     1     -20.796 -41.067  24.023  1.00  0.00     0.008 C 
ENDBRANCH  16  19
ENDBRANCH   1  13
TORSDOF 4
ENDMDL
