MODEL 1
REMARK VINA RESULT: -6.441226284      0.000      0.000
REMARK  4 active torsions:
REMARK  status: ('A' for Active; 'I' for Inactive)
REMARK    1  A    between atoms: S1_2  and  N1_5 
REMARK    2  A    between atoms: N1_5  and  C2_7 
REMARK    3  A    between atoms: C2_7  and  C3_8 
REMARK    4  A    between atoms: N2_9  and  C4_11 
ROOT
HETATM    1  C4  UNL     1     -22.219 -43.758  26.350  1.00  0.00     0.035 C 
HETATM    2  C5  UNL     1     -22.959 -42.439  26.425  1.00  0.00     0.036 C 
HETATM    3  C6  UNL     1     -21.827 -41.482  26.024  1.00  0.00    -0.010 C 
HETATM    4  C7  UNL     1     -20.772 -41.933  27.044  1.00  0.00     0.012 C 
HETATM    5  C8  UNL     1     -20.837 -43.448  26.803  1.00  0.00     0.015 C 
HETATM    6  C9  UNL     1     -19.961 -43.657  25.560  1.00  0.00     0.028 C 
HETATM    7  C10 UNL     1     -20.944 -43.207  24.475  1.00  0.00     0.021 C 
HETATM    8 BR1  UNL     1     -20.274 -43.602  22.741  1.00  0.00    -0.085 Br
HETATM    9  C11 UNL     1     -21.347 -41.783  24.643  1.00  0.00     0.026 C 
HETATM   10  C12 UNL     1     -22.140 -44.090  24.856  1.00  0.00     0.052 C 
ENDROOT
BRANCH   1  11
HETATM   11  N2  UNL     1     -22.860 -44.807  27.029  1.00  0.00    -0.391 N 
HETATM   12  C3  UNL     1     -22.281 -45.739  27.692  1.00  0.00     0.076 C 
ATOM     13  H2  UNL     1     -23.879 -44.829  26.993  1.00  0.00     0.159 HD
BRANCH  12  14
HETATM   14  C2  UNL     1     -23.132 -46.764  28.345  1.00  0.00     0.176 C 
BRANCH  14  15
HETATM   15  N1  UNL     1     -22.320 -47.464  29.342  1.00  0.00    -0.315 N 
ATOM     16  H1  UNL     1     -21.895 -47.028  30.160  1.00  0.00     0.172 HD
BRANCH  15  17
HETATM   17  S1  UNL     1     -22.188 -49.141  28.926  1.00  0.00     0.223 S 
HETATM   18  C1  UNL     1     -21.167 -49.366  27.496  1.00  0.00     0.185 C 
HETATM   19  O1  UNL     1     -21.542 -49.845  30.083  1.00  0.00    -0.206 OA
HETATM   20  O2  UNL     1     -23.561 -49.729  28.677  1.00  0.00    -0.206 OA
ENDBRANCH  15  17
ENDBRANCH  14  15
ENDBRANCH  12  14
ENDBRANCH   1  11
TORSDOF 4
ENDMDL
MODEL 2
REMARK VINA RESULT: -6.357600214      3.554      4.549
REMARK  4 active torsions:
REMARK  status: ('A' for Active; 'I' for Inactive)
REMARK    1  A    between atoms: S1_2  and  N1_5 
REMARK    2  A    between atoms: N1_5  and  C2_7 
REMARK    3  A    between atoms: C2_7  and  C3_8 
REMARK    4  A    between atoms: N2_9  and  C4_11 
ROOT
HETATM    1  C4  UNL     1     -21.110 -44.454  24.347  1.00  0.00     0.035 C 
HETATM    2  C5  UNL     1     -19.800 -45.206  24.451  1.00  0.00     0.036 C 
HETATM    3  C6  UNL     1     -19.425 -45.283  22.964  1.00  0.00    -0.010 C 
HETATM    4  C7  UNL     1     -20.727 -45.899  22.431  1.00  0.00     0.012 C 
HETATM    5  C8  UNL     1     -21.732 -44.941  23.086  1.00  0.00     0.015 C 
HETATM    6  C9  UNL     1     -21.735 -43.722  22.154  1.00  0.00     0.028 C 
HETATM    7  C10 UNL     1     -20.439 -43.046  22.612  1.00  0.00     0.021 C 
HETATM    8 BR1  UNL     1     -20.263 -41.317  21.842  1.00  0.00    -0.085 Br
HETATM    9  C11 UNL     1     -19.249 -43.915  22.393  1.00  0.00     0.026 C 
HETATM   10  C12 UNL     1     -20.718 -42.990  24.120  1.00  0.00     0.052 C 
ENDROOT
BRANCH   1  11
HETATM   11  N2  UNL     1     -21.912 -44.552  25.495  1.00  0.00    -0.391 N 
HETATM   12  C3  UNL     1     -22.236 -45.636  26.098  1.00  0.00     0.076 C 
ATOM     13  H2  UNL     1     -22.268 -43.680  25.887  1.00  0.00     0.159 HD
BRANCH  12  14
HETATM   14  C2  UNL     1     -23.095 -45.536  27.303  1.00  0.00     0.176 C 
BRANCH  14  15
HETATM   15  N1  UNL     1     -22.351 -44.812  28.335  1.00  0.00    -0.315 N 
ATOM     16  H1  UNL     1     -21.696 -45.237  28.991  1.00  0.00     0.172 HD
BRANCH  15  17
HETATM   17  S1  UNL     1     -22.748 -43.126  28.278  1.00  0.00     0.223 S 
HETATM   18  C1  UNL     1     -22.955 -42.463  29.908  1.00  0.00     0.185 C 
HETATM   19  O1  UNL     1     -21.602 -42.413  27.620  1.00  0.00    -0.206 OA
HETATM   20  O2  UNL     1     -24.010 -42.911  27.470  1.00  0.00    -0.206 OA
ENDBRANCH  15  17
ENDBRANCH  14  15
ENDBRANCH  12  14
ENDBRANCH   1  11
TORSDOF 4
ENDMDL
MODEL 3
REMARK VINA RESULT: -6.291123230      4.114      6.720
REMARK  4 active torsions:
REMARK  status: ('A' for Active; 'I' for Inactive)
REMARK    1  A    between atoms: S1_2  and  N1_5 
REMARK    2  A    between atoms: N1_5  and  C2_7 
REMARK    3  A    between atoms: C2_7  and  C3_8 
REMARK    4  A    between atoms: N2_9  and  C4_11 
ROOT
HETATM    1  C4  UNL     1     -22.150 -47.888  28.111  1.00  0.00     0.035 C 
HETATM    2  C5  UNL     1     -23.123 -48.683  28.956  1.00  0.00     0.036 C 
HETATM    3  C6  UNL     1     -22.374 -50.022  29.026  1.00  0.00    -0.010 C 
HETATM    4  C7  UNL     1     -22.163 -50.246  27.522  1.00  0.00     0.012 C 
HETATM    5  C8  UNL     1     -21.580 -48.874  27.154  1.00  0.00     0.015 C 
HETATM    6  C9  UNL     1     -20.100 -48.989  27.545  1.00  0.00     0.028 C 
HETATM    7  C10 UNL     1     -20.219 -48.793  29.059  1.00  0.00     0.021 C 
HETATM    8 BR1  UNL     1     -18.505 -48.596  29.858  1.00  0.00    -0.085 Br
HETATM    9  C11 UNL     1     -21.051 -49.851  29.696  1.00  0.00     0.026 C 
HETATM   10  C12 UNL     1     -21.022 -47.484  29.067  1.00  0.00     0.052 C 
ENDROOT
BRANCH   1  11
HETATM   11  N2  UNL     1     -22.709 -46.737  27.535  1.00  0.00    -0.391 N 
HETATM   12  C3  UNL     1     -22.477 -45.527  27.891  1.00  0.00     0.076 C 
ATOM     13  H2  UNL     1     -23.361 -46.874  26.762  1.00  0.00     0.159 HD
BRANCH  12  14
HETATM   14  C2  UNL     1     -23.166 -44.437  27.158  1.00  0.00     0.176 C 
BRANCH  14  15
HETATM   15  N1  UNL     1     -22.544 -43.168  27.535  1.00  0.00    -0.315 N 
ATOM     16  H1  UNL     1     -22.683 -42.691  28.426  1.00  0.00     0.172 HD
BRANCH  15  17
HETATM   17  S1  UNL     1     -21.536 -42.597  26.247  1.00  0.00     0.223 S 
HETATM   18  C1  UNL     1     -21.772 -40.862  25.973  1.00  0.00     0.185 C 
HETATM   19  O1  UNL     1     -20.109 -42.820  26.654  1.00  0.00    -0.206 OA
HETATM   20  O2  UNL     1     -21.827 -43.363  24.974  1.00  0.00    -0.206 OA
ENDBRANCH  15  17
ENDBRANCH  14  15
ENDBRANCH  12  14
ENDBRANCH   1  11
TORSDOF 4
ENDMDL
MODEL 4
REMARK VINA RESULT: -6.154780836      3.578      4.905
REMARK  4 active torsions:
REMARK  status: ('A' for Active; 'I' for Inactive)
REMARK    1  A    between atoms: S1_2  and  N1_5 
REMARK    2  A    between atoms: N1_5  and  C2_7 
REMARK    3  A    between atoms: C2_7  and  C3_8 
REMARK    4  A    between atoms: N2_9  and  C4_11 
ROOT
HETATM    1  C4  UNL     1     -21.332 -44.450  23.974  1.00  0.00     0.035 C 
HETATM    2  C5  UNL     1     -21.918 -45.839  24.113  1.00  0.00     0.036 C 
HETATM    3  C6  UNL     1     -21.681 -46.365  22.690  1.00  0.00    -0.010 C 
HETATM    4  C7  UNL     1     -22.350 -45.225  21.909  1.00  0.00     0.012 C 
HETATM    5  C8  UNL     1     -21.660 -44.033  22.585  1.00  0.00     0.015 C 
HETATM    6  C9  UNL     1     -20.303 -43.944  21.872  1.00  0.00     0.028 C 
HETATM    7  C10 UNL     1     -19.563 -45.077  22.588  1.00  0.00     0.021 C 
HETATM    8 BR1  UNL     1     -17.715 -45.075  22.139  1.00  0.00    -0.085 Br
HETATM    9  C11 UNL     1     -20.222 -46.396  22.376  1.00  0.00     0.026 C 
HETATM   10  C12 UNL     1     -19.813 -44.646  24.040  1.00  0.00     0.052 C 
ENDROOT
BRANCH   1  11
HETATM   11  N2  UNL     1     -21.733 -43.562  24.985  1.00  0.00    -0.391 N 
HETATM   12  C3  UNL     1     -21.093 -42.520  25.369  1.00  0.00     0.076 C 
ATOM     13  H2  UNL     1     -22.614 -43.765  25.458  1.00  0.00     0.159 HD
BRANCH  12  14
HETATM   14  C2  UNL     1     -21.681 -41.701  26.458  1.00  0.00     0.176 C 
BRANCH  14  15
HETATM   15  N1  UNL     1     -21.496 -42.419  27.720  1.00  0.00    -0.315 N 
ATOM     16  H1  UNL     1     -20.622 -42.467  28.243  1.00  0.00     0.172 HD
BRANCH  15  17
HETATM   17  S1  UNL     1     -22.982 -43.174  28.193  1.00  0.00     0.223 S 
HETATM   18  C1  UNL     1     -22.823 -44.939  28.212  1.00  0.00     0.185 C 
HETATM   19  O1  UNL     1     -23.300 -42.715  29.587  1.00  0.00    -0.206 OA
HETATM   20  O2  UNL     1     -24.100 -42.767  27.256  1.00  0.00    -0.206 OA
ENDBRANCH  15  17
ENDBRANCH  14  15
ENDBRANCH  12  14
ENDBRANCH   1  11
TORSDOF 4
ENDMDL
MODEL 5
REMARK VINA RESULT: -6.154433824      1.544      1.972
REMARK  4 active torsions:
REMARK  status: ('A' for Active; 'I' for Inactive)
REMARK    1  A    between atoms: S1_2  and  N1_5 
REMARK    2  A    between atoms: N1_5  and  C2_7 
REMARK    3  A    between atoms: C2_7  and  C3_8 
REMARK    4  A    between atoms: N2_9  and  C4_11 
ROOT
HETATM    1  C4  UNL     1     -21.866 -45.697  25.624  1.00  0.00     0.035 C 
HETATM    2  C5  UNL     1     -22.218 -44.251  25.903  1.00  0.00     0.036 C 
HETATM    3  C6  UNL     1     -21.205 -43.555  24.982  1.00  0.00    -0.010 C 
HETATM    4  C7  UNL     1     -19.926 -44.239  25.487  1.00  0.00     0.012 C 
HETATM    5  C8  UNL     1     -20.393 -45.700  25.418  1.00  0.00     0.015 C 
HETATM    6  C9  UNL     1     -20.205 -46.074  23.941  1.00  0.00     0.028 C 
HETATM    7  C10 UNL     1     -21.448 -45.405  23.348  1.00  0.00     0.021 C 
HETATM    8 BR1  UNL     1     -21.692 -45.908  21.531  1.00  0.00    -0.085 Br
HETATM    9  C11 UNL     1     -21.443 -43.930  23.557  1.00  0.00     0.026 C 
HETATM   10  C12 UNL     1     -22.512 -46.015  24.271  1.00  0.00     0.052 C 
ENDROOT
BRANCH   1  11
HETATM   11  N2  UNL     1     -22.345 -46.593  26.594  1.00  0.00    -0.391 N 
HETATM   12  C3  UNL     1     -22.854 -46.275  27.726  1.00  0.00     0.076 C 
ATOM     13  H2  UNL     1     -22.282 -47.588  26.377  1.00  0.00     0.159 HD
BRANCH  12  14
HETATM   14  C2  UNL     1     -23.307 -47.369  28.621  1.00  0.00     0.176 C 
BRANCH  14  15
HETATM   15  N1  UNL     1     -22.152 -47.844  29.383  1.00  0.00    -0.315 N 
ATOM     16  H1  UNL     1     -21.612 -47.279  30.038  1.00  0.00     0.172 HD
BRANCH  15  17
HETATM   17  S1  UNL     1     -21.838 -49.506  29.008  1.00  0.00     0.223 S 
HETATM   18  C1  UNL     1     -20.511 -49.658  27.843  1.00  0.00     0.185 C 
HETATM   19  O1  UNL     1     -21.429 -50.189  30.281  1.00  0.00    -0.206 OA
HETATM   20  O2  UNL     1     -23.085 -50.164  28.457  1.00  0.00    -0.206 OA
ENDBRANCH  15  17
ENDBRANCH  14  15
ENDBRANCH  12  14
ENDBRANCH   1  11
TORSDOF 4
ENDMDL
