MODEL 1
REMARK VINA RESULT: -7.319756601      0.000      0.000
REMARK  4 active torsions:
REMARK  status: ('A' for Active; 'I' for Inactive)
REMARK    1  A    between atoms: N1_2  and  C2_4 
REMARK    2  A    between atoms: C2_4  and  C3_5 
REMARK    3  A    between atoms: C3_5  and  C4_6 
REMARK    4  A    between atoms: C5_7  and  C6_8 
ROOT
HETATM    1  C4  UNL     1      -4.609  -4.290  16.415  1.00  0.00    -0.104 C 
HETATM    2  C5  UNL     1      -5.313  -4.941  17.146  1.00  0.00    -0.098 C 
ENDROOT
BRANCH   1   3
HETATM    3  C3  UNL     1      -3.754  -3.486  15.541  1.00  0.00     0.113 C 
BRANCH   3   4
HETATM    4  C2  UNL     1      -2.468  -4.240  15.257  1.00  0.00     0.130 C 
BRANCH   4   5
HETATM    5  N1  UNL     1      -1.316  -3.418  15.443  1.00  0.00    -0.407 N 
HETATM    6  C1  UNL     1      -0.177  -3.694  14.957  1.00  0.00     0.112 C 
ATOM      7  H1  UNL     1      -1.413  -2.566  15.996  1.00  0.00     0.158 HD
ENDBRANCH   4   5
ENDBRANCH   3   4
ENDBRANCH   1   3
BRANCH   2   8
HETATM    8  C6  UNL     1      -6.176  -5.747  18.046  1.00  0.00     0.087 A 
HETATM    9  C7  UNL     1      -7.246  -6.202  17.656  1.00  0.00    -0.014 A 
HETATM   10  C8  UNL     1      -7.553  -6.829  17.350  1.00  0.00    -0.029 A 
HETATM   11  C9  UNL     1      -7.248  -7.961  16.966  1.00  0.00     0.028 A 
HETATM   12  C10 UNL     1      -5.578  -7.407  17.495  1.00  0.00     0.025 A 
ENDBRANCH   2   8
TORSDOF 4
ENDMDL
MODEL 2
REMARK VINA RESULT: -7.071183174      1.166      1.594
REMARK  4 active torsions:
REMARK  status: ('A' for Active; 'I' for Inactive)
REMARK    1  A    between atoms: N1_2  and  C2_4 
REMARK    2  A    between atoms: C2_4  and  C3_5 
REMARK    3  A    between atoms: C3_5  and  C4_6 
REMARK    4  A    between atoms: C5_7  and  C6_8 
ROOT
HETATM    1  C4  UNL     1      -4.671  -4.638  16.194  1.00  0.00    -0.104 C 
HETATM    2  C5  UNL     1      -5.359  -5.162  17.033  1.00  0.00    -0.098 C 
ENDROOT
BRANCH   1   3
HETATM    3  C3  UNL     1      -3.831  -4.020  15.167  1.00  0.00     0.113 C 
BRANCH   3   4
HETATM    4  C2  UNL     1      -2.701  -3.254  15.830  1.00  0.00     0.130 C 
BRANCH   4   5
HETATM    5  N1  UNL     1      -2.781  -1.853  15.569  1.00  0.00    -0.407 N 
HETATM    6  C1  UNL     1      -3.729  -1.120  15.984  1.00  0.00     0.112 C 
ATOM      7  H1  UNL     1      -2.038  -1.420  15.020  1.00  0.00     0.158 HD
ENDBRANCH   4   5
ENDBRANCH   3   4
ENDBRANCH   1   3
BRANCH   2   8
HETATM    8  C6  UNL     1      -6.213  -5.803  18.065  1.00  0.00     0.087 A 
HETATM    9  C7  UNL     1      -7.399  -6.035  17.852  1.00  0.00    -0.014 A 
HETATM   10  C8  UNL     1      -7.865  -6.585  17.604  1.00  0.00    -0.029 A 
HETATM   11  C9  UNL     1      -7.848  -7.747  17.191  1.00  0.00     0.028 A 
HETATM   12  C10 UNL     1      -6.041  -7.537  17.447  1.00  0.00     0.025 A 
ENDBRANCH   2   8
TORSDOF 4
ENDMDL
MODEL 3
REMARK VINA RESULT: -6.796859285      1.057      1.124
REMARK  4 active torsions:
REMARK  status: ('A' for Active; 'I' for Inactive)
REMARK    1  A    between atoms: N1_2  and  C2_4 
REMARK    2  A    between atoms: C2_4  and  C3_5 
REMARK    3  A    between atoms: C3_5  and  C4_6 
REMARK    4  A    between atoms: C5_7  and  C6_8 
ROOT
HETATM    1  C4  UNL     1      -4.643  -4.474  16.260  1.00  0.00    -0.104 C 
HETATM    2  C5  UNL     1      -5.296  -5.071  17.077  1.00  0.00    -0.098 C 
ENDROOT
BRANCH   1   3
HETATM    3  C3  UNL     1      -3.838  -3.764  15.265  1.00  0.00     0.113 C 
BRANCH   3   4
HETATM    4  C2  UNL     1      -2.386  -3.744  15.708  1.00  0.00     0.130 C 
BRANCH   4   5
HETATM    5  N1  UNL     1      -2.239  -4.152  17.068  1.00  0.00    -0.407 N 
HETATM    6  C1  UNL     1      -1.185  -4.690  17.524  1.00  0.00     0.112 C 
ATOM      7  H1  UNL     1      -3.021  -4.003  17.706  1.00  0.00     0.158 HD
ENDBRANCH   4   5
ENDBRANCH   3   4
ENDBRANCH   1   3
BRANCH   2   8
HETATM    8  C6  UNL     1      -6.106  -5.806  18.081  1.00  0.00     0.087 A 
HETATM    9  C7  UNL     1      -7.286  -6.071  17.871  1.00  0.00    -0.014 A 
HETATM   10  C8  UNL     1      -7.735  -6.624  17.598  1.00  0.00    -0.029 A 
HETATM   11  C9  UNL     1      -7.679  -7.757  17.115  1.00  0.00     0.028 A 
HETATM   12  C10 UNL     1      -5.878  -7.491  17.357  1.00  0.00     0.025 A 
ENDBRANCH   2   8
TORSDOF 4
ENDMDL
MODEL 4
REMARK VINA RESULT: -6.741199866      1.008      1.174
REMARK  4 active torsions:
REMARK  status: ('A' for Active; 'I' for Inactive)
REMARK    1  A    between atoms: N1_2  and  C2_4 
REMARK    2  A    between atoms: C2_4  and  C3_5 
REMARK    3  A    between atoms: C3_5  and  C4_6 
REMARK    4  A    between atoms: C5_7  and  C6_8 
ROOT
HETATM    1  C4  UNL     1      -3.532  -5.074  16.783  1.00  0.00    -0.104 C 
HETATM    2  C5  UNL     1      -4.443  -5.471  17.465  1.00  0.00    -0.098 C 
ENDROOT
BRANCH   1   3
HETATM    3  C3  UNL     1      -2.435  -4.573  15.953  1.00  0.00     0.113 C 
BRANCH   3   4
HETATM    4  C2  UNL     1      -1.126  -4.712  16.707  1.00  0.00     0.130 C 
BRANCH   4   5
HETATM    5  N1  UNL     1      -0.093  -3.911  16.135  1.00  0.00    -0.407 N 
HETATM    6  C1  UNL     1       0.010  -3.692  14.890  1.00  0.00     0.112 C 
ATOM      7  H1  UNL     1       0.598  -3.493  16.758  1.00  0.00     0.158 HD
ENDBRANCH   4   5
ENDBRANCH   3   4
ENDBRANCH   1   3
BRANCH   2   8
HETATM    8  C6  UNL     1      -5.560  -5.963  18.310  1.00  0.00     0.087 A 
HETATM    9  C7  UNL     1      -6.729  -5.771  17.988  1.00  0.00    -0.014 A 
HETATM   10  C8  UNL     1      -7.308  -6.100  17.616  1.00  0.00    -0.029 A 
HETATM   11  C9  UNL     1      -7.594  -7.128  16.998  1.00  0.00     0.028 A 
HETATM   12  C10 UNL     1      -5.850  -7.542  17.394  1.00  0.00     0.025 A 
ENDBRANCH   2   8
TORSDOF 4
ENDMDL
MODEL 5
REMARK VINA RESULT: -6.638928030      1.274      1.615
REMARK  4 active torsions:
REMARK  status: ('A' for Active; 'I' for Inactive)
REMARK    1  A    between atoms: N1_2  and  C2_4 
REMARK    2  A    between atoms: C2_4  and  C3_5 
REMARK    3  A    between atoms: C3_5  and  C4_6 
REMARK    4  A    between atoms: C5_7  and  C6_8 
ROOT
HETATM    1  C4  UNL     1      -4.605  -3.150  16.455  1.00  0.00    -0.104 C 
HETATM    2  C5  UNL     1      -5.216  -4.093  16.892  1.00  0.00    -0.098 C 
ENDROOT
BRANCH   1   3
HETATM    3  C3  UNL     1      -3.846  -2.018  15.922  1.00  0.00     0.113 C 
BRANCH   3   4
HETATM    4  C2  UNL     1      -2.747  -2.529  15.009  1.00  0.00     0.130 C 
BRANCH   4   5
HETATM    5  N1  UNL     1      -1.906  -3.477  15.665  1.00  0.00    -0.407 N 
HETATM    6  C1  UNL     1      -0.791  -3.861  15.198  1.00  0.00     0.112 C 
ATOM      7  H1  UNL     1      -2.218  -3.866  16.555  1.00  0.00     0.158 HD
ENDBRANCH   4   5
ENDBRANCH   3   4
ENDBRANCH   1   3
BRANCH   2   8
HETATM    8  C6  UNL     1      -5.973  -5.252  17.427  1.00  0.00     0.087 A 
HETATM    9  C7  UNL     1      -5.827  -6.376  16.955  1.00  0.00    -0.014 A 
HETATM   10  C8  UNL     1      -5.427  -7.018  17.054  1.00  0.00    -0.029 A 
HETATM   11  C9  UNL     1      -4.562  -7.510  17.781  1.00  0.00     0.028 A 
HETATM   12  C10 UNL     1      -4.662  -5.859  18.580  1.00  0.00     0.025 A 
ENDBRANCH   2   8
TORSDOF 4
ENDMDL
