MODEL 1
REMARK VINA RESULT: -5.501396871      0.000      0.000
REMARK  2 active torsions:
REMARK  status: ('A' for Active; 'I' for Inactive)
REMARK    1  A    between atoms: C2_2  and  N1_3 
REMARK    2  A    between atoms: C2_2  and  N2_6 
ROOT
HETATM    1  N2  UNL     1      -2.847  -4.113  16.073  1.00  0.00    -0.027 N 
HETATM    2  C4  UNL     1      -1.859  -4.382  15.036  1.00  0.00     0.281 C 
HETATM    3  C5  UNL     1      -2.845  -2.709  16.442  1.00  0.00     0.245 C 
HETATM    4  C6  UNL     1      -4.272  -2.217  16.388  1.00  0.00     0.030 C 
HETATM    5  C7  UNL     1      -5.035  -3.552  16.457  1.00  0.00     0.030 C 
HETATM    6  C8  UNL     1      -4.138  -4.364  15.545  1.00  0.00     0.245 C 
ENDROOT
BRANCH   1   7
HETATM    7  C2  UNL     1      -2.543  -4.952  17.154  1.00  0.00     0.193 C 
HETATM    8  C1  UNL     1      -1.898  -4.607  18.240  1.00  0.00     0.071 C 
BRANCH   7   9
HETATM    9  N1  UNL     1      -3.001  -6.313  17.016  1.00  0.00    -0.375 N 
HETATM   10  C3  UNL     1      -3.975  -6.812  17.947  1.00  0.00     0.147 C 
ATOM     11  H1  UNL     1      -2.641  -6.910  16.271  1.00  0.00     0.160 HD
ENDBRANCH   7   9
ENDBRANCH   1   7
TORSDOF 2
ENDMDL
MODEL 2
REMARK VINA RESULT: -5.444083741      1.169      3.562
REMARK  2 active torsions:
REMARK  status: ('A' for Active; 'I' for Inactive)
REMARK    1  A    between atoms: C2_2  and  N1_3 
REMARK    2  A    between atoms: C2_2  and  N2_6 
ROOT
HETATM    1  N2  UNL     1      -2.986  -4.817  16.874  1.00  0.00    -0.027 N 
HETATM    2  C4  UNL     1      -1.882  -4.666  15.935  1.00  0.00     0.281 C 
HETATM    3  C5  UNL     1      -3.676  -6.077  16.668  1.00  0.00     0.245 C 
HETATM    4  C6  UNL     1      -3.788  -6.765  18.009  1.00  0.00     0.030 C 
HETATM    5  C7  UNL     1      -3.565  -5.574  18.958  1.00  0.00     0.030 C 
HETATM    6  C8  UNL     1      -2.457  -4.884  18.188  1.00  0.00     0.245 C 
ENDROOT
BRANCH   1   7
HETATM    7  C2  UNL     1      -3.827  -3.709  16.696  1.00  0.00     0.193 C 
HETATM    8  C1  UNL     1      -5.116  -3.749  16.474  1.00  0.00     0.071 C 
BRANCH   7   9
HETATM    9  N1  UNL     1      -3.170  -2.427  16.773  1.00  0.00    -0.375 N 
HETATM   10  C3  UNL     1      -3.761  -1.306  16.096  1.00  0.00     0.147 C 
ATOM     11  H1  UNL     1      -2.302  -2.318  17.299  1.00  0.00     0.160 HD
ENDBRANCH   7   9
ENDBRANCH   1   7
TORSDOF 2
ENDMDL
MODEL 3
REMARK VINA RESULT: -5.321403674      1.101      2.012
REMARK  2 active torsions:
REMARK  status: ('A' for Active; 'I' for Inactive)
REMARK    1  A    between atoms: C2_2  and  N1_3 
REMARK    2  A    between atoms: C2_2  and  N2_6 
ROOT
HETATM    1  N2  UNL     1      -3.037  -4.302  16.920  1.00  0.00    -0.027 N 
HETATM    2  C4  UNL     1      -2.142  -4.479  18.057  1.00  0.00     0.281 C 
HETATM    3  C5  UNL     1      -3.530  -2.939  16.853  1.00  0.00     0.245 C 
HETATM    4  C6  UNL     1      -3.304  -2.437  15.446  1.00  0.00     0.030 C 
HETATM    5  C7  UNL     1      -3.132  -3.769  14.694  1.00  0.00     0.030 C 
HETATM    6  C8  UNL     1      -2.297  -4.498  15.727  1.00  0.00     0.245 C 
ENDROOT
BRANCH   1   7
HETATM    7  C2  UNL     1      -4.069  -5.239  17.065  1.00  0.00     0.193 C 
HETATM    8  C1  UNL     1      -5.352  -4.991  16.985  1.00  0.00     0.071 C 
BRANCH   7   9
HETATM    9  N1  UNL     1      -3.634  -6.590  17.323  1.00  0.00    -0.375 N 
HETATM   10  C3  UNL     1      -4.612  -7.570  17.709  1.00  0.00     0.147 C 
ATOM     11  H1  UNL     1      -2.651  -6.846  17.234  1.00  0.00     0.160 HD
ENDBRANCH   7   9
ENDBRANCH   1   7
TORSDOF 2
ENDMDL
MODEL 4
REMARK VINA RESULT: -5.240073399      1.592      2.297
REMARK  2 active torsions:
REMARK  status: ('A' for Active; 'I' for Inactive)
REMARK    1  A    between atoms: C2_2  and  N1_3 
REMARK    2  A    between atoms: C2_2  and  N2_6 
ROOT
HETATM    1  N2  UNL     1      -3.164  -4.515  17.064  1.00  0.00    -0.027 N 
HETATM    2  C4  UNL     1      -2.280  -4.632  18.217  1.00  0.00     0.281 C 
HETATM    3  C5  UNL     1      -3.683  -3.165  16.942  1.00  0.00     0.245 C 
HETATM    4  C6  UNL     1      -3.451  -2.709  15.520  1.00  0.00     0.030 C 
HETATM    5  C7  UNL     1      -3.242  -4.063  14.819  1.00  0.00     0.030 C 
HETATM    6  C8  UNL     1      -2.405  -4.737  15.887  1.00  0.00     0.245 C 
ENDROOT
BRANCH   1   7
HETATM    7  C2  UNL     1      -4.178  -5.468  17.230  1.00  0.00     0.193 C 
HETATM    8  C1  UNL     1      -4.006  -6.735  17.509  1.00  0.00     0.071 C 
BRANCH   7   9
HETATM    9  N1  UNL     1      -5.520  -4.963  17.070  1.00  0.00    -0.375 N 
HETATM   10  C3  UNL     1      -6.600  -5.654  17.720  1.00  0.00     0.147 C 
ATOM     11  H1  UNL     1      -5.700  -4.132  16.507  1.00  0.00     0.160 HD
ENDBRANCH   7   9
ENDBRANCH   1   7
TORSDOF 2
ENDMDL
MODEL 5
REMARK VINA RESULT: -5.232658047      1.651      3.728
REMARK  2 active torsions:
REMARK  status: ('A' for Active; 'I' for Inactive)
REMARK    1  A    between atoms: C2_2  and  N1_3 
REMARK    2  A    between atoms: C2_2  and  N2_6 
ROOT
HETATM    1  N2  UNL     1      -4.425  -5.801  17.864  1.00  0.00    -0.027 N 
HETATM    2  C4  UNL     1      -3.473  -5.636  18.954  1.00  0.00     0.281 C 
HETATM    3  C5  UNL     1      -4.457  -7.177  17.404  1.00  0.00     0.245 C 
HETATM    4  C6  UNL     1      -5.902  -7.618  17.369  1.00  0.00     0.030 C 
HETATM    5  C7  UNL     1      -6.614  -6.253  17.359  1.00  0.00     0.030 C 
HETATM    6  C8  UNL     1      -5.728  -5.535  18.356  1.00  0.00     0.245 C 
ENDROOT
BRANCH   1   7
HETATM    7  C2  UNL     1      -4.047  -4.906  16.853  1.00  0.00     0.193 C 
HETATM    8  C1  UNL     1      -4.694  -3.825  16.501  1.00  0.00     0.071 C 
BRANCH   7   9
HETATM    9  N1  UNL     1      -2.825  -5.245  16.165  1.00  0.00    -0.375 N 
HETATM   10  C3  UNL     1      -2.167  -4.232  15.386  1.00  0.00     0.147 C 
ATOM     11  H1  UNL     1      -2.436  -6.185  16.229  1.00  0.00     0.160 HD
ENDBRANCH   7   9
ENDBRANCH   1   7
TORSDOF 2
ENDMDL
