MODEL 1
REMARK VINA RESULT: -7.071187946      0.000      0.000
REMARK  4 active torsions:
REMARK  status: ('A' for Active; 'I' for Inactive)
REMARK    1  A    between atoms: C2_2  and  C3_3 
REMARK    2  A    between atoms: C3_3  and  C4_4 
REMARK    3  A    between atoms: C5_5  and  C6_6 
REMARK    4  A    between atoms: C8_8  and  C9_9 
ROOT
HETATM    1  C6  UNL     1      -3.598  -4.059  16.963  1.00  0.00     0.078 A 
HETATM    2  C7  UNL     1      -2.420  -4.357  16.112  1.00  0.00     0.033 A 
HETATM    3  C8  UNL     1      -3.573  -3.491  15.613  1.00  0.00     0.092 A 
ENDROOT
BRANCH   1   4
HETATM    4  C5  UNL     1      -4.511  -5.175  17.221  1.00  0.00    -0.101 C 
HETATM    5  C4  UNL     1      -5.271  -6.093  17.413  1.00  0.00    -0.102 C 
BRANCH   5   6
HETATM    6  C3  UNL     1      -6.221  -7.209  17.636  1.00  0.00     0.120 C 
BRANCH   6   7
HETATM    7  C2  UNL     1      -7.578  -6.649  17.442  1.00  0.00    -0.025 C 
HETATM    8  C1  UNL     1      -8.032  -5.733  18.280  1.00  0.00     0.008 C 
ENDBRANCH   6   7
ENDBRANCH   5   6
ENDBRANCH   1   4
BRANCH   3   9
HETATM    9  C9  UNL     1      -3.326  -2.022  15.478  1.00  0.00     0.236 C 
HETATM   10  N1  UNL     1      -4.260  -1.155  16.109  1.00  0.00    -0.062 NA
HETATM   11  O1  UNL     1      -2.355  -1.548  14.849  1.00  0.00    -0.276 OA
ENDBRANCH   3   9
TORSDOF 4
ENDMDL
MODEL 2
REMARK VINA RESULT: -7.044782165      3.860      5.954
REMARK  4 active torsions:
REMARK  status: ('A' for Active; 'I' for Inactive)
REMARK    1  A    between atoms: C2_2  and  C3_3 
REMARK    2  A    between atoms: C3_3  and  C4_4 
REMARK    3  A    between atoms: C5_5  and  C6_6 
REMARK    4  A    between atoms: C8_8  and  C9_9 
ROOT
HETATM    1  C6  UNL     1      -6.510  -6.272  16.716  1.00  0.00     0.078 A 
HETATM    2  C7  UNL     1      -6.365  -7.309  17.766  1.00  0.00     0.033 A 
HETATM    3  C8  UNL     1      -7.485  -6.273  17.809  1.00  0.00     0.092 A 
ENDROOT
BRANCH   1   4
HETATM    4  C5  UNL     1      -5.495  -5.215  16.704  1.00  0.00    -0.101 C 
HETATM    5  C4  UNL     1      -4.648  -4.356  16.707  1.00  0.00    -0.102 C 
BRANCH   5   6
HETATM    6  C3  UNL     1      -3.604  -3.304  16.735  1.00  0.00     0.120 C 
BRANCH   6   7
HETATM    7  C2  UNL     1      -4.250  -2.061  16.255  1.00  0.00    -0.025 C 
HETATM    8  C1  UNL     1      -3.500  -1.051  15.848  1.00  0.00     0.008 C 
ENDBRANCH   6   7
ENDBRANCH   5   6
ENDBRANCH   1   4
BRANCH   3   9
HETATM    9  C9  UNL     1      -8.872  -6.742  17.506  1.00  0.00     0.236 C 
HETATM   10  N1  UNL     1      -9.143  -7.116  16.161  1.00  0.00    -0.062 NA
HETATM   11  O1  UNL     1      -9.773  -6.814  18.371  1.00  0.00    -0.276 OA
ENDBRANCH   3   9
TORSDOF 4
ENDMDL
MODEL 3
REMARK VINA RESULT: -7.032114004      1.142      1.448
REMARK  4 active torsions:
REMARK  status: ('A' for Active; 'I' for Inactive)
REMARK    1  A    between atoms: C2_2  and  C3_3 
REMARK    2  A    between atoms: C3_3  and  C4_4 
REMARK    3  A    between atoms: C5_5  and  C6_6 
REMARK    4  A    between atoms: C8_8  and  C9_9 
ROOT
HETATM    1  C6  UNL     1      -4.357  -4.376  17.032  1.00  0.00     0.078 A 
HETATM    2  C7  UNL     1      -3.195  -5.005  16.360  1.00  0.00     0.033 A 
HETATM    3  C8  UNL     1      -4.038  -3.935  15.672  1.00  0.00     0.092 A 
ENDROOT
BRANCH   1   4
HETATM    4  C5  UNL     1      -5.537  -5.225  17.218  1.00  0.00    -0.101 C 
HETATM    5  C4  UNL     1      -6.520  -5.906  17.375  1.00  0.00    -0.102 C 
BRANCH   5   6
HETATM    6  C3  UNL     1      -7.736  -6.729  17.585  1.00  0.00     0.120 C 
BRANCH   6   7
HETATM    7  C2  UNL     1      -7.476  -8.033  16.934  1.00  0.00    -0.025 C 
HETATM    8  C1  UNL     1      -8.411  -8.967  16.949  1.00  0.00     0.008 C 
ENDBRANCH   6   7
ENDBRANCH   5   6
ENDBRANCH   1   4
BRANCH   3   9
HETATM    9  C9  UNL     1      -3.429  -2.579  15.503  1.00  0.00     0.236 C 
HETATM   10  N1  UNL     1      -4.137  -1.484  16.071  1.00  0.00    -0.062 NA
HETATM   11  O1  UNL     1      -2.353  -2.385  14.897  1.00  0.00    -0.276 OA
ENDBRANCH   3   9
TORSDOF 4
ENDMDL
MODEL 4
REMARK VINA RESULT: -6.993915044      1.968      2.369
REMARK  4 active torsions:
REMARK  status: ('A' for Active; 'I' for Inactive)
REMARK    1  A    between atoms: C2_2  and  C3_3 
REMARK    2  A    between atoms: C3_3  and  C4_4 
REMARK    3  A    between atoms: C5_5  and  C6_6 
REMARK    4  A    between atoms: C8_8  and  C9_9 
ROOT
HETATM    1  C6  UNL     1      -4.366  -4.282  16.063  1.00  0.00     0.078 A 
HETATM    2  C7  UNL     1      -3.956  -2.926  16.500  1.00  0.00     0.033 A 
HETATM    3  C8  UNL     1      -3.073  -4.148  16.738  1.00  0.00     0.092 A 
ENDROOT
BRANCH   1   4
HETATM    4  C5  UNL     1      -5.467  -4.900  16.806  1.00  0.00    -0.101 C 
HETATM    5  C4  UNL     1      -6.377  -5.389  17.428  1.00  0.00    -0.102 C 
BRANCH   5   6
HETATM    6  C3  UNL     1      -7.490  -5.979  18.212  1.00  0.00     0.120 C 
BRANCH   6   7
HETATM    7  C2  UNL     1      -8.127  -6.991  17.340  1.00  0.00    -0.025 C 
HETATM    8  C1  UNL     1      -7.446  -8.067  16.984  1.00  0.00     0.008 C 
ENDBRANCH   6   7
ENDBRANCH   5   6
ENDBRANCH   1   4
BRANCH   3   9
HETATM    9  C9  UNL     1      -1.835  -4.277  15.909  1.00  0.00     0.236 C 
HETATM   10  N1  UNL     1      -0.620  -4.517  16.606  1.00  0.00    -0.062 NA
HETATM   11  O1  UNL     1      -1.836  -4.184  14.662  1.00  0.00    -0.276 OA
ENDBRANCH   3   9
TORSDOF 4
ENDMDL
MODEL 5
REMARK VINA RESULT: -6.948958121      1.491      1.853
REMARK  4 active torsions:
REMARK  status: ('A' for Active; 'I' for Inactive)
REMARK    1  A    between atoms: C2_2  and  C3_3 
REMARK    2  A    between atoms: C3_3  and  C4_4 
REMARK    3  A    between atoms: C5_5  and  C6_6 
REMARK    4  A    between atoms: C8_8  and  C9_9 
ROOT
HETATM    1  C6  UNL     1      -4.201  -4.217  16.931  1.00  0.00     0.078 A 
HETATM    2  C7  UNL     1      -2.936  -4.656  17.568  1.00  0.00     0.033 A 
HETATM    3  C8  UNL     1      -3.144  -4.734  16.058  1.00  0.00     0.092 A 
ENDROOT
BRANCH   1   4
HETATM    4  C5  UNL     1      -5.374  -5.063  17.164  1.00  0.00    -0.101 C 
HETATM    5  C4  UNL     1      -6.349  -5.744  17.366  1.00  0.00    -0.102 C 
BRANCH   5   6
HETATM    6  C3  UNL     1      -7.550  -6.571  17.637  1.00  0.00     0.120 C 
BRANCH   6   7
HETATM    7  C2  UNL     1      -7.282  -7.903  17.049  1.00  0.00    -0.025 C 
HETATM    8  C1  UNL     1      -8.269  -8.774  16.928  1.00  0.00     0.008 C 
ENDBRANCH   6   7
ENDBRANCH   5   6
ENDBRANCH   1   4
BRANCH   3   9
HETATM    9  C9  UNL     1      -2.400  -3.756  15.207  1.00  0.00     0.236 C 
HETATM   10  N1  UNL     1      -3.064  -2.535  14.906  1.00  0.00    -0.062 NA
HETATM   11  O1  UNL     1      -1.250  -3.971  14.766  1.00  0.00    -0.276 OA
ENDBRANCH   3   9
TORSDOF 4
ENDMDL
