MODEL 1
REMARK VINA RESULT: -7.151390040      0.000      0.000
REMARK  2 active torsions:
REMARK  status: ('A' for Active; 'I' for Inactive)
REMARK       I    between atoms: N1_3  and  C3_5 
REMARK    1  A    between atoms: C3_5  and  C4_7 
REMARK    2  A    between atoms: C4_7  and  C6_9 
ROOT
HETATM    1  C1  UNL     1       0.387  -3.585  14.767  1.00  0.00     0.037 C 
HETATM    2  C2  UNL     1      -0.765  -3.681  15.137  1.00  0.00     0.002 C 
HETATM    3  N1  UNL     1      -2.110  -3.796  15.547  1.00  0.00    -0.282 N 
ATOM      4  H1  UNL     1      -2.828  -3.284  15.032  1.00  0.00     0.179 HD
HETATM    5  C3  UNL     1      -2.495  -4.596  16.646  1.00  0.00     0.258 C 
HETATM    6  O1  UNL     1      -1.624  -5.249  17.311  1.00  0.00    -0.267 OA
ENDROOT
BRANCH   5   7
HETATM    7  C4  UNL     1      -3.880  -4.694  17.041  1.00  0.00     0.005 C 
HETATM    8  C5  UNL     1      -4.787  -3.901  16.526  1.00  0.00     0.025 C 
BRANCH   7   9
HETATM    9  C6  UNL     1      -4.275  -5.713  18.048  1.00  0.00     0.023 A 
HETATM   10  C7  UNL     1      -4.455  -7.128  17.664  1.00  0.00     0.010 A 
HETATM   11  C8  UNL     1      -5.663  -6.313  17.943  1.00  0.00     0.010 A 
ENDBRANCH   7   9
ENDBRANCH   5   7
TORSDOF 2
ENDMDL
MODEL 2
REMARK VINA RESULT: -7.129850187      2.404      2.925
REMARK  2 active torsions:
REMARK  status: ('A' for Active; 'I' for Inactive)
REMARK       I    between atoms: N1_3  and  C3_5 
REMARK    1  A    between atoms: C3_5  and  C4_7 
REMARK    2  A    between atoms: C4_7  and  C6_9 
ROOT
HETATM    1  C1  UNL     1      -3.794  -1.264  16.077  1.00  0.00     0.037 C 
HETATM    2  C2  UNL     1      -4.281  -2.359  16.270  1.00  0.00     0.002 C 
HETATM    3  N1  UNL     1      -4.854  -3.633  16.472  1.00  0.00    -0.282 N 
ATOM      4  H1  UNL     1      -5.789  -3.817  16.107  1.00  0.00     0.179 HD
HETATM    5  C3  UNL     1      -4.174  -4.661  17.163  1.00  0.00     0.258 C 
HETATM    6  O1  UNL     1      -3.004  -4.465  17.633  1.00  0.00    -0.267 OA
ENDROOT
BRANCH   5   7
HETATM    7  C4  UNL     1      -4.786  -5.954  17.354  1.00  0.00     0.005 C 
HETATM    8  C5  UNL     1      -4.109  -6.951  17.870  1.00  0.00     0.025 C 
BRANCH   7   9
HETATM    9  C6  UNL     1      -6.203  -6.151  16.956  1.00  0.00     0.023 A 
HETATM   10  C7  UNL     1      -7.294  -6.016  17.944  1.00  0.00     0.010 A 
HETATM   11  C8  UNL     1      -6.925  -7.377  17.482  1.00  0.00     0.010 A 
ENDBRANCH   7   9
ENDBRANCH   5   7
TORSDOF 2
ENDMDL
MODEL 3
REMARK VINA RESULT: -7.106437303      1.363      1.538
REMARK  2 active torsions:
REMARK  status: ('A' for Active; 'I' for Inactive)
REMARK       I    between atoms: N1_3  and  C3_5 
REMARK    1  A    between atoms: C3_5  and  C4_7 
REMARK    2  A    between atoms: C4_7  and  C6_9 
ROOT
HETATM    1  C1  UNL     1       0.605  -3.442  14.612  1.00  0.00     0.037 C 
HETATM    2  C2  UNL     1      -0.355  -3.765  15.281  1.00  0.00     0.002 C 
HETATM    3  N1  UNL     1      -1.463  -4.129  16.075  1.00  0.00    -0.282 N 
ATOM      4  H1  UNL     1      -1.304  -4.421  17.040  1.00  0.00     0.179 HD
HETATM    5  C3  UNL     1      -2.785  -4.102  15.577  1.00  0.00     0.258 C 
HETATM    6  O1  UNL     1      -3.020  -3.742  14.375  1.00  0.00    -0.267 OA
ENDROOT
BRANCH   5   7
HETATM    7  C4  UNL     1      -3.899  -4.479  16.413  1.00  0.00     0.005 C 
HETATM    8  C5  UNL     1      -4.949  -3.703  16.530  1.00  0.00     0.025 C 
BRANCH   7   9
HETATM    9  C6  UNL     1      -3.847  -5.767  17.152  1.00  0.00     0.023 A 
HETATM   10  C7  UNL     1      -4.888  -6.116  18.141  1.00  0.00     0.010 A 
HETATM   11  C8  UNL     1      -3.546  -5.721  18.638  1.00  0.00     0.010 A 
ENDBRANCH   7   9
ENDBRANCH   5   7
TORSDOF 2
ENDMDL
MODEL 4
REMARK VINA RESULT: -6.795978953      2.332      4.746
REMARK  2 active torsions:
REMARK  status: ('A' for Active; 'I' for Inactive)
REMARK       I    between atoms: N1_3  and  C3_5 
REMARK    1  A    between atoms: C3_5  and  C4_7 
REMARK    2  A    between atoms: C4_7  and  C6_9 
ROOT
HETATM    1  C1  UNL     1      -7.155  -7.935  17.326  1.00  0.00     0.037 C 
HETATM    2  C2  UNL     1      -6.461  -6.961  17.120  1.00  0.00     0.002 C 
HETATM    3  N1  UNL     1      -5.668  -5.816  16.894  1.00  0.00    -0.282 N 
ATOM      4  H1  UNL     1      -6.126  -4.944  16.629  1.00  0.00     0.179 HD
HETATM    5  C3  UNL     1      -4.261  -5.839  17.022  1.00  0.00     0.258 C 
HETATM    6  O1  UNL     1      -3.656  -6.913  17.353  1.00  0.00    -0.267 OA
ENDROOT
BRANCH   5   7
HETATM    7  C4  UNL     1      -3.477  -4.651  16.785  1.00  0.00     0.005 C 
HETATM    8  C5  UNL     1      -2.341  -4.457  17.409  1.00  0.00     0.025 C 
BRANCH   7   9
HETATM    9  C6  UNL     1      -3.971  -3.637  15.819  1.00  0.00     0.023 A 
HETATM   10  C7  UNL     1      -3.166  -2.440  15.498  1.00  0.00     0.010 A 
HETATM   11  C8  UNL     1      -4.364  -2.275  16.358  1.00  0.00     0.010 A 
ENDBRANCH   7   9
ENDBRANCH   5   7
TORSDOF 2
ENDMDL
MODEL 5
REMARK VINA RESULT: -6.530603902      3.039      5.465
REMARK  2 active torsions:
REMARK  status: ('A' for Active; 'I' for Inactive)
REMARK       I    between atoms: N1_3  and  C3_5 
REMARK    1  A    between atoms: C3_5  and  C4_7 
REMARK    2  A    between atoms: C4_7  and  C6_9 
ROOT
HETATM    1  C1  UNL     1      -8.510  -8.743  17.012  1.00  0.00     0.037 C 
HETATM    2  C2  UNL     1      -7.443  -8.166  17.035  1.00  0.00     0.002 C 
HETATM    3  N1  UNL     1      -6.198  -7.501  17.041  1.00  0.00    -0.282 N 
ATOM      4  H1  UNL     1      -5.378  -7.987  16.677  1.00  0.00     0.179 HD
HETATM    5  C3  UNL     1      -6.052  -6.185  17.533  1.00  0.00     0.258 C 
HETATM    6  O1  UNL     1      -7.057  -5.548  17.994  1.00  0.00    -0.267 OA
ENDROOT
BRANCH   5   7
HETATM    7  C4  UNL     1      -4.766  -5.530  17.525  1.00  0.00     0.005 C 
HETATM    8  C5  UNL     1      -3.929  -5.673  18.523  1.00  0.00     0.025 C 
BRANCH   7   9
HETATM    9  C6  UNL     1      -4.393  -4.680  16.364  1.00  0.00     0.023 A 
HETATM   10  C7  UNL     1      -3.232  -3.768  16.435  1.00  0.00     0.010 A 
HETATM   11  C8  UNL     1      -4.594  -3.183  16.487  1.00  0.00     0.010 A 
ENDBRANCH   7   9
ENDBRANCH   5   7
TORSDOF 2
ENDMDL
