MODEL 1
REMARK VINA RESULT: -7.893336712      0.000      0.000
REMARK  3 active torsions:
REMARK  status: ('A' for Active; 'I' for Inactive)
REMARK    1  A    between atoms: C1_2  and  C2_4 
REMARK    2  A    between atoms: C3_5  and  C4_6 
REMARK    3  A    between atoms: C4_6  and  C5_7 
ROOT
HETATM    1  C4  UNL     1      -4.320  -5.629  17.913  1.00  0.00     0.007 C 
ENDROOT
BRANCH   1   2
HETATM    2  C3  UNL     1      -3.721  -4.449  17.259  1.00  0.00     0.006 C 
HETATM    3  C2  UNL     1      -4.471  -3.685  16.532  1.00  0.00     0.071 C 
BRANCH   3   4
HETATM    4  C1  UNL     1      -3.913  -2.515  15.874  1.00  0.00     0.254 C 
HETATM    5  N1  UNL     1      -2.858  -2.699  14.946  1.00  0.00    -0.058 NA
HETATM    6  O1  UNL     1      -4.360  -1.344  16.123  1.00  0.00    -0.272 OA
ENDBRANCH   3   4
ENDBRANCH   1   2
BRANCH   1   7
HETATM    7  C5  UNL     1      -5.603  -5.750  17.903  1.00  0.00    -0.058 A 
HETATM    8  C6  UNL     1      -6.748  -5.735  17.937  1.00  0.00     0.003 A 
HETATM    9  C7  UNL     1      -7.340  -6.154  17.809  1.00  0.00    -0.026 A 
HETATM   10  C8  UNL     1      -7.649  -7.269  17.435  1.00  0.00     0.032 A 
HETATM   11  C9  UNL     1      -5.853  -7.476  17.322  1.00  0.00     0.042 A 
ENDBRANCH   1   7
TORSDOF 3
ENDMDL
MODEL 2
REMARK VINA RESULT: -7.858388875      1.106      1.478
REMARK  3 active torsions:
REMARK  status: ('A' for Active; 'I' for Inactive)
REMARK    1  A    between atoms: C1_2  and  C2_4 
REMARK    2  A    between atoms: C3_5  and  C4_6 
REMARK    3  A    between atoms: C4_6  and  C5_7 
ROOT
HETATM    1  C4  UNL     1      -4.612  -5.663  18.166  1.00  0.00     0.007 C 
ENDROOT
BRANCH   1   2
HETATM    2  C3  UNL     1      -3.887  -4.796  17.217  1.00  0.00     0.006 C 
HETATM    3  C2  UNL     1      -4.522  -3.829  16.638  1.00  0.00     0.071 C 
BRANCH   3   4
HETATM    4  C1  UNL     1      -3.838  -2.956  15.699  1.00  0.00     0.254 C 
HETATM    5  N1  UNL     1      -3.943  -1.554  15.878  1.00  0.00    -0.058 NA
HETATM    6  O1  UNL     1      -3.154  -3.436  14.732  1.00  0.00    -0.272 OA
ENDBRANCH   3   4
ENDBRANCH   1   2
BRANCH   1   7
HETATM    7  C5  UNL     1      -5.414  -6.553  17.694  1.00  0.00    -0.058 A 
HETATM    8  C6  UNL     1      -6.022  -7.410  17.236  1.00  0.00     0.003 A 
HETATM    9  C7  UNL     1      -6.713  -7.639  17.125  1.00  0.00    -0.026 A 
HETATM   10  C8  UNL     1      -7.866  -7.310  17.330  1.00  0.00     0.032 A 
HETATM   11  C9  UNL     1      -7.074  -5.874  18.100  1.00  0.00     0.042 A 
ENDBRANCH   1   7
TORSDOF 3
ENDMDL
MODEL 3
REMARK VINA RESULT: -7.725040432      0.998      1.414
REMARK  3 active torsions:
REMARK  status: ('A' for Active; 'I' for Inactive)
REMARK    1  A    between atoms: C1_2  and  C2_4 
REMARK    2  A    between atoms: C3_5  and  C4_6 
REMARK    3  A    between atoms: C4_6  and  C5_7 
ROOT
HETATM    1  C4  UNL     1      -4.293  -5.673  18.121  1.00  0.00     0.007 C 
ENDROOT
BRANCH   1   2
HETATM    2  C3  UNL     1      -3.409  -5.059  17.111  1.00  0.00     0.006 C 
HETATM    3  C2  UNL     1      -3.860  -4.084  16.390  1.00  0.00     0.071 C 
BRANCH   3   4
HETATM    4  C1  UNL     1      -3.016  -3.457  15.387  1.00  0.00     0.254 C 
HETATM    5  N1  UNL     1      -1.962  -4.215  14.819  1.00  0.00    -0.058 NA
HETATM    6  O1  UNL     1      -3.215  -2.248  15.021  1.00  0.00    -0.272 OA
ENDBRANCH   3   4
ENDBRANCH   1   2
BRANCH   1   7
HETATM    7  C5  UNL     1      -5.141  -6.562  17.735  1.00  0.00    -0.058 A 
HETATM    8  C6  UNL     1      -5.793  -7.428  17.363  1.00  0.00     0.003 A 
HETATM    9  C7  UNL     1      -6.495  -7.627  17.265  1.00  0.00    -0.026 A 
HETATM   10  C8  UNL     1      -7.628  -7.212  17.411  1.00  0.00     0.032 A 
HETATM   11  C9  UNL     1      -6.762  -5.747  18.033  1.00  0.00     0.042 A 
ENDBRANCH   1   7
TORSDOF 3
ENDMDL
MODEL 4
REMARK VINA RESULT: -7.623146942      3.220      5.265
REMARK  3 active torsions:
REMARK  status: ('A' for Active; 'I' for Inactive)
REMARK    1  A    between atoms: C1_2  and  C2_4 
REMARK    2  A    between atoms: C3_5  and  C4_6 
REMARK    3  A    between atoms: C4_6  and  C5_7 
ROOT
HETATM    1  C4  UNL     1      -4.587  -4.793  16.725  1.00  0.00     0.007 C 
ENDROOT
BRANCH   1   2
HETATM    2  C3  UNL     1      -5.960  -5.287  16.949  1.00  0.00     0.006 C 
HETATM    3  C2  UNL     1      -6.136  -6.526  17.281  1.00  0.00     0.071 C 
BRANCH   3   4
HETATM    4  C1  UNL     1      -7.474  -7.044  17.510  1.00  0.00     0.254 C 
HETATM    5  N1  UNL     1      -7.775  -8.358  17.072  1.00  0.00    -0.058 NA
HETATM    6  O1  UNL     1      -8.364  -6.336  18.092  1.00  0.00    -0.272 OA
ENDBRANCH   3   4
ENDBRANCH   1   2
BRANCH   1   7
HETATM    7  C5  UNL     1      -4.413  -3.531  16.540  1.00  0.00    -0.058 A 
HETATM    8  C6  UNL     1      -4.347  -2.389  16.467  1.00  0.00     0.003 A 
HETATM    9  C7  UNL     1      -3.997  -1.848  16.110  1.00  0.00    -0.026 A 
HETATM   10  C8  UNL     1      -3.150  -1.666  15.257  1.00  0.00     0.032 A 
HETATM   11  C9  UNL     1      -3.119  -3.477  15.234  1.00  0.00     0.042 A 
ENDBRANCH   1   7
TORSDOF 3
ENDMDL
MODEL 5
REMARK VINA RESULT: -7.619916333      3.261      5.313
REMARK  3 active torsions:
REMARK  status: ('A' for Active; 'I' for Inactive)
REMARK    1  A    between atoms: C1_2  and  C2_4 
REMARK    2  A    between atoms: C3_5  and  C4_6 
REMARK    3  A    between atoms: C4_6  and  C5_7 
ROOT
HETATM    1  C4  UNL     1      -4.369  -4.724  16.681  1.00  0.00     0.007 C 
ENDROOT
BRANCH   1   2
HETATM    2  C3  UNL     1      -5.705  -5.351  16.698  1.00  0.00     0.006 C 
HETATM    3  C2  UNL     1      -5.967  -6.249  17.592  1.00  0.00     0.071 C 
BRANCH   3   4
HETATM    4  C1  UNL     1      -7.272  -6.886  17.637  1.00  0.00     0.254 C 
HETATM    5  N1  UNL     1      -8.381  -6.127  18.085  1.00  0.00    -0.058 NA
HETATM    6  O1  UNL     1      -7.422  -8.105  17.282  1.00  0.00    -0.272 OA
ENDBRANCH   3   4
ENDBRANCH   1   2
BRANCH   1   7
HETATM    7  C5  UNL     1      -4.292  -3.449  16.511  1.00  0.00    -0.058 A 
HETATM    8  C6  UNL     1      -4.319  -2.305  16.448  1.00  0.00     0.003 A 
HETATM    9  C7  UNL     1      -4.003  -1.734  16.108  1.00  0.00    -0.026 A 
HETATM   10  C8  UNL     1      -3.145  -1.475  15.286  1.00  0.00     0.032 A 
HETATM   11  C9  UNL     1      -2.964  -3.277  15.251  1.00  0.00     0.042 A 
ENDBRANCH   1   7
TORSDOF 3
ENDMDL
