MODEL 1
REMARK VINA RESULT: -8.945619371      0.000      0.000
REMARK  10 active torsions:
REMARK  status: ('A' for Active; 'I' for Inactive)
REMARK       I    between atoms: C2_2  and  N1_4 
REMARK    1  A    between atoms: C3_6  and  O2_7 
REMARK    2  A    between atoms: C3_6  and  N2_9 
REMARK    3  A    between atoms: N2_9  and  S1_11 
REMARK    4  A    between atoms: S1_11  and  C4_14 
REMARK    5  A    between atoms: C9_19  and  C10_20 
REMARK    6  A    between atoms: C10_20  and  N3_21 
REMARK       I    between atoms: N3_21  and  C11_23 
REMARK    7  A    between atoms: C11_23  and  C12_25 
REMARK    8  A    between atoms: C12_25  and  N4_26 
REMARK    9  A    between atoms: C13_27  and  O6_28 
REMARK   10  A    between atoms: C16_32  and  O7_33 
ROOT
HETATM    1  C4  UNL     1       4.762  18.483  86.036  1.00  0.00     0.087 A 
HETATM    2  C5  UNL     1       4.088  19.439  85.312  1.00  0.00     0.026 A 
HETATM    3  C6  UNL     1       4.739  20.226  84.360  1.00  0.00     0.002 A 
HETATM    4  C7  UNL     1       6.075  20.046  84.140  1.00  0.00     0.001 A 
HETATM    5  C8  UNL     1       6.748  19.068  84.885  1.00  0.00     0.010 A 
HETATM    6  C9  UNL     1       6.111  18.290  85.823  1.00  0.00    -0.017 A 
ENDROOT
BRANCH   6   7
HETATM    7  C10 UNL     1       6.811  17.271  86.598  1.00  0.00     0.162 C 
BRANCH   7   8
HETATM    8  N3  UNL     1       7.916  17.715  87.406  1.00  0.00    -0.355 N 
HETATM    9  C11 UNL     1       8.560  16.714  88.222  1.00  0.00     0.236 C 
HETATM   10  O5  UNL     1       8.149  15.531  88.198  1.00  0.00    -0.272 OA
ATOM     11  H3  UNL     1       8.227  18.687  87.403  1.00  0.00     0.162 HD
BRANCH   9  12
HETATM   12  C12 UNL     1       9.707  17.065  89.092  1.00  0.00     0.236 C 
BRANCH  12  13
HETATM   13  N4  UNL     1       9.254  17.166  90.453  1.00  0.00    -0.300 N 
HETATM   14  C13 UNL     1      10.097  17.423  91.480  1.00  0.00     0.144 A 
HETATM   15  C14 UNL     1       9.350  17.454  92.637  1.00  0.00     0.060 A 
HETATM   16  C15 UNL     1       8.051  17.215  92.296  1.00  0.00     0.060 A 
HETATM   17  C16 UNL     1       8.009  17.038  90.943  1.00  0.00     0.144 A 
BRANCH  14  18
HETATM   18  O6  UNL     1      11.468  17.623  91.414  1.00  0.00    -0.346 OA
ATOM     19  H6  UNL     1      12.032  17.972  92.094  1.00  0.00     0.219 HD
ENDBRANCH  14  18
BRANCH  17  20
HETATM   20  O7  UNL     1       6.884  16.766  90.146  1.00  0.00    -0.346 OA
ATOM     21  H7  UNL     1       6.050  17.211  90.244  1.00  0.00     0.219 HD
ENDBRANCH  17  20
ENDBRANCH  12  13
ENDBRANCH   9  12
ENDBRANCH   7   8
ENDBRANCH   6   7
BRANCH   1  22
HETATM   22  S1  UNL     1       3.888  17.551  87.211  1.00  0.00     0.266 S 
HETATM   23  O3  UNL     1       4.396  17.762  88.623  1.00  0.00    -0.200 OA
HETATM   24  O4  UNL     1       2.443  17.998  87.168  1.00  0.00    -0.200 OA
BRANCH  22  25
HETATM   25  N2  UNL     1       3.995  15.853  86.932  1.00  0.00    -0.245 N 
ATOM     26  H2  UNL     1       4.055  15.490  85.981  1.00  0.00     0.182 HD
BRANCH  25  27
HETATM   27  C3  UNL     1       3.999  14.967  88.031  1.00  0.00     0.233 C 
HETATM   28  N1  UNL     1       3.014  14.184  88.316  1.00  0.00    -0.293 N 
HETATM   29  C2  UNL     1       1.854  14.188  87.502  1.00  0.00     0.220 C 
ATOM     30  H1  UNL     1       3.069  13.565  89.123  1.00  0.00     0.172 HD
HETATM   31  C1  UNL     1       1.500  13.055  86.622  1.00  0.00     0.117 C 
HETATM   32  O1  UNL     1       1.108  15.192  87.537  1.00  0.00    -0.274 OA
BRANCH  27  33
HETATM   33  O2  UNL     1       5.106  14.902  88.884  1.00  0.00    -0.332 OA
ATOM     34  H2  UNL     1       5.624  14.107  88.839  1.00  0.00     0.221 HD
ENDBRANCH  27  33
ENDBRANCH  25  27
ENDBRANCH  22  25
ENDBRANCH   1  22
TORSDOF 10
ENDMDL
MODEL 2
REMARK VINA RESULT: -8.552227331      1.606      1.960
REMARK  10 active torsions:
REMARK  status: ('A' for Active; 'I' for Inactive)
REMARK       I    between atoms: C2_2  and  N1_4 
REMARK    1  A    between atoms: C3_6  and  O2_7 
REMARK    2  A    between atoms: C3_6  and  N2_9 
REMARK    3  A    between atoms: N2_9  and  S1_11 
REMARK    4  A    between atoms: S1_11  and  C4_14 
REMARK    5  A    between atoms: C9_19  and  C10_20 
REMARK    6  A    between atoms: C10_20  and  N3_21 
REMARK       I    between atoms: N3_21  and  C11_23 
REMARK    7  A    between atoms: C11_23  and  C12_25 
REMARK    8  A    between atoms: C12_25  and  N4_26 
REMARK    9  A    between atoms: C13_27  and  O6_28 
REMARK   10  A    between atoms: C16_32  and  O7_33 
ROOT
HETATM    1  C4  UNL     1       4.425  18.597  84.668  1.00  0.00     0.087 A 
HETATM    2  C5  UNL     1       4.182  18.960  83.363  1.00  0.00     0.026 A 
HETATM    3  C6  UNL     1       5.144  19.627  82.602  1.00  0.00     0.002 A 
HETATM    4  C7  UNL     1       6.353  19.929  83.161  1.00  0.00     0.001 A 
HETATM    5  C8  UNL     1       6.585  19.553  84.492  1.00  0.00     0.010 A 
HETATM    6  C9  UNL     1       5.642  18.895  85.245  1.00  0.00    -0.017 A 
ENDROOT
BRANCH   6   7
HETATM    7  C10 UNL     1       5.883  18.503  86.630  1.00  0.00     0.162 C 
BRANCH   7   8
HETATM    8  N3  UNL     1       7.078  17.745  86.891  1.00  0.00    -0.355 N 
HETATM    9  C11 UNL     1       7.105  16.989  88.119  1.00  0.00     0.236 C 
HETATM   10  O5  UNL     1       6.119  17.016  88.891  1.00  0.00    -0.272 OA
ATOM     11  H3  UNL     1       7.865  17.743  86.241  1.00  0.00     0.162 HD
BRANCH   9  12
HETATM   12  C12 UNL     1       8.288  16.174  88.485  1.00  0.00     0.236 C 
BRANCH  12  13
HETATM   13  N4  UNL     1       9.033  16.857  89.509  1.00  0.00    -0.300 N 
HETATM   14  C13 UNL     1      10.220  17.458  89.263  1.00  0.00     0.144 A 
HETATM   15  C14 UNL     1      10.662  18.012  90.443  1.00  0.00     0.060 A 
HETATM   16  C15 UNL     1       9.730  17.740  91.401  1.00  0.00     0.060 A 
HETATM   17  C16 UNL     1       8.730  17.024  90.807  1.00  0.00     0.144 A 
BRANCH  14  18
HETATM   18  O6  UNL     1      10.895  17.523  88.053  1.00  0.00    -0.346 OA
ATOM     19  H6  UNL     1      11.791  17.258  87.878  1.00  0.00     0.219 HD
ENDBRANCH  14  18
BRANCH  17  20
HETATM   20  O7  UNL     1       7.560  16.523  91.404  1.00  0.00    -0.346 OA
ATOM     21  H7  UNL     1       6.862  17.075  91.738  1.00  0.00     0.219 HD
ENDBRANCH  17  20
ENDBRANCH  12  13
ENDBRANCH   9  12
ENDBRANCH   7   8
ENDBRANCH   6   7
BRANCH   1  22
HETATM   22  S1  UNL     1       3.177  17.781  85.555  1.00  0.00     0.266 S 
HETATM   23  O3  UNL     1       2.317  18.729  86.368  1.00  0.00    -0.200 OA
HETATM   24  O4  UNL     1       2.280  17.086  84.553  1.00  0.00    -0.200 OA
BRANCH  22  25
HETATM   25  N2  UNL     1       3.799  16.639  86.689  1.00  0.00    -0.245 N 
ATOM     26  H2  UNL     1       3.821  16.863  87.684  1.00  0.00     0.182 HD
BRANCH  25  27
HETATM   27  C3  UNL     1       4.278  15.394  86.231  1.00  0.00     0.233 C 
HETATM   28  N1  UNL     1       3.796  14.261  86.619  1.00  0.00    -0.293 N 
HETATM   29  C2  UNL     1       2.731  14.232  87.552  1.00  0.00     0.220 C 
ATOM     30  H1  UNL     1       4.182  13.390  86.256  1.00  0.00     0.172 HD
HETATM   31  C1  UNL     1       1.363  13.815  87.179  1.00  0.00     0.117 C 
HETATM   32  O1  UNL     1       2.967  14.574  88.733  1.00  0.00    -0.274 OA
BRANCH  27  33
HETATM   33  O2  UNL     1       5.328  15.335  85.308  1.00  0.00    -0.332 OA
ATOM     34  H2  UNL     1       5.137  14.909  84.481  1.00  0.00     0.221 HD
ENDBRANCH  27  33
ENDBRANCH  25  27
ENDBRANCH  22  25
ENDBRANCH   1  22
TORSDOF 10
ENDMDL
MODEL 3
REMARK VINA RESULT: -8.359791759      3.447      5.863
REMARK  10 active torsions:
REMARK  status: ('A' for Active; 'I' for Inactive)
REMARK       I    between atoms: C2_2  and  N1_4 
REMARK    1  A    between atoms: C3_6  and  O2_7 
REMARK    2  A    between atoms: C3_6  and  N2_9 
REMARK    3  A    between atoms: N2_9  and  S1_11 
REMARK    4  A    between atoms: S1_11  and  C4_14 
REMARK    5  A    between atoms: C9_19  and  C10_20 
REMARK    6  A    between atoms: C10_20  and  N3_21 
REMARK       I    between atoms: N3_21  and  C11_23 
REMARK    7  A    between atoms: C11_23  and  C12_25 
REMARK    8  A    between atoms: C12_25  and  N4_26 
REMARK    9  A    between atoms: C13_27  and  O6_28 
REMARK   10  A    between atoms: C16_32  and  O7_33 
ROOT
HETATM    1  C4  UNL     1       5.954  17.509  87.563  1.00  0.00     0.087 A 
HETATM    2  C5  UNL     1       6.352  16.876  88.718  1.00  0.00     0.026 A 
HETATM    3  C6  UNL     1       7.701  16.646  88.995  1.00  0.00     0.002 A 
HETATM    4  C7  UNL     1       8.649  17.056  88.102  1.00  0.00     0.001 A 
HETATM    5  C8  UNL     1       8.228  17.698  86.929  1.00  0.00     0.010 A 
HETATM    6  C9  UNL     1       6.901  17.928  86.653  1.00  0.00    -0.017 A 
ENDROOT
BRANCH   6   7
HETATM    7  C10 UNL     1       6.462  18.598  85.432  1.00  0.00     0.162 C 
BRANCH   7   8
HETATM    8  N3  UNL     1       7.455  19.347  84.710  1.00  0.00    -0.355 N 
HETATM    9  C11 UNL     1       7.125  19.712  83.354  1.00  0.00     0.236 C 
HETATM   10  O5  UNL     1       6.021  19.375  82.867  1.00  0.00    -0.272 OA
ATOM     11  H3  UNL     1       8.346  19.607  85.135  1.00  0.00     0.162 HD
BRANCH   9  12
HETATM   12  C12 UNL     1       8.078  20.484  82.520  1.00  0.00     0.236 C 
BRANCH  12  13
HETATM   13  N4  UNL     1       9.325  19.771  82.445  1.00  0.00    -0.300 N 
HETATM   14  C13 UNL     1       9.627  18.948  81.415  1.00  0.00     0.144 A 
HETATM   15  C14 UNL     1      10.882  18.430  81.647  1.00  0.00     0.060 A 
HETATM   16  C15 UNL     1      11.331  18.950  82.826  1.00  0.00     0.060 A 
HETATM   17  C16 UNL     1      10.356  19.777  83.306  1.00  0.00     0.144 A 
BRANCH  14  18
HETATM   18  O6  UNL     1       8.840  18.657  80.310  1.00  0.00    -0.346 OA
ATOM     19  H6  UNL     1       9.131  18.346  79.461  1.00  0.00     0.219 HD
ENDBRANCH  14  18
BRANCH  17  20
HETATM   20  O7  UNL     1      10.375  20.530  84.493  1.00  0.00    -0.346 OA
ATOM     21  H7  UNL     1      11.133  20.596  85.061  1.00  0.00     0.219 HD
ENDBRANCH  17  20
ENDBRANCH  12  13
ENDBRANCH   9  12
ENDBRANCH   7   8
ENDBRANCH   6   7
BRANCH   1  22
HETATM   22  S1  UNL     1       4.258  17.749  87.282  1.00  0.00     0.266 S 
HETATM   23  O3  UNL     1       3.436  17.679  88.554  1.00  0.00    -0.200 OA
HETATM   24  O4  UNL     1       4.081  19.131  86.692  1.00  0.00    -0.200 OA
BRANCH  22  25
HETATM   25  N2  UNL     1       3.579  16.561  86.232  1.00  0.00    -0.245 N 
ATOM     26  H2  UNL     1       2.699  16.743  85.750  1.00  0.00     0.182 HD
BRANCH  25  27
HETATM   27  C3  UNL     1       4.250  15.334  86.044  1.00  0.00     0.233 C 
HETATM   28  N1  UNL     1       3.895  14.235  86.619  1.00  0.00    -0.293 N 
HETATM   29  C2  UNL     1       2.777  14.225  87.488  1.00  0.00     0.220 C 
ATOM     30  H1  UNL     1       4.418  13.376  86.448  1.00  0.00     0.172 HD
HETATM   31  C1  UNL     1       1.507  13.555  87.138  1.00  0.00     0.117 C 
HETATM   32  O1  UNL     1       2.878  14.807  88.592  1.00  0.00    -0.274 OA
BRANCH  27  33
HETATM   33  O2  UNL     1       5.365  15.258  85.201  1.00  0.00    -0.332 OA
ATOM     34  H2  UNL     1       6.012  15.947  85.298  1.00  0.00     0.221 HD
ENDBRANCH  27  33
ENDBRANCH  25  27
ENDBRANCH  22  25
ENDBRANCH   1  22
TORSDOF 10
ENDMDL
MODEL 4
REMARK VINA RESULT: -8.319323544      3.468      5.772
REMARK  10 active torsions:
REMARK  status: ('A' for Active; 'I' for Inactive)
REMARK       I    between atoms: C2_2  and  N1_4 
REMARK    1  A    between atoms: C3_6  and  O2_7 
REMARK    2  A    between atoms: C3_6  and  N2_9 
REMARK    3  A    between atoms: N2_9  and  S1_11 
REMARK    4  A    between atoms: S1_11  and  C4_14 
REMARK    5  A    between atoms: C9_19  and  C10_20 
REMARK    6  A    between atoms: C10_20  and  N3_21 
REMARK       I    between atoms: N3_21  and  C11_23 
REMARK    7  A    between atoms: C11_23  and  C12_25 
REMARK    8  A    between atoms: C12_25  and  N4_26 
REMARK    9  A    between atoms: C13_27  and  O6_28 
REMARK   10  A    between atoms: C16_32  and  O7_33 
ROOT
HETATM    1  C4  UNL     1       5.958  17.521  87.538  1.00  0.00     0.087 A 
HETATM    2  C5  UNL     1       6.349  16.899  88.701  1.00  0.00     0.026 A 
HETATM    3  C6  UNL     1       7.697  16.669  88.986  1.00  0.00     0.002 A 
HETATM    4  C7  UNL     1       8.650  17.069  88.093  1.00  0.00     0.001 A 
HETATM    5  C8  UNL     1       8.235  17.701  86.913  1.00  0.00     0.010 A 
HETATM    6  C9  UNL     1       6.910  17.930  86.628  1.00  0.00    -0.017 A 
ENDROOT
BRANCH   6   7
HETATM    7  C10 UNL     1       6.477  18.590  85.400  1.00  0.00     0.162 C 
BRANCH   7   8
HETATM    8  N3  UNL     1       7.470  19.350  84.688  1.00  0.00    -0.355 N 
HETATM    9  C11 UNL     1       7.141  19.730  83.335  1.00  0.00     0.236 C 
HETATM   10  O5  UNL     1       6.038  19.396  82.844  1.00  0.00    -0.272 OA
ATOM     11  H3  UNL     1       8.359  19.607  85.116  1.00  0.00     0.162 HD
BRANCH   9  12
HETATM   12  C12 UNL     1       8.092  20.514  82.512  1.00  0.00     0.236 C 
BRANCH  12  13
HETATM   13  N4  UNL     1       9.313  19.768  82.362  1.00  0.00    -0.300 N 
HETATM   14  C13 UNL     1      10.322  19.843  83.261  1.00  0.00     0.144 A 
HETATM   15  C14 UNL     1      11.332  19.014  82.827  1.00  0.00     0.060 A 
HETATM   16  C15 UNL     1      10.922  18.440  81.659  1.00  0.00     0.060 A 
HETATM   17  C16 UNL     1       9.672  18.917  81.387  1.00  0.00     0.144 A 
BRANCH  14  18
HETATM   18  O6  UNL     1      10.363  20.605  84.420  1.00  0.00    -0.346 OA
ATOM     19  H6  UNL     1      10.868  21.395  84.572  1.00  0.00     0.219 HD
ENDBRANCH  14  18
BRANCH  17  20
HETATM   20  O7  UNL     1       8.853  18.606  80.286  1.00  0.00    -0.346 OA
ATOM     21  H7  UNL     1       7.908  18.698  80.292  1.00  0.00     0.219 HD
ENDBRANCH  17  20
ENDBRANCH  12  13
ENDBRANCH   9  12
ENDBRANCH   7   8
ENDBRANCH   6   7
BRANCH   1  22
HETATM   22  S1  UNL     1       4.264  17.761  87.247  1.00  0.00     0.266 S 
HETATM   23  O3  UNL     1       3.434  17.692  88.514  1.00  0.00    -0.200 OA
HETATM   24  O4  UNL     1       4.091  19.144  86.656  1.00  0.00    -0.200 OA
BRANCH  22  25
HETATM   25  N2  UNL     1       3.591  16.574  86.192  1.00  0.00    -0.245 N 
ATOM     26  H2  UNL     1       2.713  16.757  85.706  1.00  0.00     0.182 HD
BRANCH  25  27
HETATM   27  C3  UNL     1       4.264  15.348  86.007  1.00  0.00     0.233 C 
HETATM   28  N1  UNL     1       3.917  14.252  86.594  1.00  0.00    -0.293 N 
HETATM   29  C2  UNL     1       2.807  14.245  87.473  1.00  0.00     0.220 C 
ATOM     30  H1  UNL     1       4.440  13.393  86.424  1.00  0.00     0.172 HD
HETATM   31  C1  UNL     1       1.536  13.569  87.140  1.00  0.00     0.117 C 
HETATM   32  O1  UNL     1       2.917  14.836  88.572  1.00  0.00    -0.274 OA
BRANCH  27  33
HETATM   33  O2  UNL     1       5.370  15.269  85.154  1.00  0.00    -0.332 OA
ATOM     34  H2  UNL     1       6.000  15.977  85.217  1.00  0.00     0.221 HD
ENDBRANCH  27  33
ENDBRANCH  25  27
ENDBRANCH  22  25
ENDBRANCH   1  22
TORSDOF 10
ENDMDL
MODEL 5
REMARK VINA RESULT: -8.210915746      4.127      8.607
REMARK  10 active torsions:
REMARK  status: ('A' for Active; 'I' for Inactive)
REMARK       I    between atoms: C2_2  and  N1_4 
REMARK    1  A    between atoms: C3_6  and  O2_7 
REMARK    2  A    between atoms: C3_6  and  N2_9 
REMARK    3  A    between atoms: N2_9  and  S1_11 
REMARK    4  A    between atoms: S1_11  and  C4_14 
REMARK    5  A    between atoms: C9_19  and  C10_20 
REMARK    6  A    between atoms: C10_20  and  N3_21 
REMARK       I    between atoms: N3_21  and  C11_23 
REMARK    7  A    between atoms: C11_23  and  C12_25 
REMARK    8  A    between atoms: C12_25  and  N4_26 
REMARK    9  A    between atoms: C13_27  and  O6_28 
REMARK   10  A    between atoms: C16_32  and  O7_33 
ROOT
HETATM    1  C4  UNL     1       4.199  17.865  85.094  1.00  0.00     0.087 A 
HETATM    2  C5  UNL     1       5.546  17.664  84.900  1.00  0.00     0.026 A 
HETATM    3  C6  UNL     1       6.238  18.305  83.870  1.00  0.00     0.002 A 
HETATM    4  C7  UNL     1       5.565  19.150  83.034  1.00  0.00     0.001 A 
HETATM    5  C8  UNL     1       4.192  19.344  83.245  1.00  0.00     0.010 A 
HETATM    6  C9  UNL     1       3.508  18.716  84.258  1.00  0.00    -0.017 A 
ENDROOT
BRANCH   6   7
HETATM    7  C10 UNL     1       2.080  18.919  84.479  1.00  0.00     0.162 C 
BRANCH   7   8
HETATM    8  N3  UNL     1       1.184  18.014  83.807  1.00  0.00    -0.355 N 
HETATM    9  C11 UNL     1       0.317  18.591  82.809  1.00  0.00     0.236 C 
HETATM   10  O5  UNL     1       0.372  19.819  82.568  1.00  0.00    -0.272 OA
ATOM     11  H3  UNL     1       1.164  17.018  84.026  1.00  0.00     0.162 HD
BRANCH   9  12
HETATM   12  C12 UNL     1      -0.644  17.749  82.057  1.00  0.00     0.236 C 
BRANCH  12  13
HETATM   13  N4  UNL     1       0.065  17.009  81.048  1.00  0.00    -0.300 N 
HETATM   14  C13 UNL     1       0.073  15.656  81.013  1.00  0.00     0.144 A 
HETATM   15  C14 UNL     1       0.835  15.270  79.934  1.00  0.00     0.060 A 
HETATM   16  C15 UNL     1       1.285  16.402  79.319  1.00  0.00     0.060 A 
HETATM   17  C16 UNL     1       0.799  17.468  80.021  1.00  0.00     0.144 A 
BRANCH  14  18
HETATM   18  O6  UNL     1      -0.560  14.788  81.890  1.00  0.00    -0.346 OA
ATOM     19  H6  UNL     1      -0.748  13.866  81.753  1.00  0.00     0.219 HD
ENDBRANCH  14  18
BRANCH  17  20
HETATM   20  O7  UNL     1       1.003  18.834  79.759  1.00  0.00    -0.346 OA
ATOM     21  H7  UNL     1       0.404  19.366  79.248  1.00  0.00     0.219 HD
ENDBRANCH  17  20
ENDBRANCH  12  13
ENDBRANCH   9  12
ENDBRANCH   7   8
ENDBRANCH   6   7
BRANCH   1  22
HETATM   22  S1  UNL     1       3.406  17.024  86.389  1.00  0.00     0.266 S 
HETATM   23  O3  UNL     1       2.548  17.936  87.244  1.00  0.00    -0.200 OA
HETATM   24  O4  UNL     1       2.499  15.981  85.771  1.00  0.00    -0.200 OA
BRANCH  22  25
HETATM   25  N2  UNL     1       4.514  16.278  87.481  1.00  0.00    -0.245 N 
ATOM     26  H2  UNL     1       4.879  15.346  87.285  1.00  0.00     0.182 HD
BRANCH  25  27
HETATM   27  C3  UNL     1       4.911  16.967  88.646  1.00  0.00     0.233 C 
HETATM   28  N1  UNL     1       6.143  17.114  88.999  1.00  0.00    -0.293 N 
HETATM   29  C2  UNL     1       7.175  16.570  88.196  1.00  0.00     0.220 C 
ATOM     30  H1  UNL     1       6.374  17.621  89.853  1.00  0.00     0.172 HD
HETATM   31  C1  UNL     1       8.098  17.416  87.411  1.00  0.00     0.117 C 
HETATM   32  O1  UNL     1       7.302  15.325  88.155  1.00  0.00    -0.274 OA
BRANCH  27  33
HETATM   33  O2  UNL     1       3.953  17.535  89.494  1.00  0.00    -0.332 OA
ATOM     34  H2  UNL     1       3.250  18.013  89.072  1.00  0.00     0.221 HD
ENDBRANCH  27  33
ENDBRANCH  25  27
ENDBRANCH  22  25
ENDBRANCH   1  22
TORSDOF 10
ENDMDL
