MODEL 1
REMARK VINA RESULT: -7.669730041      0.000      0.000
REMARK  9 active torsions:
REMARK  status: ('A' for Active; 'I' for Inactive)
REMARK    1  A    between atoms: C2_2  and  C3_3 
REMARK    2  A    between atoms: C3_3  and  O1_4 
REMARK    3  A    between atoms: C3_3  and  C4_6 
REMARK    4  A    between atoms: C4_6  and  C5_7 
REMARK    5  A    between atoms: C5_7  and  C6_9 
REMARK    6  A    between atoms: C6_9  and  C7_10 
REMARK    7  A    between atoms: C6_9  and  C8_13 
REMARK    8  A    between atoms: C13_19  and  O6_20 
REMARK    9  A    between atoms: C14_22  and  C15_23 
ROOT
HETATM    1  C8  UNL     1       3.372  18.439  85.535  1.00  0.00     0.182 C 
HETATM    2  O5  UNL     1       4.493  18.994  84.987  1.00  0.00    -0.370 OA
HETATM    3  C9  UNL     1       5.664  18.307  85.208  1.00  0.00     0.061 C 
HETATM    4  C10 UNL     1       6.729  19.323  84.808  1.00  0.00     0.046 C 
HETATM    5  C11 UNL     1       5.946  17.955  86.628  1.00  0.00     0.041 C 
HETATM    6  C12 UNL     1       4.784  17.832  87.529  1.00  0.00     0.047 C 
HETATM    7  C13 UNL     1       3.530  17.567  86.707  1.00  0.00     0.129 C 
HETATM    8  C14 UNL     1       3.535  16.089  86.453  1.00  0.00     0.208 A 
HETATM    9  O9  UNL     1       3.003  15.834  85.091  1.00  0.00    -0.355 OA
HETATM   10  C16 UNL     1       4.342  15.427  85.611  1.00  0.00     0.172 A 
HETATM   11  C17 UNL     1       5.399  15.812  84.712  1.00  0.00     0.043 C 
HETATM   12  C18 UNL     1       5.781  17.149  84.311  1.00  0.00     0.018 C 
HETATM   13  C19 UNL     1       7.221  17.132  83.750  1.00  0.00     0.013 C 
ENDROOT
BRANCH   1  14
HETATM   14  C6  UNL     1       2.177  19.353  85.451  1.00  0.00     0.188 C 
BRANCH  14  15
HETATM   15  C5  UNL     1       2.389  20.731  85.056  1.00  0.00     0.146 C 
HETATM   16  O2  UNL     1       2.783  20.940  83.884  1.00  0.00    -0.297 OA
BRANCH  15  17
HETATM   17  C4  UNL     1       2.182  21.900  85.915  1.00  0.00     0.111 C 
BRANCH  17  18
HETATM   18  C3  UNL     1       1.086  22.790  85.316  1.00  0.00     0.124 C 
BRANCH  18  19
HETATM   19  C2  UNL     1       0.509  23.677  86.382  1.00  0.00     0.027 C 
HETATM   20  C1  UNL     1      -0.901  24.098  86.102  1.00  0.00     0.007 C 
ENDBRANCH  18  19
BRANCH  18  21
HETATM   21  O1  UNL     1       0.100  22.040  84.713  1.00  0.00    -0.395 OA
ATOM     22  H1  UNL     1      -0.603  22.595  84.396  1.00  0.00     0.210 HD
ENDBRANCH  18  21
ENDBRANCH  17  18
ENDBRANCH  15  17
ENDBRANCH  14  15
BRANCH  14  23
HETATM   23  C7  UNL     1       1.244  18.728  84.442  1.00  0.00     0.187 C 
HETATM   24  O3  UNL     1       1.660  17.838  83.697  1.00  0.00    -0.647 OA
HETATM   25  O4  UNL     1      -0.052  19.169  84.378  1.00  0.00    -0.647 OA
ENDBRANCH  14  23
ENDBRANCH   1  14
BRANCH   7  26
HETATM   26  O6  UNL     1       2.476  17.886  87.585  1.00  0.00    -0.383 OA
ATOM     27  H6  UNL     1       1.841  17.185  87.507  1.00  0.00     0.210 HD
ENDBRANCH   7  26
BRANCH   8  28
HETATM   28  C15 UNL     1       2.757  15.359  87.496  1.00  0.00     0.215 C 
HETATM   29  O7  UNL     1       3.283  15.050  88.593  1.00  0.00    -0.646 OA
HETATM   30  O8  UNL     1       1.455  15.013  87.280  1.00  0.00    -0.646 OA
ENDBRANCH   8  28
TORSDOF 9
ENDMDL
MODEL 2
REMARK VINA RESULT: -7.581619108      0.905      1.262
REMARK  9 active torsions:
REMARK  status: ('A' for Active; 'I' for Inactive)
REMARK    1  A    between atoms: C2_2  and  C3_3 
REMARK    2  A    between atoms: C3_3  and  O1_4 
REMARK    3  A    between atoms: C3_3  and  C4_6 
REMARK    4  A    between atoms: C4_6  and  C5_7 
REMARK    5  A    between atoms: C5_7  and  C6_9 
REMARK    6  A    between atoms: C6_9  and  C7_10 
REMARK    7  A    between atoms: C6_9  and  C8_13 
REMARK    8  A    between atoms: C13_19  and  O6_20 
REMARK    9  A    between atoms: C14_22  and  C15_23 
ROOT
HETATM    1  C8  UNL     1       3.591  18.480  85.512  1.00  0.00     0.182 C 
HETATM    2  O5  UNL     1       4.764  18.967  85.007  1.00  0.00    -0.370 OA
HETATM    3  C9  UNL     1       5.878  18.199  85.249  1.00  0.00     0.061 C 
HETATM    4  C10 UNL     1       7.020  19.148  84.900  1.00  0.00     0.046 C 
HETATM    5  C11 UNL     1       6.093  17.806  86.670  1.00  0.00     0.041 C 
HETATM    6  C12 UNL     1       4.899  17.747  87.535  1.00  0.00     0.047 C 
HETATM    7  C13 UNL     1       3.656  17.580  86.672  1.00  0.00     0.129 C 
HETATM    8  C14 UNL     1       3.569  16.110  86.391  1.00  0.00     0.208 A 
HETATM    9  O9  UNL     1       3.063  15.914  85.009  1.00  0.00    -0.355 OA
HETATM   10  C16 UNL     1       4.355  15.409  85.561  1.00  0.00     0.172 A 
HETATM   11  C17 UNL     1       5.462  15.736  84.701  1.00  0.00     0.043 C 
HETATM   12  C18 UNL     1       5.945  17.051  84.335  1.00  0.00     0.018 C 
HETATM   13  C19 UNL     1       7.397  16.946  83.816  1.00  0.00     0.013 C 
ENDROOT
BRANCH   1  14
HETATM   14  C6  UNL     1       2.463  19.474  85.410  1.00  0.00     0.188 C 
BRANCH  14  15
HETATM   15  C5  UNL     1       2.777  20.837  85.033  1.00  0.00     0.146 C 
HETATM   16  O2  UNL     1       2.823  21.100  83.808  1.00  0.00    -0.297 OA
BRANCH  15  17
HETATM   17  C4  UNL     1       3.047  21.933  85.967  1.00  0.00     0.111 C 
BRANCH  17  18
HETATM   18  C3  UNL     1       1.809  22.834  86.073  1.00  0.00     0.124 C 
BRANCH  18  19
HETATM   19  C2  UNL     1       2.219  24.277  85.996  1.00  0.00     0.027 C 
HETATM   20  C1  UNL     1       3.495  24.489  85.239  1.00  0.00     0.007 C 
ENDBRANCH  18  19
BRANCH  18  21
HETATM   21  O1  UNL     1       1.101  22.584  87.228  1.00  0.00    -0.395 OA
ATOM     22  H1  UNL     1       1.677  22.282  87.921  1.00  0.00     0.210 HD
ENDBRANCH  18  21
ENDBRANCH  17  18
ENDBRANCH  15  17
ENDBRANCH  14  15
BRANCH  14  23
HETATM   23  C7  UNL     1       1.514  18.922  84.374  1.00  0.00     0.187 C 
HETATM   24  O3  UNL     1       1.951  18.225  83.456  1.00  0.00    -0.647 OA
HETATM   25  O4  UNL     1       0.178  19.210  84.481  1.00  0.00    -0.647 OA
ENDBRANCH  14  23
ENDBRANCH   1  14
BRANCH   7  26
HETATM   26  O6  UNL     1       2.599  17.956  87.525  1.00  0.00    -0.383 OA
ATOM     27  H6  UNL     1       2.974  18.540  88.172  1.00  0.00     0.210 HD
ENDBRANCH   7  26
BRANCH   8  28
HETATM   28  C15 UNL     1       2.713  15.417  87.398  1.00  0.00     0.215 C 
HETATM   29  O7  UNL     1       1.510  15.156  87.149  1.00  0.00    -0.646 OA
HETATM   30  O8  UNL     1       3.219  15.052  88.611  1.00  0.00    -0.646 OA
ENDBRANCH   8  28
TORSDOF 9
ENDMDL
MODEL 3
REMARK VINA RESULT: -7.517730592      1.407      1.915
REMARK  9 active torsions:
REMARK  status: ('A' for Active; 'I' for Inactive)
REMARK    1  A    between atoms: C2_2  and  C3_3 
REMARK    2  A    between atoms: C3_3  and  O1_4 
REMARK    3  A    between atoms: C3_3  and  C4_6 
REMARK    4  A    between atoms: C4_6  and  C5_7 
REMARK    5  A    between atoms: C5_7  and  C6_9 
REMARK    6  A    between atoms: C6_9  and  C7_10 
REMARK    7  A    between atoms: C6_9  and  C8_13 
REMARK    8  A    between atoms: C13_19  and  O6_20 
REMARK    9  A    between atoms: C14_22  and  C15_23 
ROOT
HETATM    1  C8  UNL     1       3.550  18.488  85.596  1.00  0.00     0.182 C 
HETATM    2  O5  UNL     1       4.697  19.005  85.064  1.00  0.00    -0.370 OA
HETATM    3  C9  UNL     1       5.831  18.251  85.254  1.00  0.00     0.061 C 
HETATM    4  C10 UNL     1       6.946  19.226  84.888  1.00  0.00     0.046 C 
HETATM    5  C11 UNL     1       6.099  17.832  86.658  1.00  0.00     0.041 C 
HETATM    6  C12 UNL     1       4.935  17.734  87.559  1.00  0.00     0.047 C 
HETATM    7  C13 UNL     1       3.667  17.565  86.733  1.00  0.00     0.129 C 
HETATM    8  C14 UNL     1       3.594  16.100  86.424  1.00  0.00     0.208 A 
HETATM    9  O9  UNL     1       3.047  15.924  85.055  1.00  0.00    -0.355 OA
HETATM   10  C16 UNL     1       4.364  15.429  85.554  1.00  0.00     0.172 A 
HETATM   11  C17 UNL     1       5.437  15.794  84.665  1.00  0.00     0.043 C 
HETATM   12  C18 UNL     1       5.886  17.123  84.313  1.00  0.00     0.018 C 
HETATM   13  C19 UNL     1       7.322  17.054  83.745  1.00  0.00     0.013 C 
ENDROOT
BRANCH   1  14
HETATM   14  C6  UNL     1       2.404  19.465  85.552  1.00  0.00     0.188 C 
BRANCH  14  15
HETATM   15  C5  UNL     1       2.702  20.871  85.375  1.00  0.00     0.146 C 
HETATM   16  O2  UNL     1       3.111  21.504  86.378  1.00  0.00    -0.297 OA
BRANCH  15  17
HETATM   17  C4  UNL     1       2.563  21.616  84.121  1.00  0.00     0.111 C 
BRANCH  17  18
HETATM   18  C3  UNL     1       3.929  21.710  83.426  1.00  0.00     0.124 C 
BRANCH  18  19
HETATM   19  C2  UNL     1       4.031  23.008  82.677  1.00  0.00     0.027 C 
HETATM   20  C1  UNL     1       3.816  24.210  83.545  1.00  0.00     0.007 C 
ENDBRANCH  18  19
BRANCH  18  21
HETATM   21  O1  UNL     1       4.143  20.639  82.587  1.00  0.00    -0.395 OA
ATOM     22  H1  UNL     1       3.327  20.194  82.389  1.00  0.00     0.210 HD
ENDBRANCH  18  21
ENDBRANCH  17  18
ENDBRANCH  15  17
ENDBRANCH  14  15
BRANCH  14  23
HETATM   23  C7  UNL     1       1.534  19.035  84.395  1.00  0.00     0.187 C 
HETATM   24  O3  UNL     1       2.051  18.515  83.404  1.00  0.00    -0.647 OA
HETATM   25  O4  UNL     1       0.180  19.234  84.476  1.00  0.00    -0.647 OA
ENDBRANCH  14  23
ENDBRANCH   1  14
BRANCH   7  26
HETATM   26  O6  UNL     1       2.633  17.905  87.628  1.00  0.00    -0.383 OA
ATOM     27  H6  UNL     1       3.003  17.842  88.500  1.00  0.00     0.210 HD
ENDBRANCH   7  26
BRANCH   8  28
HETATM   28  C15 UNL     1       2.783  15.372  87.442  1.00  0.00     0.215 C 
HETATM   29  O7  UNL     1       3.286  15.024  88.538  1.00  0.00    -0.646 OA
HETATM   30  O8  UNL     1       1.474  15.069  87.204  1.00  0.00    -0.646 OA
ENDBRANCH   8  28
TORSDOF 9
ENDMDL
MODEL 4
REMARK VINA RESULT: -7.375055481      3.214      5.960
REMARK  9 active torsions:
REMARK  status: ('A' for Active; 'I' for Inactive)
REMARK    1  A    between atoms: C2_2  and  C3_3 
REMARK    2  A    between atoms: C3_3  and  O1_4 
REMARK    3  A    between atoms: C3_3  and  C4_6 
REMARK    4  A    between atoms: C4_6  and  C5_7 
REMARK    5  A    between atoms: C5_7  and  C6_9 
REMARK    6  A    between atoms: C6_9  and  C7_10 
REMARK    7  A    between atoms: C6_9  and  C8_13 
REMARK    8  A    between atoms: C13_19  and  O6_20 
REMARK    9  A    between atoms: C14_22  and  C15_23 
ROOT
HETATM    1  C8  UNL     1       6.094  17.062  85.830  1.00  0.00     0.182 C 
HETATM    2  O5  UNL     1       7.054  16.833  86.775  1.00  0.00    -0.370 OA
HETATM    3  C9  UNL     1       6.588  16.489  88.022  1.00  0.00     0.061 C 
HETATM    4  C10 UNL     1       7.826  16.655  88.899  1.00  0.00     0.046 C 
HETATM    5  C11 UNL     1       5.555  17.396  88.597  1.00  0.00     0.041 C 
HETATM    6  C12 UNL     1       4.737  18.167  87.641  1.00  0.00     0.047 C 
HETATM    7  C13 UNL     1       4.760  17.478  86.283  1.00  0.00     0.129 C 
HETATM    8  C14 UNL     1       3.713  16.408  86.370  1.00  0.00     0.208 A 
HETATM    9  O9  UNL     1       4.180  15.217  85.616  1.00  0.00    -0.355 OA
HETATM   10  C16 UNL     1       3.801  15.261  87.059  1.00  0.00     0.172 A 
HETATM   11  C17 UNL     1       4.810  14.656  87.890  1.00  0.00     0.043 C 
HETATM   12  C18 UNL     1       6.182  15.078  88.070  1.00  0.00     0.018 C 
HETATM   13  C19 UNL     1       6.746  14.470  89.374  1.00  0.00     0.013 C 
ENDROOT
BRANCH   1  14
HETATM   14  C6  UNL     1       6.661  17.653  84.565  1.00  0.00     0.188 C 
BRANCH  14  15
HETATM   15  C5  UNL     1       7.618  18.734  84.677  1.00  0.00     0.146 C 
HETATM   16  O2  UNL     1       7.179  19.905  84.571  1.00  0.00    -0.297 OA
BRANCH  15  17
HETATM   17  C4  UNL     1       9.057  18.574  84.900  1.00  0.00     0.111 C 
BRANCH  17  18
HETATM   18  C3  UNL     1       9.832  19.456  83.912  1.00  0.00     0.124 C 
BRANCH  18  19
HETATM   19  C2  UNL     1      10.995  18.690  83.349  1.00  0.00     0.027 C 
HETATM   20  C1  UNL     1      10.834  18.354  81.897  1.00  0.00     0.007 C 
ENDBRANCH  18  19
BRANCH  18  21
HETATM   21  O1  UNL     1      10.253  20.627  84.504  1.00  0.00    -0.395 OA
ATOM     22  H1  UNL     1      11.166  20.800  84.303  1.00  0.00     0.210 HD
ENDBRANCH  18  21
ENDBRANCH  17  18
ENDBRANCH  15  17
ENDBRANCH  14  15
BRANCH  14  23
HETATM   23  C7  UNL     1       7.342  16.515  83.844  1.00  0.00     0.187 C 
HETATM   24  O3  UNL     1       7.469  15.425  84.407  1.00  0.00    -0.647 OA
HETATM   25  O4  UNL     1       7.807  16.722  82.571  1.00  0.00    -0.647 OA
ENDBRANCH  14  23
ENDBRANCH   1  14
BRANCH   7  26
HETATM   26  O6  UNL     1       4.331  18.479  85.389  1.00  0.00    -0.383 OA
ATOM     27  H6  UNL     1       3.961  18.027  84.640  1.00  0.00     0.210 HD
ENDBRANCH   7  26
BRANCH   8  28
HETATM   28  C15 UNL     1       2.396  16.898  85.870  1.00  0.00     0.215 C 
HETATM   29  O7  UNL     1       1.495  17.253  86.670  1.00  0.00    -0.646 OA
HETATM   30  O8  UNL     1       2.142  16.973  84.532  1.00  0.00    -0.646 OA
ENDBRANCH   8  28
TORSDOF 9
ENDMDL
MODEL 5
REMARK VINA RESULT: -7.244486968      2.695      5.999
REMARK  9 active torsions:
REMARK  status: ('A' for Active; 'I' for Inactive)
REMARK    1  A    between atoms: C2_2  and  C3_3 
REMARK    2  A    between atoms: C3_3  and  O1_4 
REMARK    3  A    between atoms: C3_3  and  C4_6 
REMARK    4  A    between atoms: C4_6  and  C5_7 
REMARK    5  A    between atoms: C5_7  and  C6_9 
REMARK    6  A    between atoms: C6_9  and  C7_10 
REMARK    7  A    between atoms: C6_9  and  C8_13 
REMARK    8  A    between atoms: C13_19  and  O6_20 
REMARK    9  A    between atoms: C14_22  and  C15_23 
ROOT
HETATM    1  C8  UNL     1       5.671  16.954  85.795  1.00  0.00     0.182 C 
HETATM    2  O5  UNL     1       6.396  16.294  86.746  1.00  0.00    -0.370 OA
HETATM    3  C9  UNL     1       5.716  15.980  87.899  1.00  0.00     0.061 C 
HETATM    4  C10 UNL     1       6.840  15.600  88.857  1.00  0.00     0.046 C 
HETATM    5  C11 UNL     1       4.991  17.109  88.546  1.00  0.00     0.041 C 
HETATM    6  C12 UNL     1       4.579  18.226  87.674  1.00  0.00     0.047 C 
HETATM    7  C13 UNL     1       4.512  17.744  86.231  1.00  0.00     0.129 C 
HETATM    8  C14 UNL     1       3.165  17.098  86.097  1.00  0.00     0.208 A 
HETATM    9  O9  UNL     1       3.284  15.922  85.199  1.00  0.00    -0.355 OA
HETATM   10  C16 UNL     1       2.794  15.915  86.609  1.00  0.00     0.172 A 
HETATM   11  C17 UNL     1       3.453  14.903  87.394  1.00  0.00     0.043 C 
HETATM   12  C18 UNL     1       4.861  14.801  87.711  1.00  0.00     0.018 C 
HETATM   13  C19 UNL     1       5.052  13.880  88.937  1.00  0.00     0.013 C 
ENDROOT
BRANCH   1  14
HETATM   14  C6  UNL     1       6.530  17.464  84.666  1.00  0.00     0.188 C 
BRANCH  14  15
HETATM   15  C5  UNL     1       7.639  18.339  84.985  1.00  0.00     0.146 C 
HETATM   16  O2  UNL     1       7.991  19.166  84.110  1.00  0.00    -0.297 OA
BRANCH  15  17
HETATM   17  C4  UNL     1       8.386  18.336  86.246  1.00  0.00     0.111 C 
BRANCH  17  18
HETATM   18  C3  UNL     1       9.888  18.454  85.953  1.00  0.00     0.124 C 
BRANCH  18  19
HETATM   19  C2  UNL     1      10.677  18.076  87.174  1.00  0.00     0.027 C 
HETATM   20  C1  UNL     1       9.837  17.473  88.258  1.00  0.00     0.007 C 
ENDBRANCH  18  19
BRANCH  18  21
HETATM   21  O1  UNL     1      10.220  19.721  85.524  1.00  0.00    -0.395 OA
ATOM     22  H1  UNL     1      10.408  20.291  86.261  1.00  0.00     0.210 HD
ENDBRANCH  18  21
ENDBRANCH  17  18
ENDBRANCH  15  17
ENDBRANCH  14  15
BRANCH  14  23
HETATM   23  C7  UNL     1       7.095  16.240  83.987  1.00  0.00     0.187 C 
HETATM   24  O3  UNL     1       6.406  15.221  83.897  1.00  0.00    -0.647 OA
HETATM   25  O4  UNL     1       8.369  16.291  83.485  1.00  0.00    -0.647 OA
ENDBRANCH  14  23
ENDBRANCH   1  14
BRANCH   7  26
HETATM   26  O6  UNL     1       4.535  18.934  85.476  1.00  0.00    -0.383 OA
ATOM     27  H6  UNL     1       5.437  19.061  85.207  1.00  0.00     0.210 HD
ENDBRANCH   7  26
BRANCH   8  28
HETATM   28  C15 UNL     1       2.146  18.070  85.605  1.00  0.00     0.215 C 
HETATM   29  O7  UNL     1       1.635  17.946  84.465  1.00  0.00    -0.646 OA
HETATM   30  O8  UNL     1       1.745  19.115  86.385  1.00  0.00    -0.646 OA
ENDBRANCH   8  28
TORSDOF 9
ENDMDL
