MODEL 1
REMARK VINA RESULT: -7.793829080      0.000      0.000
REMARK  12 active torsions:
REMARK  status: ('A' for Active; 'I' for Inactive)
REMARK    1  A    between atoms: C4_4  and  O1_5 
REMARK    2  A    between atoms: C4_4  and  C5_7 
REMARK    3  A    between atoms: C5_7  and  O2_8 
REMARK    4  A    between atoms: C6_10  and  O3_11 
REMARK    5  A    between atoms: C6_10  and  C7_13 
REMARK    6  A    between atoms: C8_16  and  C9_17 
REMARK    7  A    between atoms: C9_17  and  O6_18 
REMARK    8  A    between atoms: O6_18  and  C10_19 
REMARK    9  A    between atoms: C10_19  and  C11_21 
REMARK   10  A    between atoms: C19_29  and  O8_30 
REMARK   11  A    between atoms: C19_29  and  C20_32 
REMARK   12  A    between atoms: C20_32  and  O9_33 
ROOT
HETATM    1  C1  UNL     1       6.250  19.385  85.437  1.00  0.00     0.019 C 
HETATM    2  C2  UNL     1       5.949  17.950  85.208  1.00  0.00     0.005 C 
HETATM    3  C3  UNL     1       4.547  17.819  84.722  1.00  0.00     0.057 C 
HETATM    4  C4  UNL     1       3.785  17.073  85.729  1.00  0.00     0.122 C 
HETATM    5  C6  UNL     1       4.795  16.589  86.787  1.00  0.00     0.189 C 
HETATM    6  C8  UNL     1       6.126  17.070  86.450  1.00  0.00     0.036 C 
HETATM    7  C17 UNL     1       7.012  15.973  85.888  1.00  0.00     0.019 C 
HETATM    8  C18 UNL     1       6.737  15.912  84.407  1.00  0.00     0.042 C 
HETATM    9  C19 UNL     1       6.809  17.424  84.124  1.00  0.00     0.087 C 
ENDROOT
BRANCH   6  10
HETATM   10  C9  UNL     1       6.996  17.767  87.456  1.00  0.00     0.193 C 
BRANCH  10  11
HETATM   11  O6  UNL     1       7.448  17.219  88.552  1.00  0.00    -0.317 OA
BRANCH  11  12
HETATM   12  C10 UNL     1       7.754  16.570  89.606  1.00  0.00     0.293 C 
HETATM   13  O7  UNL     1       7.349  15.366  89.604  1.00  0.00    -0.259 OA
BRANCH  12  14
HETATM   14  C11 UNL     1       8.492  16.956  90.835  1.00  0.00     0.039 A 
HETATM   15  C12 UNL     1       7.805  17.058  92.014  1.00  0.00     0.017 A 
HETATM   16  C13 UNL     1       8.432  17.411  93.184  1.00  0.00     0.001 A 
HETATM   17  C14 UNL     1       9.794  17.671  93.175  1.00  0.00     0.000 A 
HETATM   18  C15 UNL     1      10.477  17.566  91.976  1.00  0.00     0.001 A 
HETATM   19  C16 UNL     1       9.832  17.210  90.813  1.00  0.00     0.017 A 
ENDBRANCH  12  14
ENDBRANCH  11  12
ENDBRANCH  10  11
ENDBRANCH   6  10
BRANCH   5  20
HETATM   20  O3  UNL     1       4.824  15.171  86.507  1.00  0.00    -0.375 OA
ATOM     21  H3  UNL     1       4.688  14.815  87.376  1.00  0.00     0.211 HD
ENDBRANCH   5  20
BRANCH   5  22
HETATM   22  C7  UNL     1       4.106  16.702  88.011  1.00  0.00     0.213 C 
HETATM   23  O4  UNL     1       3.972  17.580  88.887  1.00  0.00    -0.646 OA
HETATM   24  O5  UNL     1       3.344  15.576  88.435  1.00  0.00    -0.646 OA
ENDBRANCH   5  22
BRANCH   9  25
HETATM   25  O8  UNL     1       6.168  17.636  82.882  1.00  0.00    -0.387 OA
ATOM     26  H8  UNL     1       6.534  17.039  82.239  1.00  0.00     0.210 HD
ENDBRANCH   9  25
BRANCH   9  27
HETATM   27  C20 UNL     1       8.195  17.890  83.977  1.00  0.00     0.202 C 
BRANCH  27  28
HETATM   28  O9  UNL     1       9.005  16.986  83.294  1.00  0.00    -0.398 OA
ATOM     29  H9  UNL     1       9.902  17.285  83.205  1.00  0.00     0.209 HD
ENDBRANCH  27  28
ENDBRANCH   9  27
BRANCH   4  30
HETATM   30  O1  UNL     1       3.138  15.940  85.154  1.00  0.00    -0.384 OA
ATOM     31  H1  UNL     1       2.251  16.149  84.884  1.00  0.00     0.210 HD
ENDBRANCH   4  30
BRANCH   4  32
HETATM   32  C5  UNL     1       2.668  17.912  86.217  1.00  0.00     0.205 C 
BRANCH  32  33
HETATM   33  O2  UNL     1       1.545  17.309  86.686  1.00  0.00    -0.398 OA
ATOM     34  H2  UNL     1       1.056  16.732  86.112  1.00  0.00     0.209 HD
ENDBRANCH  32  33
ENDBRANCH   4  32
TORSDOF 12
ENDMDL
MODEL 2
REMARK VINA RESULT: -7.728712050      1.896      3.738
REMARK  12 active torsions:
REMARK  status: ('A' for Active; 'I' for Inactive)
REMARK    1  A    between atoms: C4_4  and  O1_5 
REMARK    2  A    between atoms: C4_4  and  C5_7 
REMARK    3  A    between atoms: C5_7  and  O2_8 
REMARK    4  A    between atoms: C6_10  and  O3_11 
REMARK    5  A    between atoms: C6_10  and  C7_13 
REMARK    6  A    between atoms: C8_16  and  C9_17 
REMARK    7  A    between atoms: C9_17  and  O6_18 
REMARK    8  A    between atoms: O6_18  and  C10_19 
REMARK    9  A    between atoms: C10_19  and  C11_21 
REMARK   10  A    between atoms: C19_29  and  O8_30 
REMARK   11  A    between atoms: C19_29  and  C20_32 
REMARK   12  A    between atoms: C20_32  and  O9_33 
ROOT
HETATM    1  C1  UNL     1       5.232  15.768  84.867  1.00  0.00     0.019 C 
HETATM    2  C2  UNL     1       4.373  16.677  85.664  1.00  0.00     0.005 C 
HETATM    3  C3  UNL     1       3.242  17.146  84.816  1.00  0.00     0.057 C 
HETATM    4  C4  UNL     1       3.373  18.597  84.644  1.00  0.00     0.122 C 
HETATM    5  C6  UNL     1       4.529  19.053  85.555  1.00  0.00     0.189 C 
HETATM    6  C8  UNL     1       5.108  17.899  86.226  1.00  0.00     0.036 C 
HETATM    7  C17 UNL     1       4.707  17.818  87.687  1.00  0.00     0.019 C 
HETATM    8  C18 UNL     1       3.387  17.091  87.732  1.00  0.00     0.042 C 
HETATM    9  C19 UNL     1       3.760  15.933  86.788  1.00  0.00     0.087 C 
ENDROOT
BRANCH   6  10
HETATM   10  C9  UNL     1       6.590  17.649  86.236  1.00  0.00     0.193 C 
BRANCH  10  11
HETATM   11  O6  UNL     1       7.249  17.137  87.240  1.00  0.00    -0.317 OA
BRANCH  11  12
HETATM   12  C10 UNL     1       7.864  16.480  88.142  1.00  0.00     0.293 C 
HETATM   13  O7  UNL     1       7.729  15.220  88.044  1.00  0.00    -0.259 OA
BRANCH  12  14
HETATM   14  C11 UNL     1       8.708  16.909  89.286  1.00  0.00     0.039 A 
HETATM   15  C12 UNL     1       8.191  16.840  90.552  1.00  0.00     0.017 A 
HETATM   16  C13 UNL     1       8.921  17.222  91.650  1.00  0.00     0.001 A 
HETATM   17  C14 UNL     1      10.215  17.688  91.478  1.00  0.00     0.000 A 
HETATM   18  C15 UNL     1      10.726  17.754  90.194  1.00  0.00     0.001 A 
HETATM   19  C16 UNL     1       9.980  17.366  89.105  1.00  0.00     0.017 A 
ENDBRANCH  12  14
ENDBRANCH  11  12
ENDBRANCH  10  11
ENDBRANCH   6  10
BRANCH   5  20
HETATM   20  O3  UNL     1       3.801  19.760  86.584  1.00  0.00    -0.375 OA
ATOM     21  H3  UNL     1       3.965  20.661  86.332  1.00  0.00     0.211 HD
ENDBRANCH   5  20
BRANCH   5  22
HETATM   22  C7  UNL     1       5.184  20.060  84.818  1.00  0.00     0.213 C 
HETATM   23  O4  UNL     1       6.266  20.162  84.205  1.00  0.00    -0.646 OA
HETATM   24  O5  UNL     1       4.516  21.311  84.689  1.00  0.00    -0.646 OA
ENDBRANCH   5  22
BRANCH   9  25
HETATM   25  O8  UNL     1       2.545  15.357  86.352  1.00  0.00    -0.387 OA
ATOM     26  H8  UNL     1       1.866  16.022  86.363  1.00  0.00     0.210 HD
ENDBRANCH   9  25
BRANCH   9  27
HETATM   27  C20 UNL     1       4.511  14.878  87.482  1.00  0.00     0.202 C 
BRANCH  27  28
HETATM   28  O9  UNL     1       4.655  15.118  88.847  1.00  0.00    -0.398 OA
ATOM     29  H9  UNL     1       3.942  14.762  89.363  1.00  0.00     0.209 HD
ENDBRANCH  27  28
ENDBRANCH   9  27
BRANCH   4  30
HETATM   30  O1  UNL     1       2.181  19.275  85.033  1.00  0.00    -0.384 OA
ATOM     31  H1  UNL     1       2.213  19.531  85.948  1.00  0.00     0.210 HD
ENDBRANCH   4  30
BRANCH   4  32
HETATM   32  C5  UNL     1       3.506  18.908  83.203  1.00  0.00     0.205 C 
BRANCH  32  33
HETATM   33  O2  UNL     1       2.655  19.805  82.640  1.00  0.00    -0.398 OA
ATOM     34  H2  UNL     1       2.744  20.009  81.716  1.00  0.00     0.209 HD
ENDBRANCH  32  33
ENDBRANCH   4  32
TORSDOF 12
ENDMDL
MODEL 3
REMARK VINA RESULT: -7.553662975      1.967      4.085
REMARK  12 active torsions:
REMARK  status: ('A' for Active; 'I' for Inactive)
REMARK    1  A    between atoms: C4_4  and  O1_5 
REMARK    2  A    between atoms: C4_4  and  C5_7 
REMARK    3  A    between atoms: C5_7  and  O2_8 
REMARK    4  A    between atoms: C6_10  and  O3_11 
REMARK    5  A    between atoms: C6_10  and  C7_13 
REMARK    6  A    between atoms: C8_16  and  C9_17 
REMARK    7  A    between atoms: C9_17  and  O6_18 
REMARK    8  A    between atoms: O6_18  and  C10_19 
REMARK    9  A    between atoms: C10_19  and  C11_21 
REMARK   10  A    between atoms: C19_29  and  O8_30 
REMARK   11  A    between atoms: C19_29  and  C20_32 
REMARK   12  A    between atoms: C20_32  and  O9_33 
ROOT
HETATM    1  C1  UNL     1       4.529  15.407  85.237  1.00  0.00     0.019 C 
HETATM    2  C2  UNL     1       4.102  16.524  86.116  1.00  0.00     0.005 C 
HETATM    3  C3  UNL     1       2.670  16.833  85.847  1.00  0.00     0.057 C 
HETATM    4  C4  UNL     1       2.593  18.192  85.300  1.00  0.00     0.122 C 
HETATM    5  C6  UNL     1       4.009  18.793  85.394  1.00  0.00     0.189 C 
HETATM    6  C8  UNL     1       4.925  17.805  85.943  1.00  0.00     0.036 C 
HETATM    7  C17 UNL     1       5.293  18.096  87.386  1.00  0.00     0.019 C 
HETATM    8  C18 UNL     1       4.220  17.470  88.240  1.00  0.00     0.042 C 
HETATM    9  C19 UNL     1       4.170  16.102  87.534  1.00  0.00     0.087 C 
ENDROOT
BRANCH   6  10
HETATM   10  C9  UNL     1       6.238  17.488  85.285  1.00  0.00     0.193 C 
BRANCH  10  11
HETATM   11  O6  UNL     1       7.393  17.493  85.894  1.00  0.00    -0.317 OA
BRANCH  11  12
HETATM   12  C10 UNL     1       8.527  17.672  86.449  1.00  0.00     0.293 C 
HETATM   13  O7  UNL     1       9.432  18.073  85.653  1.00  0.00    -0.259 OA
BRANCH  12  14
HETATM   14  C11 UNL     1       8.988  17.498  87.849  1.00  0.00     0.039 A 
HETATM   15  C12 UNL     1       8.115  16.994  88.775  1.00  0.00     0.017 A 
HETATM   16  C13 UNL     1       8.483  16.811  90.086  1.00  0.00     0.001 A 
HETATM   17  C14 UNL     1       9.768  17.142  90.485  1.00  0.00     0.000 A 
HETATM   18  C15 UNL     1      10.641  17.652  89.540  1.00  0.00     0.001 A 
HETATM   19  C16 UNL     1      10.256  17.828  88.230  1.00  0.00     0.017 A 
ENDBRANCH  12  14
ENDBRANCH  11  12
ENDBRANCH  10  11
ENDBRANCH   6  10
BRANCH   5  20
HETATM   20  O3  UNL     1       3.823  19.762  86.450  1.00  0.00    -0.375 OA
ATOM     21  H3  UNL     1       2.935  20.049  86.274  1.00  0.00     0.211 HD
ENDBRANCH   5  20
BRANCH   5  22
HETATM   22  C7  UNL     1       4.147  19.559  84.219  1.00  0.00     0.213 C 
HETATM   23  O4  UNL     1       4.631  19.380  83.084  1.00  0.00    -0.646 OA
HETATM   24  O5  UNL     1       3.631  20.886  84.244  1.00  0.00    -0.646 OA
ENDBRANCH   5  22
BRANCH   9  25
HETATM   25  O8  UNL     1       2.943  15.502  87.896  1.00  0.00    -0.387 OA
ATOM     26  H8  UNL     1       2.735  14.819  87.269  1.00  0.00     0.210 HD
ENDBRANCH   9  25
BRANCH   9  27
HETATM   27  C20 UNL     1       5.240  15.206  87.995  1.00  0.00     0.202 C 
BRANCH  27  28
HETATM   28  O9  UNL     1       4.809  14.293  88.955  1.00  0.00    -0.398 OA
ATOM     29  H9  UNL     1       4.048  13.796  88.680  1.00  0.00     0.209 HD
ENDBRANCH  27  28
ENDBRANCH   9  27
BRANCH   4  30
HETATM   30  O1  UNL     1       1.695  19.003  86.052  1.00  0.00    -0.384 OA
ATOM     31  H1  UNL     1       0.793  18.737  85.915  1.00  0.00     0.210 HD
ENDBRANCH   4  30
BRANCH   4  32
HETATM   32  C5  UNL     1       1.985  18.142  83.951  1.00  0.00     0.205 C 
BRANCH  32  33
HETATM   33  O2  UNL     1       0.638  18.266  83.830  1.00  0.00    -0.398 OA
ATOM     34  H2  UNL     1       0.276  18.612  83.022  1.00  0.00     0.209 HD
ENDBRANCH  32  33
ENDBRANCH   4  32
TORSDOF 12
ENDMDL
MODEL 4
REMARK VINA RESULT: -7.370167436      1.309      4.086
REMARK  12 active torsions:
REMARK  status: ('A' for Active; 'I' for Inactive)
REMARK    1  A    between atoms: C4_4  and  O1_5 
REMARK    2  A    between atoms: C4_4  and  C5_7 
REMARK    3  A    between atoms: C5_7  and  O2_8 
REMARK    4  A    between atoms: C6_10  and  O3_11 
REMARK    5  A    between atoms: C6_10  and  C7_13 
REMARK    6  A    between atoms: C8_16  and  C9_17 
REMARK    7  A    between atoms: C9_17  and  O6_18 
REMARK    8  A    between atoms: O6_18  and  C10_19 
REMARK    9  A    between atoms: C10_19  and  C11_21 
REMARK   10  A    between atoms: C19_29  and  O8_30 
REMARK   11  A    between atoms: C19_29  and  C20_32 
REMARK   12  A    between atoms: C20_32  and  O9_33 
ROOT
HETATM    1  C1  UNL     1       4.940  15.316  87.111  1.00  0.00     0.019 C 
HETATM    2  C2  UNL     1       4.823  16.475  86.193  1.00  0.00     0.005 C 
HETATM    3  C3  UNL     1       5.402  16.110  84.870  1.00  0.00     0.057 C 
HETATM    4  C4  UNL     1       6.571  16.962  84.634  1.00  0.00     0.122 C 
HETATM    5  C6  UNL     1       6.609  17.997  85.775  1.00  0.00     0.189 C 
HETATM    6  C8  UNL     1       5.514  17.745  86.700  1.00  0.00     0.036 C 
HETATM    7  C17 UNL     1       4.389  18.753  86.553  1.00  0.00     0.019 C 
HETATM    8  C18 UNL     1       3.488  18.236  85.460  1.00  0.00     0.042 C 
HETATM    9  C19 UNL     1       3.394  16.778  85.945  1.00  0.00     0.087 C 
ENDROOT
BRANCH   6  10
HETATM   10  C9  UNL     1       5.735  17.655  88.183  1.00  0.00     0.193 C 
BRANCH  10  11
HETATM   11  O6  UNL     1       6.691  16.969  88.751  1.00  0.00    -0.317 OA
BRANCH  11  12
HETATM   12  C10 UNL     1       7.581  16.388  89.454  1.00  0.00     0.293 C 
HETATM   13  O7  UNL     1       7.800  15.183  89.114  1.00  0.00    -0.259 OA
BRANCH  12  14
HETATM   14  C11 UNL     1       8.409  16.852  90.595  1.00  0.00     0.039 A 
HETATM   15  C12 UNL     1       9.738  17.110  90.386  1.00  0.00     0.017 A 
HETATM   16  C13 UNL     1      10.555  17.541  91.402  1.00  0.00     0.001 A 
HETATM   17  C14 UNL     1      10.027  17.723  92.670  1.00  0.00     0.000 A 
HETATM   18  C15 UNL     1       8.684  17.458  92.869  1.00  0.00     0.001 A 
HETATM   19  C16 UNL     1       7.879  17.027  91.839  1.00  0.00     0.017 A 
ENDBRANCH  12  14
ENDBRANCH  11  12
ENDBRANCH  10  11
ENDBRANCH   6  10
BRANCH   5  20
HETATM   20  O3  UNL     1       6.233  19.199  85.065  1.00  0.00    -0.375 OA
ATOM     21  H3  UNL     1       5.470  19.469  85.563  1.00  0.00     0.211 HD
ENDBRANCH   5  20
BRANCH   5  22
HETATM   22  C7  UNL     1       7.979  18.159  86.060  1.00  0.00     0.213 C 
HETATM   23  O4  UNL     1       8.776  17.716  86.912  1.00  0.00    -0.646 OA
HETATM   24  O5  UNL     1       8.721  19.031  85.214  1.00  0.00    -0.646 OA
ENDBRANCH   5  22
BRANCH   9  25
HETATM   25  O8  UNL     1       2.945  16.012  84.846  1.00  0.00    -0.387 OA
ATOM     26  H8  UNL     1       3.349  15.152  84.881  1.00  0.00     0.210 HD
ENDBRANCH   9  25
BRANCH   9  27
HETATM   27  C20 UNL     1       2.401  16.617  87.016  1.00  0.00     0.202 C 
BRANCH  27  28
HETATM   28  O9  UNL     1       1.200  17.271  86.748  1.00  0.00    -0.398 OA
ATOM     29  H9  UNL     1       1.068  18.040  87.288  1.00  0.00     0.209 HD
ENDBRANCH  27  28
ENDBRANCH   9  27
BRANCH   4  30
HETATM   30  O1  UNL     1       6.468  17.649  83.389  1.00  0.00    -0.384 OA
ATOM     31  H1  UNL     1       6.567  18.588  83.503  1.00  0.00     0.210 HD
ENDBRANCH   4  30
BRANCH   4  32
HETATM   32  C5  UNL     1       7.772  16.112  84.473  1.00  0.00     0.205 C 
BRANCH  32  33
HETATM   33  O2  UNL     1       8.616  16.351  83.437  1.00  0.00    -0.398 OA
ATOM     34  H2  UNL     1       9.429  15.862  83.381  1.00  0.00     0.209 HD
ENDBRANCH  32  33
ENDBRANCH   4  32
TORSDOF 12
ENDMDL
MODEL 5
REMARK VINA RESULT: -7.330082168      2.716      7.747
REMARK  12 active torsions:
REMARK  status: ('A' for Active; 'I' for Inactive)
REMARK    1  A    between atoms: C4_4  and  O1_5 
REMARK    2  A    between atoms: C4_4  and  C5_7 
REMARK    3  A    between atoms: C5_7  and  O2_8 
REMARK    4  A    between atoms: C6_10  and  O3_11 
REMARK    5  A    between atoms: C6_10  and  C7_13 
REMARK    6  A    between atoms: C8_16  and  C9_17 
REMARK    7  A    between atoms: C9_17  and  O6_18 
REMARK    8  A    between atoms: O6_18  and  C10_19 
REMARK    9  A    between atoms: C10_19  and  C11_21 
REMARK   10  A    between atoms: C19_29  and  O8_30 
REMARK   11  A    between atoms: C19_29  and  C20_32 
REMARK   12  A    between atoms: C20_32  and  O9_33 
ROOT
HETATM    1  C1  UNL     1       4.068  17.935  87.989  1.00  0.00     0.019 C 
HETATM    2  C2  UNL     1       4.665  16.733  87.356  1.00  0.00     0.005 C 
HETATM    3  C3  UNL     1       5.858  16.311  88.142  1.00  0.00     0.057 C 
HETATM    4  C4  UNL     1       7.041  16.460  87.289  1.00  0.00     0.122 C 
HETATM    5  C6  UNL     1       6.535  16.827  85.881  1.00  0.00     0.189 C 
HETATM    6  C8  UNL     1       5.085  16.940  85.896  1.00  0.00     0.036 C 
HETATM    7  C17 UNL     1       4.405  15.752  85.241  1.00  0.00     0.019 C 
HETATM    8  C18 UNL     1       4.261  14.695  86.306  1.00  0.00     0.042 C 
HETATM    9  C19 UNL     1       3.711  15.603  87.421  1.00  0.00     0.087 C 
ENDROOT
BRANCH   6  10
HETATM   10  C9  UNL     1       4.377  18.133  85.321  1.00  0.00     0.193 C 
BRANCH  10  11
HETATM   11  O6  UNL     1       3.238  18.084  84.684  1.00  0.00    -0.317 OA
BRANCH  11  12
HETATM   12  C10 UNL     1       2.124  18.214  84.077  1.00  0.00     0.293 C 
HETATM   13  O7  UNL     1       1.126  18.339  84.854  1.00  0.00    -0.259 OA
BRANCH  12  14
HETATM   14  C11 UNL     1       1.773  18.247  82.635  1.00  0.00     0.039 A 
HETATM   15  C12 UNL     1       0.829  17.374  82.164  1.00  0.00     0.017 A 
HETATM   16  C13 UNL     1       0.462  17.355  80.841  1.00  0.00     0.001 A 
HETATM   17  C14 UNL     1       1.058  18.240  79.958  1.00  0.00     0.000 A 
HETATM   18  C15 UNL     1       2.011  19.117  80.445  1.00  0.00     0.001 A 
HETATM   19  C16 UNL     1       2.367  19.122  81.774  1.00  0.00     0.017 A 
ENDBRANCH  12  14
ENDBRANCH  11  12
ENDBRANCH  10  11
ENDBRANCH   6  10
BRANCH   5  20
HETATM   20  O3  UNL     1       6.810  15.601  85.166  1.00  0.00    -0.375 OA
ATOM     21  H3  UNL     1       7.696  15.421  85.454  1.00  0.00     0.211 HD
ENDBRANCH   5  20
BRANCH   5  22
HETATM   22  C7  UNL     1       7.482  17.750  85.394  1.00  0.00     0.213 C 
HETATM   23  O4  UNL     1       7.619  18.990  85.416  1.00  0.00    -0.646 OA
HETATM   24  O5  UNL     1       8.599  17.223  84.685  1.00  0.00    -0.646 OA
ENDBRANCH   5  22
BRANCH   9  25
HETATM   25  O8  UNL     1       3.898  14.911  88.639  1.00  0.00    -0.387 OA
ATOM     26  H8  UNL     1       3.800  13.979  88.484  1.00  0.00     0.210 HD
ENDBRANCH   9  25
BRANCH   9  27
HETATM   27  C20 UNL     1       2.267  15.837  87.278  1.00  0.00     0.202 C 
BRANCH  27  28
HETATM   28  O9  UNL     1       1.535  14.659  87.144  1.00  0.00    -0.398 OA
ATOM     29  H9  UNL     1       2.015  13.972  86.699  1.00  0.00     0.209 HD
ENDBRANCH  27  28
ENDBRANCH   9  27
BRANCH   4  30
HETATM   30  O1  UNL     1       7.781  15.243  87.213  1.00  0.00    -0.384 OA
ATOM     31  H1  UNL     1       8.713  15.399  87.317  1.00  0.00     0.210 HD
ENDBRANCH   4  30
BRANCH   4  32
HETATM   32  C5  UNL     1       7.983  17.411  87.921  1.00  0.00     0.205 C 
BRANCH  32  33
HETATM   33  O2  UNL     1       9.098  16.930  88.529  1.00  0.00    -0.398 OA
ATOM     34  H2  UNL     1       9.709  17.541  88.926  1.00  0.00     0.209 HD
ENDBRANCH  32  33
ENDBRANCH   4  32
TORSDOF 12
ENDMDL
