MODEL 1
REMARK VINA RESULT: -7.705226267      0.000      0.000
REMARK  7 active torsions:
REMARK  status: ('A' for Active; 'I' for Inactive)
REMARK    1  A    between atoms: N2_8  and  C6_9 
REMARK    2  A    between atoms: C6_9  and  C7_10 
REMARK    3  A    between atoms: C6_9  and  C8_15 
REMARK    4  A    between atoms: C7_10  and  N3_11 
REMARK       I    between atoms: C8_15  and  N4_17 
REMARK    5  A    between atoms: N4_17  and  C9_18 
REMARK    6  A    between atoms: C12_21  and  S2_22 
REMARK    7  A    between atoms: S2_22  and  N5_25 
REMARK       I    between atoms: N5_25  and  C13_27 
ROOT
HETATM    1  N1  UNL     1       8.959  21.542  81.141  1.00  0.00    -0.195 NA
HETATM    2  C1  UNL     1       9.940  21.032  81.494  1.00  0.00     0.096 C 
HETATM    3  C2  UNL     1      11.228  20.377  81.902  1.00  0.00     0.339 C 
HETATM    4  C3  UNL     1      12.218  20.814  80.899  1.00  0.00     0.124 C 
HETATM    5  S1  UNL     1      13.208  19.602  80.070  1.00  0.00    -0.164 SA
HETATM    6  C4  UNL     1      12.931  17.990  80.919  1.00  0.00     0.104 C 
HETATM    7  C5  UNL     1      12.439  18.449  82.281  1.00  0.00     0.285 C 
HETATM    8  N2  UNL     1      11.063  18.991  82.127  1.00  0.00     0.124 N 
ENDROOT
BRANCH   8   9
HETATM    9  C6  UNL     1      10.369  18.558  83.290  1.00  0.00     0.355 C 
BRANCH   9  10
HETATM   10  C7  UNL     1       9.936  19.661  84.207  1.00  0.00     0.276 C 
BRANCH  10  11
HETATM   11  N3  UNL     1      10.074  19.358  85.628  1.00  0.00    -0.077 N 
ATOM     12  H33 UNL     1       9.421  18.622  85.899  1.00  0.00     0.274 HD
ATOM     13  H32 UNL     1      10.958  18.881  85.805  1.00  0.00     0.274 HD
ATOM     14  H31 UNL     1       9.976  20.164  86.244  1.00  0.00     0.274 HD
ENDBRANCH  10  11
ENDBRANCH   9  10
BRANCH   9  15
HETATM   15  C8  UNL     1       9.024  17.944  82.832  1.00  0.00     0.327 C 
HETATM   16  O1  UNL     1       9.026  17.722  81.602  1.00  0.00    -0.255 OA
HETATM   17  N4  UNL     1       8.044  17.722  83.742  1.00  0.00    -0.369 NA
BRANCH  17  18
HETATM   18  C9  UNL     1       7.049  17.493  84.638  1.00  0.00     0.111 A 
HETATM   19  C10 UNL     1       6.262  16.311  84.405  1.00  0.00     0.046 A 
HETATM   20  C11 UNL     1       5.216  15.946  85.153  1.00  0.00     0.028 A 
HETATM   21  C12 UNL     1       4.798  16.710  86.248  1.00  0.00     0.080 A 
HETATM   22  C14 UNL     1       5.522  17.838  86.501  1.00  0.00     0.028 A 
HETATM   23  C15 UNL     1       6.613  18.211  85.712  1.00  0.00     0.046 A 
BRANCH  21  24
HETATM   24  S2  UNL     1       3.436  16.130  87.143  1.00  0.00     0.265 S 
HETATM   25  O2  UNL     1       2.261  17.136  86.983  1.00  0.00    -0.200 OA
HETATM   26  O3  UNL     1       3.750  16.144  88.620  1.00  0.00    -0.200 OA
BRANCH  24  27
HETATM   27  N5  UNL     1       2.791  14.634  86.685  1.00  0.00    -0.254 N 
HETATM   28  C13 UNL     1       1.853  13.921  87.437  1.00  0.00     0.195 C 
HETATM   29  N6  UNL     1       1.908  13.741  88.697  1.00  0.00    -0.373 N 
HETATM   30  N7  UNL     1       0.698  13.331  86.743  1.00  0.00    -0.063 NA
ATOM     31  H62 UNL     1       2.709  14.150  89.178  1.00  0.00     0.158 HD
ATOM     32  H61 UNL     1       1.224  13.221  89.246  1.00  0.00     0.158 HD
ATOM     33  H5  UNL     1       3.107  14.226  85.805  1.00  0.00     0.181 HD
ENDBRANCH  24  27
ENDBRANCH  21  24
ENDBRANCH  17  18
ENDBRANCH   9  15
ENDBRANCH   8   9
TORSDOF 7
ENDMDL
MODEL 2
REMARK VINA RESULT: -7.315208549      1.582      2.337
REMARK  7 active torsions:
REMARK  status: ('A' for Active; 'I' for Inactive)
REMARK    1  A    between atoms: N2_8  and  C6_9 
REMARK    2  A    between atoms: C6_9  and  C7_10 
REMARK    3  A    between atoms: C6_9  and  C8_15 
REMARK    4  A    between atoms: C7_10  and  N3_11 
REMARK       I    between atoms: C8_15  and  N4_17 
REMARK    5  A    between atoms: N4_17  and  C9_18 
REMARK    6  A    between atoms: C12_21  and  S2_22 
REMARK    7  A    between atoms: S2_22  and  N5_25 
REMARK       I    between atoms: N5_25  and  C13_27 
ROOT
HETATM    1  N1  UNL     1       7.993  16.690  82.420  1.00  0.00    -0.195 NA
HETATM    2  C1  UNL     1       8.706  17.540  82.077  1.00  0.00     0.096 C 
HETATM    3  C2  UNL     1       9.661  18.602  81.618  1.00  0.00     0.339 C 
HETATM    4  C3  UNL     1      10.525  17.941  80.622  1.00  0.00     0.124 C 
HETATM    5  S1  UNL     1      12.285  18.057  80.783  1.00  0.00    -0.164 SA
HETATM    6  C4  UNL     1      12.637  19.295  82.103  1.00  0.00     0.104 C 
HETATM    7  C5  UNL     1      11.348  20.100  82.109  1.00  0.00     0.285 C 
HETATM    8  N2  UNL     1      10.273  19.264  82.708  1.00  0.00     0.124 N 
ENDROOT
BRANCH   8   9
HETATM    9  C6  UNL     1       9.502  20.168  83.488  1.00  0.00     0.355 C 
BRANCH   9  10
HETATM   10  C7  UNL     1       8.104  20.386  82.993  1.00  0.00     0.276 C 
BRANCH  10  11
HETATM   11  N3  UNL     1       7.435  21.551  83.563  1.00  0.00    -0.077 N 
ATOM     12  H33 UNL     1       7.785  21.738  84.502  1.00  0.00     0.274 HD
ATOM     13  H32 UNL     1       7.739  22.402  83.090  1.00  0.00     0.274 HD
ATOM     14  H31 UNL     1       6.416  21.493  83.569  1.00  0.00     0.274 HD
ENDBRANCH  10  11
ENDBRANCH   9  10
BRANCH   9  15
HETATM   15  C8  UNL     1       9.277  19.517  84.874  1.00  0.00     0.327 C 
HETATM   16  O1  UNL     1      10.316  19.568  85.568  1.00  0.00    -0.255 OA
HETATM   17  N4  UNL     1       8.066  18.992  85.181  1.00  0.00    -0.369 NA
BRANCH  17  18
HETATM   18  C9  UNL     1       6.860  18.459  85.506  1.00  0.00     0.111 A 
HETATM   19  C10 UNL     1       6.752  17.934  86.842  1.00  0.00     0.046 A 
HETATM   20  C11 UNL     1       5.660  17.333  87.326  1.00  0.00     0.028 A 
HETATM   21  C12 UNL     1       4.510  17.166  86.546  1.00  0.00     0.080 A 
HETATM   22  C14 UNL     1       4.575  17.654  85.274  1.00  0.00     0.028 A 
HETATM   23  C15 UNL     1       5.721  18.279  84.778  1.00  0.00     0.046 A 
BRANCH  21  24
HETATM   24  S2  UNL     1       3.160  16.380  87.288  1.00  0.00     0.265 S 
HETATM   25  O2  UNL     1       1.908  17.291  87.151  1.00  0.00    -0.200 OA
HETATM   26  O3  UNL     1       3.388  16.268  88.777  1.00  0.00    -0.200 OA
BRANCH  24  27
HETATM   27  N5  UNL     1       2.684  14.889  86.644  1.00  0.00    -0.254 N 
HETATM   28  C13 UNL     1       1.876  13.967  87.314  1.00  0.00     0.195 C 
HETATM   29  N6  UNL     1       2.009  13.627  88.535  1.00  0.00    -0.373 N 
HETATM   30  N7  UNL     1       0.772  13.333  86.577  1.00  0.00    -0.063 NA
ATOM     31  H62 UNL     1       2.774  14.067  89.046  1.00  0.00     0.158 HD
ATOM     32  H61 UNL     1       1.419  12.954  89.024  1.00  0.00     0.158 HD
ATOM     33  H5  UNL     1       3.008  14.648  85.707  1.00  0.00     0.181 HD
ENDBRANCH  24  27
ENDBRANCH  21  24
ENDBRANCH  17  18
ENDBRANCH   9  15
ENDBRANCH   8   9
TORSDOF 7
ENDMDL
MODEL 3
REMARK VINA RESULT: -7.314186539      1.037      1.037
REMARK  7 active torsions:
REMARK  status: ('A' for Active; 'I' for Inactive)
REMARK    1  A    between atoms: N2_8  and  C6_9 
REMARK    2  A    between atoms: C6_9  and  C7_10 
REMARK    3  A    between atoms: C6_9  and  C8_15 
REMARK    4  A    between atoms: C7_10  and  N3_11 
REMARK       I    between atoms: C8_15  and  N4_17 
REMARK    5  A    between atoms: N4_17  and  C9_18 
REMARK    6  A    between atoms: C12_21  and  S2_22 
REMARK    7  A    between atoms: S2_22  and  N5_25 
REMARK       I    between atoms: N5_25  and  C13_27 
ROOT
HETATM    1  N1  UNL     1       9.446  22.513  83.210  1.00  0.00    -0.195 NA
HETATM    2  C1  UNL     1      10.214  21.670  82.994  1.00  0.00     0.096 C 
HETATM    3  C2  UNL     1      11.227  20.610  82.673  1.00  0.00     0.339 C 
HETATM    4  C3  UNL     1      12.278  21.299  81.902  1.00  0.00     0.124 C 
HETATM    5  S1  UNL     1      12.795  20.630  80.345  1.00  0.00    -0.164 SA
HETATM    6  C4  UNL     1      12.027  18.962  80.181  1.00  0.00     0.104 C 
HETATM    7  C5  UNL     1      11.749  18.616  81.634  1.00  0.00     0.285 C 
HETATM    8  N2  UNL     1      10.623  19.461  82.113  1.00  0.00     0.124 N 
ENDROOT
BRANCH   8   9
HETATM    9  C6  UNL     1       9.857  18.605  82.950  1.00  0.00     0.355 C 
BRANCH   9  10
HETATM   10  C7  UNL     1       9.833  19.001  84.395  1.00  0.00     0.276 C 
BRANCH  10  11
HETATM   11  N3  UNL     1      10.561  18.100  85.283  1.00  0.00    -0.077 N 
ATOM     12  H33 UNL     1       9.987  17.289  85.513  1.00  0.00     0.274 HD
ATOM     13  H32 UNL     1      11.319  17.641  84.779  1.00  0.00     0.274 HD
ATOM     14  H31 UNL     1      10.913  18.537  86.134  1.00  0.00     0.274 HD
ENDBRANCH  10  11
ENDBRANCH   9  10
BRANCH   9  15
HETATM   15  C8  UNL     1       8.373  18.744  82.532  1.00  0.00     0.327 C 
HETATM   16  O1  UNL     1       8.275  19.141  81.350  1.00  0.00    -0.255 OA
HETATM   17  N4  UNL     1       7.395  18.445  83.420  1.00  0.00    -0.369 NA
BRANCH  17  18
HETATM   18  C9  UNL     1       6.400  18.151  84.297  1.00  0.00     0.111 A 
HETATM   19  C10 UNL     1       6.076  16.754  84.424  1.00  0.00     0.046 A 
HETATM   20  C11 UNL     1       5.099  16.278  85.202  1.00  0.00     0.028 A 
HETATM   21  C12 UNL     1       4.296  17.128  85.972  1.00  0.00     0.080 A 
HETATM   22  C14 UNL     1       4.576  18.460  85.878  1.00  0.00     0.028 A 
HETATM   23  C15 UNL     1       5.599  18.947  85.061  1.00  0.00     0.046 A 
BRANCH  21  24
HETATM   24  S2  UNL     1       3.070  16.391  86.944  1.00  0.00     0.265 S 
HETATM   25  O2  UNL     1       1.779  17.254  86.867  1.00  0.00    -0.200 OA
HETATM   26  O3  UNL     1       3.473  16.439  88.399  1.00  0.00    -0.200 OA
BRANCH  24  27
HETATM   27  N5  UNL     1       2.575  14.832  86.513  1.00  0.00    -0.254 N 
HETATM   28  C13 UNL     1       1.805  13.999  87.330  1.00  0.00     0.195 C 
HETATM   29  N6  UNL     1       1.997  13.814  88.576  1.00  0.00    -0.373 N 
HETATM   30  N7  UNL     1       0.674  13.277  86.730  1.00  0.00    -0.063 NA
ATOM     31  H62 UNL     1       2.782  14.315  88.993  1.00  0.00     0.158 HD
ATOM     32  H61 UNL     1       1.435  13.207  89.173  1.00  0.00     0.158 HD
ATOM     33  H5  UNL     1       2.858  14.476  85.600  1.00  0.00     0.181 HD
ENDBRANCH  24  27
ENDBRANCH  21  24
ENDBRANCH  17  18
ENDBRANCH   9  15
ENDBRANCH   8   9
TORSDOF 7
ENDMDL
MODEL 4
REMARK VINA RESULT: -7.287655812      4.866      7.614
REMARK  7 active torsions:
REMARK  status: ('A' for Active; 'I' for Inactive)
REMARK    1  A    between atoms: N2_8  and  C6_9 
REMARK    2  A    between atoms: C6_9  and  C7_10 
REMARK    3  A    between atoms: C6_9  and  C8_15 
REMARK    4  A    between atoms: C7_10  and  N3_11 
REMARK       I    between atoms: C8_15  and  N4_17 
REMARK    5  A    between atoms: N4_17  and  C9_18 
REMARK    6  A    between atoms: C12_21  and  S2_22 
REMARK    7  A    between atoms: S2_22  and  N5_25 
REMARK       I    between atoms: N5_25  and  C13_27 
ROOT
HETATM    1  N1  UNL     1       2.501  16.999  85.132  1.00  0.00    -0.195 NA
HETATM    2  C1  UNL     1       2.123  17.722  84.306  1.00  0.00     0.096 C 
HETATM    3  C2  UNL     1       1.618  18.614  83.209  1.00  0.00     0.339 C 
HETATM    4  C3  UNL     1       0.640  17.797  82.466  1.00  0.00     0.124 C 
HETATM    5  S1  UNL     1       0.785  17.656  80.706  1.00  0.00    -0.164 SA
HETATM    6  C4  UNL     1       2.055  18.874  80.158  1.00  0.00     0.104 C 
HETATM    7  C5  UNL     1       2.042  19.861  81.313  1.00  0.00     0.285 C 
HETATM    8  N2  UNL     1       2.678  19.215  82.492  1.00  0.00     0.124 N 
ENDROOT
BRANCH   8   9
HETATM    9  C6  UNL     1       3.431  20.250  83.112  1.00  0.00     0.355 C 
BRANCH   9  10
HETATM   10  C7  UNL     1       3.076  20.510  84.544  1.00  0.00     0.276 C 
BRANCH  10  11
HETATM   11  N3  UNL     1       3.722  21.682  85.126  1.00  0.00    -0.077 N 
ATOM     12  H33 UNL     1       4.120  21.453  86.037  1.00  0.00     0.274 HD
ATOM     13  H32 UNL     1       4.575  21.908  84.614  1.00  0.00     0.274 HD
ATOM     14  H31 UNL     1       3.123  22.504  85.197  1.00  0.00     0.274 HD
ENDBRANCH  10  11
ENDBRANCH   9  10
BRANCH   9  15
HETATM   15  C8  UNL     1       4.900  19.771  83.204  1.00  0.00     0.327 C 
HETATM   16  O1  UNL     1       5.508  19.980  82.132  1.00  0.00    -0.255 OA
HETATM   17  N4  UNL     1       5.353  19.212  84.352  1.00  0.00    -0.369 NA
BRANCH  17  18
HETATM   18  C9  UNL     1       5.825  18.649  85.494  1.00  0.00     0.111 A 
HETATM   19  C10 UNL     1       7.251  18.462  85.552  1.00  0.00     0.046 A 
HETATM   20  C11 UNL     1       7.892  17.885  86.573  1.00  0.00     0.028 A 
HETATM   21  C12 UNL     1       7.202  17.405  87.693  1.00  0.00     0.080 A 
HETATM   22  C14 UNL     1       5.847  17.567  87.674  1.00  0.00     0.028 A 
HETATM   23  C15 UNL     1       5.188  18.171  86.601  1.00  0.00     0.046 A 
BRANCH  21  24
HETATM   24  S2  UNL     1       8.143  16.685  88.952  1.00  0.00     0.265 S 
HETATM   25  O2  UNL     1       8.338  15.176  88.637  1.00  0.00    -0.200 OA
HETATM   26  O3  UNL     1       7.365  16.705  90.248  1.00  0.00    -0.200 OA
BRANCH  24  27
HETATM   27  N5  UNL     1       9.707  17.285  89.188  1.00  0.00    -0.254 N 
HETATM   28  C13 UNL     1      10.300  17.461  90.442  1.00  0.00     0.195 C 
HETATM   29  N6  UNL     1       9.729  17.981  91.455  1.00  0.00    -0.373 N 
HETATM   30  N7  UNL     1      11.687  17.011  90.633  1.00  0.00    -0.063 NA
ATOM     31  H62 UNL     1       8.767  18.294  91.322  1.00  0.00     0.158 HD
ATOM     32  H61 UNL     1      10.161  18.110  92.370  1.00  0.00     0.158 HD
ATOM     33  H5  UNL     1      10.253  17.534  88.362  1.00  0.00     0.181 HD
ENDBRANCH  24  27
ENDBRANCH  21  24
ENDBRANCH  17  18
ENDBRANCH   9  15
ENDBRANCH   8   9
TORSDOF 7
ENDMDL
MODEL 5
REMARK VINA RESULT: -7.206784131      1.758      2.159
REMARK  7 active torsions:
REMARK  status: ('A' for Active; 'I' for Inactive)
REMARK    1  A    between atoms: N2_8  and  C6_9 
REMARK    2  A    between atoms: C6_9  and  C7_10 
REMARK    3  A    between atoms: C6_9  and  C8_15 
REMARK    4  A    between atoms: C7_10  and  N3_11 
REMARK       I    between atoms: C8_15  and  N4_17 
REMARK    5  A    between atoms: N4_17  and  C9_18 
REMARK    6  A    between atoms: C12_21  and  S2_22 
REMARK    7  A    between atoms: S2_22  and  N5_25 
REMARK       I    between atoms: N5_25  and  C13_27 
ROOT
HETATM    1  N1  UNL     1       9.214  18.309  80.133  1.00  0.00    -0.195 NA
HETATM    2  C1  UNL     1       9.843  19.224  80.472  1.00  0.00     0.096 C 
HETATM    3  C2  UNL     1      10.696  20.388  80.883  1.00  0.00     0.339 C 
HETATM    4  C3  UNL     1      11.759  20.467  79.863  1.00  0.00     0.124 C 
HETATM    5  S1  UNL     1      13.453  20.531  80.376  1.00  0.00    -0.164 SA
HETATM    6  C4  UNL     1      13.467  20.774  82.203  1.00  0.00     0.104 C 
HETATM    7  C5  UNL     1      12.090  21.375  82.436  1.00  0.00     0.285 C 
HETATM    8  N2  UNL     1      11.072  20.308  82.244  1.00  0.00     0.124 N 
ENDROOT
BRANCH   8   9
HETATM    9  C6  UNL     1      10.094  20.555  83.246  1.00  0.00     0.355 C 
BRANCH   9  10
HETATM   10  C7  UNL     1       8.745  20.942  82.722  1.00  0.00     0.276 C 
BRANCH  10  11
HETATM   11  N3  UNL     1       8.081  21.999  83.477  1.00  0.00    -0.077 N 
ATOM     12  H33 UNL     1       7.204  21.657  83.870  1.00  0.00     0.274 HD
ATOM     13  H32 UNL     1       8.593  22.196  84.337  1.00  0.00     0.274 HD
ATOM     14  H31 UNL     1       7.923  22.859  82.953  1.00  0.00     0.274 HD
ENDBRANCH  10  11
ENDBRANCH   9  10
BRANCH   9  15
HETATM   15  C8  UNL     1       9.811  19.214  83.965  1.00  0.00     0.327 C 
HETATM   16  O1  UNL     1      10.810  18.463  83.925  1.00  0.00    -0.255 OA
HETATM   17  N4  UNL     1       8.597  18.998  84.528  1.00  0.00    -0.369 NA
BRANCH  17  18
HETATM   18  C9  UNL     1       7.387  18.762  85.098  1.00  0.00     0.111 A 
HETATM   19  C10 UNL     1       7.399  17.897  86.248  1.00  0.00     0.046 A 
HETATM   20  C11 UNL     1       6.303  17.516  86.912  1.00  0.00     0.028 A 
HETATM   21  C12 UNL     1       5.028  17.943  86.525  1.00  0.00     0.080 A 
HETATM   22  C14 UNL     1       4.977  18.767  85.439  1.00  0.00     0.028 A 
HETATM   23  C15 UNL     1       6.129  19.158  84.752  1.00  0.00     0.046 A 
BRANCH  21  24
HETATM   24  S2  UNL     1       3.689  17.388  87.469  1.00  0.00     0.265 S 
HETATM   25  O2  UNL     1       2.441  18.253  87.132  1.00  0.00    -0.200 OA
HETATM   26  O3  UNL     1       3.950  17.652  88.934  1.00  0.00    -0.200 OA
BRANCH  24  27
HETATM   27  N5  UNL     1       3.186  15.790  87.232  1.00  0.00    -0.254 N 
HETATM   28  C13 UNL     1       3.421  14.751  88.136  1.00  0.00     0.195 C 
HETATM   29  N6  UNL     1       4.530  14.529  88.725  1.00  0.00    -0.373 N 
HETATM   30  N7  UNL     1       2.317  13.834  88.457  1.00  0.00    -0.063 NA
ATOM     31  H62 UNL     1       5.296  15.165  88.502  1.00  0.00     0.158 HD
ATOM     32  H61 UNL     1       4.702  13.771  89.384  1.00  0.00     0.158 HD
ATOM     33  H5  UNL     1       2.678  15.571  86.374  1.00  0.00     0.181 HD
ENDBRANCH  24  27
ENDBRANCH  21  24
ENDBRANCH  17  18
ENDBRANCH   9  15
ENDBRANCH   8   9
TORSDOF 7
ENDMDL
