MODEL 1
REMARK VINA RESULT: -8.236603432      0.000      0.000
REMARK  8 active torsions:
REMARK  status: ('A' for Active; 'I' for Inactive)
REMARK       I    between atoms: C2_2  and  N1_4 
REMARK    1  A    between atoms: N1_4  and  C3_6 
REMARK    2  A    between atoms: C5_8  and  C6_9 
REMARK       I    between atoms: C6_9  and  N2_11 
REMARK    3  A    between atoms: N2_11  and  N3_13 
REMARK    4  A    between atoms: N4_17  and  C8_18 
REMARK    5  A    between atoms: C8_18  and  C9_19 
REMARK    6  A    between atoms: C9_19  and  N5_21 
REMARK    7  A    between atoms: N5_21  and  N6_23 
REMARK       I    between atoms: N6_23  and  C10_25 
REMARK    8  A    between atoms: C10_25  and  C11_27 
ROOT
HETATM    1  C3  UNL     1       3.101  18.889  85.496  1.00  0.00     0.105 A 
HETATM    2  C4  UNL     1       4.287  19.230  84.922  1.00  0.00     0.054 A 
HETATM    3  C5  UNL     1       5.468  18.730  85.481  1.00  0.00     0.052 A 
HETATM    4  C7  UNL     1       5.400  17.909  86.588  1.00  0.00     0.117 A 
HETATM    5  N4  UNL     1       4.219  17.563  87.165  1.00  0.00    -0.294 N 
HETATM    6  C15 UNL     1       3.100  18.046  86.628  1.00  0.00     0.278 A 
HETATM    7  O4  UNL     1       1.988  17.745  87.147  1.00  0.00    -0.265 OA
ENDROOT
BRANCH   5   8
HETATM    8  C8  UNL     1       4.184  16.688  88.313  1.00  0.00     0.142 C 
BRANCH   8   9
HETATM    9  C9  UNL     1       4.514  15.297  88.082  1.00  0.00     0.131 C 
HETATM   10  S1  UNL     1       3.472  14.410  87.142  1.00  0.00    -0.058 SA
BRANCH   9  11
HETATM   11  N5  UNL     1       5.636  14.640  88.581  1.00  0.00    -0.286 N 
ATOM     12  H5  UNL     1       5.780  13.652  88.373  1.00  0.00     0.188 HD
BRANCH  11  13
HETATM   13  N6  UNL     1       6.580  15.337  89.377  1.00  0.00    -0.264 N 
HETATM   14  C10 UNL     1       7.702  15.924  88.767  1.00  0.00     0.277 C 
HETATM   15  O3  UNL     1       7.914  15.867  87.540  1.00  0.00    -0.265 OA
ATOM     16  H6  UNL     1       6.445  15.411  90.386  1.00  0.00     0.190 HD
BRANCH  14  17
HETATM   17  C11 UNL     1       8.671  16.639  89.607  1.00  0.00     0.074 A 
HETATM   18  C12 UNL     1       9.870  17.189  89.243  1.00  0.00     0.025 A 
HETATM   19  C13 UNL     1      10.584  17.797  90.195  1.00  0.00     0.009 A 
HETATM   20  C14 UNL     1      10.058  17.822  91.460  1.00  0.00     0.050 A 
HETATM   21  S2  UNL     1       8.580  16.992  91.273  1.00  0.00    -0.097 SA
ENDBRANCH  14  17
ENDBRANCH  11  13
ENDBRANCH   9  11
ENDBRANCH   8   9
ENDBRANCH   5   8
BRANCH   3  22
HETATM   22  C6  UNL     1       6.743  19.097  84.891  1.00  0.00     0.271 C 
HETATM   23  O2  UNL     1       7.706  18.310  84.980  1.00  0.00    -0.266 OA
HETATM   24  N2  UNL     1       6.895  20.325  84.229  1.00  0.00    -0.272 N 
ATOM     25  H2  UNL     1       6.097  20.958  84.168  1.00  0.00     0.189 HD
BRANCH  24  26
HETATM   26  N3  UNL     1       8.130  20.711  83.641  1.00  0.00    -0.342 N 
ATOM     27  H32 UNL     1       8.620  20.030  83.061  1.00  0.00     0.176 HD
ATOM     28  H31 UNL     1       8.527  21.640  83.786  1.00  0.00     0.176 HD
ENDBRANCH  24  26
ENDBRANCH   3  22
BRANCH   1  29
HETATM   29  N1  UNL     1       1.863  19.342  85.005  1.00  0.00    -0.323 N 
HETATM   30  C2  UNL     1       1.037  18.744  84.038  1.00  0.00     0.218 C 
HETATM   31  C1  UNL     1      -0.263  19.446  83.683  1.00  0.00     0.117 C 
HETATM   32  O1  UNL     1       1.253  17.680  83.423  1.00  0.00    -0.274 OA
ATOM     33  H1  UNL     1       1.520  20.217  85.403  1.00  0.00     0.169 HD
ENDBRANCH   1  29
TORSDOF 8
ENDMDL
MODEL 2
REMARK VINA RESULT: -8.153562425      1.283      1.361
REMARK  8 active torsions:
REMARK  status: ('A' for Active; 'I' for Inactive)
REMARK       I    between atoms: C2_2  and  N1_4 
REMARK    1  A    between atoms: N1_4  and  C3_6 
REMARK    2  A    between atoms: C5_8  and  C6_9 
REMARK       I    between atoms: C6_9  and  N2_11 
REMARK    3  A    between atoms: N2_11  and  N3_13 
REMARK    4  A    between atoms: N4_17  and  C8_18 
REMARK    5  A    between atoms: C8_18  and  C9_19 
REMARK    6  A    between atoms: C9_19  and  N5_21 
REMARK    7  A    between atoms: N5_21  and  N6_23 
REMARK       I    between atoms: N6_23  and  C10_25 
REMARK    8  A    between atoms: C10_25  and  C11_27 
ROOT
HETATM    1  C3  UNL     1       2.629  18.077  84.939  1.00  0.00     0.105 A 
HETATM    2  C4  UNL     1       3.800  18.523  84.408  1.00  0.00     0.054 A 
HETATM    3  C5  UNL     1       4.976  18.349  85.145  1.00  0.00     0.052 A 
HETATM    4  C7  UNL     1       4.920  17.733  86.378  1.00  0.00     0.117 A 
HETATM    5  N4  UNL     1       3.754  17.284  86.914  1.00  0.00    -0.294 N 
HETATM    6  C15 UNL     1       2.639  17.455  86.206  1.00  0.00     0.278 A 
HETATM    7  O4  UNL     1       1.540  17.052  86.681  1.00  0.00    -0.265 OA
ENDROOT
BRANCH   5   8
HETATM    8  C8  UNL     1       3.734  16.628  88.200  1.00  0.00     0.142 C 
BRANCH   8   9
HETATM    9  C9  UNL     1       4.084  15.223  88.220  1.00  0.00     0.131 C 
HETATM   10  S1  UNL     1       2.841  14.124  88.143  1.00  0.00    -0.058 SA
BRANCH   9  11
HETATM   11  N5  UNL     1       5.378  14.715  88.297  1.00  0.00    -0.286 N 
ATOM     12  H5  UNL     1       5.637  13.900  87.741  1.00  0.00     0.188 HD
BRANCH  11  13
HETATM   13  N6  UNL     1       6.338  15.323  89.145  1.00  0.00    -0.264 N 
HETATM   14  C10 UNL     1       7.426  16.009  88.577  1.00  0.00     0.277 C 
HETATM   15  O3  UNL     1       7.594  16.117  87.347  1.00  0.00    -0.265 OA
ATOM     16  H6  UNL     1       6.240  15.264  90.158  1.00  0.00     0.190 HD
BRANCH  14  17
HETATM   17  C11 UNL     1       8.412  16.631  89.470  1.00  0.00     0.074 A 
HETATM   18  C12 UNL     1       8.336  16.819  90.824  1.00  0.00     0.025 A 
HETATM   19  C13 UNL     1       9.372  17.414  91.422  1.00  0.00     0.009 A 
HETATM   20  C14 UNL     1      10.427  17.789  90.635  1.00  0.00     0.050 A 
HETATM   21  S2  UNL     1       9.934  17.295  89.079  1.00  0.00    -0.097 SA
ENDBRANCH  14  17
ENDBRANCH  11  13
ENDBRANCH   9  11
ENDBRANCH   8   9
ENDBRANCH   5   8
BRANCH   3  22
HETATM   22  C6  UNL     1       6.233  18.835  84.601  1.00  0.00     0.271 C 
HETATM   23  O2  UNL     1       6.240  19.384  83.482  1.00  0.00    -0.266 OA
HETATM   24  N2  UNL     1       7.427  18.686  85.323  1.00  0.00    -0.272 N 
ATOM     25  H2  UNL     1       7.402  18.232  86.235  1.00  0.00     0.189 HD
BRANCH  24  26
HETATM   26  N3  UNL     1       8.671  19.152  84.816  1.00  0.00    -0.342 N 
ATOM     27  H32 UNL     1       8.658  19.914  84.138  1.00  0.00     0.176 HD
ATOM     28  H31 UNL     1       9.558  18.745  85.113  1.00  0.00     0.176 HD
ENDBRANCH  24  26
ENDBRANCH   3  22
BRANCH   1  29
HETATM   29  N1  UNL     1       1.396  18.206  84.273  1.00  0.00    -0.323 N 
HETATM   30  C2  UNL     1       0.566  19.337  84.186  1.00  0.00     0.218 C 
HETATM   31  C1  UNL     1      -0.725  19.210  83.397  1.00  0.00     0.117 C 
HETATM   32  O1  UNL     1       0.774  20.458  84.694  1.00  0.00    -0.274 OA
ATOM     33  H1  UNL     1       1.062  17.372  83.790  1.00  0.00     0.169 HD
ENDBRANCH   1  29
TORSDOF 8
ENDMDL
MODEL 3
REMARK VINA RESULT: -8.109482461      4.857      6.997
REMARK  8 active torsions:
REMARK  status: ('A' for Active; 'I' for Inactive)
REMARK       I    between atoms: C2_2  and  N1_4 
REMARK    1  A    between atoms: N1_4  and  C3_6 
REMARK    2  A    between atoms: C5_8  and  C6_9 
REMARK       I    between atoms: C6_9  and  N2_11 
REMARK    3  A    between atoms: N2_11  and  N3_13 
REMARK    4  A    between atoms: N4_17  and  C8_18 
REMARK    5  A    between atoms: C8_18  and  C9_19 
REMARK    6  A    between atoms: C9_19  and  N5_21 
REMARK    7  A    between atoms: N5_21  and  N6_23 
REMARK       I    between atoms: N6_23  and  C10_25 
REMARK    8  A    between atoms: C10_25  and  C11_27 
ROOT
HETATM    1  C3  UNL     1       6.354  16.077  87.482  1.00  0.00     0.105 A 
HETATM    2  C4  UNL     1       7.305  16.141  88.452  1.00  0.00     0.054 A 
HETATM    3  C5  UNL     1       8.376  17.023  88.281  1.00  0.00     0.052 A 
HETATM    4  C7  UNL     1       8.439  17.802  87.144  1.00  0.00     0.117 A 
HETATM    5  N4  UNL     1       7.492  17.744  86.171  1.00  0.00    -0.294 N 
HETATM    6  C15 UNL     1       6.476  16.900  86.342  1.00  0.00     0.278 A 
HETATM    7  O4  UNL     1       5.584  16.822  85.451  1.00  0.00    -0.265 OA
ENDROOT
BRANCH   5   8
HETATM    8  C8  UNL     1       7.580  18.586  85.001  1.00  0.00     0.142 C 
BRANCH   8   9
HETATM    9  C9  UNL     1       8.692  18.346  84.106  1.00  0.00     0.131 C 
HETATM   10  S1  UNL     1       8.545  17.094  83.024  1.00  0.00    -0.058 SA
BRANCH   9  11
HETATM   11  N5  UNL     1       9.876  19.078  84.074  1.00  0.00    -0.286 N 
ATOM     12  H5  UNL     1       9.877  20.054  84.372  1.00  0.00     0.188 HD
BRANCH  11  13
HETATM   13  N6  UNL     1      11.079  18.475  83.630  1.00  0.00    -0.264 N 
HETATM   14  C10 UNL     1      11.776  19.037  82.546  1.00  0.00     0.277 C 
HETATM   15  O3  UNL     1      11.387  20.058  81.944  1.00  0.00    -0.265 OA
ATOM     16  H6  UNL     1      11.437  17.640  84.094  1.00  0.00     0.190 HD
BRANCH  14  17
HETATM   17  C11 UNL     1      13.019  18.398  82.097  1.00  0.00     0.074 A 
HETATM   18  C12 UNL     1      13.195  17.135  81.599  1.00  0.00     0.025 A 
HETATM   19  C13 UNL     1      14.435  16.777  81.253  1.00  0.00     0.009 A 
HETATM   20  C14 UNL     1      15.431  17.701  81.424  1.00  0.00     0.050 A 
HETATM   21  S2  UNL     1      14.597  19.043  82.065  1.00  0.00    -0.097 SA
ENDBRANCH  14  17
ENDBRANCH  11  13
ENDBRANCH   9  11
ENDBRANCH   8   9
ENDBRANCH   5   8
BRANCH   3  22
HETATM   22  C6  UNL     1       9.409  17.092  89.300  1.00  0.00     0.271 C 
HETATM   23  O2  UNL     1       9.097  16.931  90.496  1.00  0.00    -0.266 OA
HETATM   24  N2  UNL     1      10.744  17.339  88.946  1.00  0.00    -0.272 N 
ATOM     25  H2  UNL     1      10.981  17.471  87.963  1.00  0.00     0.189 HD
BRANCH  24  26
HETATM   26  N3  UNL     1      11.777  17.410  89.920  1.00  0.00    -0.342 N 
ATOM     27  H32 UNL     1      11.896  18.286  90.430  1.00  0.00     0.176 HD
ATOM     28  H31 UNL     1      12.388  16.617  90.115  1.00  0.00     0.176 HD
ENDBRANCH  24  26
ENDBRANCH   3  22
BRANCH   1  29
HETATM   29  N1  UNL     1       5.240  15.221  87.566  1.00  0.00    -0.323 N 
HETATM   30  C2  UNL     1       3.972  15.491  88.108  1.00  0.00     0.218 C 
HETATM   31  C1  UNL     1       2.935  14.381  88.074  1.00  0.00     0.117 C 
HETATM   32  O1  UNL     1       3.591  16.560  88.626  1.00  0.00    -0.274 OA
ATOM     33  H1  UNL     1       5.370  14.284  87.183  1.00  0.00     0.169 HD
ENDBRANCH   1  29
TORSDOF 8
ENDMDL
MODEL 4
REMARK VINA RESULT: -7.969928282      1.826      2.116
REMARK  8 active torsions:
REMARK  status: ('A' for Active; 'I' for Inactive)
REMARK       I    between atoms: C2_2  and  N1_4 
REMARK    1  A    between atoms: N1_4  and  C3_6 
REMARK    2  A    between atoms: C5_8  and  C6_9 
REMARK       I    between atoms: C6_9  and  N2_11 
REMARK    3  A    between atoms: N2_11  and  N3_13 
REMARK    4  A    between atoms: N4_17  and  C8_18 
REMARK    5  A    between atoms: C8_18  and  C9_19 
REMARK    6  A    between atoms: C9_19  and  N5_21 
REMARK    7  A    between atoms: N5_21  and  N6_23 
REMARK       I    between atoms: N6_23  and  C10_25 
REMARK    8  A    between atoms: C10_25  and  C11_27 
ROOT
HETATM    1  C3  UNL     1       4.198  19.436  85.233  1.00  0.00     0.105 A 
HETATM    2  C4  UNL     1       5.433  19.539  84.671  1.00  0.00     0.054 A 
HETATM    3  C5  UNL     1       6.495  18.844  85.259  1.00  0.00     0.052 A 
HETATM    4  C7  UNL     1       6.264  18.076  86.383  1.00  0.00     0.117 A 
HETATM    5  N4  UNL     1       5.032  17.968  86.948  1.00  0.00    -0.294 N 
HETATM    6  C15 UNL     1       4.028  18.634  86.382  1.00  0.00     0.278 A 
HETATM    7  O4  UNL     1       2.874  18.556  86.889  1.00  0.00    -0.265 OA
ENDROOT
BRANCH   5   8
HETATM    8  C8  UNL     1       4.823  17.141  88.113  1.00  0.00     0.142 C 
BRANCH   8   9
HETATM    9  C9  UNL     1       5.194  15.746  87.999  1.00  0.00     0.131 C 
HETATM   10  S1  UNL     1       4.143  14.738  87.201  1.00  0.00    -0.058 SA
BRANCH   9  11
HETATM   11  N5  UNL     1       6.363  15.178  88.500  1.00  0.00    -0.286 N 
ATOM     12  H5  UNL     1       6.826  14.430  87.982  1.00  0.00     0.188 HD
BRANCH  11  13
HETATM   13  N6  UNL     1       6.912  15.632  89.724  1.00  0.00    -0.264 N 
HETATM   14  C10 UNL     1       8.043  16.468  89.708  1.00  0.00     0.277 C 
HETATM   15  O3  UNL     1       8.596  16.842  88.655  1.00  0.00    -0.265 OA
ATOM     16  H6  UNL     1       6.491  15.354  90.611  1.00  0.00     0.190 HD
BRANCH  14  17
HETATM   17  C11 UNL     1       8.601  16.927  90.986  1.00  0.00     0.074 A 
HETATM   18  C12 UNL     1       7.955  17.116  92.178  1.00  0.00     0.025 A 
HETATM   19  C13 UNL     1       8.684  17.542  93.214  1.00  0.00     0.009 A 
HETATM   20  C14 UNL     1      10.020  17.758  93.000  1.00  0.00     0.050 A 
HETATM   21  S2  UNL     1      10.210  17.355  91.354  1.00  0.00    -0.097 SA
ENDBRANCH  14  17
ENDBRANCH  11  13
ENDBRANCH   9  11
ENDBRANCH   8   9
ENDBRANCH   5   8
BRANCH   3  22
HETATM   22  C6  UNL     1       7.823  18.956  84.682  1.00  0.00     0.271 C 
HETATM   23  O2  UNL     1       8.193  20.050  84.212  1.00  0.00    -0.266 OA
HETATM   24  N2  UNL     1       8.682  17.847  84.650  1.00  0.00    -0.272 N 
ATOM     25  H2  UNL     1       8.362  16.960  85.037  1.00  0.00     0.189 HD
BRANCH  24  26
HETATM   26  N3  UNL     1       9.987  17.927  84.093  1.00  0.00    -0.342 N 
ATOM     27  H32 UNL     1      10.101  18.415  83.204  1.00  0.00     0.176 HD
ATOM     28  H31 UNL     1      10.796  17.514  84.557  1.00  0.00     0.176 HD
ENDBRANCH  24  26
ENDBRANCH   3  22
BRANCH   1  29
HETATM   29  N1  UNL     1       3.070  20.097  84.713  1.00  0.00    -0.323 N 
HETATM   30  C2  UNL     1       2.398  21.216  85.234  1.00  0.00     0.218 C 
HETATM   31  C1  UNL     1       1.194  21.740  84.470  1.00  0.00     0.117 C 
HETATM   32  O1  UNL     1       2.682  21.842  86.275  1.00  0.00    -0.274 OA
ATOM     33  H1  UNL     1       2.692  19.716  83.845  1.00  0.00     0.169 HD
ENDBRANCH   1  29
TORSDOF 8
ENDMDL
MODEL 5
REMARK VINA RESULT: -7.910699741      2.326      3.972
REMARK  8 active torsions:
REMARK  status: ('A' for Active; 'I' for Inactive)
REMARK       I    between atoms: C2_2  and  N1_4 
REMARK    1  A    between atoms: N1_4  and  C3_6 
REMARK    2  A    between atoms: C5_8  and  C6_9 
REMARK       I    between atoms: C6_9  and  N2_11 
REMARK    3  A    between atoms: N2_11  and  N3_13 
REMARK    4  A    between atoms: N4_17  and  C8_18 
REMARK    5  A    between atoms: C8_18  and  C9_19 
REMARK    6  A    between atoms: C9_19  and  N5_21 
REMARK    7  A    between atoms: N5_21  and  N6_23 
REMARK       I    between atoms: N6_23  and  C10_25 
REMARK    8  A    between atoms: C10_25  and  C11_27 
ROOT
HETATM    1  C3  UNL     1       3.059  17.351  84.989  1.00  0.00     0.105 A 
HETATM    2  C4  UNL     1       3.047  16.423  85.984  1.00  0.00     0.054 A 
HETATM    3  C5  UNL     1       4.173  16.312  86.807  1.00  0.00     0.052 A 
HETATM    4  C7  UNL     1       5.255  17.140  86.591  1.00  0.00     0.117 A 
HETATM    5  N4  UNL     1       5.274  18.069  85.599  1.00  0.00    -0.294 N 
HETATM    6  C15 UNL     1       4.198  18.166  84.820  1.00  0.00     0.278 A 
HETATM    7  O4  UNL     1       4.189  19.018  83.886  1.00  0.00    -0.265 OA
ENDROOT
BRANCH   5   8
HETATM    8  C8  UNL     1       6.417  18.931  85.412  1.00  0.00     0.142 C 
BRANCH   8   9
HETATM    9  C9  UNL     1       7.693  18.283  85.193  1.00  0.00     0.131 C 
HETATM   10  S1  UNL     1       8.573  18.756  83.866  1.00  0.00    -0.058 SA
BRANCH   9  11
HETATM   11  N5  UNL     1       8.247  17.296  86.003  1.00  0.00    -0.286 N 
ATOM     12  H5  UNL     1       8.341  16.343  85.651  1.00  0.00     0.188 HD
BRANCH  11  13
HETATM   13  N6  UNL     1       8.682  17.607  87.316  1.00  0.00    -0.264 N 
HETATM   14  C10 UNL     1       8.541  16.651  88.337  1.00  0.00     0.277 C 
HETATM   15  O3  UNL     1       8.048  15.522  88.147  1.00  0.00    -0.265 OA
ATOM     16  H6  UNL     1       9.094  18.518  87.518  1.00  0.00     0.190 HD
BRANCH  14  17
HETATM   17  C11 UNL     1       8.994  16.991  89.692  1.00  0.00     0.074 A 
HETATM   18  C12 UNL     1       8.296  16.915  90.867  1.00  0.00     0.025 A 
HETATM   19  C13 UNL     1       8.929  17.283  91.985  1.00  0.00     0.009 A 
HETATM   20  C14 UNL     1      10.226  17.707  91.866  1.00  0.00     0.050 A 
HETATM   21  S2  UNL     1      10.516  17.577  90.191  1.00  0.00    -0.097 SA
ENDBRANCH  14  17
ENDBRANCH  11  13
ENDBRANCH   9  11
ENDBRANCH   8   9
ENDBRANCH   5   8
BRANCH   3  22
HETATM   22  C6  UNL     1       4.183  15.317  87.865  1.00  0.00     0.271 C 
HETATM   23  O2  UNL     1       3.115  15.025  88.438  1.00  0.00    -0.266 OA
HETATM   24  N2  UNL     1       5.381  14.690  88.242  1.00  0.00    -0.272 N 
ATOM     25  H2  UNL     1       6.245  14.943  87.764  1.00  0.00     0.189 HD
BRANCH  24  26
HETATM   26  N3  UNL     1       5.422  13.712  89.272  1.00  0.00    -0.342 N 
ATOM     27  H32 UNL     1       5.246  12.739  89.018  1.00  0.00     0.176 HD
ATOM     28  H31 UNL     1       5.621  13.960  90.241  1.00  0.00     0.176 HD
ENDBRANCH  24  26
ENDBRANCH   3  22
BRANCH   1  29
HETATM   29  N1  UNL     1       1.974  17.536  84.112  1.00  0.00    -0.323 N 
HETATM   30  C2  UNL     1       1.007  18.557  84.125  1.00  0.00     0.218 C 
HETATM   31  C1  UNL     1      -0.071  18.526  83.055  1.00  0.00     0.117 C 
HETATM   32  O1  UNL     1       0.931  19.505  84.932  1.00  0.00    -0.274 OA
ATOM     33  H1  UNL     1       1.876  16.841  83.372  1.00  0.00     0.169 HD
ENDBRANCH   1  29
TORSDOF 8
ENDMDL
