MODEL 1
REMARK VINA RESULT: -8.487515022      0.000      0.000
REMARK  7 active torsions:
REMARK  status: ('A' for Active; 'I' for Inactive)
REMARK    1  A    between atoms: C2_2  and  N1_4 
REMARK       I    between atoms: N2_7  and  C6_8 
REMARK       I    between atoms: C6_8  and  N4_12 
REMARK    2  A    between atoms: N4_12  and  N5_14 
REMARK    3  A    between atoms: N5_14  and  S1_16 
REMARK    4  A    between atoms: S1_16  and  N6_19 
REMARK    5  A    between atoms: N6_19  and  C7_21 
REMARK    6  A    between atoms: C9_23  and  N7_24 
REMARK    7  A    between atoms: C12_29  and  O5_30 
ROOT
HETATM    1  N5  UNL     1       6.186  17.773  87.076  1.00  0.00    -0.195 N 
ATOM      2  H5  UNL     1       6.633  18.675  87.245  1.00  0.00     0.202 HD
ENDROOT
BRANCH   1   3
HETATM    3  N4  UNL     1       6.151  17.155  85.845  1.00  0.00    -0.122 N 
HETATM    4  C6  UNL     1       6.605  17.728  84.628  1.00  0.00     0.689 C 
HETATM    5  N2  UNL     1       7.958  17.693  84.221  1.00  0.00    -0.211 N 
HETATM    6  N3  UNL     1       5.744  18.302  83.865  1.00  0.00    -0.233 N 
HETATM    7  C5  UNL     1       8.480  16.863  83.154  1.00  0.00     0.161 C 
HETATM    8  C13 UNL     1       8.904  18.541  84.912  1.00  0.00     0.185 C 
HETATM    9  C4  UNL     1       9.142  17.833  82.173  1.00  0.00     0.143 C 
HETATM   10  N1  UNL     1      10.234  18.469  82.826  1.00  0.00    -0.386 N 
HETATM   11  C14 UNL     1      10.249  18.467  84.219  1.00  0.00     0.079 C 
ATOM     12  H32 UNL     1       6.070  18.714  82.991  1.00  0.00     0.174 HD
ATOM     13  H31 UNL     1       4.768  18.328  84.159  1.00  0.00     0.174 HD
ATOM     14  H4  UNL     1       5.768  16.210  85.805  1.00  0.00     0.206 HD
BRANCH  10  15
HETATM   15  C2  UNL     1      10.868  19.510  82.107  1.00  0.00     0.075 C 
HETATM   16  C1  UNL     1      10.615  19.324  80.624  1.00  0.00     0.032 C 
HETATM   17  C3  UNL     1      12.365  19.430  82.314  1.00  0.00     0.032 C 
ENDBRANCH  10  15
ENDBRANCH   1   3
BRANCH   1  18
HETATM   18  S1  UNL     1       5.382  16.841  88.310  1.00  0.00     0.337 S 
HETATM   19  O1  UNL     1       4.433  15.844  87.649  1.00  0.00    -0.181 OA
HETATM   20  O2  UNL     1       4.506  17.791  89.069  1.00  0.00    -0.181 OA
BRANCH  18  21
HETATM   21  N6  UNL     1       6.519  16.048  89.296  1.00  0.00    -0.264 N 
ATOM     22  H6  UNL     1       6.307  15.084  89.555  1.00  0.00     0.180 HD
BRANCH  21  23
HETATM   23  C7  UNL     1       7.727  16.588  89.794  1.00  0.00     0.079 A 
HETATM   24  C8  UNL     1       7.873  16.945  91.105  1.00  0.00     0.069 A 
HETATM   25  C9  UNL     1       9.054  17.475  91.572  1.00  0.00     0.105 A 
HETATM   26  C10 UNL     1      10.106  17.655  90.725  1.00  0.00     0.039 A 
HETATM   27  C11 UNL     1       9.958  17.298  89.417  1.00  0.00     0.041 A 
HETATM   28  C12 UNL     1       8.799  16.770  88.926  1.00  0.00     0.093 A 
BRANCH  25  29
HETATM   29  N7  UNL     1       9.205  17.851  92.954  1.00  0.00    -0.116 N 
HETATM   30  O3  UNL     1       8.221  18.228  93.614  1.00  0.00    -0.532 OA
HETATM   31  O4  UNL     1      10.440  17.782  93.507  1.00  0.00    -0.532 OA
ENDBRANCH  25  29
BRANCH  28  32
HETATM   32  O5  UNL     1       8.674  16.418  87.600  1.00  0.00    -0.358 OA
ATOM     33  H5  UNL     1       8.991  15.573  87.304  1.00  0.00     0.217 HD
ENDBRANCH  28  32
ENDBRANCH  21  23
ENDBRANCH  18  21
ENDBRANCH   1  18
TORSDOF 7
ENDMDL
MODEL 2
REMARK VINA RESULT: -8.331665974      5.563      9.747
REMARK  7 active torsions:
REMARK  status: ('A' for Active; 'I' for Inactive)
REMARK    1  A    between atoms: C2_2  and  N1_4 
REMARK       I    between atoms: N2_7  and  C6_8 
REMARK       I    between atoms: C6_8  and  N4_12 
REMARK    2  A    between atoms: N4_12  and  N5_14 
REMARK    3  A    between atoms: N5_14  and  S1_16 
REMARK    4  A    between atoms: S1_16  and  N6_19 
REMARK    5  A    between atoms: N6_19  and  C7_21 
REMARK    6  A    between atoms: C9_23  and  N7_24 
REMARK    7  A    between atoms: C12_29  and  O5_30 
ROOT
HETATM    1  N5  UNL     1       2.260  17.080  84.444  1.00  0.00    -0.195 N 
ATOM      2  H5  UNL     1       2.486  16.332  83.788  1.00  0.00     0.202 HD
ENDROOT
BRANCH   1   3
HETATM    3  N4  UNL     1       2.278  16.928  85.813  1.00  0.00    -0.122 N 
HETATM    4  C6  UNL     1       3.334  16.343  86.559  1.00  0.00     0.689 C 
HETATM    5  N2  UNL     1       4.476  17.067  86.970  1.00  0.00    -0.211 N 
HETATM    6  N3  UNL     1       3.244  15.100  86.871  1.00  0.00    -0.233 N 
HETATM    7  C5  UNL     1       4.748  17.480  88.333  1.00  0.00     0.161 C 
HETATM    8  C13 UNL     1       5.454  17.431  85.970  1.00  0.00     0.185 C 
HETATM    9  C4  UNL     1       6.111  16.876  88.676  1.00  0.00     0.143 C 
HETATM   10  N1  UNL     1       7.093  17.453  87.824  1.00  0.00    -0.386 N 
HETATM   11  C14 UNL     1       6.660  18.054  86.645  1.00  0.00     0.079 C 
ATOM     12  H32 UNL     1       4.004  14.678  87.407  1.00  0.00     0.174 HD
ATOM     13  H31 UNL     1       2.420  14.576  86.574  1.00  0.00     0.174 HD
ATOM     14  H4  UNL     1       1.467  17.265  86.333  1.00  0.00     0.206 HD
BRANCH  10  15
HETATM   15  C2  UNL     1       8.392  16.897  87.906  1.00  0.00     0.075 C 
HETATM   16  C1  UNL     1       8.826  16.843  89.357  1.00  0.00     0.032 C 
HETATM   17  C3  UNL     1       9.375  17.794  87.185  1.00  0.00     0.032 C 
ENDBRANCH  10  15
ENDBRANCH   1   3
BRANCH   1  18
HETATM   18  S1  UNL     1       1.809  18.693  83.960  1.00  0.00     0.337 S 
HETATM   19  O1  UNL     1       3.066  19.476  83.586  1.00  0.00    -0.181 OA
HETATM   20  O2  UNL     1       1.257  19.372  85.177  1.00  0.00    -0.181 OA
BRANCH  18  21
HETATM   21  N6  UNL     1       0.708  18.643  82.665  1.00  0.00    -0.264 N 
ATOM     22  H6  UNL     1      -0.127  19.224  82.751  1.00  0.00     0.180 HD
BRANCH  21  23
HETATM   23  C7  UNL     1       0.830  17.878  81.482  1.00  0.00     0.079 A 
HETATM   24  C8  UNL     1       0.287  16.629  81.370  1.00  0.00     0.069 A 
HETATM   25  C9  UNL     1       0.420  15.896  80.213  1.00  0.00     0.105 A 
HETATM   26  C10 UNL     1       1.103  16.408  79.152  1.00  0.00     0.039 A 
HETATM   27  C11 UNL     1       1.645  17.655  79.266  1.00  0.00     0.041 A 
HETATM   28  C12 UNL     1       1.529  18.406  80.400  1.00  0.00     0.093 A 
BRANCH  25  29
HETATM   29  N7  UNL     1      -0.153  14.579  80.097  1.00  0.00    -0.116 N 
HETATM   30  O3  UNL     1       0.219  13.809  79.195  1.00  0.00    -0.532 OA
HETATM   31  O4  UNL     1      -1.102  14.211  80.991  1.00  0.00    -0.532 OA
ENDBRANCH  25  29
BRANCH  28  32
HETATM   32  O5  UNL     1       2.085  19.663  80.492  1.00  0.00    -0.358 OA
ATOM     33  H5  UNL     1       2.987  19.760  80.772  1.00  0.00     0.217 HD
ENDBRANCH  28  32
ENDBRANCH  21  23
ENDBRANCH  18  21
ENDBRANCH   1  18
TORSDOF 7
ENDMDL
MODEL 3
REMARK VINA RESULT: -8.284781629      3.084      4.989
REMARK  7 active torsions:
REMARK  status: ('A' for Active; 'I' for Inactive)
REMARK    1  A    between atoms: C2_2  and  N1_4 
REMARK       I    between atoms: N2_7  and  C6_8 
REMARK       I    between atoms: C6_8  and  N4_12 
REMARK    2  A    between atoms: N4_12  and  N5_14 
REMARK    3  A    between atoms: N5_14  and  S1_16 
REMARK    4  A    between atoms: S1_16  and  N6_19 
REMARK    5  A    between atoms: N6_19  and  C7_21 
REMARK    6  A    between atoms: C9_23  and  N7_24 
REMARK    7  A    between atoms: C12_29  and  O5_30 
ROOT
HETATM    1  N5  UNL     1       6.188  16.072  86.680  1.00  0.00    -0.195 N 
ATOM      2  H5  UNL     1       6.443  15.229  86.165  1.00  0.00     0.202 HD
ENDROOT
BRANCH   1   3
HETATM    3  N4  UNL     1       6.257  17.343  86.152  1.00  0.00    -0.122 N 
HETATM    4  C6  UNL     1       5.408  17.854  85.136  1.00  0.00     0.689 C 
HETATM    5  N2  UNL     1       4.136  18.408  85.406  1.00  0.00    -0.211 N 
HETATM    6  N3  UNL     1       5.819  17.810  83.919  1.00  0.00    -0.233 N 
HETATM    7  C5  UNL     1       3.818  19.821  85.339  1.00  0.00     0.161 C 
HETATM    8  C13 UNL     1       3.064  17.513  85.778  1.00  0.00     0.185 C 
HETATM    9  C4  UNL     1       2.663  19.929  84.341  1.00  0.00     0.143 C 
HETATM   10  N1  UNL     1       1.538  19.236  84.868  1.00  0.00    -0.386 N 
HETATM   11  C14 UNL     1       1.765  18.289  85.864  1.00  0.00     0.079 C 
ATOM     12  H32 UNL     1       5.209  18.177  83.188  1.00  0.00     0.174 HD
ATOM     13  H31 UNL     1       6.737  17.409  83.724  1.00  0.00     0.174 HD
ATOM     14  H4  UNL     1       6.975  17.966  86.522  1.00  0.00     0.206 HD
BRANCH  10  15
HETATM   15  C2  UNL     1       0.424  19.111  84.004  1.00  0.00     0.075 C 
HETATM   16  C1  UNL     1       0.827  18.323  82.774  1.00  0.00     0.032 C 
HETATM   17  C3  UNL     1      -0.008  20.481  83.530  1.00  0.00     0.032 C 
ENDBRANCH  10  15
ENDBRANCH   1   3
BRANCH   1  18
HETATM   18  S1  UNL     1       5.616  16.067  88.328  1.00  0.00     0.337 S 
HETATM   19  O1  UNL     1       4.389  15.165  88.431  1.00  0.00    -0.181 OA
HETATM   20  O2  UNL     1       5.124  17.453  88.619  1.00  0.00    -0.181 OA
BRANCH  18  21
HETATM   21  N6  UNL     1       6.845  15.558  89.386  1.00  0.00    -0.264 N 
ATOM     22  H6  UNL     1       6.793  14.595  89.720  1.00  0.00     0.180 HD
BRANCH  21  23
HETATM   23  C7  UNL     1       7.933  16.333  89.851  1.00  0.00     0.079 A 
HETATM   24  C8  UNL     1       8.045  16.708  91.161  1.00  0.00     0.069 A 
HETATM   25  C9  UNL     1       9.108  17.466  91.596  1.00  0.00     0.105 A 
HETATM   26  C10 UNL     1      10.073  17.861  90.718  1.00  0.00     0.039 A 
HETATM   27  C11 UNL     1       9.959  17.485  89.412  1.00  0.00     0.041 A 
HETATM   28  C12 UNL     1       8.917  16.733  88.952  1.00  0.00     0.093 A 
BRANCH  25  29
HETATM   29  N7  UNL     1       9.224  17.861  92.976  1.00  0.00    -0.116 N 
HETATM   30  O3  UNL     1       8.218  18.213  93.616  1.00  0.00    -0.532 OA
HETATM   31  O4  UNL     1      10.451  17.837  93.550  1.00  0.00    -0.532 OA
ENDBRANCH  25  29
BRANCH  28  32
HETATM   32  O5  UNL     1       8.823  16.366  87.627  1.00  0.00    -0.358 OA
ATOM     33  H5  UNL     1       8.175  16.778  87.068  1.00  0.00     0.217 HD
ENDBRANCH  28  32
ENDBRANCH  21  23
ENDBRANCH  18  21
ENDBRANCH   1  18
TORSDOF 7
ENDMDL
MODEL 4
REMARK VINA RESULT: -8.224914486      3.737      6.891
REMARK  7 active torsions:
REMARK  status: ('A' for Active; 'I' for Inactive)
REMARK    1  A    between atoms: C2_2  and  N1_4 
REMARK       I    between atoms: N2_7  and  C6_8 
REMARK       I    between atoms: C6_8  and  N4_12 
REMARK    2  A    between atoms: N4_12  and  N5_14 
REMARK    3  A    between atoms: N5_14  and  S1_16 
REMARK    4  A    between atoms: S1_16  and  N6_19 
REMARK    5  A    between atoms: N6_19  and  C7_21 
REMARK    6  A    between atoms: C9_23  and  N7_24 
REMARK    7  A    between atoms: C12_29  and  O5_30 
ROOT
HETATM    1  N5  UNL     1       3.593  14.672  87.427  1.00  0.00    -0.195 N 
ATOM      2  H5  UNL     1       3.491  13.778  86.948  1.00  0.00     0.202 HD
ENDROOT
BRANCH   1   3
HETATM    3  N4  UNL     1       4.331  14.846  88.578  1.00  0.00    -0.122 N 
HETATM    4  C6  UNL     1       5.748  14.879  88.644  1.00  0.00     0.689 C 
HETATM    5  N2  UNL     1       6.500  16.051  88.397  1.00  0.00    -0.211 N 
HETATM    6  N3  UNL     1       6.371  13.796  88.942  1.00  0.00    -0.233 N 
HETATM    7  C5  UNL     1       7.183  16.825  89.414  1.00  0.00     0.161 C 
HETATM    8  C13 UNL     1       6.605  16.524  87.034  1.00  0.00     0.185 C 
HETATM    9  C4  UNL     1       8.648  16.869  88.976  1.00  0.00     0.143 C 
HETATM   10  N1  UNL     1       8.735  17.568  87.740  1.00  0.00    -0.386 N 
HETATM   11  C14 UNL     1       7.576  17.686  86.977  1.00  0.00     0.079 C 
ATOM     12  H32 UNL     1       7.390  13.819  88.989  1.00  0.00     0.174 HD
ATOM     13  H31 UNL     1       5.828  12.950  89.119  1.00  0.00     0.174 HD
ATOM     14  H4  UNL     1       3.817  14.959  89.452  1.00  0.00     0.206 HD
BRANCH  10  15
HETATM   15  C2  UNL     1      10.005  17.573  87.115  1.00  0.00     0.075 C 
HETATM   16  C1  UNL     1      10.998  18.301  87.999  1.00  0.00     0.032 C 
HETATM   17  C3  UNL     1       9.927  18.340  85.813  1.00  0.00     0.032 C 
ENDBRANCH  10  15
ENDBRANCH   1   3
BRANCH   1  18
HETATM   18  S1  UNL     1       2.852  16.155  86.884  1.00  0.00     0.337 S 
HETATM   19  O1  UNL     1       3.238  17.287  87.832  1.00  0.00    -0.181 OA
HETATM   20  O2  UNL     1       1.371  15.982  87.041  1.00  0.00    -0.181 OA
BRANCH  18  21
HETATM   21  N6  UNL     1       3.318  16.505  85.286  1.00  0.00    -0.264 N 
ATOM     22  H6  UNL     1       3.497  15.707  84.675  1.00  0.00     0.180 HD
BRANCH  21  23
HETATM   23  C7  UNL     1       3.482  17.789  84.717  1.00  0.00     0.079 A 
HETATM   24  C8  UNL     1       4.714  18.281  84.388  1.00  0.00     0.069 A 
HETATM   25  C9  UNL     1       4.857  19.535  83.840  1.00  0.00     0.105 A 
HETATM   26  C10 UNL     1       3.762  20.314  83.616  1.00  0.00     0.039 A 
HETATM   27  C11 UNL     1       2.534  19.821  83.945  1.00  0.00     0.041 A 
HETATM   28  C12 UNL     1       2.361  18.581  84.490  1.00  0.00     0.093 A 
BRANCH  25  29
HETATM   29  N7  UNL     1       6.157  20.052  83.494  1.00  0.00    -0.116 N 
HETATM   30  O3  UNL     1       7.016  20.231  84.374  1.00  0.00    -0.532 OA
HETATM   31  O4  UNL     1       6.410  20.335  82.194  1.00  0.00    -0.532 OA
ENDBRANCH  25  29
BRANCH  28  32
HETATM   32  O5  UNL     1       1.109  18.105  84.814  1.00  0.00    -0.358 OA
ATOM     33  H5  UNL     1       0.409  18.144  84.174  1.00  0.00     0.217 HD
ENDBRANCH  28  32
ENDBRANCH  21  23
ENDBRANCH  18  21
ENDBRANCH   1  18
TORSDOF 7
ENDMDL
MODEL 5
REMARK VINA RESULT: -8.215286745      4.386      5.303
REMARK  7 active torsions:
REMARK  status: ('A' for Active; 'I' for Inactive)
REMARK    1  A    between atoms: C2_2  and  N1_4 
REMARK       I    between atoms: N2_7  and  C6_8 
REMARK       I    between atoms: C6_8  and  N4_12 
REMARK    2  A    between atoms: N4_12  and  N5_14 
REMARK    3  A    between atoms: N5_14  and  S1_16 
REMARK    4  A    between atoms: S1_16  and  N6_19 
REMARK    5  A    between atoms: N6_19  and  C7_21 
REMARK    6  A    between atoms: C9_23  and  N7_24 
REMARK    7  A    between atoms: C12_29  and  O5_30 
ROOT
HETATM    1  N5  UNL     1       5.414  14.821  88.939  1.00  0.00    -0.195 N 
ATOM      2  H5  UNL     1       4.885  14.557  89.770  1.00  0.00     0.202 HD
ENDROOT
BRANCH   1   3
HETATM    3  N4  UNL     1       4.990  14.578  87.651  1.00  0.00    -0.122 N 
HETATM    4  C6  UNL     1       3.879  15.201  87.024  1.00  0.00     0.689 C 
HETATM    5  N2  UNL     1       3.964  16.461  86.390  1.00  0.00    -0.211 N 
HETATM    6  N3  UNL     1       2.750  14.588  87.035  1.00  0.00    -0.233 N 
HETATM    7  C5  UNL     1       3.936  16.670  84.956  1.00  0.00     0.161 C 
HETATM    8  C13 UNL     1       4.089  17.639  87.220  1.00  0.00     0.185 C 
HETATM    9  C4  UNL     1       2.766  17.624  84.708  1.00  0.00     0.143 C 
HETATM   10  N1  UNL     1       3.047  18.866  85.340  1.00  0.00    -0.386 N 
HETATM   11  C14 UNL     1       4.003  18.879  86.353  1.00  0.00     0.079 C 
ATOM     12  H32 UNL     1       1.952  15.036  86.584  1.00  0.00     0.174 HD
ATOM     13  H31 UNL     1       2.689  13.678  87.493  1.00  0.00     0.174 HD
ATOM     14  H4  UNL     1       5.516  13.896  87.105  1.00  0.00     0.206 HD
BRANCH  10  15
HETATM   15  C2  UNL     1       2.000  19.818  85.336  1.00  0.00     0.075 C 
HETATM   16  C1  UNL     1       1.358  19.854  83.963  1.00  0.00     0.032 C 
HETATM   17  C3  UNL     1       2.566  21.197  85.595  1.00  0.00     0.032 C 
ENDBRANCH  10  15
ENDBRANCH   1   3
BRANCH   1  18
HETATM   18  S1  UNL     1       6.958  15.630  88.988  1.00  0.00     0.337 S 
HETATM   19  O1  UNL     1       7.194  16.344  87.659  1.00  0.00    -0.181 OA
HETATM   20  O2  UNL     1       8.006  14.560  89.065  1.00  0.00    -0.181 OA
BRANCH  18  21
HETATM   21  N6  UNL     1       7.020  16.721  90.292  1.00  0.00    -0.264 N 
ATOM     22  H6  UNL     1       6.151  17.198  90.532  1.00  0.00     0.180 HD
BRANCH  21  23
HETATM   23  C7  UNL     1       8.154  17.033  91.077  1.00  0.00     0.079 A 
HETATM   24  C8  UNL     1       9.399  17.166  90.528  1.00  0.00     0.069 A 
HETATM   25  C9  UNL     1      10.493  17.465  91.307  1.00  0.00     0.105 A 
HETATM   26  C10 UNL     1      10.351  17.634  92.652  1.00  0.00     0.039 A 
HETATM   27  C11 UNL     1       9.108  17.501  93.197  1.00  0.00     0.041 A 
HETATM   28  C12 UNL     1       8.005  17.205  92.450  1.00  0.00     0.093 A 
BRANCH  25  29
HETATM   29  N7  UNL     1      11.804  17.604  90.727  1.00  0.00    -0.116 N 
HETATM   30  O3  UNL     1      12.174  18.698  90.265  1.00  0.00    -0.532 OA
HETATM   31  O4  UNL     1      12.612  16.518  90.698  1.00  0.00    -0.532 OA
ENDBRANCH  25  29
BRANCH  28  32
HETATM   32  O5  UNL     1       6.759  17.076  93.024  1.00  0.00    -0.358 OA
ATOM     33  H5  UNL     1       6.073  17.696  92.808  1.00  0.00     0.217 HD
ENDBRANCH  28  32
ENDBRANCH  21  23
ENDBRANCH  18  21
ENDBRANCH   1  18
TORSDOF 7
ENDMDL
