MODEL 1
REMARK VINA RESULT: -9.377898668      0.000      0.000
REMARK  8 active torsions:
REMARK  status: ('A' for Active; 'I' for Inactive)
REMARK    1  A    between atoms: N1_1  and  N2_4 
REMARK       I    between atoms: N2_4  and  C1_6 
REMARK    2  A    between atoms: C1_6  and  C2_8 
REMARK    3  A    between atoms: C2_8  and  N3_9 
REMARK    4  A    between atoms: C4_11  and  C5_12 
REMARK    5  A    between atoms: C9_16  and  N4_17 
REMARK       I    between atoms: N4_17  and  C10_19 
REMARK    6  A    between atoms: C10_19  and  C11_21 
REMARK       I    between atoms: C11_21  and  N5_23 
REMARK    7  A    between atoms: N5_23  and  N6_25 
REMARK       I    between atoms: N6_25  and  C12_27 
REMARK    8  A    between atoms: C12_27  and  C13_29 
ROOT
HETATM    1  C5  UNL     1       9.473  17.528  88.328  1.00  0.00    -0.005 A 
HETATM    2  C6  UNL     1       8.153  17.244  88.160  1.00  0.00     0.014 A 
HETATM    3  C7  UNL     1       7.507  17.303  86.951  1.00  0.00     0.003 A 
HETATM    4  C8  UNL     1       8.250  17.671  85.862  1.00  0.00     0.029 A 
HETATM    5  C9  UNL     1       9.615  17.977  85.969  1.00  0.00     0.036 A 
HETATM    6  C18 UNL     1      10.209  17.903  87.194  1.00  0.00     0.043 A 
ENDROOT
BRANCH   5   7
HETATM    7  N4  UNL     1      10.307  18.367  84.814  1.00  0.00    -0.319 N 
HETATM    8  C10 UNL     1      10.030  19.498  84.029  1.00  0.00     0.315 C 
HETATM    9  O2  UNL     1       9.110  20.285  84.313  1.00  0.00    -0.262 OA
ATOM     10  H4  UNL     1      11.082  17.775  84.517  1.00  0.00     0.169 HD
BRANCH   8  11
HETATM   11  C11 UNL     1      10.832  19.772  82.850  1.00  0.00     0.328 C 
HETATM   12  O3  UNL     1      10.267  20.039  81.769  1.00  0.00    -0.261 OA
HETATM   13  N5  UNL     1      12.244  19.741  82.906  1.00  0.00    -0.259 N 
ATOM     14  H5  UNL     1      12.692  19.523  83.796  1.00  0.00     0.190 HD
BRANCH  13  15
HETATM   15  N6  UNL     1      13.050  19.994  81.803  1.00  0.00    -0.267 N 
HETATM   16  C12 UNL     1      14.128  19.135  81.494  1.00  0.00     0.240 C 
HETATM   17  O4  UNL     1      14.412  18.120  82.181  1.00  0.00    -0.271 OA
ATOM     18  H6  UNL     1      12.863  20.805  81.213  1.00  0.00     0.190 HD
BRANCH  16  19
HETATM   19  C13 UNL     1      15.005  19.405  80.303  1.00  0.00     0.079 C 
HETATM   20  C14 UNL     1      16.221  20.181  80.677  1.00  0.00     0.014 C 
HETATM   21  C15 UNL     1      17.211  19.806  79.588  1.00  0.00     0.001 C 
HETATM   22  C16 UNL     1      16.953  18.313  79.368  1.00  0.00     0.001 C 
HETATM   23  C17 UNL     1      15.546  18.068  79.853  1.00  0.00     0.014 C 
ENDBRANCH  16  19
ENDBRANCH  13  15
ENDBRANCH   8  11
ENDBRANCH   5   7
BRANCH   1  24
HETATM   24  C4  UNL     1      10.122  17.451  89.630  1.00  0.00     0.073 A 
HETATM   25  C3  UNL     1       9.473  17.428  90.845  1.00  0.00     0.139 A 
HETATM   26  N3  UNL     1      10.428  17.348  91.791  1.00  0.00    -0.276 N 
HETATM   27  N8  UNL     1      11.607  17.322  91.177  1.00  0.00    -0.020 NA
HETATM   28  N7  UNL     1      11.438  17.384  89.868  1.00  0.00    -0.282 N 
ATOM     29  H7  UNL     1      12.176  17.382  89.165  1.00  0.00     0.184 HD
BRANCH  26  30
HETATM   30  C2  UNL     1      10.169  17.295  93.221  1.00  0.00     0.250 C 
BRANCH  30  31
HETATM   31  C1  UNL     1       8.761  17.638  93.497  1.00  0.00     0.255 C 
HETATM   32  N2  UNL     1       7.869  16.647  93.929  1.00  0.00    -0.275 N 
ATOM     33  H2  UNL     1       8.191  15.687  94.053  1.00  0.00     0.189 HD
HETATM   34  O1  UNL     1       8.377  18.814  93.344  1.00  0.00    -0.270 OA
BRANCH  32  35
HETATM   35  N1  UNL     1       6.525  16.980  94.191  1.00  0.00    -0.343 N 
ATOM     36  H12 UNL     1       6.230  17.952  94.107  1.00  0.00     0.176 HD
ATOM     37  H11 UNL     1       5.866  16.250  94.461  1.00  0.00     0.176 HD
ENDBRANCH  32  35
ENDBRANCH  30  31
ENDBRANCH  26  30
ENDBRANCH   1  24
TORSDOF 8
ENDMDL
MODEL 2
REMARK VINA RESULT: -9.066064698      7.292      8.995
REMARK  8 active torsions:
REMARK  status: ('A' for Active; 'I' for Inactive)
REMARK    1  A    between atoms: N1_1  and  N2_4 
REMARK       I    between atoms: N2_4  and  C1_6 
REMARK    2  A    between atoms: C1_6  and  C2_8 
REMARK    3  A    between atoms: C2_8  and  N3_9 
REMARK    4  A    between atoms: C4_11  and  C5_12 
REMARK    5  A    between atoms: C9_16  and  N4_17 
REMARK       I    between atoms: N4_17  and  C10_19 
REMARK    6  A    between atoms: C10_19  and  C11_21 
REMARK       I    between atoms: C11_21  and  N5_23 
REMARK    7  A    between atoms: N5_23  and  N6_25 
REMARK       I    between atoms: N6_25  and  C12_27 
REMARK    8  A    between atoms: C12_27  and  C13_29 
ROOT
HETATM    1  C5  UNL     1       6.441  15.903  88.664  1.00  0.00    -0.005 A 
HETATM    2  C6  UNL     1       5.941  14.672  88.955  1.00  0.00     0.014 A 
HETATM    3  C7  UNL     1       4.830  14.137  88.353  1.00  0.00     0.003 A 
HETATM    4  C8  UNL     1       4.203  14.901  87.405  1.00  0.00     0.029 A 
HETATM    5  C9  UNL     1       4.671  16.179  87.060  1.00  0.00     0.036 A 
HETATM    6  C18 UNL     1       5.778  16.663  87.689  1.00  0.00     0.043 A 
ENDROOT
BRANCH   5   7
HETATM    7  N4  UNL     1       3.965  16.912  86.097  1.00  0.00    -0.319 N 
HETATM    8  C10 UNL     1       2.828  17.703  86.331  1.00  0.00     0.315 C 
HETATM    9  O2  UNL     1       2.337  17.827  87.466  1.00  0.00    -0.262 OA
ATOM     10  H4  UNL     1       4.308  16.867  85.138  1.00  0.00     0.169 HD
BRANCH   8  11
HETATM   11  C11 UNL     1       2.196  18.403  85.226  1.00  0.00     0.328 C 
HETATM   12  O3  UNL     1       1.878  19.603  85.359  1.00  0.00    -0.261 OA
HETATM   13  N5  UNL     1       1.935  17.747  84.001  1.00  0.00    -0.259 N 
ATOM     14  H5  UNL     1       2.203  16.767  83.908  1.00  0.00     0.190 HD
BRANCH  13  15
HETATM   15  N6  UNL     1       1.332  18.376  82.920  1.00  0.00    -0.267 N 
HETATM   16  C12 UNL     1       0.593  17.626  81.979  1.00  0.00     0.240 C 
HETATM   17  O4  UNL     1       0.443  16.380  82.064  1.00  0.00    -0.271 OA
ATOM     18  H6  UNL     1       1.423  19.386  82.805  1.00  0.00     0.190 HD
BRANCH  16  19
HETATM   19  C13 UNL     1      -0.061  18.301  80.806  1.00  0.00     0.079 C 
HETATM   20  C14 UNL     1      -0.596  19.644  81.168  1.00  0.00     0.014 C 
HETATM   21  C15 UNL     1      -0.607  20.375  79.836  1.00  0.00     0.001 C 
HETATM   22  C16 UNL     1       0.688  19.915  79.163  1.00  0.00     0.001 C 
HETATM   23  C17 UNL     1       1.037  18.598  79.811  1.00  0.00     0.014 C 
ENDBRANCH  16  19
ENDBRANCH  13  15
ENDBRANCH   8  11
ENDBRANCH   5   7
BRANCH   1  24
HETATM   24  C4  UNL     1       7.626  16.433  89.326  1.00  0.00     0.073 A 
HETATM   25  C3  UNL     1       7.744  16.675  90.677  1.00  0.00     0.139 A 
HETATM   26  N3  UNL     1       8.987  17.154  90.876  1.00  0.00    -0.276 N 
HETATM   27  N8  UNL     1       9.599  17.199  89.696  1.00  0.00    -0.020 NA
HETATM   28  N7  UNL     1       8.787  16.766  88.748  1.00  0.00    -0.282 N 
ATOM     29  H7  UNL     1       9.005  16.698  87.754  1.00  0.00     0.184 HD
BRANCH  26  30
HETATM   30  C2  UNL     1       9.525  17.535  92.172  1.00  0.00     0.250 C 
BRANCH  30  31
HETATM   31  C1  UNL     1       8.432  17.721  93.144  1.00  0.00     0.255 C 
HETATM   32  N2  UNL     1       7.493  16.700  93.348  1.00  0.00    -0.275 N 
ATOM     33  H2  UNL     1       7.564  15.828  92.824  1.00  0.00     0.189 HD
HETATM   34  O1  UNL     1       8.354  18.790  93.780  1.00  0.00    -0.270 OA
BRANCH  32  35
HETATM   35  N1  UNL     1       6.450  16.883  94.277  1.00  0.00    -0.343 N 
ATOM     36  H12 UNL     1       5.683  17.512  94.043  1.00  0.00     0.176 HD
ATOM     37  H11 UNL     1       6.472  16.387  95.168  1.00  0.00     0.176 HD
ENDBRANCH  32  35
ENDBRANCH  30  31
ENDBRANCH  26  30
ENDBRANCH   1  24
TORSDOF 8
ENDMDL
MODEL 3
REMARK VINA RESULT: -9.010310047      4.959      8.543
REMARK  8 active torsions:
REMARK  status: ('A' for Active; 'I' for Inactive)
REMARK    1  A    between atoms: N1_1  and  N2_4 
REMARK       I    between atoms: N2_4  and  C1_6 
REMARK    2  A    between atoms: C1_6  and  C2_8 
REMARK    3  A    between atoms: C2_8  and  N3_9 
REMARK    4  A    between atoms: C4_11  and  C5_12 
REMARK    5  A    between atoms: C9_16  and  N4_17 
REMARK       I    between atoms: N4_17  and  C10_19 
REMARK    6  A    between atoms: C10_19  and  C11_21 
REMARK       I    between atoms: C11_21  and  N5_23 
REMARK    7  A    between atoms: N5_23  and  N6_25 
REMARK       I    between atoms: N6_25  and  C12_27 
REMARK    8  A    between atoms: C12_27  and  C13_29 
ROOT
HETATM    1  C5  UNL     1       9.763  17.688  88.269  1.00  0.00    -0.005 A 
HETATM    2  C6  UNL     1      10.540  18.063  87.218  1.00  0.00     0.014 A 
HETATM    3  C7  UNL     1      10.059  18.278  85.952  1.00  0.00     0.003 A 
HETATM    4  C8  UNL     1       8.716  18.100  85.754  1.00  0.00     0.029 A 
HETATM    5  C9  UNL     1       7.861  17.715  86.798  1.00  0.00     0.036 A 
HETATM    6  C18 UNL     1       8.390  17.513  88.037  1.00  0.00     0.043 A 
ENDROOT
BRANCH   5   7
HETATM    7  N4  UNL     1       6.500  17.531  86.516  1.00  0.00    -0.319 N 
HETATM    8  C10 UNL     1       5.966  16.637  85.573  1.00  0.00     0.315 C 
HETATM    9  O2  UNL     1       6.691  15.898  84.885  1.00  0.00    -0.262 OA
ATOM     10  H4  UNL     1       5.838  18.098  87.043  1.00  0.00     0.169 HD
BRANCH   8  11
HETATM   11  C11 UNL     1       4.528  16.562  85.385  1.00  0.00     0.328 C 
HETATM   12  O3  UNL     1       3.924  15.507  85.670  1.00  0.00    -0.261 OA
HETATM   13  N5  UNL     1       3.800  17.665  84.884  1.00  0.00    -0.259 N 
ATOM     14  H5  UNL     1       4.307  18.520  84.657  1.00  0.00     0.190 HD
BRANCH  13  15
HETATM   15  N6  UNL     1       2.425  17.636  84.686  1.00  0.00    -0.267 N 
HETATM   16  C12 UNL     1       1.798  18.619  83.888  1.00  0.00     0.240 C 
HETATM   17  O4  UNL     1       2.432  19.549  83.326  1.00  0.00    -0.271 OA
ATOM     18  H6  UNL     1       1.865  16.902  85.120  1.00  0.00     0.190 HD
BRANCH  16  19
HETATM   19  C13 UNL     1       0.311  18.595  83.672  1.00  0.00     0.079 C 
HETATM   20  C14 UNL     1      -0.285  19.956  83.777  1.00  0.00     0.014 C 
HETATM   21  C15 UNL     1      -1.550  19.838  82.944  1.00  0.00     0.001 C 
HETATM   22  C16 UNL     1      -1.116  18.978  81.754  1.00  0.00     0.001 C 
HETATM   23  C17 UNL     1       0.090  18.206  82.229  1.00  0.00     0.014 C 
ENDBRANCH  16  19
ENDBRANCH  13  15
ENDBRANCH   8  11
ENDBRANCH   5   7
BRANCH   1  24
HETATM   24  C4  UNL     1      10.314  17.472  89.601  1.00  0.00     0.073 A 
HETATM   25  C3  UNL     1       9.591  17.474  90.774  1.00  0.00     0.139 A 
HETATM   26  N3  UNL     1      10.467  17.235  91.768  1.00  0.00    -0.276 N 
HETATM   27  N8  UNL     1      11.672  17.094  91.222  1.00  0.00    -0.020 NA
HETATM   28  N7  UNL     1      11.595  17.235  89.911  1.00  0.00    -0.282 N 
ATOM     29  H7  UNL     1      12.371  17.174  89.253  1.00  0.00     0.184 HD
BRANCH  26  30
HETATM   30  C2  UNL     1      10.114  17.150  93.176  1.00  0.00     0.250 C 
BRANCH  30  31
HETATM   31  C1  UNL     1       8.712  17.564  93.375  1.00  0.00     0.255 C 
HETATM   32  N2  UNL     1       7.784  16.662  93.915  1.00  0.00    -0.275 N 
ATOM     33  H2  UNL     1       8.076  15.718  94.170  1.00  0.00     0.189 HD
HETATM   34  O1  UNL     1       8.365  18.719  93.062  1.00  0.00    -0.270 OA
BRANCH  32  35
HETATM   35  N1  UNL     1       6.447  17.062  94.103  1.00  0.00    -0.343 N 
ATOM     36  H12 UNL     1       6.235  18.055  94.197  1.00  0.00     0.176 HD
ATOM     37  H11 UNL     1       5.708  16.359  94.144  1.00  0.00     0.176 HD
ENDBRANCH  32  35
ENDBRANCH  30  31
ENDBRANCH  26  30
ENDBRANCH   1  24
TORSDOF 8
ENDMDL
MODEL 4
REMARK VINA RESULT: -8.826211085      1.757      2.113
REMARK  8 active torsions:
REMARK  status: ('A' for Active; 'I' for Inactive)
REMARK    1  A    between atoms: N1_1  and  N2_4 
REMARK       I    between atoms: N2_4  and  C1_6 
REMARK    2  A    between atoms: C1_6  and  C2_8 
REMARK    3  A    between atoms: C2_8  and  N3_9 
REMARK    4  A    between atoms: C4_11  and  C5_12 
REMARK    5  A    between atoms: C9_16  and  N4_17 
REMARK       I    between atoms: N4_17  and  C10_19 
REMARK    6  A    between atoms: C10_19  and  C11_21 
REMARK       I    between atoms: C11_21  and  N5_23 
REMARK    7  A    between atoms: N5_23  and  N6_25 
REMARK       I    between atoms: N6_25  and  C12_27 
REMARK    8  A    between atoms: C12_27  and  C13_29 
ROOT
HETATM    1  C5  UNL     1       9.484  17.524  88.342  1.00  0.00    -0.005 A 
HETATM    2  C6  UNL     1       8.206  17.111  88.130  1.00  0.00     0.014 A 
HETATM    3  C7  UNL     1       7.576  17.169  86.913  1.00  0.00     0.003 A 
HETATM    4  C8  UNL     1       8.292  17.677  85.862  1.00  0.00     0.029 A 
HETATM    5  C9  UNL     1       9.614  18.119  86.015  1.00  0.00     0.036 A 
HETATM    6  C18 UNL     1      10.193  18.039  87.246  1.00  0.00     0.043 A 
ENDROOT
BRANCH   5   7
HETATM    7  N4  UNL     1      10.278  18.647  84.899  1.00  0.00    -0.319 N 
HETATM    8  C10 UNL     1       9.808  19.680  84.072  1.00  0.00     0.315 C 
HETATM    9  O2  UNL     1       8.717  20.241  84.276  1.00  0.00    -0.262 OA
ATOM     10  H4  UNL     1      11.184  18.243  84.666  1.00  0.00     0.169 HD
BRANCH   8  11
HETATM   11  C11 UNL     1      10.607  20.119  82.941  1.00  0.00     0.328 C 
HETATM   12  O3  UNL     1      10.125  20.069  81.790  1.00  0.00    -0.261 OA
HETATM   13  N5  UNL     1      11.923  20.601  83.121  1.00  0.00    -0.259 N 
ATOM     14  H5  UNL     1      12.303  20.637  84.068  1.00  0.00     0.190 HD
BRANCH  13  15
HETATM   15  N6  UNL     1      12.723  21.029  82.069  1.00  0.00    -0.267 N 
HETATM   16  C12 UNL     1      13.365  22.286  82.126  1.00  0.00     0.240 C 
HETATM   17  O4  UNL     1      13.252  23.068  83.105  1.00  0.00    -0.271 OA
ATOM     18  H6  UNL     1      12.847  20.432  81.252  1.00  0.00     0.190 HD
BRANCH  16  19
HETATM   19  C13 UNL     1      14.230  22.755  80.989  1.00  0.00     0.079 C 
HETATM   20  C14 UNL     1      14.622  24.183  81.146  1.00  0.00     0.014 C 
HETATM   21  C15 UNL     1      15.912  24.271  80.348  1.00  0.00     0.001 C 
HETATM   22  C16 UNL     1      16.621  22.953  80.668  1.00  0.00     0.001 C 
HETATM   23  C17 UNL     1      15.534  22.001  81.099  1.00  0.00     0.014 C 
ENDBRANCH  16  19
ENDBRANCH  13  15
ENDBRANCH   8  11
ENDBRANCH   5   7
BRANCH   1  24
HETATM   24  C4  UNL     1      10.118  17.441  89.651  1.00  0.00     0.073 A 
HETATM   25  C3  UNL     1       9.453  17.380  90.857  1.00  0.00     0.139 A 
HETATM   26  N3  UNL     1      10.397  17.309  91.814  1.00  0.00    -0.276 N 
HETATM   27  N8  UNL     1      11.585  17.327  91.216  1.00  0.00    -0.020 NA
HETATM   28  N7  UNL     1      11.432  17.407  89.906  1.00  0.00    -0.282 N 
ATOM     29  H7  UNL     1      12.180  17.437  89.214  1.00  0.00     0.184 HD
BRANCH  26  30
HETATM   30  C2  UNL     1      10.121  17.225  93.239  1.00  0.00     0.250 C 
BRANCH  30  31
HETATM   31  C1  UNL     1       8.720  17.598  93.510  1.00  0.00     0.255 C 
HETATM   32  N2  UNL     1       7.810  16.632  93.961  1.00  0.00    -0.275 N 
ATOM     33  H2  UNL     1       8.116  15.669  94.103  1.00  0.00     0.189 HD
HETATM   34  O1  UNL     1       8.357  18.778  93.335  1.00  0.00    -0.270 OA
BRANCH  32  35
HETATM   35  N1  UNL     1       6.473  16.993  94.217  1.00  0.00    -0.343 N 
ATOM     36  H12 UNL     1       6.247  17.975  94.374  1.00  0.00     0.176 HD
ATOM     37  H11 UNL     1       5.750  16.275  94.243  1.00  0.00     0.176 HD
ENDBRANCH  32  35
ENDBRANCH  30  31
ENDBRANCH  26  30
ENDBRANCH   1  24
TORSDOF 8
ENDMDL
MODEL 5
REMARK VINA RESULT: -8.769022227      6.793      9.963
REMARK  8 active torsions:
REMARK  status: ('A' for Active; 'I' for Inactive)
REMARK    1  A    between atoms: N1_1  and  N2_4 
REMARK       I    between atoms: N2_4  and  C1_6 
REMARK    2  A    between atoms: C1_6  and  C2_8 
REMARK    3  A    between atoms: C2_8  and  N3_9 
REMARK    4  A    between atoms: C4_11  and  C5_12 
REMARK    5  A    between atoms: C9_16  and  N4_17 
REMARK       I    between atoms: N4_17  and  C10_19 
REMARK    6  A    between atoms: C10_19  and  C11_21 
REMARK       I    between atoms: C11_21  and  N5_23 
REMARK    7  A    between atoms: N5_23  and  N6_25 
REMARK       I    between atoms: N6_25  and  C12_27 
REMARK    8  A    between atoms: C12_27  and  C13_29 
ROOT
HETATM    1  C5  UNL     1       6.799  16.125  88.783  1.00  0.00    -0.005 A 
HETATM    2  C6  UNL     1       6.460  14.828  89.011  1.00  0.00     0.014 A 
HETATM    3  C7  UNL     1       5.234  14.293  88.704  1.00  0.00     0.003 A 
HETATM    4  C8  UNL     1       4.312  15.130  88.135  1.00  0.00     0.029 A 
HETATM    5  C9  UNL     1       4.600  16.478  87.874  1.00  0.00     0.036 A 
HETATM    6  C18 UNL     1       5.833  16.959  88.199  1.00  0.00     0.043 A 
ENDROOT
BRANCH   5   7
HETATM    7  N4  UNL     1       3.599  17.281  87.310  1.00  0.00    -0.319 N 
HETATM    8  C10 UNL     1       3.421  17.539  85.941  1.00  0.00     0.315 C 
HETATM    9  O2  UNL     1       4.169  17.048  85.078  1.00  0.00    -0.262 OA
ATOM     10  H4  UNL     1       2.939  17.717  87.953  1.00  0.00     0.169 HD
BRANCH   8  11
HETATM   11  C11 UNL     1       2.337  18.401  85.505  1.00  0.00     0.328 C 
HETATM   12  O3  UNL     1       2.211  19.536  86.010  1.00  0.00    -0.261 OA
HETATM   13  N5  UNL     1       1.421  17.977  84.515  1.00  0.00    -0.259 N 
ATOM     14  H5  UNL     1       1.538  17.048  84.110  1.00  0.00     0.190 HD
BRANCH  13  15
HETATM   15  N6  UNL     1       0.370  18.767  84.069  1.00  0.00    -0.267 N 
HETATM   16  C12 UNL     1      -0.347  18.411  82.905  1.00  0.00     0.240 C 
HETATM   17  O4  UNL     1      -0.082  17.386  82.226  1.00  0.00    -0.271 OA
ATOM     18  H6  UNL     1       0.114  19.609  84.584  1.00  0.00     0.190 HD
BRANCH  16  19
HETATM   19  C13 UNL     1      -1.485  19.263  82.416  1.00  0.00     0.079 C 
HETATM   20  C14 UNL     1      -2.799  18.770  82.914  1.00  0.00     0.014 C 
HETATM   21  C15 UNL     1      -3.665  20.017  82.883  1.00  0.00     0.001 C 
HETATM   22  C16 UNL     1      -2.718  21.122  83.358  1.00  0.00     0.001 C 
HETATM   23  C17 UNL     1      -1.326  20.614  83.074  1.00  0.00     0.014 C 
ENDBRANCH  16  19
ENDBRANCH  13  15
ENDBRANCH   8  11
ENDBRANCH   5   7
BRANCH   1  24
HETATM   24  C4  UNL     1       8.114  16.652  89.122  1.00  0.00     0.073 A 
HETATM   25  C3  UNL     1       8.644  16.720  90.392  1.00  0.00     0.139 A 
HETATM   26  N3  UNL     1       9.870  17.262  90.270  1.00  0.00    -0.276 N 
HETATM   27  N8  UNL     1      10.077  17.513  88.981  1.00  0.00    -0.020 NA
HETATM   28  N7  UNL     1       9.023  17.150  88.273  1.00  0.00    -0.282 N 
ATOM     29  H7  UNL     1       8.919  17.233  87.262  1.00  0.00     0.184 HD
BRANCH  26  30
HETATM   30  C2  UNL     1      10.776  17.508  91.381  1.00  0.00     0.250 C 
BRANCH  30  31
HETATM   31  C1  UNL     1      10.017  17.648  92.637  1.00  0.00     0.255 C 
HETATM   32  N2  UNL     1       8.622  17.517  92.633  1.00  0.00    -0.275 N 
ATOM     33  H2  UNL     1       8.129  17.325  91.761  1.00  0.00     0.189 HD
HETATM   34  O1  UNL     1      10.629  17.881  93.698  1.00  0.00    -0.270 OA
BRANCH  32  35
HETATM   35  N1  UNL     1       7.902  17.653  93.836  1.00  0.00    -0.343 N 
ATOM     36  H12 UNL     1       8.312  18.186  94.602  1.00  0.00     0.176 HD
ATOM     37  H11 UNL     1       6.983  17.219  93.928  1.00  0.00     0.176 HD
ENDBRANCH  32  35
ENDBRANCH  30  31
ENDBRANCH  26  30
ENDBRANCH   1  24
TORSDOF 8
ENDMDL
