MODEL 1
REMARK VINA RESULT: -7.559343559      0.000      0.000
REMARK  10 active torsions:
REMARK  status: ('A' for Active; 'I' for Inactive)
REMARK    1  A    between atoms: C2_2  and  O1_3 
REMARK    2  A    between atoms: C2_2  and  C3_5 
REMARK    3  A    between atoms: C7_9  and  O2_10 
REMARK    4  A    between atoms: C18_22  and  O3_23 
REMARK    5  A    between atoms: C18_22  and  C19_25 
REMARK    6  A    between atoms: C19_25  and  O4_26 
REMARK    7  A    between atoms: C19_25  and  C20_28 
REMARK    8  A    between atoms: C20_28  and  O5_29 
REMARK    9  A    between atoms: C20_28  and  C21_31 
REMARK   10  A    between atoms: C21_31  and  O6_32 
ROOT
HETATM    1  C3  UNL     1      30.419 -11.011 -16.121  1.00  0.00     0.023 C 
HETATM    2  C4  UNL     1      30.622 -12.197 -15.144  1.00  0.00     0.014 C 
HETATM    3  C5  UNL     1      29.258 -11.947 -14.768  1.00  0.00     0.002 C 
HETATM    4  C6  UNL     1      28.527 -12.307 -13.571  1.00  0.00     0.028 C 
HETATM    5  C7  UNL     1      29.167 -12.338 -12.247  1.00  0.00     0.123 C 
HETATM    6  C8  UNL     1      28.552 -11.438 -11.213  1.00  0.00     0.037 C 
HETATM    7  C9  UNL     1      27.050 -11.627 -11.074  1.00  0.00    -0.003 C 
HETATM    8  C10 UNL     1      26.406 -11.618 -12.389  1.00  0.00    -0.001 C 
HETATM    9  C11 UNL     1      25.399 -10.456 -12.391  1.00  0.00     0.007 C 
HETATM   10  C12 UNL     1      24.484 -10.802 -11.225  1.00  0.00     0.013 C 
HETATM   11  C13 UNL     1      25.195 -10.227  -9.983  1.00  0.00    -0.006 C 
HETATM   12  C14 UNL     1      25.142  -8.754 -10.185  1.00  0.00     0.019 C 
HETATM   13  C15 UNL     1      26.611 -10.683 -10.022  1.00  0.00     0.001 C 
HETATM   14  C16 UNL     1      26.864 -11.380  -8.672  1.00  0.00     0.009 C 
HETATM   15  C17 UNL     1      25.488 -11.826  -8.207  1.00  0.00     0.042 C 
HETATM   16  C18 UNL     1      24.559 -10.734  -8.724  1.00  0.00     0.094 C 
HETATM   17  C22 UNL     1      27.202 -11.525 -13.618  1.00  0.00    -0.034 C 
HETATM   18  C23 UNL     1      26.337 -12.188 -14.716  1.00  0.00     0.016 C 
HETATM   19  C24 UNL     1      27.356 -10.119 -14.066  1.00  0.00     0.011 C 
HETATM   20  C25 UNL     1      28.172  -9.938 -15.352  1.00  0.00     0.011 C 
HETATM   21  C26 UNL     1      29.495 -10.499 -15.067  1.00  0.00    -0.034 C 
HETATM   22  C27 UNL     1      30.268  -9.626 -14.139  1.00  0.00     0.016 C 
ENDROOT
BRANCH  16  23
HETATM   23  O3  UNL     1      23.383 -11.364  -9.148  1.00  0.00    -0.386 OA
ATOM     24  H3  UNL     1      22.682 -10.829  -8.793  1.00  0.00     0.210 HD
ENDBRANCH  16  23
BRANCH  16  25
HETATM   25  C19 UNL     1      24.155  -9.789  -7.674  1.00  0.00     0.184 C 
BRANCH  25  26
HETATM   26  O4  UNL     1      22.715  -9.949  -7.587  1.00  0.00    -0.390 OA
ATOM     27  H4  UNL     1      22.394  -9.641  -8.426  1.00  0.00     0.210 HD
ENDBRANCH  25  26
BRANCH  25  28
HETATM   28  C20 UNL     1      24.527 -10.072  -6.256  1.00  0.00     0.173 C 
BRANCH  28  29
HETATM   29  O5  UNL     1      25.478  -9.363  -5.636  1.00  0.00    -0.391 OA
ATOM     30  H5  UNL     1      25.639  -9.466  -4.706  1.00  0.00     0.210 HD
ENDBRANCH  28  29
BRANCH  28  31
HETATM   31  C21 UNL     1      23.231  -9.915  -5.441  1.00  0.00     0.198 C 
BRANCH  31  32
HETATM   32  O6  UNL     1      22.913 -11.089  -4.775  1.00  0.00    -0.398 OA
ATOM     33  H6  UNL     1      22.158 -11.511  -5.167  1.00  0.00     0.209 HD
ENDBRANCH  31  32
ENDBRANCH  28  31
ENDBRANCH  25  28
ENDBRANCH  16  25
BRANCH   5  34
HETATM   34  O2  UNL     1      30.540 -12.042 -12.233  1.00  0.00    -0.395 OA
ATOM     35  H2  UNL     1      30.760 -11.126 -12.350  1.00  0.00     0.210 HD
ENDBRANCH   5  34
BRANCH   1  36
HETATM   36  C2  UNL     1      29.915 -11.338 -17.465  1.00  0.00     0.118 C 
HETATM   37  C1  UNL     1      30.135 -10.100 -18.351  1.00  0.00     0.040 C 
BRANCH  36  38
HETATM   38  O1  UNL     1      30.698 -12.393 -17.973  1.00  0.00    -0.396 OA
ATOM     39  H1  UNL     1      30.686 -13.105 -17.343  1.00  0.00     0.210 HD
ENDBRANCH  36  38
ENDBRANCH   1  36
TORSDOF 10
ENDMDL
MODEL 2
REMARK VINA RESULT: -7.145606866      1.299      1.430
REMARK  10 active torsions:
REMARK  status: ('A' for Active; 'I' for Inactive)
REMARK    1  A    between atoms: C2_2  and  O1_3 
REMARK    2  A    between atoms: C2_2  and  C3_5 
REMARK    3  A    between atoms: C7_9  and  O2_10 
REMARK    4  A    between atoms: C18_22  and  O3_23 
REMARK    5  A    between atoms: C18_22  and  C19_25 
REMARK    6  A    between atoms: C19_25  and  O4_26 
REMARK    7  A    between atoms: C19_25  and  C20_28 
REMARK    8  A    between atoms: C20_28  and  O5_29 
REMARK    9  A    between atoms: C20_28  and  C21_31 
REMARK   10  A    between atoms: C21_31  and  O6_32 
ROOT
HETATM    1  C3  UNL     1      29.934 -10.568 -17.008  1.00  0.00     0.023 C 
HETATM    2  C4  UNL     1      30.342 -11.883 -16.297  1.00  0.00     0.014 C 
HETATM    3  C5  UNL     1      29.111 -11.720 -15.576  1.00  0.00     0.002 C 
HETATM    4  C6  UNL     1      28.679 -12.268 -14.307  1.00  0.00     0.028 C 
HETATM    5  C7  UNL     1      29.614 -12.485 -13.192  1.00  0.00     0.123 C 
HETATM    6  C8  UNL     1      29.276 -11.761 -11.919  1.00  0.00     0.037 C 
HETATM    7  C9  UNL     1      27.847 -11.999 -11.458  1.00  0.00    -0.003 C 
HETATM    8  C10 UNL     1      26.909 -11.806 -12.567  1.00  0.00    -0.001 C 
HETATM    9  C11 UNL     1      25.950 -10.676 -12.156  1.00  0.00     0.007 C 
HETATM   10  C12 UNL     1      25.332 -11.212 -10.872  1.00  0.00     0.013 C 
HETATM   11  C13 UNL     1      26.327 -10.815  -9.762  1.00  0.00    -0.006 C 
HETATM   12  C14 UNL     1      26.252  -9.329  -9.723  1.00  0.00     0.019 C 
HETATM   13  C15 UNL     1      27.686 -11.232 -10.203  1.00  0.00     0.001 C 
HETATM   14  C16 UNL     1      28.240 -12.117  -9.072  1.00  0.00     0.009 C 
HETATM   15  C17 UNL     1      27.006 -12.655  -8.367  1.00  0.00     0.042 C 
HETATM   16  C18 UNL     1      25.999 -11.517  -8.479  1.00  0.00     0.094 C 
HETATM   17  C22 UNL     1      27.393 -11.514 -13.921  1.00  0.00    -0.034 C 
HETATM   18  C23 UNL     1      26.282 -12.023 -14.870  1.00  0.00     0.016 C 
HETATM   19  C24 UNL     1      27.460 -10.055 -14.177  1.00  0.00     0.011 C 
HETATM   20  C25 UNL     1      27.950  -9.667 -15.578  1.00  0.00     0.011 C 
HETATM   21  C26 UNL     1      29.294 -10.238 -15.701  1.00  0.00    -0.034 C 
HETATM   22  C27 UNL     1      30.279  -9.499 -14.863  1.00  0.00     0.016 C 
ENDROOT
BRANCH  16  23
HETATM   23  O3  UNL     1      24.745 -12.099  -8.702  1.00  0.00    -0.386 OA
ATOM     24  H3  UNL     1      24.795 -12.449  -9.584  1.00  0.00     0.210 HD
ENDBRANCH  16  23
BRANCH  16  25
HETATM   25  C19 UNL     1      25.871 -10.747  -7.234  1.00  0.00     0.184 C 
BRANCH  25  26
HETATM   26  O4  UNL     1      24.438 -10.666  -7.012  1.00  0.00    -0.390 OA
ATOM     27  H4  UNL     1      24.185  -9.846  -7.419  1.00  0.00     0.210 HD
ENDBRANCH  25  26
BRANCH  25  28
HETATM   28  C20 UNL     1      26.291 -11.373  -5.945  1.00  0.00     0.173 C 
BRANCH  28  29
HETATM   29  O5  UNL     1      26.905 -10.655  -4.996  1.00  0.00    -0.391 OA
ATOM     30  H5  UNL     1      27.186 -11.056  -4.182  1.00  0.00     0.210 HD
ENDBRANCH  28  29
BRANCH  28  31
HETATM   31  C21 UNL     1      25.010 -11.957  -5.323  1.00  0.00     0.198 C 
BRANCH  31  32
HETATM   32  O6  UNL     1      24.783 -13.250  -5.767  1.00  0.00    -0.398 OA
ATOM     33  H6  UNL     1      25.530 -13.809  -5.590  1.00  0.00     0.209 HD
ENDBRANCH  31  32
ENDBRANCH  28  31
ENDBRANCH  25  28
ENDBRANCH  16  25
BRANCH   5  34
HETATM   34  O2  UNL     1      30.955 -12.167 -13.460  1.00  0.00    -0.395 OA
ATOM     35  H2  UNL     1      31.598 -12.707 -13.018  1.00  0.00     0.210 HD
ENDBRANCH   5  34
BRANCH   1  36
HETATM   36  C2  UNL     1      29.120 -10.700 -18.228  1.00  0.00     0.118 C 
HETATM   37  C1  UNL     1      29.145  -9.340 -18.946  1.00  0.00     0.040 C 
BRANCH  36  38
HETATM   38  O1  UNL     1      29.743 -11.652 -19.059  1.00  0.00    -0.396 OA
ATOM     39  H1  UNL     1      30.297 -12.205 -18.519  1.00  0.00     0.210 HD
ENDBRANCH  36  38
ENDBRANCH   1  36
TORSDOF 10
ENDMDL
MODEL 3
REMARK VINA RESULT: -7.053852370      1.341      1.529
REMARK  10 active torsions:
REMARK  status: ('A' for Active; 'I' for Inactive)
REMARK    1  A    between atoms: C2_2  and  O1_3 
REMARK    2  A    between atoms: C2_2  and  C3_5 
REMARK    3  A    between atoms: C7_9  and  O2_10 
REMARK    4  A    between atoms: C18_22  and  O3_23 
REMARK    5  A    between atoms: C18_22  and  C19_25 
REMARK    6  A    between atoms: C19_25  and  O4_26 
REMARK    7  A    between atoms: C19_25  and  C20_28 
REMARK    8  A    between atoms: C20_28  and  O5_29 
REMARK    9  A    between atoms: C20_28  and  C21_31 
REMARK   10  A    between atoms: C21_31  and  O6_32 
ROOT
HETATM    1  C3  UNL     1      32.066 -10.438 -15.258  1.00  0.00     0.023 C 
HETATM    2  C4  UNL     1      32.310 -11.426 -14.089  1.00  0.00     0.014 C 
HETATM    3  C5  UNL     1      30.877 -11.504 -14.031  1.00  0.00     0.002 C 
HETATM    4  C6  UNL     1      29.995 -11.919 -12.959  1.00  0.00     0.028 C 
HETATM    5  C7  UNL     1      30.305 -11.650 -11.547  1.00  0.00     0.123 C 
HETATM    6  C8  UNL     1      29.278 -10.841 -10.806  1.00  0.00     0.037 C 
HETATM    7  C9  UNL     1      27.870 -11.400 -10.936  1.00  0.00    -0.003 C 
HETATM    8  C10 UNL     1      27.559 -11.691 -12.337  1.00  0.00    -0.001 C 
HETATM    9  C11 UNL     1      26.338 -10.837 -12.716  1.00  0.00     0.007 C 
HETATM   10  C12 UNL     1      25.287 -11.291 -11.712  1.00  0.00     0.013 C 
HETATM   11  C13 UNL     1      25.543 -10.429 -10.459  1.00  0.00    -0.006 C 
HETATM   12  C14 UNL     1      25.196  -9.048 -10.893  1.00  0.00     0.019 C 
HETATM   13  C15 UNL     1      26.996 -10.502 -10.149  1.00  0.00     0.001 C 
HETATM   14  C16 UNL     1      27.088 -10.970  -8.685  1.00  0.00     0.009 C 
HETATM   15  C17 UNL     1      25.785 -11.709  -8.436  1.00  0.00     0.042 C 
HETATM   16  C18 UNL     1      24.771 -10.955  -9.286  1.00  0.00     0.094 C 
HETATM   17  C22 UNL     1      28.572 -11.518 -13.385  1.00  0.00    -0.034 C 
HETATM   18  C23 UNL     1      28.159 -12.490 -14.515  1.00  0.00     0.016 C 
HETATM   19  C24 UNL     1      28.493 -10.173 -14.006  1.00  0.00     0.011 C 
HETATM   20  C25 UNL     1      29.516  -9.915 -15.120  1.00  0.00     0.011 C 
HETATM   21  C26 UNL     1      30.833 -10.082 -14.497  1.00  0.00    -0.034 C 
HETATM   22  C27 UNL     1      31.148  -8.948 -13.582  1.00  0.00     0.016 C 
ENDROOT
BRANCH  16  23
HETATM   23  O3  UNL     1      23.902 -11.908  -9.831  1.00  0.00    -0.386 OA
ATOM     24  H3  UNL     1      23.038 -11.519  -9.753  1.00  0.00     0.210 HD
ENDBRANCH  16  23
BRANCH  16  25
HETATM   25  C19 UNL     1      23.930 -10.046  -8.496  1.00  0.00     0.184 C 
BRANCH  25  26
HETATM   26  O4  UNL     1      22.584 -10.562  -8.675  1.00  0.00    -0.390 OA
ATOM     27  H4  UNL     1      22.094  -9.822  -9.015  1.00  0.00     0.210 HD
ENDBRANCH  25  26
BRANCH  25  28
HETATM   28  C20 UNL     1      24.018 -10.085  -7.005  1.00  0.00     0.173 C 
BRANCH  28  29
HETATM   29  O5  UNL     1      25.060  -9.547  -6.361  1.00  0.00    -0.391 OA
ATOM     30  H5  UNL     1      25.287  -9.821  -5.480  1.00  0.00     0.210 HD
ENDBRANCH  28  29
BRANCH  28  31
HETATM   31  C21 UNL     1      22.747  -9.385  -6.490  1.00  0.00     0.198 C 
BRANCH  31  32
HETATM   32  O6  UNL     1      22.394  -8.322  -7.307  1.00  0.00    -0.398 OA
ATOM     33  H6  UNL     1      21.701  -7.804  -6.916  1.00  0.00     0.209 HD
ENDBRANCH  31  32
ENDBRANCH  28  31
ENDBRANCH  25  28
ENDBRANCH  16  25
BRANCH   5  34
HETATM   34  O2  UNL     1      31.531 -11.007 -11.310  1.00  0.00    -0.395 OA
ATOM     35  H2  UNL     1      32.146 -11.023 -12.034  1.00  0.00     0.210 HD
ENDBRANCH   5  34
BRANCH   1  36
HETATM   36  C2  UNL     1      31.972 -11.018 -16.607  1.00  0.00     0.118 C 
HETATM   37  C1  UNL     1      32.164  -9.871 -17.615  1.00  0.00     0.040 C 
BRANCH  36  38
HETATM   38  O1  UNL     1      33.038 -11.927 -16.760  1.00  0.00    -0.396 OA
ATOM     39  H1  UNL     1      32.854 -12.695 -16.232  1.00  0.00     0.210 HD
ENDBRANCH  36  38
ENDBRANCH   1  36
TORSDOF 10
ENDMDL
MODEL 4
REMARK VINA RESULT: -7.046864556      2.955      3.809
REMARK  10 active torsions:
REMARK  status: ('A' for Active; 'I' for Inactive)
REMARK    1  A    between atoms: C2_2  and  O1_3 
REMARK    2  A    between atoms: C2_2  and  C3_5 
REMARK    3  A    between atoms: C7_9  and  O2_10 
REMARK    4  A    between atoms: C18_22  and  O3_23 
REMARK    5  A    between atoms: C18_22  and  C19_25 
REMARK    6  A    between atoms: C19_25  and  O4_26 
REMARK    7  A    between atoms: C19_25  and  C20_28 
REMARK    8  A    between atoms: C20_28  and  O5_29 
REMARK    9  A    between atoms: C20_28  and  C21_31 
REMARK   10  A    between atoms: C21_31  and  O6_32 
ROOT
HETATM    1  C3  UNL     1      29.048  -8.198 -14.101  1.00  0.00     0.023 C 
HETATM    2  C4  UNL     1      29.471  -9.686 -14.182  1.00  0.00     0.014 C 
HETATM    3  C5  UNL     1      28.378  -9.909 -13.278  1.00  0.00     0.002 C 
HETATM    4  C6  UNL     1      28.108 -11.008 -12.373  1.00  0.00     0.028 C 
HETATM    5  C7  UNL     1      29.186 -11.720 -11.670  1.00  0.00     0.123 C 
HETATM    6  C8  UNL     1      29.095 -11.705 -10.170  1.00  0.00     0.037 C 
HETATM    7  C9  UNL     1      27.740 -12.157  -9.649  1.00  0.00    -0.003 C 
HETATM    8  C10 UNL     1      26.660 -11.468 -10.358  1.00  0.00    -0.001 C 
HETATM    9  C11 UNL     1      25.852 -10.690  -9.306  1.00  0.00     0.007 C 
HETATM   10  C12 UNL     1      25.403 -11.788  -8.351  1.00  0.00     0.013 C 
HETATM   11  C13 UNL     1      26.579 -11.959  -7.368  1.00  0.00    -0.006 C 
HETATM   12  C14 UNL     1      26.610 -10.678  -6.613  1.00  0.00     0.019 C 
HETATM   13  C15 UNL     1      27.824 -12.092  -8.173  1.00  0.00     0.001 C 
HETATM   14  C16 UNL     1      28.483 -13.404  -7.711  1.00  0.00     0.009 C 
HETATM   15  C17 UNL     1      27.338 -14.233  -7.155  1.00  0.00     0.042 C 
HETATM   16  C18 UNL     1      26.405 -13.198  -6.542  1.00  0.00     0.094 C 
HETATM   17  C22 UNL     1      26.950 -10.553 -11.468  1.00  0.00    -0.034 C 
HETATM   18  C23 UNL     1      25.676 -10.558 -12.345  1.00  0.00     0.016 C 
HETATM   19  C24 UNL     1      27.074  -9.150 -11.003  1.00  0.00     0.011 C 
HETATM   20  C25 UNL     1      27.370  -8.127 -12.108  1.00  0.00     0.011 C 
HETATM   21  C26 UNL     1      28.638  -8.548 -12.710  1.00  0.00    -0.034 C 
HETATM   22  C27 UNL     1      29.787  -8.289 -11.796  1.00  0.00     0.016 C 
ENDROOT
BRANCH  16  23
HETATM   23  O3  UNL     1      25.095 -13.619  -6.804  1.00  0.00    -0.386 OA
ATOM     24  H3  UNL     1      25.195 -14.439  -7.275  1.00  0.00     0.210 HD
ENDBRANCH  16  23
BRANCH  16  25
HETATM   25  C19 UNL     1      26.519 -13.125  -5.079  1.00  0.00     0.184 C 
BRANCH  25  26
HETATM   26  O4  UNL     1      25.874 -14.338  -4.610  1.00  0.00    -0.390 OA
ATOM     27  H4  UNL     1      25.256 -14.036  -3.955  1.00  0.00     0.210 HD
ENDBRANCH  25  26
BRANCH  25  28
HETATM   28  C20 UNL     1      27.861 -13.291  -4.444  1.00  0.00     0.173 C 
BRANCH  28  29
HETATM   29  O5  UNL     1      28.447 -12.280  -3.792  1.00  0.00    -0.391 OA
ATOM     30  H5  UNL     1      28.662 -12.351  -2.869  1.00  0.00     0.210 HD
ENDBRANCH  28  29
BRANCH  28  31
HETATM   31  C21 UNL     1      27.715 -14.457  -3.450  1.00  0.00     0.198 C 
BRANCH  31  32
HETATM   32  O6  UNL     1      28.470 -15.550  -3.846  1.00  0.00    -0.398 OA
ATOM     33  H6  UNL     1      28.821 -16.014  -3.096  1.00  0.00     0.209 HD
ENDBRANCH  31  32
ENDBRANCH  28  31
ENDBRANCH  25  28
ENDBRANCH  16  25
BRANCH   5  34
HETATM   34  O2  UNL     1      30.489 -11.292 -11.971  1.00  0.00    -0.395 OA
ATOM     35  H2  UNL     1      30.911 -11.746 -12.691  1.00  0.00     0.210 HD
ENDBRANCH   5  34
BRANCH   1  36
HETATM   36  C2  UNL     1      28.051  -7.739 -15.082  1.00  0.00     0.118 C 
HETATM   37  C1  UNL     1      28.352  -6.261 -15.386  1.00  0.00     0.040 C 
BRANCH  36  38
HETATM   38  O1  UNL     1      28.236  -8.482 -16.264  1.00  0.00    -0.396 OA
ATOM     39  H1  UNL     1      28.559  -9.344 -16.028  1.00  0.00     0.210 HD
ENDBRANCH  36  38
ENDBRANCH   1  36
TORSDOF 10
ENDMDL
MODEL 5
REMARK VINA RESULT: -7.044732688      1.820      3.419
REMARK  10 active torsions:
REMARK  status: ('A' for Active; 'I' for Inactive)
REMARK    1  A    between atoms: C2_2  and  O1_3 
REMARK    2  A    between atoms: C2_2  and  C3_5 
REMARK    3  A    between atoms: C7_9  and  O2_10 
REMARK    4  A    between atoms: C18_22  and  O3_23 
REMARK    5  A    between atoms: C18_22  and  C19_25 
REMARK    6  A    between atoms: C19_25  and  O4_26 
REMARK    7  A    between atoms: C19_25  and  C20_28 
REMARK    8  A    between atoms: C20_28  and  O5_29 
REMARK    9  A    between atoms: C20_28  and  C21_31 
REMARK   10  A    between atoms: C21_31  and  O6_32 
ROOT
HETATM    1  C3  UNL     1      30.427 -10.138 -18.270  1.00  0.00     0.023 C 
HETATM    2  C4  UNL     1      30.271  -8.744 -17.611  1.00  0.00     0.014 C 
HETATM    3  C5  UNL     1      30.198  -9.480 -16.380  1.00  0.00     0.002 C 
HETATM    4  C6  UNL     1      29.654  -9.113 -15.089  1.00  0.00     0.028 C 
HETATM    5  C7  UNL     1      28.462  -8.260 -14.960  1.00  0.00     0.123 C 
HETATM    6  C8  UNL     1      27.311  -8.873 -14.215  1.00  0.00     0.037 C 
HETATM    7  C9  UNL     1      27.706  -9.429 -12.857  1.00  0.00    -0.003 C 
HETATM    8  C10 UNL     1      28.904 -10.264 -12.971  1.00  0.00    -0.001 C 
HETATM    9  C11 UNL     1      28.522 -11.672 -12.487  1.00  0.00     0.007 C 
HETATM   10  C12 UNL     1      28.044 -11.419 -11.064  1.00  0.00     0.013 C 
HETATM   11  C13 UNL     1      26.558 -11.031 -11.212  1.00  0.00    -0.006 C 
HETATM   12  C14 UNL     1      25.906 -12.276 -11.700  1.00  0.00     0.019 C 
HETATM   13  C15 UNL     1      26.468  -9.979 -12.261  1.00  0.00     0.001 C 
HETATM   14  C16 UNL     1      25.732  -8.797 -11.605  1.00  0.00     0.009 C 
HETATM   15  C17 UNL     1      25.982  -8.967 -10.117  1.00  0.00     0.042 C 
HETATM   16  C18 UNL     1      26.023 -10.478  -9.926  1.00  0.00     0.094 C 
HETATM   17  C22 UNL     1      29.605 -10.404 -14.253  1.00  0.00    -0.034 C 
HETATM   18  C23 UNL     1      31.067 -10.746 -13.883  1.00  0.00     0.016 C 
HETATM   19  C24 UNL     1      29.128 -11.586 -15.012  1.00  0.00     0.011 C 
HETATM   20  C25 UNL     1      29.820 -11.808 -16.363  1.00  0.00     0.011 C 
HETATM   21  C26 UNL     1      29.559 -10.597 -17.147  1.00  0.00    -0.034 C 
HETATM   22  C27 UNL     1      28.136 -10.529 -17.586  1.00  0.00     0.016 C 
ENDROOT
BRANCH  16  23
HETATM   23  O3  UNL     1      27.021 -10.745  -8.981  1.00  0.00    -0.386 OA
ATOM     24  H3  UNL     1      26.636 -10.500  -8.147  1.00  0.00     0.210 HD
ENDBRANCH  16  23
BRANCH  16  25
HETATM   25  C19 UNL     1      24.777 -11.013  -9.360  1.00  0.00     0.184 C 
BRANCH  25  26
HETATM   26  O4  UNL     1      25.222 -11.981  -8.373  1.00  0.00    -0.390 OA
ATOM     27  H4  UNL     1      24.437 -12.188  -7.879  1.00  0.00     0.210 HD
ENDBRANCH  25  26
BRANCH  25  28
HETATM   28  C20 UNL     1      23.937 -10.136  -8.492  1.00  0.00     0.173 C 
BRANCH  28  29
HETATM   29  O5  UNL     1      22.602 -10.141  -8.591  1.00  0.00    -0.391 OA
ATOM     30  H5  UNL     1      22.153 -10.764  -9.150  1.00  0.00     0.210 HD
ENDBRANCH  28  29
BRANCH  28  31
HETATM   31  C21 UNL     1      24.291 -10.513  -7.042  1.00  0.00     0.198 C 
BRANCH  31  32
HETATM   32  O6  UNL     1      25.378  -9.782  -6.586  1.00  0.00    -0.398 OA
ATOM     33  H6  UNL     1      25.103  -8.947  -6.227  1.00  0.00     0.209 HD
ENDBRANCH  31  32
ENDBRANCH  28  31
ENDBRANCH  25  28
ENDBRANCH  16  25
BRANCH   5  34
HETATM   34  O2  UNL     1      27.922  -7.793 -16.169  1.00  0.00    -0.395 OA
ATOM     35  H2  UNL     1      27.241  -8.335 -16.548  1.00  0.00     0.210 HD
ENDBRANCH   5  34
BRANCH   1  36
HETATM   36  C2  UNL     1      31.798 -10.652 -18.415  1.00  0.00     0.118 C 
HETATM   37  C1  UNL     1      31.712 -11.977 -19.192  1.00  0.00     0.040 C 
BRANCH  36  38
HETATM   38  O1  UNL     1      32.524  -9.728 -19.192  1.00  0.00    -0.396 OA
ATOM     39  H1  UNL     1      33.142  -9.280 -18.625  1.00  0.00     0.210 HD
ENDBRANCH  36  38
ENDBRANCH   1  36
TORSDOF 10
ENDMDL
