MODEL 1
REMARK VINA RESULT: -8.821081877      0.000      0.000
REMARK  10 active torsions:
REMARK  status: ('A' for Active; 'I' for Inactive)
REMARK    1  A    between atoms: C4_4  and  C5_5 
REMARK    2  A    between atoms: C5_5  and  C6_6 
REMARK    3  A    between atoms: C6_6  and  C7_7 
REMARK    4  A    between atoms: C9_9  and  C10_10 
REMARK    5  A    between atoms: C14_14  and  O1_15 
REMARK    6  A    between atoms: C15_17  and  O2_18 
REMARK    7  A    between atoms: C22_26  and  O3_27 
REMARK    8  A    between atoms: C23_29  and  O4_30 
REMARK    9  A    between atoms: C24_32  and  O5_34 
REMARK   10  A    between atoms: C27_37  and  O6_38 
ROOT
HETATM    1  C10 UNL     1      25.397 -10.944  -8.779  1.00  0.00    -0.000 C 
HETATM    2  C11 UNL     1      26.272 -10.052  -9.555  1.00  0.00     0.018 C 
HETATM    3  C12 UNL     1      25.552  -9.631 -10.852  1.00  0.00    -0.005 C 
HETATM    4  C13 UNL     1      26.179  -8.381 -11.384  1.00  0.00     0.046 C 
HETATM    5  C14 UNL     1      26.566  -8.429 -12.815  1.00  0.00     0.148 C 
HETATM    6  C15 UNL     1      27.357  -9.690 -13.058  1.00  0.00     0.155 C 
HETATM    7  C16 UNL     1      26.517 -10.907 -12.808  1.00  0.00    -0.015 C 
HETATM    8  C17 UNL     1      27.489 -12.042 -12.457  1.00  0.00     0.018 C 
HETATM    9  C18 UNL     1      25.941 -11.322 -14.173  1.00  0.00     0.018 C 
HETATM   10  C19 UNL     1      25.426 -10.740 -11.834  1.00  0.00     0.007 C 
HETATM   11  C20 UNL     1      25.203 -12.013 -11.004  1.00  0.00     0.014 C 
HETATM   12  C21 UNL     1      24.456 -11.619  -9.754  1.00  0.00     0.022 C 
HETATM   13  C22 UNL     1      23.388 -10.560 -10.098  1.00  0.00     0.152 C 
HETATM   14  C23 UNL     1      24.131  -9.283 -10.437  1.00  0.00     0.156 C 
ENDROOT
BRANCH   1  15
HETATM   15  C9  UNL     1      25.918 -11.809  -7.727  1.00  0.00     0.025 C 
HETATM   16  C8  UNL     1      27.257 -12.398  -7.759  1.00  0.00     0.015 C 
HETATM   17  C7  UNL     1      27.227 -13.621  -6.806  1.00  0.00     0.015 C 
HETATM   18  C27 UNL     1      26.405 -13.358  -5.599  1.00  0.00     0.125 C 
HETATM   19  C26 UNL     1      26.411 -11.886  -5.248  1.00  0.00     0.070 C 
HETATM   20  C24 UNL     1      25.772 -11.121  -6.352  1.00  0.00     0.060 C 
HETATM   21  C25 UNL     1      24.310 -10.905  -6.034  1.00  0.00     0.046 C 
BRANCH  17  22
HETATM   22  C6  UNL     1      28.570 -14.190  -6.602  1.00  0.00     0.011 C 
BRANCH  22  23
HETATM   23  C5  UNL     1      29.331 -14.600  -7.800  1.00  0.00     0.028 C 
BRANCH  23  24
HETATM   24  C4  UNL     1      29.963 -13.397  -8.419  1.00  0.00    -0.025 C 
HETATM   25  C2  UNL     1      29.873 -13.113  -9.712  1.00  0.00    -0.091 C 
HETATM   26  C1  UNL     1      29.094 -14.065 -10.558  1.00  0.00     0.042 C 
HETATM   27  C3  UNL     1      30.502 -11.926 -10.302  1.00  0.00     0.042 C 
ENDBRANCH  23  24
ENDBRANCH  22  23
ENDBRANCH  17  22
BRANCH  18  28
HETATM   28  O6  UNL     1      26.759 -14.149  -4.506  1.00  0.00    -0.395 OA
ATOM     29  H6  UNL     1      26.254 -13.959  -3.724  1.00  0.00     0.210 HD
ENDBRANCH  18  28
BRANCH  20  30
HETATM   30  O5  UNL     1      26.422  -9.893  -6.444  1.00  0.00    -0.390 OA
ATOM     31  H5  UNL     1      25.775  -9.224  -6.255  1.00  0.00     0.210 HD
ENDBRANCH  20  30
ENDBRANCH   1  15
BRANCH  13  32
HETATM   32  O3  UNL     1      22.605 -10.418  -8.958  1.00  0.00    -0.393 OA
ATOM     33  H3  UNL     1      22.807 -11.163  -8.405  1.00  0.00     0.210 HD
ENDBRANCH  13  32
BRANCH  14  34
HETATM   34  O4  UNL     1      24.034  -8.292  -9.505  1.00  0.00    -0.392 OA
ATOM     35  H4  UNL     1      23.150  -8.110  -9.207  1.00  0.00     0.210 HD
ENDBRANCH  14  34
BRANCH   5  36
HETATM   36  O1  UNL     1      27.430  -7.353 -13.068  1.00  0.00    -0.393 OA
ATOM     37  H1  UNL     1      27.235  -7.015 -13.934  1.00  0.00     0.210 HD
ENDBRANCH   5  36
BRANCH   6  38
HETATM   38  O2  UNL     1      28.542  -9.684 -12.324  1.00  0.00    -0.392 OA
ATOM     39  H2  UNL     1      28.407 -10.051 -11.458  1.00  0.00     0.210 HD
ENDBRANCH   6  38
TORSDOF 10
ENDMDL
MODEL 2
REMARK VINA RESULT: -8.121334651      1.891      3.158
REMARK  10 active torsions:
REMARK  status: ('A' for Active; 'I' for Inactive)
REMARK    1  A    between atoms: C4_4  and  C5_5 
REMARK    2  A    between atoms: C5_5  and  C6_6 
REMARK    3  A    between atoms: C6_6  and  C7_7 
REMARK    4  A    between atoms: C9_9  and  C10_10 
REMARK    5  A    between atoms: C14_14  and  O1_15 
REMARK    6  A    between atoms: C15_17  and  O2_18 
REMARK    7  A    between atoms: C22_26  and  O3_27 
REMARK    8  A    between atoms: C23_29  and  O4_30 
REMARK    9  A    between atoms: C24_32  and  O5_34 
REMARK   10  A    between atoms: C27_37  and  O6_38 
ROOT
HETATM    1  C10 UNL     1      25.705 -10.627  -9.170  1.00  0.00    -0.000 C 
HETATM    2  C11 UNL     1      26.943 -10.441  -9.942  1.00  0.00     0.018 C 
HETATM    3  C12 UNL     1      26.602  -9.838 -11.319  1.00  0.00    -0.005 C 
HETATM    4  C13 UNL     1      27.824  -9.192 -11.894  1.00  0.00     0.046 C 
HETATM    5  C14 UNL     1      28.155  -9.594 -13.283  1.00  0.00     0.148 C 
HETATM    6  C15 UNL     1      28.131 -11.100 -13.368  1.00  0.00     0.155 C 
HETATM    7  C16 UNL     1      26.756 -11.631 -13.092  1.00  0.00    -0.015 C 
HETATM    8  C17 UNL     1      26.939 -13.068 -12.581  1.00  0.00     0.018 C 
HETATM    9  C18 UNL     1      26.080 -11.810 -14.462  1.00  0.00     0.018 C 
HETATM   10  C19 UNL     1      25.913 -10.797 -12.221  1.00  0.00     0.007 C 
HETATM   11  C20 UNL     1      25.009 -11.649 -11.317  1.00  0.00     0.014 C 
HETATM   12  C21 UNL     1      24.571 -10.783 -10.162  1.00  0.00     0.022 C 
HETATM   13  C22 UNL     1      24.266  -9.358 -10.667  1.00  0.00     0.152 C 
HETATM   14  C23 UNL     1      25.595  -8.733 -11.043  1.00  0.00     0.156 C 
ENDROOT
BRANCH   1  15
HETATM   15  C9  UNL     1      25.642 -11.519  -8.019  1.00  0.00     0.025 C 
HETATM   16  C8  UNL     1      26.708 -12.460  -7.670  1.00  0.00     0.015 C 
HETATM   17  C7  UNL     1      26.063 -13.547  -6.772  1.00  0.00     0.015 C 
HETATM   18  C27 UNL     1      25.053 -12.973  -5.849  1.00  0.00     0.125 C 
HETATM   19  C26 UNL     1      25.388 -11.539  -5.502  1.00  0.00     0.070 C 
HETATM   20  C24 UNL     1      25.329 -10.713  -6.739  1.00  0.00     0.060 C 
HETATM   21  C25 UNL     1      23.963 -10.074  -6.851  1.00  0.00     0.046 C 
BRANCH  17  22
HETATM   22  C6  UNL     1      27.073 -14.452  -6.195  1.00  0.00     0.011 C 
BRANCH  22  23
HETATM   23  C5  UNL     1      26.591 -15.618  -5.427  1.00  0.00     0.028 C 
BRANCH  23  24
HETATM   24  C4  UNL     1      27.408 -15.766  -4.186  1.00  0.00    -0.025 C 
HETATM   25  C2  UNL     1      27.267 -16.777  -3.339  1.00  0.00    -0.091 C 
HETATM   26  C1  UNL     1      26.231 -17.798  -3.674  1.00  0.00     0.042 C 
HETATM   27  C3  UNL     1      28.081 -16.903  -2.124  1.00  0.00     0.042 C 
ENDBRANCH  23  24
ENDBRANCH  22  23
ENDBRANCH  17  22
BRANCH  18  28
HETATM   28  O6  UNL     1      24.847 -13.744  -4.706  1.00  0.00    -0.395 OA
ATOM     29  H6  UNL     1      25.646 -14.115  -4.352  1.00  0.00     0.210 HD
ENDBRANCH  18  28
BRANCH  20  30
HETATM   30  O5  UNL     1      26.305  -9.726  -6.633  1.00  0.00    -0.390 OA
ATOM     31  H5  UNL     1      26.666  -9.788  -5.757  1.00  0.00     0.210 HD
ENDBRANCH  20  30
ENDBRANCH   1  15
BRANCH  13  32
HETATM   32  O3  UNL     1      23.662  -8.693  -9.606  1.00  0.00    -0.393 OA
ATOM     33  H3  UNL     1      24.352  -8.202  -9.176  1.00  0.00     0.210 HD
ENDBRANCH  13  32
BRANCH  14  34
HETATM   34  O4  UNL     1      26.034  -7.755 -10.200  1.00  0.00    -0.392 OA
ATOM     35  H4  UNL     1      25.504  -7.632  -9.422  1.00  0.00     0.210 HD
ENDBRANCH  14  34
BRANCH   5  36
HETATM   36  O1  UNL     1      29.473  -9.194 -13.549  1.00  0.00    -0.393 OA
ATOM     37  H1  UNL     1      29.526  -8.942 -14.464  1.00  0.00     0.210 HD
ENDBRANCH   5  36
BRANCH   6  38
HETATM   38  O2  UNL     1      29.109 -11.661 -12.546  1.00  0.00    -0.392 OA
ATOM     39  H2  UNL     1      28.753 -12.381 -12.038  1.00  0.00     0.210 HD
ENDBRANCH   6  38
TORSDOF 10
ENDMDL
MODEL 3
REMARK VINA RESULT: -8.096825144      1.683      2.612
REMARK  10 active torsions:
REMARK  status: ('A' for Active; 'I' for Inactive)
REMARK    1  A    between atoms: C4_4  and  C5_5 
REMARK    2  A    between atoms: C5_5  and  C6_6 
REMARK    3  A    between atoms: C6_6  and  C7_7 
REMARK    4  A    between atoms: C9_9  and  C10_10 
REMARK    5  A    between atoms: C14_14  and  O1_15 
REMARK    6  A    between atoms: C15_17  and  O2_18 
REMARK    7  A    between atoms: C22_26  and  O3_27 
REMARK    8  A    between atoms: C23_29  and  O4_30 
REMARK    9  A    between atoms: C24_32  and  O5_34 
REMARK   10  A    between atoms: C27_37  and  O6_38 
ROOT
HETATM    1  C10 UNL     1      25.651 -10.615  -9.244  1.00  0.00    -0.000 C 
HETATM    2  C11 UNL     1      26.883 -10.430 -10.026  1.00  0.00     0.018 C 
HETATM    3  C12 UNL     1      26.535  -9.787 -11.384  1.00  0.00    -0.005 C 
HETATM    4  C13 UNL     1      27.760  -9.148 -11.959  1.00  0.00     0.046 C 
HETATM    5  C14 UNL     1      28.067  -9.521 -13.361  1.00  0.00     0.148 C 
HETATM    6  C15 UNL     1      28.018 -11.023 -13.482  1.00  0.00     0.155 C 
HETATM    7  C16 UNL     1      26.638 -11.539 -13.202  1.00  0.00    -0.015 C 
HETATM    8  C17 UNL     1      26.804 -12.991 -12.729  1.00  0.00     0.018 C 
HETATM    9  C18 UNL     1      25.942 -11.672 -14.568  1.00  0.00     0.018 C 
HETATM   10  C19 UNL     1      25.819 -10.713 -12.301  1.00  0.00     0.007 C 
HETATM   11  C20 UNL     1      24.913 -11.573 -11.406  1.00  0.00     0.014 C 
HETATM   12  C21 UNL     1      24.503 -10.728 -10.225  1.00  0.00     0.022 C 
HETATM   13  C22 UNL     1      24.215  -9.286 -10.691  1.00  0.00     0.152 C 
HETATM   14  C23 UNL     1      25.549  -8.673 -11.069  1.00  0.00     0.156 C 
ENDROOT
BRANCH   1  15
HETATM   15  C9  UNL     1      25.587 -11.534  -8.115  1.00  0.00     0.025 C 
HETATM   16  C8  UNL     1      26.661 -12.469  -7.775  1.00  0.00     0.015 C 
HETATM   17  C7  UNL     1      26.021 -13.585  -6.910  1.00  0.00     0.015 C 
HETATM   18  C27 UNL     1      24.995 -13.045  -5.985  1.00  0.00     0.125 C 
HETATM   19  C26 UNL     1      25.307 -11.615  -5.602  1.00  0.00     0.070 C 
HETATM   20  C24 UNL     1      25.250 -10.762  -6.820  1.00  0.00     0.060 C 
HETATM   21  C25 UNL     1      23.878 -10.138  -6.932  1.00  0.00     0.046 C 
BRANCH  17  22
HETATM   22  C6  UNL     1      27.036 -14.490  -6.343  1.00  0.00     0.011 C 
BRANCH  22  23
HETATM   23  C5  UNL     1      28.329 -13.901  -5.935  1.00  0.00     0.028 C 
BRANCH  23  24
HETATM   24  C4  UNL     1      28.346 -13.722  -4.453  1.00  0.00    -0.025 C 
HETATM   25  C2  UNL     1      28.433 -12.536  -3.866  1.00  0.00    -0.091 C 
HETATM   26  C1  UNL     1      28.517 -11.345  -4.761  1.00  0.00     0.042 C 
HETATM   27  C3  UNL     1      28.448 -12.381  -2.406  1.00  0.00     0.042 C 
ENDBRANCH  23  24
ENDBRANCH  22  23
ENDBRANCH  17  22
BRANCH  18  28
HETATM   28  O6  UNL     1      24.786 -13.845  -4.862  1.00  0.00    -0.395 OA
ATOM     29  H6  UNL     1      23.953 -13.685  -4.435  1.00  0.00     0.210 HD
ENDBRANCH  18  28
BRANCH  20  30
HETATM   30  O5  UNL     1      26.213  -9.766  -6.681  1.00  0.00    -0.390 OA
ATOM     31  H5  UNL     1      26.020  -9.307  -5.872  1.00  0.00     0.210 HD
ENDBRANCH  20  30
ENDBRANCH   1  15
BRANCH  13  32
HETATM   32  O3  UNL     1      23.635  -8.638  -9.606  1.00  0.00    -0.393 OA
ATOM     33  H3  UNL     1      24.124  -7.832  -9.489  1.00  0.00     0.210 HD
ENDBRANCH  13  32
BRANCH  14  34
HETATM   34  O4  UNL     1      26.015  -7.724 -10.207  1.00  0.00    -0.392 OA
ATOM     35  H4  UNL     1      25.416  -7.004 -10.046  1.00  0.00     0.210 HD
ENDBRANCH  14  34
BRANCH   5  36
HETATM   36  O1  UNL     1      29.389  -9.135 -13.633  1.00  0.00    -0.393 OA
ATOM     37  H1  UNL     1      29.709  -9.668 -14.352  1.00  0.00     0.210 HD
ENDBRANCH   5  36
BRANCH   6  38
HETATM   38  O2  UNL     1      28.996 -11.620 -12.687  1.00  0.00    -0.392 OA
ATOM     39  H2  UNL     1      28.730 -12.491 -12.418  1.00  0.00     0.210 HD
ENDBRANCH   6  38
TORSDOF 10
ENDMDL
MODEL 4
REMARK VINA RESULT: -7.954976723      3.478      6.968
REMARK  10 active torsions:
REMARK  status: ('A' for Active; 'I' for Inactive)
REMARK    1  A    between atoms: C4_4  and  C5_5 
REMARK    2  A    between atoms: C5_5  and  C6_6 
REMARK    3  A    between atoms: C6_6  and  C7_7 
REMARK    4  A    between atoms: C9_9  and  C10_10 
REMARK    5  A    between atoms: C14_14  and  O1_15 
REMARK    6  A    between atoms: C15_17  and  O2_18 
REMARK    7  A    between atoms: C22_26  and  O3_27 
REMARK    8  A    between atoms: C23_29  and  O4_30 
REMARK    9  A    between atoms: C24_32  and  O5_34 
REMARK   10  A    between atoms: C27_37  and  O6_38 
ROOT
HETATM    1  C10 UNL     1      28.937  -8.693 -13.778  1.00  0.00    -0.000 C 
HETATM    2  C11 UNL     1      28.329  -7.357 -13.681  1.00  0.00     0.018 C 
HETATM    3  C12 UNL     1      29.244  -6.328 -14.374  1.00  0.00    -0.005 C 
HETATM    4  C13 UNL     1      28.446  -5.111 -14.724  1.00  0.00     0.046 C 
HETATM    5  C14 UNL     1      29.034  -3.823 -14.282  1.00  0.00     0.148 C 
HETATM    6  C15 UNL     1      29.412  -3.939 -12.826  1.00  0.00     0.155 C 
HETATM    7  C16 UNL     1      30.476  -4.978 -12.630  1.00  0.00    -0.015 C 
HETATM    8  C17 UNL     1      30.342  -5.469 -11.181  1.00  0.00     0.018 C 
HETATM    9  C18 UNL     1      31.819  -4.227 -12.643  1.00  0.00     0.018 C 
HETATM   10  C19 UNL     1      30.499  -6.064 -13.623  1.00  0.00     0.007 C 
HETATM   11  C20 UNL     1      30.901  -7.405 -12.991  1.00  0.00     0.014 C 
HETATM   12  C21 UNL     1      30.433  -8.503 -13.914  1.00  0.00     0.022 C 
HETATM   13  C22 UNL     1      30.664  -8.084 -15.380  1.00  0.00     0.152 C 
HETATM   14  C23 UNL     1      29.674  -6.977 -15.681  1.00  0.00     0.156 C 
ENDROOT
BRANCH   1  15
HETATM   15  C9  UNL     1      28.533  -9.788 -12.904  1.00  0.00     0.025 C 
HETATM   16  C8  UNL     1      28.013  -9.588 -11.550  1.00  0.00     0.015 C 
HETATM   17  C7  UNL     1      28.215 -10.927 -10.795  1.00  0.00     0.015 C 
HETATM   18  C27 UNL     1      27.968 -12.097 -11.673  1.00  0.00     0.125 C 
HETATM   19  C26 UNL     1      26.961 -11.764 -12.752  1.00  0.00     0.070 C 
HETATM   20  C24 UNL     1      27.525 -10.704 -13.632  1.00  0.00     0.060 C 
HETATM   21  C25 UNL     1      28.182 -11.346 -14.833  1.00  0.00     0.046 C 
BRANCH  17  22
HETATM   22  C6  UNL     1      27.558 -10.917  -9.476  1.00  0.00     0.011 C 
BRANCH  22  23
HETATM   23  C5  UNL     1      26.290 -10.170  -9.347  1.00  0.00     0.028 C 
BRANCH  23  24
HETATM   24  C4  UNL     1      25.143 -11.116  -9.479  1.00  0.00    -0.025 C 
HETATM   25  C2  UNL     1      24.165 -10.952 -10.361  1.00  0.00    -0.091 C 
HETATM   26  C1  UNL     1      24.248  -9.752 -11.246  1.00  0.00     0.042 C 
HETATM   27  C3  UNL     1      23.044 -11.893 -10.475  1.00  0.00     0.042 C 
ENDBRANCH  23  24
ENDBRANCH  22  23
ENDBRANCH  17  22
BRANCH  18  28
HETATM   28  O6  UNL     1      27.609 -13.248 -10.973  1.00  0.00    -0.395 OA
ATOM     29  H6  UNL     1      27.664 -13.149 -10.030  1.00  0.00     0.210 HD
ENDBRANCH  18  28
BRANCH  20  30
HETATM   30  O5  UNL     1      26.469  -9.896 -14.046  1.00  0.00    -0.390 OA
ATOM     31  H5  UNL     1      25.672 -10.296 -13.721  1.00  0.00     0.210 HD
ENDBRANCH  20  30
ENDBRANCH   1  15
BRANCH  13  32
HETATM   32  O3  UNL     1      30.423  -9.218 -16.148  1.00  0.00    -0.393 OA
ATOM     33  H3  UNL     1      30.054  -8.908 -16.967  1.00  0.00     0.210 HD
ENDBRANCH  13  32
BRANCH  14  34
HETATM   34  O4  UNL     1      28.649  -7.326 -16.510  1.00  0.00    -0.392 OA
ATOM     35  H4  UNL     1      28.832  -7.221 -17.437  1.00  0.00     0.210 HD
ENDBRANCH  14  34
BRANCH   5  36
HETATM   36  O1  UNL     1      28.037  -2.839 -14.364  1.00  0.00    -0.393 OA
ATOM     37  H1  UNL     1      27.473  -2.926 -13.605  1.00  0.00     0.210 HD
ENDBRANCH   5  36
BRANCH   6  38
HETATM   38  O2  UNL     1      28.284  -4.156 -12.035  1.00  0.00    -0.392 OA
ATOM     39  H2  UNL     1      28.312  -5.017 -11.633  1.00  0.00     0.210 HD
ENDBRANCH   6  38
TORSDOF 10
ENDMDL
MODEL 5
REMARK VINA RESULT: -7.951822182      1.643      6.364
REMARK  10 active torsions:
REMARK  status: ('A' for Active; 'I' for Inactive)
REMARK    1  A    between atoms: C4_4  and  C5_5 
REMARK    2  A    between atoms: C5_5  and  C6_6 
REMARK    3  A    between atoms: C6_6  and  C7_7 
REMARK    4  A    between atoms: C9_9  and  C10_10 
REMARK    5  A    between atoms: C14_14  and  O1_15 
REMARK    6  A    between atoms: C15_17  and  O2_18 
REMARK    7  A    between atoms: C22_26  and  O3_27 
REMARK    8  A    between atoms: C23_29  and  O4_30 
REMARK    9  A    between atoms: C24_32  and  O5_34 
REMARK   10  A    between atoms: C27_37  and  O6_38 
ROOT
HETATM    1  C10 UNL     1      25.576 -11.386  -7.757  1.00  0.00    -0.000 C 
HETATM    2  C11 UNL     1      25.322 -12.739  -7.240  1.00  0.00     0.018 C 
HETATM    3  C12 UNL     1      25.620 -12.773  -5.728  1.00  0.00    -0.005 C 
HETATM    4  C13 UNL     1      24.914 -13.939  -5.109  1.00  0.00     0.046 C 
HETATM    5  C14 UNL     1      25.764 -14.816  -4.267  1.00  0.00     0.148 C 
HETATM    6  C15 UNL     1      27.012 -15.164  -5.038  1.00  0.00     0.155 C 
HETATM    7  C16 UNL     1      27.826 -13.937  -5.324  1.00  0.00    -0.015 C 
HETATM    8  C17 UNL     1      28.660 -14.250  -6.575  1.00  0.00     0.018 C 
HETATM    9  C18 UNL     1      28.870 -13.840  -4.198  1.00  0.00     0.018 C 
HETATM   10  C19 UNL     1      27.070 -12.678  -5.417  1.00  0.00     0.007 C 
HETATM   11  C20 UNL     1      27.665 -11.733  -6.472  1.00  0.00     0.014 C 
HETATM   12  C21 UNL     1      26.597 -10.736  -6.847  1.00  0.00     0.022 C 
HETATM   13  C22 UNL     1      25.815 -10.312  -5.586  1.00  0.00     0.152 C 
HETATM   14  C23 UNL     1      24.992 -11.511  -5.159  1.00  0.00     0.156 C 
ENDROOT
BRANCH   1  15
HETATM   15  C9  UNL     1      25.768 -11.128  -9.179  1.00  0.00     0.025 C 
HETATM   16  C8  UNL     1      26.475 -12.045 -10.075  1.00  0.00     0.015 C 
HETATM   17  C7  UNL     1      26.925 -11.208 -11.301  1.00  0.00     0.015 C 
HETATM   18  C27 UNL     1      25.904 -10.205 -11.689  1.00  0.00     0.125 C 
HETATM   19  C26 UNL     1      24.512 -10.679 -11.328  1.00  0.00     0.070 C 
HETATM   20  C24 UNL     1      24.412 -10.814  -9.850  1.00  0.00     0.060 C 
HETATM   21  C25 UNL     1      23.829  -9.547  -9.268  1.00  0.00     0.046 C 
BRANCH  17  22
HETATM   22  C6  UNL     1      27.483 -12.056 -12.369  1.00  0.00     0.011 C 
BRANCH  22  23
HETATM   23  C5  UNL     1      28.702 -12.834 -12.061  1.00  0.00     0.028 C 
BRANCH  23  24
HETATM   24  C4  UNL     1      29.860 -11.902 -11.917  1.00  0.00    -0.025 C 
HETATM   25  C2  UNL     1      30.537 -11.755 -10.786  1.00  0.00    -0.091 C 
HETATM   26  C1  UNL     1      30.092 -12.576  -9.622  1.00  0.00     0.042 C 
HETATM   27  C3  UNL     1      31.673 -10.833 -10.665  1.00  0.00     0.042 C 
ENDBRANCH  23  24
ENDBRANCH  22  23
ENDBRANCH  17  22
BRANCH  18  28
HETATM   28  O6  UNL     1      25.985  -9.821 -13.026  1.00  0.00    -0.395 OA
ATOM     29  H6  UNL     1      26.859  -9.899 -13.389  1.00  0.00     0.210 HD
ENDBRANCH  18  28
BRANCH  20  30
HETATM   30  O5  UNL     1      23.570 -11.889  -9.581  1.00  0.00    -0.390 OA
ATOM     31  H5  UNL     1      23.041 -12.026 -10.358  1.00  0.00     0.210 HD
ENDBRANCH  20  30
ENDBRANCH   1  15
BRANCH  13  32
HETATM   32  O3  UNL     1      25.014  -9.243  -5.970  1.00  0.00    -0.393 OA
ATOM     33  H3  UNL     1      24.370  -9.135  -5.280  1.00  0.00     0.210 HD
ENDBRANCH  13  32
BRANCH  14  34
HETATM   34  O4  UNL     1      23.649 -11.395  -5.369  1.00  0.00    -0.392 OA
ATOM     35  H4  UNL     1      23.148 -12.182  -5.190  1.00  0.00     0.210 HD
ENDBRANCH  14  34
BRANCH   5  36
HETATM   36  O1  UNL     1      25.071 -16.017  -4.053  1.00  0.00    -0.393 OA
ATOM     37  H1  UNL     1      25.697 -16.730  -4.095  1.00  0.00     0.210 HD
ENDBRANCH   5  36
BRANCH   6  38
HETATM   38  O2  UNL     1      26.701 -15.893  -6.186  1.00  0.00    -0.392 OA
ATOM     39  H2  UNL     1      27.181 -15.564  -6.937  1.00  0.00     0.210 HD
ENDBRANCH   6  38
TORSDOF 10
ENDMDL
