MODEL 1
REMARK VINA RESULT: -6.024543107      0.000      0.000
REMARK  4 active torsions:
REMARK  status: ('A' for Active; 'I' for Inactive)
REMARK    1  A    between atoms: C3_4  and  C4_5 
REMARK       I    between atoms: C4_5  and  N1_7 
REMARK    2  A    between atoms: C6_10  and  S1_11 
REMARK    3  A    between atoms: C8_14  and  O3_15 
REMARK    4  A    between atoms: C9_17  and  O4_18 
ROOT
HETATM    1  C4  UNL     1      22.635  31.563  45.664  1.00  0.00     0.332 C 
HETATM    2  O2  UNL     1      22.586  30.540  46.429  1.00  0.00    -0.253 OA
HETATM    3  N1  UNL     1      23.242  32.720  45.840  1.00  0.00    -0.289 NA
HETATM    4  C5  UNL     1      23.865  33.906  46.021  1.00  0.00     0.271 C 
HETATM    5  N2  UNL     1      24.388  34.934  46.141  1.00  0.00    -0.156 NA
ENDROOT
BRANCH   1   6
HETATM    6  C3  UNL     1      21.856  31.360  44.354  1.00  0.00     0.246 C 
HETATM    7  O1  UNL     1      22.152  30.102  43.910  1.00  0.00    -0.366 OA
HETATM    8  C2  UNL     1      21.296  29.560  43.004  1.00  0.00     0.150 C 
HETATM    9  C1  UNL     1      20.533  28.427  43.656  1.00  0.00     0.042 C 
HETATM   10  C9  UNL     1      20.392  30.557  42.341  1.00  0.00     0.176 C 
HETATM   11  C8  UNL     1      19.661  31.427  43.316  1.00  0.00     0.167 C 
HETATM   12  C6  UNL     1      20.391  31.442  44.643  1.00  0.00     0.133 C 
BRANCH  10  13
HETATM   13  O4  UNL     1      19.585  29.856  41.459  1.00  0.00    -0.390 OA
ATOM     14  H4  UNL     1      19.079  30.496  40.972  1.00  0.00     0.210 HD
ENDBRANCH  10  13
BRANCH  11  15
HETATM   15  O3  UNL     1      19.580  32.702  42.742  1.00  0.00    -0.392 OA
ATOM     16  H3  UNL     1      18.804  32.803  42.202  1.00  0.00     0.210 HD
ENDBRANCH  11  15
BRANCH  12  17
HETATM   17  S1  UNL     1      20.031  32.907  45.608  1.00  0.00    -0.040 SA
HETATM   18  C7  UNL     1      18.306  33.240  45.727  1.00  0.00     0.134 C 
HETATM   19  N3  UNL     1      17.149  33.436  45.814  1.00  0.00    -0.184 NA
ENDBRANCH  12  17
ENDBRANCH   1   6
TORSDOF 4
ENDMDL
MODEL 2
REMARK VINA RESULT: -5.844705674      3.748      6.123
REMARK  4 active torsions:
REMARK  status: ('A' for Active; 'I' for Inactive)
REMARK    1  A    between atoms: C3_4  and  C4_5 
REMARK       I    between atoms: C4_5  and  N1_7 
REMARK    2  A    between atoms: C6_10  and  S1_11 
REMARK    3  A    between atoms: C8_14  and  O3_15 
REMARK    4  A    between atoms: C9_17  and  O4_18 
ROOT
HETATM    1  C4  UNL     1      18.011  30.652  41.778  1.00  0.00     0.332 C 
HETATM    2  O2  UNL     1      18.487  30.913  40.621  1.00  0.00    -0.253 OA
HETATM    3  N1  UNL     1      17.435  29.554  42.225  1.00  0.00    -0.289 NA
HETATM    4  C5  UNL     1      16.844  28.427  42.684  1.00  0.00     0.271 C 
HETATM    5  N2  UNL     1      16.335  27.478  43.112  1.00  0.00    -0.156 NA
ENDROOT
BRANCH   1   6
HETATM    6  C3  UNL     1      18.161  31.827  42.759  1.00  0.00     0.246 C 
HETATM    7  O1  UNL     1      16.899  32.170  43.158  1.00  0.00    -0.366 OA
HETATM    8  C2  UNL     1      16.801  32.901  44.300  1.00  0.00     0.150 C 
HETATM    9  C1  UNL     1      16.190  32.045  45.388  1.00  0.00     0.042 C 
HETATM   10  C9  UNL     1      18.086  33.548  44.727  1.00  0.00     0.176 C 
HETATM   11  C8  UNL     1      19.230  32.587  44.803  1.00  0.00     0.167 C 
HETATM   12  C6  UNL     1      18.940  31.369  43.950  1.00  0.00     0.133 C 
BRANCH  10  13
HETATM   13  O4  UNL     1      17.825  34.245  45.895  1.00  0.00    -0.390 OA
ATOM     14  H4  UNL     1      17.951  35.168  45.706  1.00  0.00     0.210 HD
ENDBRANCH  10  13
BRANCH  11  15
HETATM   15  O3  UNL     1      20.370  33.276  44.371  1.00  0.00    -0.392 OA
ATOM     16  H3  UNL     1      20.152  34.094  43.940  1.00  0.00     0.210 HD
ENDBRANCH  11  15
BRANCH  12  17
HETATM   17  S1  UNL     1      20.430  30.526  43.427  1.00  0.00    -0.040 SA
HETATM   18  C7  UNL     1      20.496  28.853  43.974  1.00  0.00     0.134 C 
HETATM   19  N3  UNL     1      20.515  27.731  44.331  1.00  0.00    -0.184 NA
ENDBRANCH  12  17
ENDBRANCH   1   6
TORSDOF 4
ENDMDL
MODEL 3
REMARK VINA RESULT: -5.816003432      2.847      3.902
REMARK  4 active torsions:
REMARK  status: ('A' for Active; 'I' for Inactive)
REMARK    1  A    between atoms: C3_4  and  C4_5 
REMARK       I    between atoms: C4_5  and  N1_7 
REMARK    2  A    between atoms: C6_10  and  S1_11 
REMARK    3  A    between atoms: C8_14  and  O3_15 
REMARK    4  A    between atoms: C9_17  and  O4_18 
ROOT
HETATM    1  C4  UNL     1      18.727  33.346  44.791  1.00  0.00     0.332 C 
HETATM    2  O2  UNL     1      17.929  34.155  45.376  1.00  0.00    -0.253 OA
HETATM    3  N1  UNL     1      19.886  32.866  45.195  1.00  0.00    -0.289 NA
HETATM    4  C5  UNL     1      21.075  32.373  45.610  1.00  0.00     0.271 C 
HETATM    5  N2  UNL     1      22.096  31.928  45.933  1.00  0.00    -0.156 NA
ENDROOT
BRANCH   1   6
HETATM    6  C3  UNL     1      18.210  32.894  43.416  1.00  0.00     0.246 C 
HETATM    7  O1  UNL     1      19.282  32.909  42.567  1.00  0.00    -0.366 OA
HETATM    8  C2  UNL     1      19.161  32.185  41.423  1.00  0.00     0.150 C 
HETATM    9  C1  UNL     1      20.082  30.986  41.492  1.00  0.00     0.042 C 
HETATM   10  C9  UNL     1      17.749  31.809  41.081  1.00  0.00     0.176 C 
HETATM   11  C8  UNL     1      17.027  31.147  42.212  1.00  0.00     0.167 C 
HETATM   12  C6  UNL     1      17.696  31.495  43.526  1.00  0.00     0.133 C 
BRANCH  10  13
HETATM   13  O4  UNL     1      17.793  31.079  39.905  1.00  0.00    -0.390 OA
ATOM     14  H4  UNL     1      17.416  30.226  40.089  1.00  0.00     0.210 HD
ENDBRANCH  10  13
BRANCH  11  15
HETATM   15  O3  UNL     1      15.699  31.589  42.162  1.00  0.00    -0.392 OA
ATOM     16  H3  UNL     1      15.543  32.173  41.429  1.00  0.00     0.210 HD
ENDBRANCH  11  15
BRANCH  12  17
HETATM   17  S1  UNL     1      16.584  31.351  44.922  1.00  0.00    -0.040 SA
HETATM   18  C7  UNL     1      16.236  29.679  45.350  1.00  0.00     0.134 C 
HETATM   19  N3  UNL     1      16.030  28.556  45.635  1.00  0.00    -0.184 NA
ENDBRANCH  12  17
ENDBRANCH   1   6
TORSDOF 4
ENDMDL
MODEL 4
REMARK VINA RESULT: -5.786254000      2.993      5.170
REMARK  4 active torsions:
REMARK  status: ('A' for Active; 'I' for Inactive)
REMARK    1  A    between atoms: C3_4  and  C4_5 
REMARK       I    between atoms: C4_5  and  N1_7 
REMARK    2  A    between atoms: C6_10  and  S1_11 
REMARK    3  A    between atoms: C8_14  and  O3_15 
REMARK    4  A    between atoms: C9_17  and  O4_18 
ROOT
HETATM    1  C4  UNL     1      18.766  31.964  41.246  1.00  0.00     0.332 C 
HETATM    2  O2  UNL     1      19.575  32.939  41.412  1.00  0.00    -0.253 OA
HETATM    3  N1  UNL     1      17.697  31.877  40.479  1.00  0.00    -0.289 NA
HETATM    4  C5  UNL     1      16.601  31.787  39.692  1.00  0.00     0.271 C 
HETATM    5  N2  UNL     1      15.657  31.674  39.029  1.00  0.00    -0.156 NA
ENDROOT
BRANCH   1   6
HETATM    6  C3  UNL     1      19.141  30.732  42.086  1.00  0.00     0.246 C 
HETATM    7  O1  UNL     1      20.453  30.457  41.818  1.00  0.00    -0.366 OA
HETATM    8  C2  UNL     1      21.107  29.676  42.718  1.00  0.00     0.150 C 
HETATM    9  C1  UNL     1      22.128  30.515  43.456  1.00  0.00     0.042 C 
HETATM   10  C9  UNL     1      20.201  28.921  43.647  1.00  0.00     0.176 C 
HETATM   11  C8  UNL     1      19.195  29.795  44.326  1.00  0.00     0.167 C 
HETATM   12  C6  UNL     1      19.002  31.072  43.535  1.00  0.00     0.133 C 
BRANCH  10  13
HETATM   13  O4  UNL     1      21.010  28.184  44.497  1.00  0.00    -0.390 OA
ATOM     14  H4  UNL     1      21.858  28.612  44.519  1.00  0.00     0.210 HD
ENDBRANCH  10  13
BRANCH  11  15
HETATM   15  O3  UNL     1      18.012  29.052  44.427  1.00  0.00    -0.392 OA
ATOM     16  H3  UNL     1      17.962  28.367  43.771  1.00  0.00     0.210 HD
ENDBRANCH  11  15
BRANCH  12  17
HETATM   17  S1  UNL     1      17.412  31.837  43.842  1.00  0.00    -0.040 SA
HETATM   18  C7  UNL     1      17.519  33.230  44.913  1.00  0.00     0.134 C 
HETATM   19  N3  UNL     1      17.611  34.171  45.614  1.00  0.00    -0.184 NA
ENDBRANCH  12  17
ENDBRANCH   1   6
TORSDOF 4
ENDMDL
MODEL 5
REMARK VINA RESULT: -5.733230930      3.266      5.310
REMARK  4 active torsions:
REMARK  status: ('A' for Active; 'I' for Inactive)
REMARK    1  A    between atoms: C3_4  and  C4_5 
REMARK       I    between atoms: C4_5  and  N1_7 
REMARK    2  A    between atoms: C6_10  and  S1_11 
REMARK    3  A    between atoms: C8_14  and  O3_15 
REMARK    4  A    between atoms: C9_17  and  O4_18 
ROOT
HETATM    1  C4  UNL     1      19.666  32.742  44.525  1.00  0.00     0.332 C 
HETATM    2  O2  UNL     1      19.574  33.737  43.727  1.00  0.00    -0.253 OA
HETATM    3  N1  UNL     1      20.652  31.885  44.694  1.00  0.00    -0.289 NA
HETATM    4  C5  UNL     1      21.665  31.006  44.868  1.00  0.00     0.271 C 
HETATM    5  N2  UNL     1      22.513  30.235  45.046  1.00  0.00    -0.156 NA
ENDROOT
BRANCH   1   6
HETATM    6  C3  UNL     1      18.412  32.565  45.396  1.00  0.00     0.246 C 
HETATM    7  O1  UNL     1      18.264  33.720  46.113  1.00  0.00    -0.366 OA
HETATM    8  C2  UNL     1      17.035  33.953  46.644  1.00  0.00     0.150 C 
HETATM    9  C1  UNL     1      16.389  35.111  45.916  1.00  0.00     0.042 C 
HETATM   10  C9  UNL     1      16.151  32.741  46.700  1.00  0.00     0.176 C 
HETATM   11  C8  UNL     1      16.042  32.033  45.386  1.00  0.00     0.167 C 
HETATM   12  C6  UNL     1      17.223  32.390  44.507  1.00  0.00     0.133 C 
BRANCH  10  13
HETATM   13  O4  UNL     1      14.946  33.138  47.255  1.00  0.00    -0.390 OA
ATOM     14  H4  UNL     1      14.260  32.890  46.645  1.00  0.00     0.210 HD
ENDBRANCH  10  13
BRANCH  11  15
HETATM   15  O3  UNL     1      15.986  30.662  45.666  1.00  0.00    -0.392 OA
ATOM     16  H3  UNL     1      15.159  30.276  45.404  1.00  0.00     0.210 HD
ENDBRANCH  11  15
BRANCH  12  17
HETATM   17  S1  UNL     1      17.557  31.143  43.266  1.00  0.00    -0.040 SA
HETATM   18  C7  UNL     1      17.432  31.763  41.623  1.00  0.00     0.134 C 
HETATM   19  N3  UNL     1      17.363  32.200  40.532  1.00  0.00    -0.184 NA
ENDBRANCH  12  17
ENDBRANCH   1   6
TORSDOF 4
ENDMDL
