MODEL 1
REMARK VINA RESULT: -6.428372602      0.000      0.000
REMARK  6 active torsions:
REMARK  status: ('A' for Active; 'I' for Inactive)
REMARK    1  A    between atoms: O1_2  and  C2_3 
REMARK       I    between atoms: C2_3  and  N1_5 
REMARK    2  A    between atoms: N1_5  and  C3_7 
REMARK    3  A    between atoms: C6_11  and  O4_12 
REMARK    4  A    between atoms: O4_12  and  C7_13 
REMARK    5  A    between atoms: C8_16  and  O6_17 
REMARK    6  A    between atoms: C9_19  and  O7_20 
ROOT
HETATM    1  C3  UNL     1      22.677  30.706  44.603  1.00  0.00     0.146 C 
HETATM    2  C4  UNL     1      21.911  31.478  45.648  1.00  0.00     0.146 C 
HETATM    3  C5  UNL     1      21.058  32.558  45.007  1.00  0.00     0.042 C 
HETATM    4  O3  UNL     1      22.666  31.921  46.692  1.00  0.00    -0.351 OA
HETATM    5  C6  UNL     1      23.880  32.459  46.388  1.00  0.00     0.302 C 
HETATM    6  C8  UNL     1      24.768  31.612  45.540  1.00  0.00     0.204 C 
HETATM    7  C9  UNL     1      24.066  30.336  45.095  1.00  0.00     0.177 C 
ENDROOT
BRANCH   1   8
HETATM    8  N1  UNL     1      22.021  29.458  44.254  1.00  0.00    -0.327 N 
HETATM    9  C2  UNL     1      21.176  29.315  43.140  1.00  0.00     0.360 C 
HETATM   10  O2  UNL     1      20.949  30.286  42.381  1.00  0.00    -0.239 OA
ATOM     11  H1  UNL     1      22.182  28.645  44.847  1.00  0.00     0.165 HD
BRANCH   9  12
HETATM   12  O1  UNL     1      20.569  28.107  42.841  1.00  0.00    -0.309 OA
HETATM   13  C1  UNL     1      19.932  27.373  43.873  1.00  0.00     0.215 C 
ENDBRANCH   9  12
ENDBRANCH   1   8
BRANCH   7  14
HETATM   14  O7  UNL     1      24.032  29.414  46.118  1.00  0.00    -0.391 OA
ATOM     15  H7  UNL     1      24.296  28.548  45.833  1.00  0.00     0.210 HD
ENDBRANCH   7  14
BRANCH   6  16
HETATM   16  O6  UNL     1      25.210  32.251  44.386  1.00  0.00    -0.388 OA
ATOM     17  H6  UNL     1      25.628  31.666  43.764  1.00  0.00     0.210 HD
ENDBRANCH   6  16
BRANCH   5  18
HETATM   18  O4  UNL     1      23.691  33.760  45.867  1.00  0.00    -0.272 OA
BRANCH  18  19
HETATM   19  C7  UNL     1      24.260  34.897  46.397  1.00  0.00     0.375 C 
HETATM   20  N2  UNL     1      23.584  36.128  46.303  1.00  0.00    -0.032 NA
HETATM   21  O5  UNL     1      25.389  34.774  46.952  1.00  0.00    -0.242 OA
ENDBRANCH  18  19
ENDBRANCH   5  18
TORSDOF 6
ENDMDL
MODEL 2
REMARK VINA RESULT: -5.965346307      2.512      3.282
REMARK  6 active torsions:
REMARK  status: ('A' for Active; 'I' for Inactive)
REMARK    1  A    between atoms: O1_2  and  C2_3 
REMARK       I    between atoms: C2_3  and  N1_5 
REMARK    2  A    between atoms: N1_5  and  C3_7 
REMARK    3  A    between atoms: C6_11  and  O4_12 
REMARK    4  A    between atoms: O4_12  and  C7_13 
REMARK    5  A    between atoms: C8_16  and  O6_17 
REMARK    6  A    between atoms: C9_19  and  O7_20 
ROOT
HETATM    1  C3  UNL     1      21.303  31.429  44.458  1.00  0.00     0.146 C 
HETATM    2  C4  UNL     1      21.919  31.875  45.760  1.00  0.00     0.146 C 
HETATM    3  C5  UNL     1      22.189  33.370  45.747  1.00  0.00     0.042 C 
HETATM    4  O3  UNL     1      22.982  31.127  46.169  1.00  0.00    -0.351 OA
HETATM    5  C6  UNL     1      23.893  30.782  45.217  1.00  0.00     0.302 C 
HETATM    6  C8  UNL     1      23.338  30.116  44.002  1.00  0.00     0.204 C 
HETATM    7  C9  UNL     1      21.816  30.062  44.041  1.00  0.00     0.177 C 
ENDROOT
BRANCH   1   8
HETATM    8  N1  UNL     1      19.858  31.314  44.547  1.00  0.00    -0.327 N 
HETATM    9  C2  UNL     1      18.976  32.352  44.200  1.00  0.00     0.360 C 
HETATM   10  O2  UNL     1      19.415  33.451  43.787  1.00  0.00    -0.239 OA
ATOM     11  H1  UNL     1      19.462  30.434  44.879  1.00  0.00     0.165 HD
BRANCH   9  12
HETATM   12  O1  UNL     1      17.603  32.202  44.300  1.00  0.00    -0.309 OA
HETATM   13  C1  UNL     1      16.834  33.219  44.919  1.00  0.00     0.215 C 
ENDBRANCH   9  12
ENDBRANCH   1   8
BRANCH   7  14
HETATM   14  O7  UNL     1      21.384  29.060  44.883  1.00  0.00    -0.391 OA
ATOM     15  H7  UNL     1      20.947  29.401  45.655  1.00  0.00     0.210 HD
ENDBRANCH   7  14
BRANCH   6  16
HETATM   16  O6  UNL     1      23.686  30.749  42.813  1.00  0.00    -0.388 OA
ATOM     17  H6  UNL     1      24.452  30.374  42.394  1.00  0.00     0.210 HD
ENDBRANCH   6  16
BRANCH   5  18
HETATM   18  O4  UNL     1      24.696  31.906  44.916  1.00  0.00    -0.272 OA
BRANCH  18  19
HETATM   19  C7  UNL     1      25.733  32.352  45.705  1.00  0.00     0.375 C 
HETATM   20  N2  UNL     1      25.803  31.965  47.056  1.00  0.00    -0.032 NA
HETATM   21  O5  UNL     1      26.590  33.106  45.161  1.00  0.00    -0.242 OA
ENDBRANCH  18  19
ENDBRANCH   5  18
TORSDOF 6
ENDMDL
MODEL 3
REMARK VINA RESULT: -5.722981918      4.199      6.159
REMARK  6 active torsions:
REMARK  status: ('A' for Active; 'I' for Inactive)
REMARK    1  A    between atoms: O1_2  and  C2_3 
REMARK       I    between atoms: C2_3  and  N1_5 
REMARK    2  A    between atoms: N1_5  and  C3_7 
REMARK    3  A    between atoms: C6_11  and  O4_12 
REMARK    4  A    between atoms: O4_12  and  C7_13 
REMARK    5  A    between atoms: C8_16  and  O6_17 
REMARK    6  A    between atoms: C9_19  and  O7_20 
ROOT
HETATM    1  C3  UNL     1      18.392  30.551  41.332  1.00  0.00     0.146 C 
HETATM    2  C4  UNL     1      19.655  31.345  41.553  1.00  0.00     0.146 C 
HETATM    3  C5  UNL     1      20.708  30.502  42.253  1.00  0.00     0.042 C 
HETATM    4  O3  UNL     1      19.464  32.569  42.119  1.00  0.00    -0.351 OA
HETATM    5  C6  UNL     1      18.583  32.636  43.156  1.00  0.00     0.302 C 
HETATM    6  C8  UNL     1      17.230  32.065  42.890  1.00  0.00     0.204 C 
HETATM    7  C9  UNL     1      17.156  31.415  41.515  1.00  0.00     0.177 C 
ENDROOT
BRANCH   1   8
HETATM    8  N1  UNL     1      18.315  30.008  39.987  1.00  0.00    -0.327 N 
HETATM    9  C2  UNL     1      17.754  28.753  39.692  1.00  0.00     0.360 C 
HETATM   10  O2  UNL     1      17.284  28.033  40.603  1.00  0.00    -0.239 OA
ATOM     11  H1  UNL     1      18.687  30.565  39.218  1.00  0.00     0.165 HD
BRANCH   9  12
HETATM   12  O1  UNL     1      17.700  28.270  38.395  1.00  0.00    -0.309 OA
HETATM   13  C1  UNL     1      16.456  28.236  37.715  1.00  0.00     0.215 C 
ENDBRANCH   9  12
ENDBRANCH   1   8
BRANCH   7  14
HETATM   14  O7  UNL     1      17.033  32.370  40.529  1.00  0.00    -0.391 OA
ATOM     15  H7  UNL     1      16.450  32.096  39.832  1.00  0.00     0.210 HD
ENDBRANCH   7  14
BRANCH   6  16
HETATM   16  O6  UNL     1      16.844  31.097  43.812  1.00  0.00    -0.388 OA
ATOM     17  H6  UNL     1      17.462  30.984  44.525  1.00  0.00     0.210 HD
ENDBRANCH   6  16
BRANCH   5  18
HETATM   18  O4  UNL     1      19.192  32.104  44.315  1.00  0.00    -0.272 OA
BRANCH  18  19
HETATM   19  C7  UNL     1      19.898  32.851  45.233  1.00  0.00     0.375 C 
HETATM   20  N2  UNL     1      21.289  33.001  45.092  1.00  0.00    -0.032 NA
HETATM   21  O5  UNL     1      19.241  33.375  46.178  1.00  0.00    -0.242 OA
ENDBRANCH  18  19
ENDBRANCH   5  18
TORSDOF 6
ENDMDL
MODEL 4
REMARK VINA RESULT: -5.648045730      2.064      2.294
REMARK  6 active torsions:
REMARK  status: ('A' for Active; 'I' for Inactive)
REMARK    1  A    between atoms: O1_2  and  C2_3 
REMARK       I    between atoms: C2_3  and  N1_5 
REMARK    2  A    between atoms: N1_5  and  C3_7 
REMARK    3  A    between atoms: C6_11  and  O4_12 
REMARK    4  A    between atoms: O4_12  and  C7_13 
REMARK    5  A    between atoms: C8_16  and  O6_17 
REMARK    6  A    between atoms: C9_19  and  O7_20 
ROOT
HETATM    1  C3  UNL     1      21.029  30.854  43.619  1.00  0.00     0.146 C 
HETATM    2  C4  UNL     1      20.319  31.701  44.645  1.00  0.00     0.146 C 
HETATM    3  C5  UNL     1      19.906  33.037  44.051  1.00  0.00     0.042 C 
HETATM    4  O3  UNL     1      20.965  31.806  45.839  1.00  0.00    -0.351 OA
HETATM    5  C6  UNL     1      22.311  32.008  45.795  1.00  0.00     0.302 C 
HETATM    6  C8  UNL     1      23.083  31.034  44.968  1.00  0.00     0.204 C 
HETATM    7  C9  UNL     1      22.163  30.060  44.245  1.00  0.00     0.177 C 
ENDROOT
BRANCH   1   8
HETATM    8  N1  UNL     1      20.143  29.884  43.002  1.00  0.00    -0.327 N 
HETATM    9  C2  UNL     1      19.462  30.117  41.794  1.00  0.00     0.360 C 
HETATM   10  O2  UNL     1      19.597  31.204  41.185  1.00  0.00    -0.239 OA
ATOM     11  H1  UNL     1      20.008  28.986  43.467  1.00  0.00     0.165 HD
BRANCH   9  12
HETATM   12  O1  UNL     1      18.625  29.165  41.237  1.00  0.00    -0.309 OA
HETATM   13  C1  UNL     1      17.916  29.470  40.048  1.00  0.00     0.215 C 
ENDBRANCH   9  12
ENDBRANCH   1   8
BRANCH   7  14
HETATM   14  O7  UNL     1      21.707  29.087  45.108  1.00  0.00    -0.391 OA
ATOM     15  H7  UNL     1      22.220  29.042  45.906  1.00  0.00     0.210 HD
ENDBRANCH   7  14
BRANCH   6  16
HETATM   16  O6  UNL     1      23.875  31.636  43.995  1.00  0.00    -0.388 OA
ATOM     17  H6  UNL     1      24.152  31.040  43.309  1.00  0.00     0.210 HD
ENDBRANCH   6  16
BRANCH   5  18
HETATM   18  O4  UNL     1      22.564  33.355  45.447  1.00  0.00    -0.272 OA
BRANCH  18  19
HETATM   19  C7  UNL     1      23.503  34.152  46.064  1.00  0.00     0.375 C 
HETATM   20  N2  UNL     1      24.687  33.581  46.566  1.00  0.00    -0.032 NA
HETATM   21  O5  UNL     1      23.246  35.387  46.151  1.00  0.00    -0.242 OA
ENDBRANCH  18  19
ENDBRANCH   5  18
TORSDOF 6
ENDMDL
MODEL 5
REMARK VINA RESULT: -5.621850963      4.400      7.550
REMARK  6 active torsions:
REMARK  status: ('A' for Active; 'I' for Inactive)
REMARK    1  A    between atoms: O1_2  and  C2_3 
REMARK       I    between atoms: C2_3  and  N1_5 
REMARK    2  A    between atoms: N1_5  and  C3_7 
REMARK    3  A    between atoms: C6_11  and  O4_12 
REMARK    4  A    between atoms: O4_12  and  C7_13 
REMARK    5  A    between atoms: C8_16  and  O6_17 
REMARK    6  A    between atoms: C9_19  and  O7_20 
ROOT
HETATM    1  C3  UNL     1      19.420  30.928  42.070  1.00  0.00     0.146 C 
HETATM    2  C4  UNL     1      18.455  31.277  43.175  1.00  0.00     0.146 C 
HETATM    3  C5  UNL     1      18.023  30.031  43.930  1.00  0.00     0.042 C 
HETATM    4  O3  UNL     1      17.420  32.075  42.793  1.00  0.00    -0.351 OA
HETATM    5  C6  UNL     1      16.817  31.775  41.609  1.00  0.00     0.302 C 
HETATM    6  C8  UNL     1      17.727  31.654  40.433  1.00  0.00     0.204 C 
HETATM    7  C9  UNL     1      19.188  31.789  40.840  1.00  0.00     0.177 C 
ENDROOT
BRANCH   1   8
HETATM    8  N1  UNL     1      20.802  31.140  42.463  1.00  0.00    -0.327 N 
HETATM    9  C2  UNL     1      21.650  30.105  42.894  1.00  0.00     0.360 C 
HETATM   10  O2  UNL     1      21.236  28.924  42.959  1.00  0.00    -0.239 OA
ATOM     11  H1  UNL     1      21.177  32.088  42.424  1.00  0.00     0.165 HD
BRANCH   9  12
HETATM   12  O1  UNL     1      22.963  30.349  43.261  1.00  0.00    -0.309 OA
HETATM   13  C1  UNL     1      23.267  30.637  44.615  1.00  0.00     0.215 C 
ENDBRANCH   9  12
ENDBRANCH   1   8
BRANCH   7  14
HETATM   14  O7  UNL     1      19.515  33.111  41.056  1.00  0.00    -0.391 OA
ATOM     15  H7  UNL     1      20.132  33.440  40.413  1.00  0.00     0.210 HD
ENDBRANCH   7  14
BRANCH   6  16
HETATM   16  O6  UNL     1      17.609  30.441  39.761  1.00  0.00    -0.388 OA
ATOM     17  H6  UNL     1      17.047  29.815  40.203  1.00  0.00     0.210 HD
ENDBRANCH   6  16
BRANCH   5  18
HETATM   18  O4  UNL     1      15.986  30.645  41.787  1.00  0.00    -0.272 OA
BRANCH  18  19
HETATM   19  C7  UNL     1      14.694  30.550  41.319  1.00  0.00     0.375 C 
HETATM   20  N2  UNL     1      13.615  30.632  42.217  1.00  0.00    -0.032 NA
HETATM   21  O5  UNL     1      14.542  30.390  40.074  1.00  0.00    -0.242 OA
ENDBRANCH  18  19
ENDBRANCH   5  18
TORSDOF 6
ENDMDL
