MODEL 1
REMARK VINA RESULT: -7.058447120      0.000      0.000
REMARK  6 active torsions:
REMARK  status: ('A' for Active; 'I' for Inactive)
REMARK    1  A    between atoms: C4_6  and  O3_7 
REMARK    2  A    between atoms: C5_9  and  O4_10 
REMARK    3  A    between atoms: C6_12  and  O5_13 
REMARK    4  A    between atoms: O5_13  and  C7_14 
REMARK    5  A    between atoms: C10_17  and  O6_18 
REMARK    6  A    between atoms: C11_20  and  O7_21 
ROOT
HETATM    1  C1  UNL     1      22.412  30.285  42.728  1.00  0.00     0.052 C 
HETATM    2  C2  UNL     1      21.181  30.462  43.566  1.00  0.00     0.117 C 
HETATM    3  C3  UNL     1      20.851  29.140  44.216  1.00  0.00     0.052 C 
HETATM    4  O1  UNL     1      20.113  30.889  42.788  1.00  0.00    -0.225 OA
HETATM    5  O2  UNL     1      19.016  30.711  43.459  1.00  0.00    -0.205 OA
HETATM    6  C4  UNL     1      18.871  31.544  44.539  1.00  0.00     0.325 C 
HETATM    7  C5  UNL     1      20.120  32.237  44.971  1.00  0.00     0.208 C 
HETATM    8  C6  UNL     1      21.382  31.510  44.656  1.00  0.00     0.192 C 
ENDROOT
BRANCH   8   9
HETATM    9  O5  UNL     1      21.935  30.848  45.739  1.00  0.00    -0.372 OA
BRANCH   9  10
HETATM   10  C7  UNL     1      22.836  31.572  46.456  1.00  0.00     0.153 C 
HETATM   11  C8  UNL     1      23.367  32.794  45.752  1.00  0.00     0.037 C 
HETATM   12  C9  UNL     1      24.656  33.033  46.551  1.00  0.00     0.037 C 
HETATM   13  C10 UNL     1      25.259  31.651  46.502  1.00  0.00     0.149 C 
HETATM   14  C11 UNL     1      24.080  30.732  46.663  1.00  0.00     0.175 C 
BRANCH  13  15
HETATM   15  O6  UNL     1      26.199  31.450  47.507  1.00  0.00    -0.393 OA
ATOM     16  H6  UNL     1      25.806  31.449  48.372  1.00  0.00     0.210 HD
ENDBRANCH  13  15
BRANCH  14  17
HETATM   17  O7  UNL     1      24.137  29.680  45.732  1.00  0.00    -0.390 OA
ATOM     18  H7  UNL     1      24.751  29.877  45.034  1.00  0.00     0.210 HD
ENDBRANCH  14  17
ENDBRANCH   9  10
ENDBRANCH   8   9
BRANCH   7  19
HETATM   19  O4  UNL     1      20.178  33.480  44.298  1.00  0.00    -0.388 OA
ATOM     20  H4  UNL     1      20.195  34.165  44.955  1.00  0.00     0.210 HD
ENDBRANCH   7  19
BRANCH   6  21
HETATM   21  O3  UNL     1      17.930  32.526  44.183  1.00  0.00    -0.366 OA
ATOM     22  H3  UNL     1      18.413  33.260  43.821  1.00  0.00     0.212 HD
ENDBRANCH   6  21
TORSDOF 6
ENDMDL
MODEL 2
REMARK VINA RESULT: -6.392926033      1.841      2.795
REMARK  6 active torsions:
REMARK  status: ('A' for Active; 'I' for Inactive)
REMARK    1  A    between atoms: C4_6  and  O3_7 
REMARK    2  A    between atoms: C5_9  and  O4_10 
REMARK    3  A    between atoms: C6_12  and  O5_13 
REMARK    4  A    between atoms: O5_13  and  C7_14 
REMARK    5  A    between atoms: C10_17  and  O6_18 
REMARK    6  A    between atoms: C11_20  and  O7_21 
ROOT
HETATM    1  C1  UNL     1      19.136  32.767  40.902  1.00  0.00     0.052 C 
HETATM    2  C2  UNL     1      18.707  32.002  42.118  1.00  0.00     0.117 C 
HETATM    3  C3  UNL     1      18.930  30.530  41.861  1.00  0.00     0.052 C 
HETATM    4  O1  UNL     1      17.368  32.237  42.401  1.00  0.00    -0.225 OA
HETATM    5  O2  UNL     1      16.954  31.327  43.229  1.00  0.00    -0.205 OA
HETATM    6  C4  UNL     1      17.484  31.425  44.490  1.00  0.00     0.325 C 
HETATM    7  C5  UNL     1      18.687  32.300  44.601  1.00  0.00     0.208 C 
HETATM    8  C6  UNL     1      19.499  32.410  43.356  1.00  0.00     0.192 C 
ENDROOT
BRANCH   8   9
HETATM    9  O5  UNL     1      20.645  31.633  43.363  1.00  0.00    -0.372 OA
BRANCH   9  10
HETATM   10  C7  UNL     1      21.094  31.282  44.598  1.00  0.00     0.153 C 
HETATM   11  C8  UNL     1      22.028  32.277  45.237  1.00  0.00     0.037 C 
HETATM   12  C9  UNL     1      22.715  31.380  46.277  1.00  0.00     0.037 C 
HETATM   13  C10 UNL     1      23.120  30.219  45.401  1.00  0.00     0.149 C 
HETATM   14  C11 UNL     1      21.955  30.042  44.468  1.00  0.00     0.175 C 
BRANCH  13  15
HETATM   15  O6  UNL     1      23.362  29.064  46.137  1.00  0.00    -0.393 OA
ATOM     16  H6  UNL     1      22.569  28.562  46.289  1.00  0.00     0.210 HD
ENDBRANCH  13  15
BRANCH  14  17
HETATM   17  O7  UNL     1      22.397  29.874  43.144  1.00  0.00    -0.390 OA
ATOM     18  H7  UNL     1      22.039  30.548  42.579  1.00  0.00     0.210 HD
ENDBRANCH  14  17
ENDBRANCH   9  10
ENDBRANCH   8   9
BRANCH   7  19
HETATM   19  O4  UNL     1      18.244  33.604  44.923  1.00  0.00    -0.388 OA
ATOM     20  H4  UNL     1      18.936  34.211  44.691  1.00  0.00     0.210 HD
ENDBRANCH   7  19
BRANCH   6  21
HETATM   21  O3  UNL     1      16.482  31.956  45.322  1.00  0.00    -0.366 OA
ATOM     22  H3  UNL     1      16.062  32.660  44.841  1.00  0.00     0.212 HD
ENDBRANCH   6  21
TORSDOF 6
ENDMDL
MODEL 3
REMARK VINA RESULT: -6.143851960      1.852      3.281
REMARK  6 active torsions:
REMARK  status: ('A' for Active; 'I' for Inactive)
REMARK    1  A    between atoms: C4_6  and  O3_7 
REMARK    2  A    between atoms: C5_9  and  O4_10 
REMARK    3  A    between atoms: C6_12  and  O5_13 
REMARK    4  A    between atoms: O5_13  and  C7_14 
REMARK    5  A    between atoms: C10_17  and  O6_18 
REMARK    6  A    between atoms: C11_20  and  O7_21 
ROOT
HETATM    1  C1  UNL     1      18.191  33.325  44.588  1.00  0.00     0.052 C 
HETATM    2  C2  UNL     1      18.326  32.215  43.589  1.00  0.00     0.117 C 
HETATM    3  C3  UNL     1      19.035  32.754  42.368  1.00  0.00     0.052 C 
HETATM    4  O1  UNL     1      17.080  31.717  43.233  1.00  0.00    -0.225 OA
HETATM    5  O2  UNL     1      17.209  31.013  42.151  1.00  0.00    -0.205 OA
HETATM    6  C4  UNL     1      17.896  29.838  42.318  1.00  0.00     0.325 C 
HETATM    7  C5  UNL     1      18.676  29.739  43.586  1.00  0.00     0.208 C 
HETATM    8  C6  UNL     1      19.129  31.044  44.146  1.00  0.00     0.192 C 
ENDROOT
BRANCH   8   9
HETATM    9  O5  UNL     1      20.462  31.329  43.900  1.00  0.00    -0.372 OA
BRANCH   9  10
HETATM   10  C7  UNL     1      21.297  31.122  44.953  1.00  0.00     0.153 C 
HETATM   11  C8  UNL     1      22.094  32.330  45.374  1.00  0.00     0.037 C 
HETATM   12  C9  UNL     1      23.233  31.651  46.148  1.00  0.00     0.037 C 
HETATM   13  C10 UNL     1      23.661  30.615  45.138  1.00  0.00     0.149 C 
HETATM   14  C11 UNL     1      22.369  30.135  44.537  1.00  0.00     0.175 C 
BRANCH  13  15
HETATM   15  O6  UNL     1      24.367  29.570  45.723  1.00  0.00    -0.393 OA
ATOM     16  H6  UNL     1      23.937  28.732  45.600  1.00  0.00     0.210 HD
ENDBRANCH  13  15
BRANCH  14  17
HETATM   17  O7  UNL     1      22.468  30.061  43.137  1.00  0.00    -0.390 OA
ATOM     18  H7  UNL     1      22.515  30.929  42.754  1.00  0.00     0.210 HD
ENDBRANCH  14  17
ENDBRANCH   9  10
ENDBRANCH   8   9
BRANCH   7  19
HETATM   19  O4  UNL     1      17.845  29.137  44.559  1.00  0.00    -0.388 OA
ATOM     20  H4  UNL     1      17.896  29.661  45.349  1.00  0.00     0.210 HD
ENDBRANCH   7  19
BRANCH   6  21
HETATM   21  O3  UNL     1      16.949  28.798  42.309  1.00  0.00    -0.366 OA
ATOM     22  H3  UNL     1      17.298  28.096  42.846  1.00  0.00     0.212 HD
ENDBRANCH   6  21
TORSDOF 6
ENDMDL
MODEL 4
REMARK VINA RESULT: -6.062469353      1.975      3.348
REMARK  6 active torsions:
REMARK  status: ('A' for Active; 'I' for Inactive)
REMARK    1  A    between atoms: C4_6  and  O3_7 
REMARK    2  A    between atoms: C5_9  and  O4_10 
REMARK    3  A    between atoms: C6_12  and  O5_13 
REMARK    4  A    between atoms: O5_13  and  C7_14 
REMARK    5  A    between atoms: C10_17  and  O6_18 
REMARK    6  A    between atoms: C11_20  and  O7_21 
ROOT
HETATM    1  C1  UNL     1      18.051  32.206  44.725  1.00  0.00     0.052 C 
HETATM    2  C2  UNL     1      18.560  31.853  43.359  1.00  0.00     0.117 C 
HETATM    3  C3  UNL     1      19.155  33.093  42.735  1.00  0.00     0.052 C 
HETATM    4  O1  UNL     1      17.534  31.366  42.561  1.00  0.00    -0.225 OA
HETATM    5  O2  UNL     1      17.925  31.388  41.324  1.00  0.00    -0.205 OA
HETATM    6  C4  UNL     1      18.910  30.482  41.024  1.00  0.00     0.325 C 
HETATM    7  C5  UNL     1      19.607  29.897  42.206  1.00  0.00     0.208 C 
HETATM    8  C6  UNL     1      19.631  30.769  43.415  1.00  0.00     0.192 C 
ENDROOT
BRANCH   8   9
HETATM    9  O5  UNL     1      20.837  31.418  43.616  1.00  0.00    -0.372 OA
BRANCH   9  10
HETATM   10  C7  UNL     1      21.475  31.099  44.774  1.00  0.00     0.153 C 
HETATM   11  C8  UNL     1      22.194  32.246  45.436  1.00  0.00     0.037 C 
HETATM   12  C9  UNL     1      23.176  31.476  46.330  1.00  0.00     0.037 C 
HETATM   13  C10 UNL     1      23.768  30.526  45.318  1.00  0.00     0.149 C 
HETATM   14  C11 UNL     1      22.598  30.131  44.460  1.00  0.00     0.175 C 
BRANCH  13  15
HETATM   15  O6  UNL     1      24.355  29.417  45.917  1.00  0.00    -0.393 OA
ATOM     16  H6  UNL     1      24.210  28.621  45.420  1.00  0.00     0.210 HD
ENDBRANCH  13  15
BRANCH  14  17
HETATM   17  O7  UNL     1      22.938  30.181  43.098  1.00  0.00    -0.390 OA
ATOM     18  H7  UNL     1      22.702  31.020  42.720  1.00  0.00     0.210 HD
ENDBRANCH  14  17
ENDBRANCH   9  10
ENDBRANCH   8   9
BRANCH   7  19
HETATM   19  O4  UNL     1      18.928  28.710  42.564  1.00  0.00    -0.388 OA
ATOM     20  H4  UNL     1      19.505  28.203  43.124  1.00  0.00     0.210 HD
ENDBRANCH   7  19
BRANCH   6  21
HETATM   21  O3  UNL     1      18.305  29.430  40.313  1.00  0.00    -0.366 OA
ATOM     22  H3  UNL     1      18.295  28.673  40.886  1.00  0.00     0.212 HD
ENDBRANCH   6  21
TORSDOF 6
ENDMDL
MODEL 5
REMARK VINA RESULT: -6.031305102      1.153      1.698
REMARK  6 active torsions:
REMARK  status: ('A' for Active; 'I' for Inactive)
REMARK    1  A    between atoms: C4_6  and  O3_7 
REMARK    2  A    between atoms: C5_9  and  O4_10 
REMARK    3  A    between atoms: C6_12  and  O5_13 
REMARK    4  A    between atoms: O5_13  and  C7_14 
REMARK    5  A    between atoms: C10_17  and  O6_18 
REMARK    6  A    between atoms: C11_20  and  O7_21 
ROOT
HETATM    1  C1  UNL     1      22.185  30.255  42.826  1.00  0.00     0.052 C 
HETATM    2  C2  UNL     1      21.005  30.515  43.714  1.00  0.00     0.117 C 
HETATM    3  C3  UNL     1      20.895  29.384  44.709  1.00  0.00     0.052 C 
HETATM    4  O1  UNL     1      19.837  30.605  42.968  1.00  0.00    -0.225 OA
HETATM    5  O2  UNL     1      18.823  30.497  43.770  1.00  0.00    -0.205 OA
HETATM    6  C4  UNL     1      18.650  31.564  44.613  1.00  0.00     0.325 C 
HETATM    7  C5  UNL     1      19.826  32.476  44.724  1.00  0.00     0.208 C 
HETATM    8  C6  UNL     1      21.146  31.828  44.476  1.00  0.00     0.192 C 
ENDROOT
BRANCH   8   9
HETATM    9  O5  UNL     1      21.856  31.539  45.629  1.00  0.00    -0.372 OA
BRANCH   9  10
HETATM   10  C7  UNL     1      23.201  31.717  45.536  1.00  0.00     0.153 C 
HETATM   11  C8  UNL     1      23.991  31.189  46.705  1.00  0.00     0.037 C 
HETATM   12  C9  UNL     1      25.292  31.988  46.542  1.00  0.00     0.037 C 
HETATM   13  C10 UNL     1      24.732  33.383  46.409  1.00  0.00     0.149 C 
HETATM   14  C11 UNL     1      23.498  33.203  45.569  1.00  0.00     0.175 C 
BRANCH  13  15
HETATM   15  O6  UNL     1      25.631  34.256  45.809  1.00  0.00    -0.393 OA
ATOM     16  H6  UNL     1      25.766  34.059  44.889  1.00  0.00     0.210 HD
ENDBRANCH  13  15
BRANCH  14  17
HETATM   17  O7  UNL     1      22.417  33.919  46.111  1.00  0.00    -0.390 OA
ATOM     18  H7  UNL     1      21.773  34.121  45.441  1.00  0.00     0.210 HD
ENDBRANCH  14  17
ENDBRANCH   9  10
ENDBRANCH   8   9
BRANCH   7  19
HETATM   19  O4  UNL     1      19.676  33.495  43.756  1.00  0.00    -0.388 OA
ATOM     20  H4  UNL     1      18.914  34.011  43.994  1.00  0.00     0.210 HD
ENDBRANCH   7  19
BRANCH   6  21
HETATM   21  O3  UNL     1      17.567  32.313  44.118  1.00  0.00    -0.366 OA
ATOM     22  H3  UNL     1      16.874  32.266  44.766  1.00  0.00     0.212 HD
ENDBRANCH   6  21
TORSDOF 6
ENDMDL
