MODEL 1
REMARK VINA RESULT: -6.002087807      0.000      0.000
REMARK  7 active torsions:
REMARK  status: ('A' for Active; 'I' for Inactive)
REMARK    1  A    between atoms: O1_2  and  C2_3 
REMARK    2  A    between atoms: C3_4  and  O2_6 
REMARK    3  A    between atoms: N1_11  and  C7_13 
REMARK    4  A    between atoms: N2_15  and  O4_17 
REMARK    5  A    between atoms: C9_19  and  O5_20 
REMARK    6  A    between atoms: C9_19  and  C10_22 
REMARK    7  A    between atoms: C10_22  and  O6_23 
ROOT
HETATM    1  C2  UNL     1      17.843  30.894  42.212  1.00  0.00     0.201 C 
HETATM    2  C3  UNL     1      18.006  31.451  40.852  1.00  0.00     0.105 C 
HETATM    3  C4  UNL     1      16.758  32.223  40.400  1.00  0.00     0.051 C 
HETATM    4  C5  UNL     1      19.174  32.332  40.605  1.00  0.00     0.217 C 
HETATM    5  O3  UNL     1      20.330  31.993  41.347  1.00  0.00    -0.333 OA
HETATM    6  C6  UNL     1      20.253  31.335  42.575  1.00  0.00     0.159 C 
HETATM    7  N1  UNL     1      21.290  30.856  43.077  1.00  0.00    -0.326 N 
ATOM      8  H1  UNL     1      22.123  31.005  42.507  1.00  0.00     0.169 HD
HETATM    9  C9  UNL     1      18.923  31.256  43.200  1.00  0.00     0.172 C 
ENDROOT
BRANCH   7  10
HETATM   10  C7  UNL     1      21.543  30.163  44.249  1.00  0.00     0.099 C 
HETATM   11  C8  UNL     1      22.063  30.914  45.433  1.00  0.00     0.091 C 
HETATM   12  N2  UNL     1      21.375  28.895  44.427  1.00  0.00    -0.257 N 
ATOM     13  H2  UNL     1      21.602  28.516  45.346  1.00  0.00     0.195 HD
BRANCH  12  14
HETATM   14  O4  UNL     1      20.921  28.030  43.492  1.00  0.00    -0.288 OA
ATOM     15  H4  UNL     1      20.051  27.649  43.474  1.00  0.00     0.244 HD
ENDBRANCH  12  14
ENDBRANCH   7  10
BRANCH   9  16
HETATM   16  O5  UNL     1      18.888  30.303  44.214  1.00  0.00    -0.377 OA
ATOM     17  H5  UNL     1      19.426  30.630  44.925  1.00  0.00     0.211 HD
ENDBRANCH   9  16
BRANCH   9  18
HETATM   18  C10 UNL     1      18.655  32.594  43.863  1.00  0.00     0.213 C 
BRANCH  18  19
HETATM   19  O6  UNL     1      19.757  33.410  43.942  1.00  0.00    -0.397 OA
ATOM     20  H6  UNL     1      19.554  34.314  44.154  1.00  0.00     0.209 HD
ENDBRANCH  18  19
ENDBRANCH   9  18
BRANCH   1  21
HETATM   21  O1  UNL     1      16.623  31.302  42.748  1.00  0.00    -0.384 OA
HETATM   22  C1  UNL     1      15.788  30.237  43.045  1.00  0.00     0.202 C 
ENDBRANCH   1  21
BRANCH   2  23
HETATM   23  O2  UNL     1      18.102  30.373  39.940  1.00  0.00    -0.385 OA
ATOM     24  H2  UNL     1      17.357  30.413  39.352  1.00  0.00     0.210 HD
ENDBRANCH   2  23
TORSDOF 7
ENDMDL
MODEL 2
REMARK VINA RESULT: -5.412747057      1.991      4.925
REMARK  7 active torsions:
REMARK  status: ('A' for Active; 'I' for Inactive)
REMARK    1  A    between atoms: O1_2  and  C2_3 
REMARK    2  A    between atoms: C3_4  and  O2_6 
REMARK    3  A    between atoms: N1_11  and  C7_13 
REMARK    4  A    between atoms: N2_15  and  O4_17 
REMARK    5  A    between atoms: C9_19  and  O5_20 
REMARK    6  A    between atoms: C9_19  and  C10_22 
REMARK    7  A    between atoms: C10_22  and  O6_23 
ROOT
HETATM    1  C2  UNL     1      21.156  31.389  44.067  1.00  0.00     0.201 C 
HETATM    2  C3  UNL     1      21.815  30.066  44.079  1.00  0.00     0.105 C 
HETATM    3  C4  UNL     1      22.329  29.699  45.479  1.00  0.00     0.051 C 
HETATM    4  C5  UNL     1      21.035  28.905  43.585  1.00  0.00     0.217 C 
HETATM    5  O3  UNL     1      20.132  29.208  42.539  1.00  0.00    -0.333 OA
HETATM    6  C6  UNL     1      19.583  30.481  42.384  1.00  0.00     0.159 C 
HETATM    7  N1  UNL     1      18.981  30.762  41.326  1.00  0.00    -0.326 N 
ATOM      8  H1  UNL     1      18.955  29.992  40.658  1.00  0.00     0.169 HD
HETATM    9  C9  UNL     1      19.756  31.417  43.506  1.00  0.00     0.172 C 
ENDROOT
BRANCH   7  10
HETATM   10  C7  UNL     1      18.341  31.904  40.875  1.00  0.00     0.099 C 
HETATM   11  C8  UNL     1      16.847  31.946  40.888  1.00  0.00     0.091 C 
HETATM   12  N2  UNL     1      18.922  32.966  40.425  1.00  0.00    -0.257 N 
ATOM     13  H2  UNL     1      18.325  33.736  40.125  1.00  0.00     0.195 HD
BRANCH  12  14
HETATM   14  O4  UNL     1      20.260  33.138  40.321  1.00  0.00    -0.288 OA
ATOM     15  H4  UNL     1      20.901  32.437  40.283  1.00  0.00     0.244 HD
ENDBRANCH  12  14
ENDBRANCH   7  10
BRANCH   9  16
HETATM   16  O5  UNL     1      19.493  32.731  43.125  1.00  0.00    -0.377 OA
ATOM     17  H5  UNL     1      19.330  33.225  43.919  1.00  0.00     0.211 HD
ENDBRANCH   9  16
BRANCH   9  18
HETATM   18  C10 UNL     1      18.721  31.062  44.556  1.00  0.00     0.213 C 
BRANCH  18  19
HETATM   19  O6  UNL     1      17.765  30.176  44.122  1.00  0.00    -0.397 OA
ATOM     20  H6  UNL     1      17.918  29.279  44.394  1.00  0.00     0.209 HD
ENDBRANCH  18  19
ENDBRANCH   9  18
BRANCH   1  21
HETATM   21  O1  UNL     1      21.104  31.905  45.361  1.00  0.00    -0.384 OA
HETATM   22  C1  UNL     1      22.001  32.943  45.558  1.00  0.00     0.202 C 
ENDBRANCH   1  21
BRANCH   2  23
HETATM   23  O2  UNL     1      22.984  30.146  43.285  1.00  0.00    -0.385 OA
ATOM     24  H2  UNL     1      23.425  30.963  43.485  1.00  0.00     0.210 HD
ENDBRANCH   2  23
TORSDOF 7
ENDMDL
MODEL 3
REMARK VINA RESULT: -5.328636284      3.309      5.682
REMARK  7 active torsions:
REMARK  status: ('A' for Active; 'I' for Inactive)
REMARK    1  A    between atoms: O1_2  and  C2_3 
REMARK    2  A    between atoms: C3_4  and  O2_6 
REMARK    3  A    between atoms: N1_11  and  C7_13 
REMARK    4  A    between atoms: N2_15  and  O4_17 
REMARK    5  A    between atoms: C9_19  and  O5_20 
REMARK    6  A    between atoms: C9_19  and  C10_22 
REMARK    7  A    between atoms: C10_22  and  O6_23 
ROOT
HETATM    1  C2  UNL     1      17.789  30.762  41.885  1.00  0.00     0.201 C 
HETATM    2  C3  UNL     1      16.872  31.161  42.975  1.00  0.00     0.105 C 
HETATM    3  C4  UNL     1      17.422  32.350  43.775  1.00  0.00     0.051 C 
HETATM    4  C5  UNL     1      15.473  31.493  42.609  1.00  0.00     0.217 C 
HETATM    5  O3  UNL     1      14.959  30.748  41.523  1.00  0.00    -0.333 OA
HETATM    6  C6  UNL     1      15.787  30.218  40.533  1.00  0.00     0.159 C 
HETATM    7  N1  UNL     1      15.322  29.382  39.730  1.00  0.00    -0.326 N 
ATOM      8  H1  UNL     1      14.338  29.167  39.894  1.00  0.00     0.169 HD
HETATM    9  C9  UNL     1      17.178  30.698  40.508  1.00  0.00     0.172 C 
ENDROOT
BRANCH   7  10
HETATM   10  C7  UNL     1      15.867  28.688  38.664  1.00  0.00     0.099 C 
HETATM   11  C8  UNL     1      16.357  27.293  38.887  1.00  0.00     0.091 C 
HETATM   12  N2  UNL     1      16.004  29.137  37.461  1.00  0.00    -0.257 N 
ATOM     13  H2  UNL     1      16.424  28.514  36.772  1.00  0.00     0.195 HD
BRANCH  12  14
HETATM   14  O4  UNL     1      15.635  30.370  37.043  1.00  0.00    -0.288 OA
ATOM     15  H4  UNL     1      15.604  30.654  36.137  1.00  0.00     0.244 HD
ENDBRANCH  12  14
ENDBRANCH   7  10
BRANCH   9  16
HETATM   16  O5  UNL     1      17.992  29.873  39.736  1.00  0.00    -0.377 OA
ATOM     17  H5  UNL     1      18.367  29.224  40.319  1.00  0.00     0.211 HD
ENDBRANCH   9  16
BRANCH   9  18
HETATM   18  C10 UNL     1      17.176  32.054  39.828  1.00  0.00     0.213 C 
BRANCH  18  19
HETATM   19  O6  UNL     1      16.151  32.229  38.931  1.00  0.00    -0.397 OA
ATOM     20  H6  UNL     1      15.301  32.358  39.335  1.00  0.00     0.209 HD
ENDBRANCH  18  19
ENDBRANCH   9  18
BRANCH   1  21
HETATM   21  O1  UNL     1      18.868  31.642  41.829  1.00  0.00    -0.384 OA
HETATM   22  C1  UNL     1      20.086  31.003  42.002  1.00  0.00     0.202 C 
ENDBRANCH   1  21
BRANCH   2  23
HETATM   23  O2  UNL     1      16.813  30.103  43.913  1.00  0.00    -0.385 OA
ATOM     24  H2  UNL     1      17.579  30.159  44.473  1.00  0.00     0.210 HD
ENDBRANCH   2  23
TORSDOF 7
ENDMDL
MODEL 4
REMARK VINA RESULT: -5.320360553      1.092      1.401
REMARK  7 active torsions:
REMARK  status: ('A' for Active; 'I' for Inactive)
REMARK    1  A    between atoms: O1_2  and  C2_3 
REMARK    2  A    between atoms: C3_4  and  O2_6 
REMARK    3  A    between atoms: N1_11  and  C7_13 
REMARK    4  A    between atoms: N2_15  and  O4_17 
REMARK    5  A    between atoms: C9_19  and  O5_20 
REMARK    6  A    between atoms: C9_19  and  C10_22 
REMARK    7  A    between atoms: C10_22  and  O6_23 
ROOT
HETATM    1  C2  UNL     1      17.636  31.177  42.112  1.00  0.00     0.201 C 
HETATM    2  C3  UNL     1      17.862  31.647  40.728  1.00  0.00     0.105 C 
HETATM    3  C4  UNL     1      16.681  32.482  40.211  1.00  0.00     0.051 C 
HETATM    4  C5  UNL     1      19.095  32.427  40.460  1.00  0.00     0.217 C 
HETATM    5  O3  UNL     1      20.210  32.047  41.242  1.00  0.00    -0.333 OA
HETATM    6  C6  UNL     1      20.065  31.462  42.501  1.00  0.00     0.159 C 
HETATM    7  N1  UNL     1      21.056  30.937  43.049  1.00  0.00    -0.326 N 
ATOM      8  H1  UNL     1      21.907  30.995  42.489  1.00  0.00     0.169 HD
HETATM    9  C9  UNL     1      18.722  31.513  43.102  1.00  0.00     0.172 C 
ENDROOT
BRANCH   7  10
HETATM   10  C7  UNL     1      21.238  30.292  44.260  1.00  0.00     0.099 C 
HETATM   11  C8  UNL     1      21.107  28.804  44.311  1.00  0.00     0.091 C 
HETATM   12  N2  UNL     1      21.512  30.863  45.385  1.00  0.00    -0.257 N 
ATOM     13  H2  UNL     1      21.620  30.263  46.202  1.00  0.00     0.195 HD
BRANCH  12  14
HETATM   14  O4  UNL     1      21.668  32.194  45.566  1.00  0.00    -0.288 OA
ATOM     15  H4  UNL     1      22.396  32.604  46.018  1.00  0.00     0.244 HD
ENDBRANCH  12  14
ENDBRANCH   7  10
BRANCH   9  16
HETATM   16  O5  UNL     1      18.601  30.620  44.164  1.00  0.00    -0.377 OA
ATOM     17  H5  UNL     1      18.321  31.122  44.920  1.00  0.00     0.211 HD
ENDBRANCH   9  16
BRANCH   9  18
HETATM   18  C10 UNL     1      18.542  32.901  43.688  1.00  0.00     0.213 C 
BRANCH  18  19
HETATM   19  O6  UNL     1      19.718  33.579  43.893  1.00  0.00    -0.397 OA
ATOM     20  H6  UNL     1      19.805  33.949  44.763  1.00  0.00     0.209 HD
ENDBRANCH  18  19
ENDBRANCH   9  18
BRANCH   1  21
HETATM   21  O1  UNL     1      16.440  31.700  42.601  1.00  0.00    -0.384 OA
HETATM   22  C1  UNL     1      15.519  30.716  42.923  1.00  0.00     0.202 C 
ENDBRANCH   1  21
BRANCH   2  23
HETATM   23  O2  UNL     1      17.894  30.518  39.876  1.00  0.00    -0.385 OA
ATOM     24  H2  UNL     1      17.806  30.819  38.979  1.00  0.00     0.210 HD
ENDBRANCH   2  23
TORSDOF 7
ENDMDL
MODEL 5
REMARK VINA RESULT: -5.234760052      2.965      5.058
REMARK  7 active torsions:
REMARK  status: ('A' for Active; 'I' for Inactive)
REMARK    1  A    between atoms: O1_2  and  C2_3 
REMARK    2  A    between atoms: C3_4  and  O2_6 
REMARK    3  A    between atoms: N1_11  and  C7_13 
REMARK    4  A    between atoms: N2_15  and  O4_17 
REMARK    5  A    between atoms: C9_19  and  O5_20 
REMARK    6  A    between atoms: C9_19  and  C10_22 
REMARK    7  A    between atoms: C10_22  and  O6_23 
ROOT
HETATM    1  C2  UNL     1      17.396  31.791  42.423  1.00  0.00     0.201 C 
HETATM    2  C3  UNL     1      18.861  31.943  42.563  1.00  0.00     0.105 C 
HETATM    3  C4  UNL     1      19.270  32.187  44.023  1.00  0.00     0.051 C 
HETATM    4  C5  UNL     1      19.718  30.847  42.050  1.00  0.00     0.217 C 
HETATM    5  O3  UNL     1      19.206  30.191  40.906  1.00  0.00    -0.333 OA
HETATM    6  C6  UNL     1      17.838  30.134  40.637  1.00  0.00     0.159 C 
HETATM    7  N1  UNL     1      17.452  29.752  39.513  1.00  0.00    -0.326 N 
ATOM      8  H1  UNL     1      18.217  29.510  38.882  1.00  0.00     0.169 HD
HETATM    9  C9  UNL     1      16.933  30.538  41.725  1.00  0.00     0.172 C 
ENDROOT
BRANCH   7  10
HETATM   10  C7  UNL     1      16.199  29.589  38.946  1.00  0.00     0.099 C 
HETATM   11  C8  UNL     1      15.597  28.221  38.910  1.00  0.00     0.091 C 
HETATM   12  N2  UNL     1      15.479  30.526  38.426  1.00  0.00    -0.257 N 
ATOM     13  H2  UNL     1      14.571  30.262  38.043  1.00  0.00     0.195 HD
BRANCH  12  14
HETATM   14  O4  UNL     1      15.832  31.829  38.348  1.00  0.00    -0.288 OA
ATOM     15  H4  UNL     1      15.468  32.528  38.880  1.00  0.00     0.244 HD
ENDBRANCH  12  14
ENDBRANCH   7  10
BRANCH   9  16
HETATM   16  O5  UNL     1      15.644  30.780  41.258  1.00  0.00    -0.377 OA
ATOM     17  H5  UNL     1      15.410  30.054  40.691  1.00  0.00     0.211 HD
ENDBRANCH   9  16
BRANCH   9  18
HETATM   18  C10 UNL     1      16.827  29.366  42.682  1.00  0.00     0.213 C 
BRANCH  18  19
HETATM   19  O6  UNL     1      17.346  28.193  42.191  1.00  0.00    -0.397 OA
ATOM     20  H6  UNL     1      16.707  27.635  41.764  1.00  0.00     0.209 HD
ENDBRANCH  18  19
ENDBRANCH   9  18
BRANCH   1  21
HETATM   21  O1  UNL     1      16.794  31.823  43.680  1.00  0.00    -0.384 OA
HETATM   22  C1  UNL     1      15.812  32.797  43.776  1.00  0.00     0.202 C 
ENDBRANCH   1  21
BRANCH   2  23
HETATM   23  O2  UNL     1      19.250  33.124  41.887  1.00  0.00    -0.385 OA
ATOM     24  H2  UNL     1      18.582  33.333  41.245  1.00  0.00     0.210 HD
ENDBRANCH   2  23
TORSDOF 7
ENDMDL
