MODEL 1
REMARK VINA RESULT: -6.317145053      0.000      0.000
REMARK  6 active torsions:
REMARK  status: ('A' for Active; 'I' for Inactive)
REMARK    1  A    between atoms: C2_3  and  C3_4 
REMARK    2  A    between atoms: C3_4  and  O1_5 
REMARK    3  A    between atoms: C4_7  and  S1_8 
REMARK    4  A    between atoms: C8_14  and  O2_15 
REMARK    5  A    between atoms: C9_17  and  O3_18 
REMARK    6  A    between atoms: C10_20  and  O4_21 
ROOT
HETATM    1  N1  UNL     1      18.088  33.903  46.613  1.00  0.00    -0.197 NA
HETATM    2  C1  UNL     1      17.974  33.332  45.614  1.00  0.00     0.062 C 
HETATM    3  C2  UNL     1      17.800  32.610  44.366  1.00  0.00     0.170 C 
ENDROOT
BRANCH   3   4
HETATM    4  C3  UNL     1      19.035  32.450  43.547  1.00  0.00     0.133 C 
HETATM    5  C4  UNL     1      19.751  31.187  43.696  1.00  0.00     0.050 C 
HETATM    6  C6  UNL     1      19.341  30.144  42.997  1.00  0.00     0.070 C 
HETATM    7  C7  UNL     1      20.046  28.895  43.144  1.00  0.00     0.099 C 
HETATM    8  C8  UNL     1      18.210  30.137  42.040  1.00  0.00     0.194 C 
HETATM    9  N3  UNL     1      20.607  27.865  43.251  1.00  0.00    -0.192 NA
HETATM   10  C9  UNL     1      17.789  31.482  41.574  1.00  0.00     0.184 C 
HETATM   11  C10 UNL     1      18.652  32.607  42.082  1.00  0.00     0.190 C 
BRANCH   4  12
HETATM   12  O1  UNL     1      19.886  33.539  43.797  1.00  0.00    -0.381 OA
ATOM     13  H1  UNL     1      19.873  34.116  43.042  1.00  0.00     0.211 HD
ENDBRANCH   4  12
BRANCH   5  14
HETATM   14  S1  UNL     1      21.172  30.963  44.747  1.00  0.00    -0.011 SA
HETATM   15  C5  UNL     1      21.724  32.523  45.332  1.00  0.00     0.138 C 
HETATM   16  N2  UNL     1      22.109  33.557  45.739  1.00  0.00    -0.184 NA
ENDBRANCH   5  14
BRANCH   8  17
HETATM   17  O2  UNL     1      17.175  29.380  42.588  1.00  0.00    -0.387 OA
ATOM     18  H2  UNL     1      16.351  29.800  42.372  1.00  0.00     0.210 HD
ENDBRANCH   8  17
BRANCH  10  19
HETATM   19  O3  UNL     1      16.442  31.667  41.790  1.00  0.00    -0.390 OA
ATOM     20  H3  UNL     1      16.221  32.589  41.735  1.00  0.00     0.210 HD
ENDBRANCH  10  19
BRANCH  11  21
HETATM   21  O4  UNL     1      19.837  32.632  41.349  1.00  0.00    -0.389 OA
ATOM     22  H4  UNL     1      19.723  32.042  40.613  1.00  0.00     0.210 HD
ENDBRANCH  11  21
ENDBRANCH   3   4
TORSDOF 6
ENDMDL
MODEL 2
REMARK VINA RESULT: -6.237247709      2.297      4.303
REMARK  6 active torsions:
REMARK  status: ('A' for Active; 'I' for Inactive)
REMARK    1  A    between atoms: C2_3  and  C3_4 
REMARK    2  A    between atoms: C3_4  and  O1_5 
REMARK    3  A    between atoms: C4_7  and  S1_8 
REMARK    4  A    between atoms: C8_14  and  O2_15 
REMARK    5  A    between atoms: C9_17  and  O3_18 
REMARK    6  A    between atoms: C10_20  and  O4_21 
ROOT
HETATM    1  N1  UNL     1      17.413  32.373  40.091  1.00  0.00    -0.197 NA
HETATM    2  C1  UNL     1      18.206  32.278  40.927  1.00  0.00     0.062 C 
HETATM    3  C2  UNL     1      19.219  32.181  41.963  1.00  0.00     0.170 C 
ENDROOT
BRANCH   3   4
HETATM    4  C3  UNL     1      19.008  31.092  42.958  1.00  0.00     0.133 C 
HETATM    5  C4  UNL     1      20.211  30.521  43.556  1.00  0.00     0.050 C 
HETATM    6  C6  UNL     1      20.758  31.142  44.587  1.00  0.00     0.070 C 
HETATM    7  C7  UNL     1      21.946  30.581  45.178  1.00  0.00     0.099 C 
HETATM    8  C8  UNL     1      20.246  32.381  45.219  1.00  0.00     0.194 C 
HETATM    9  N3  UNL     1      22.919  30.140  45.675  1.00  0.00    -0.192 NA
HETATM   10  C9  UNL     1      18.828  32.691  44.905  1.00  0.00     0.184 C 
HETATM   11  C10 UNL     1      18.136  31.640  44.079  1.00  0.00     0.190 C 
BRANCH   4  12
HETATM   12  O1  UNL     1      18.219  30.089  42.369  1.00  0.00    -0.381 OA
ATOM     13  H1  UNL     1      18.791  29.403  42.044  1.00  0.00     0.211 HD
ENDBRANCH   4  12
BRANCH   5  14
HETATM   14  S1  UNL     1      20.982  29.014  43.004  1.00  0.00    -0.011 SA
HETATM   15  C5  UNL     1      20.188  27.637  43.750  1.00  0.00     0.138 C 
HETATM   16  N2  UNL     1      19.668  26.700  44.234  1.00  0.00    -0.184 NA
ENDBRANCH   5  14
BRANCH   8  17
HETATM   17  O2  UNL     1      21.129  33.419  44.930  1.00  0.00    -0.387 OA
ATOM     18  H2  UNL     1      21.306  33.411  43.997  1.00  0.00     0.210 HD
ENDBRANCH   8  17
BRANCH  10  19
HETATM   19  O3  UNL     1      18.717  33.966  44.397  1.00  0.00    -0.390 OA
ATOM     20  H3  UNL     1      18.012  34.010  43.763  1.00  0.00     0.210 HD
ENDBRANCH  10  19
BRANCH  11  21
HETATM   21  O4  UNL     1      17.805  30.566  44.903  1.00  0.00    -0.389 OA
ATOM     22  H4  UNL     1      17.929  30.853  45.800  1.00  0.00     0.210 HD
ENDBRANCH  11  21
ENDBRANCH   3   4
TORSDOF 6
ENDMDL
MODEL 3
REMARK VINA RESULT: -6.220154871      2.422      4.181
REMARK  6 active torsions:
REMARK  status: ('A' for Active; 'I' for Inactive)
REMARK    1  A    between atoms: C2_3  and  C3_4 
REMARK    2  A    between atoms: C3_4  and  O1_5 
REMARK    3  A    between atoms: C4_7  and  S1_8 
REMARK    4  A    between atoms: C8_14  and  O2_15 
REMARK    5  A    between atoms: C9_17  and  O3_18 
REMARK    6  A    between atoms: C10_20  and  O4_21 
ROOT
HETATM    1  N1  UNL     1      15.997  29.423  44.241  1.00  0.00    -0.197 NA
HETATM    2  C1  UNL     1      17.147  29.501  44.147  1.00  0.00     0.062 C 
HETATM    3  C2  UNL     1      18.594  29.572  44.048  1.00  0.00     0.170 C 
ENDROOT
BRANCH   3   4
HETATM    4  C3  UNL     1      19.123  30.759  43.318  1.00  0.00     0.133 C 
HETATM    5  C4  UNL     1      19.772  31.782  44.131  1.00  0.00     0.050 C 
HETATM    6  C6  UNL     1      21.041  31.615  44.459  1.00  0.00     0.070 C 
HETATM    7  C7  UNL     1      21.684  32.623  45.264  1.00  0.00     0.099 C 
HETATM    8  C8  UNL     1      21.893  30.471  44.056  1.00  0.00     0.194 C 
HETATM    9  N3  UNL     1      22.228  33.435  45.921  1.00  0.00    -0.192 NA
HETATM   10  C9  UNL     1      21.376  29.695  42.902  1.00  0.00     0.184 C 
HETATM   11  C10 UNL     1      20.127  30.267  42.285  1.00  0.00     0.190 C 
BRANCH   4  12
HETATM   12  O1  UNL     1      18.086  31.315  42.550  1.00  0.00    -0.381 OA
ATOM     13  H1  UNL     1      17.318  31.414  43.101  1.00  0.00     0.211 HD
ENDBRANCH   4  12
BRANCH   5  14
HETATM   14  S1  UNL     1      18.969  33.269  44.693  1.00  0.00    -0.011 SA
HETATM   15  C5  UNL     1      17.459  32.860  45.489  1.00  0.00     0.138 C 
HETATM   16  N2  UNL     1      16.446  32.608  46.030  1.00  0.00    -0.184 NA
ENDBRANCH   5  14
BRANCH   8  17
HETATM   17  O2  UNL     1      22.154  29.698  45.186  1.00  0.00    -0.387 OA
ATOM     18  H2  UNL     1      22.465  28.847  44.901  1.00  0.00     0.210 HD
ENDBRANCH   8  17
BRANCH  10  19
HETATM   19  O3  UNL     1      21.280  28.360  43.225  1.00  0.00    -0.390 OA
ATOM     20  H3  UNL     1      20.625  27.934  42.685  1.00  0.00     0.210 HD
ENDBRANCH  10  19
BRANCH  11  21
HETATM   21  O4  UNL     1      20.475  31.363  41.498  1.00  0.00    -0.389 OA
ATOM     22  H4  UNL     1      19.940  31.325  40.713  1.00  0.00     0.210 HD
ENDBRANCH  11  21
ENDBRANCH   3   4
TORSDOF 6
ENDMDL
MODEL 4
REMARK VINA RESULT: -6.032215548      2.602      5.132
REMARK  6 active torsions:
REMARK  status: ('A' for Active; 'I' for Inactive)
REMARK    1  A    between atoms: C2_3  and  C3_4 
REMARK    2  A    between atoms: C3_4  and  O1_5 
REMARK    3  A    between atoms: C4_7  and  S1_8 
REMARK    4  A    between atoms: C8_14  and  O2_15 
REMARK    5  A    between atoms: C9_17  and  O3_18 
REMARK    6  A    between atoms: C10_20  and  O4_21 
ROOT
HETATM    1  N1  UNL     1      18.723  26.477  44.387  1.00  0.00    -0.197 NA
HETATM    2  C1  UNL     1      19.476  27.351  44.313  1.00  0.00     0.062 C 
HETATM    3  C2  UNL     1      20.440  28.435  44.241  1.00  0.00     0.170 C 
ENDROOT
BRANCH   3   4
HETATM    4  C3  UNL     1      20.057  29.569  43.355  1.00  0.00     0.133 C 
HETATM    5  C4  UNL     1      19.309  30.655  43.980  1.00  0.00     0.050 C 
HETATM    6  C6  UNL     1      19.980  31.593  44.626  1.00  0.00     0.070 C 
HETATM    7  C7  UNL     1      19.244  32.665  45.246  1.00  0.00     0.099 C 
HETATM    8  C8  UNL     1      21.454  31.659  44.763  1.00  0.00     0.194 C 
HETATM    9  N3  UNL     1      18.661  33.549  45.761  1.00  0.00    -0.192 NA
HETATM   10  C9  UNL     1      22.202  30.833  43.781  1.00  0.00     0.184 C 
HETATM   11  C10 UNL     1      21.331  30.153  42.759  1.00  0.00     0.190 C 
BRANCH   4  12
HETATM   12  O1  UNL     1      19.362  29.059  42.245  1.00  0.00    -0.381 OA
ATOM     13  H1  UNL     1      19.902  29.169  41.470  1.00  0.00     0.211 HD
ENDBRANCH   4  12
BRANCH   5  14
HETATM   14  S1  UNL     1      17.537  30.819  43.908  1.00  0.00    -0.011 SA
HETATM   15  C5  UNL     1      17.071  31.514  42.365  1.00  0.00     0.138 C 
HETATM   16  N2  UNL     1      16.737  31.974  41.335  1.00  0.00    -0.184 NA
ENDBRANCH   5  14
BRANCH   8  17
HETATM   17  O2  UNL     1      21.785  31.393  46.091  1.00  0.00    -0.387 OA
ATOM     18  H2  UNL     1      22.526  31.937  46.330  1.00  0.00     0.210 HD
ENDBRANCH   8  17
BRANCH  10  19
HETATM   19  O3  UNL     1      23.072  29.986  44.429  1.00  0.00    -0.390 OA
ATOM     20  H3  UNL     1      23.443  29.360  43.818  1.00  0.00     0.210 HD
ENDBRANCH  10  19
BRANCH  11  21
HETATM   21  O4  UNL     1      20.943  31.090  41.802  1.00  0.00    -0.389 OA
ATOM     22  H4  UNL     1      19.994  31.131  41.820  1.00  0.00     0.210 HD
ENDBRANCH  11  21
ENDBRANCH   3   4
TORSDOF 6
ENDMDL
MODEL 5
REMARK VINA RESULT: -5.987416580      1.165      1.165
REMARK  6 active torsions:
REMARK  status: ('A' for Active; 'I' for Inactive)
REMARK    1  A    between atoms: C2_3  and  C3_4 
REMARK    2  A    between atoms: C3_4  and  O1_5 
REMARK    3  A    between atoms: C4_7  and  S1_8 
REMARK    4  A    between atoms: C8_14  and  O2_15 
REMARK    5  A    between atoms: C9_17  and  O3_18 
REMARK    6  A    between atoms: C10_20  and  O4_21 
ROOT
HETATM    1  N1  UNL     1      18.177  33.889  46.787  1.00  0.00    -0.197 NA
HETATM    2  C1  UNL     1      18.037  33.426  45.737  1.00  0.00     0.062 C 
HETATM    3  C2  UNL     1      17.828  32.843  44.423  1.00  0.00     0.170 C 
ENDROOT
BRANCH   3   4
HETATM    4  C3  UNL     1      19.071  32.490  43.680  1.00  0.00     0.133 C 
HETATM    5  C4  UNL     1      19.726  31.245  44.070  1.00  0.00     0.050 C 
HETATM    6  C6  UNL     1      19.283  30.112  43.555  1.00  0.00     0.070 C 
HETATM    7  C7  UNL     1      19.926  28.881  43.940  1.00  0.00     0.099 C 
HETATM    8  C8  UNL     1      18.172  29.981  42.582  1.00  0.00     0.194 C 
HETATM    9  N3  UNL     1      20.438  27.864  44.242  1.00  0.00    -0.192 NA
HETATM   10  C9  UNL     1      17.823  31.239  41.874  1.00  0.00     0.184 C 
HETATM   11  C10 UNL     1      18.725  32.399  42.200  1.00  0.00     0.190 C 
BRANCH   4  12
HETATM   12  O1  UNL     1      19.966  33.570  43.758  1.00  0.00    -0.381 OA
ATOM     13  H1  UNL     1      20.822  33.278  43.469  1.00  0.00     0.211 HD
ENDBRANCH   4  12
BRANCH   5  14
HETATM   14  S1  UNL     1      21.113  31.152  45.183  1.00  0.00    -0.011 SA
HETATM   15  C5  UNL     1      22.563  30.739  44.285  1.00  0.00     0.138 C 
HETATM   16  N2  UNL     1      23.548  30.467  43.703  1.00  0.00    -0.184 NA
ENDBRANCH   5  14
BRANCH   8  17
HETATM   17  O2  UNL     1      17.093  29.378  43.226  1.00  0.00    -0.387 OA
ATOM     18  H2  UNL     1      16.445  29.146  42.571  1.00  0.00     0.210 HD
ENDBRANCH   8  17
BRANCH  10  19
HETATM   19  O3  UNL     1      16.482  31.514  42.017  1.00  0.00    -0.390 OA
ATOM     20  H3  UNL     1      16.064  31.580  41.167  1.00  0.00     0.210 HD
ENDBRANCH  10  19
BRANCH  11  21
HETATM   21  O4  UNL     1      19.925  32.245  41.508  1.00  0.00    -0.389 OA
ATOM     22  H4  UNL     1      19.713  32.223  40.582  1.00  0.00     0.210 HD
ENDBRANCH  11  21
ENDBRANCH   3   4
TORSDOF 6
ENDMDL
