MODEL 1
REMARK VINA RESULT: -6.931393064      0.000      0.000
REMARK  8 active torsions:
REMARK  status: ('A' for Active; 'I' for Inactive)
REMARK    1  A    between atoms: C2_2  and  O1_3 
REMARK    2  A    between atoms: O1_3  and  C3_4 
REMARK    3  A    between atoms: C3_4  and  O3_6 
REMARK    4  A    between atoms: O3_6  and  C4_7 
REMARK    5  A    between atoms: C6_10  and  O5_12 
REMARK    6  A    between atoms: C8_14  and  O6_15 
REMARK    7  A    between atoms: C9_17  and  O7_18 
REMARK    8  A    between atoms: C10_20  and  O8_21 
ROOT
HETATM    1  C4  UNL     1      22.742  32.668  45.506  1.00  0.00     0.302 C 
HETATM    2  O4  UNL     1      23.420  33.556  46.223  1.00  0.00    -0.355 OA
HETATM    3  C5  UNL     1      24.623  34.110  45.793  1.00  0.00     0.211 C 
HETATM    4  C6  UNL     1      25.765  33.109  46.215  1.00  0.00     0.104 C 
HETATM    5  C7  UNL     1      26.293  33.622  47.571  1.00  0.00     0.051 C 
HETATM    6  C8  UNL     1      25.226  31.791  46.186  1.00  0.00     0.185 C 
HETATM    7  C9  UNL     1      24.324  30.705  46.068  1.00  0.00     0.183 C 
HETATM    8  C10 UNL     1      22.901  31.187  45.697  1.00  0.00     0.205 C 
ENDROOT
BRANCH   1   9
HETATM    9  O3  UNL     1      21.366  32.917  45.779  1.00  0.00    -0.264 OA
BRANCH   9  10
HETATM   10  C3  UNL     1      20.384  32.693  44.864  1.00  0.00     0.408 C 
HETATM   11  O2  UNL     1      19.931  33.683  44.201  1.00  0.00    -0.229 OA
BRANCH  10  12
HETATM   12  O1  UNL     1      19.829  31.451  44.591  1.00  0.00    -0.298 OA
BRANCH  12  13
HETATM   13  C2  UNL     1      19.668  31.049  43.254  1.00  0.00     0.176 C 
HETATM   14  C1  UNL     1      20.949  30.599  42.620  1.00  0.00     0.034 C 
ENDBRANCH  12  13
ENDBRANCH  10  12
ENDBRANCH   9  10
ENDBRANCH   1   9
BRANCH   8  15
HETATM   15  O8  UNL     1      22.002  30.742  46.664  1.00  0.00    -0.388 OA
ATOM     16  H8  UNL     1      22.468  30.557  47.472  1.00  0.00     0.210 HD
ENDBRANCH   8  15
BRANCH   7  17
HETATM   17  O7  UNL     1      24.677  29.689  45.136  1.00  0.00    -0.390 OA
ATOM     18  H7  UNL     1      24.651  28.795  45.456  1.00  0.00     0.210 HD
ENDBRANCH   7  17
BRANCH   4  19
HETATM   19  O5  UNL     1      26.831  33.404  45.361  1.00  0.00    -0.385 OA
ATOM     20  H5  UNL     1      27.454  32.700  45.499  1.00  0.00     0.210 HD
ENDBRANCH   4  19
BRANCH   6  21
HETATM   21  O6  UNL     1      25.027  31.989  44.784  1.00  0.00    -0.390 OA
ATOM     22  H6  UNL     1      24.335  31.341  44.845  1.00  0.00     0.210 HD
ENDBRANCH   6  21
TORSDOF 8
ENDMDL
MODEL 2
REMARK VINA RESULT: -6.580686757      1.185      1.652
REMARK  8 active torsions:
REMARK  status: ('A' for Active; 'I' for Inactive)
REMARK    1  A    between atoms: C2_2  and  O1_3 
REMARK    2  A    between atoms: O1_3  and  C3_4 
REMARK    3  A    between atoms: C3_4  and  O3_6 
REMARK    4  A    between atoms: O3_6  and  C4_7 
REMARK    5  A    between atoms: C6_10  and  O5_12 
REMARK    6  A    between atoms: C8_14  and  O6_15 
REMARK    7  A    between atoms: C9_17  and  O7_18 
REMARK    8  A    between atoms: C10_20  and  O8_21 
ROOT
HETATM    1  C4  UNL     1      22.687  32.671  45.644  1.00  0.00     0.302 C 
HETATM    2  O4  UNL     1      23.407  33.534  46.349  1.00  0.00    -0.355 OA
HETATM    3  C5  UNL     1      24.567  34.127  45.857  1.00  0.00     0.211 C 
HETATM    4  C6  UNL     1      25.749  33.126  46.142  1.00  0.00     0.104 C 
HETATM    5  C7  UNL     1      26.373  33.582  47.477  1.00  0.00     0.051 C 
HETATM    6  C8  UNL     1      25.226  31.802  46.090  1.00  0.00     0.185 C 
HETATM    7  C9  UNL     1      24.332  30.708  45.988  1.00  0.00     0.183 C 
HETATM    8  C10 UNL     1      22.879  31.185  45.751  1.00  0.00     0.205 C 
ENDROOT
BRANCH   1   9
HETATM    9  O3  UNL     1      21.333  32.884  46.032  1.00  0.00    -0.264 OA
BRANCH   9  10
HETATM   10  C3  UNL     1      20.311  32.933  45.134  1.00  0.00     0.408 C 
HETATM   11  O2  UNL     1      20.529  32.542  43.940  1.00  0.00    -0.229 OA
BRANCH  10  12
HETATM   12  O1  UNL     1      19.030  33.383  45.422  1.00  0.00    -0.298 OA
BRANCH  12  13
HETATM   13  C2  UNL     1      18.021  33.247  44.453  1.00  0.00     0.176 C 
HETATM   14  C1  UNL     1      16.663  33.618  44.967  1.00  0.00     0.034 C 
ENDBRANCH  12  13
ENDBRANCH  10  12
ENDBRANCH   9  10
ENDBRANCH   1   9
BRANCH   8  15
HETATM   15  O8  UNL     1      22.062  30.679  46.760  1.00  0.00    -0.388 OA
ATOM     16  H8  UNL     1      22.576  30.543  47.548  1.00  0.00     0.210 HD
ENDBRANCH   8  15
BRANCH   7  17
HETATM   17  O7  UNL     1      24.624  29.743  44.984  1.00  0.00    -0.390 OA
ATOM     18  H7  UNL     1      25.120  30.051  44.234  1.00  0.00     0.210 HD
ENDBRANCH   7  17
BRANCH   4  19
HETATM   19  O5  UNL     1      26.744  33.478  45.225  1.00  0.00    -0.385 OA
ATOM     20  H5  UNL     1      26.306  34.038  44.594  1.00  0.00     0.210 HD
ENDBRANCH   4  19
BRANCH   6  21
HETATM   21  O6  UNL     1      24.919  32.063  44.719  1.00  0.00    -0.390 OA
ATOM     22  H6  UNL     1      25.684  31.541  44.503  1.00  0.00     0.210 HD
ENDBRANCH   6  21
TORSDOF 8
ENDMDL
MODEL 3
REMARK VINA RESULT: -6.360483600      2.080      6.005
REMARK  8 active torsions:
REMARK  status: ('A' for Active; 'I' for Inactive)
REMARK    1  A    between atoms: C2_2  and  O1_3 
REMARK    2  A    between atoms: O1_3  and  C3_4 
REMARK    3  A    between atoms: C3_4  and  O3_6 
REMARK    4  A    between atoms: O3_6  and  C4_7 
REMARK    5  A    between atoms: C6_10  and  O5_12 
REMARK    6  A    between atoms: C8_14  and  O6_15 
REMARK    7  A    between atoms: C9_17  and  O7_18 
REMARK    8  A    between atoms: C10_20  and  O8_21 
ROOT
HETATM    1  C4  UNL     1      20.818  31.096  44.161  1.00  0.00     0.302 C 
HETATM    2  O4  UNL     1      20.188  31.605  43.110  1.00  0.00    -0.355 OA
HETATM    3  C5  UNL     1      18.820  31.448  42.902  1.00  0.00     0.211 C 
HETATM    4  C6  UNL     1      18.623  30.067  42.172  1.00  0.00     0.104 C 
HETATM    5  C7  UNL     1      18.568  30.393  40.665  1.00  0.00     0.051 C 
HETATM    6  C8  UNL     1      19.657  29.189  42.607  1.00  0.00     0.185 C 
HETATM    7  C9  UNL     1      20.814  28.680  43.246  1.00  0.00     0.183 C 
HETATM    8  C10 UNL     1      21.498  29.757  44.122  1.00  0.00     0.205 C 
ENDROOT
BRANCH   1   9
HETATM    9  O3  UNL     1      21.860  32.016  44.474  1.00  0.00    -0.264 OA
BRANCH   9  10
HETATM   10  C3  UNL     1      21.724  32.985  45.419  1.00  0.00     0.408 C 
HETATM   11  O2  UNL     1      20.614  33.082  46.038  1.00  0.00    -0.229 OA
BRANCH  10  12
HETATM   12  O1  UNL     1      22.716  33.891  45.768  1.00  0.00    -0.298 OA
BRANCH  12  13
HETATM   13  C2  UNL     1      23.956  33.410  46.222  1.00  0.00     0.176 C 
HETATM   14  C1  UNL     1      24.948  34.502  46.483  1.00  0.00     0.034 C 
ENDBRANCH  12  13
ENDBRANCH  10  12
ENDBRANCH   9  10
ENDBRANCH   1   9
BRANCH   8  15
HETATM   15  O8  UNL     1      22.818  29.915  43.704  1.00  0.00    -0.388 OA
ATOM     16  H8  UNL     1      22.835  30.355  42.862  1.00  0.00     0.210 HD
ENDBRANCH   8  15
BRANCH   7  17
HETATM   17  O7  UNL     1      20.632  27.530  44.065  1.00  0.00    -0.390 OA
ATOM     18  H7  UNL     1      20.387  26.728  43.618  1.00  0.00     0.210 HD
ENDBRANCH   7  17
BRANCH   4  19
HETATM   19  O5  UNL     1      17.299  29.708  42.436  1.00  0.00    -0.385 OA
ATOM     20  H5  UNL     1      16.972  30.391  43.010  1.00  0.00     0.210 HD
ENDBRANCH   4  19
BRANCH   6  21
HETATM   21  O6  UNL     1      19.099  29.310  43.917  1.00  0.00    -0.390 OA
ATOM     22  H6  UNL     1      19.535  28.490  44.121  1.00  0.00     0.210 HD
ENDBRANCH   6  21
TORSDOF 8
ENDMDL
MODEL 4
REMARK VINA RESULT: -6.360434115      2.802      6.837
REMARK  8 active torsions:
REMARK  status: ('A' for Active; 'I' for Inactive)
REMARK    1  A    between atoms: C2_2  and  O1_3 
REMARK    2  A    between atoms: O1_3  and  C3_4 
REMARK    3  A    between atoms: C3_4  and  O3_6 
REMARK    4  A    between atoms: O3_6  and  C4_7 
REMARK    5  A    between atoms: C6_10  and  O5_12 
REMARK    6  A    between atoms: C8_14  and  O6_15 
REMARK    7  A    between atoms: C9_17  and  O7_18 
REMARK    8  A    between atoms: C10_20  and  O8_21 
ROOT
HETATM    1  C4  UNL     1      19.272  32.683  44.883  1.00  0.00     0.302 C 
HETATM    2  O4  UNL     1      18.839  33.684  45.638  1.00  0.00    -0.355 OA
HETATM    3  C5  UNL     1      17.913  33.509  46.663  1.00  0.00     0.211 C 
HETATM    4  C6  UNL     1      16.484  33.577  46.005  1.00  0.00     0.104 C 
HETATM    5  C7  UNL     1      16.018  35.039  46.163  1.00  0.00     0.051 C 
HETATM    6  C8  UNL     1      16.587  33.069  44.679  1.00  0.00     0.185 C 
HETATM    7  C9  UNL     1      17.113  32.550  43.470  1.00  0.00     0.183 C 
HETATM    8  C10 UNL     1      18.643  32.340  43.562  1.00  0.00     0.205 C 
ENDROOT
BRANCH   1   9
HETATM    9  O3  UNL     1      20.625  32.991  44.563  1.00  0.00    -0.264 OA
BRANCH   9  10
HETATM   10  C3  UNL     1      21.650  32.784  45.434  1.00  0.00     0.408 C 
HETATM   11  O2  UNL     1      21.754  31.643  45.993  1.00  0.00    -0.229 OA
BRANCH  10  12
HETATM   12  O1  UNL     1      22.607  33.733  45.765  1.00  0.00    -0.298 OA
BRANCH  12  13
HETATM   13  C2  UNL     1      23.878  33.308  46.190  1.00  0.00     0.176 C 
HETATM   14  C1  UNL     1      24.830  34.443  46.413  1.00  0.00     0.034 C 
ENDBRANCH  12  13
ENDBRANCH  10  12
ENDBRANCH   9  10
ENDBRANCH   1   9
BRANCH   8  15
HETATM   15  O8  UNL     1      19.265  33.063  42.547  1.00  0.00    -0.388 OA
ATOM     16  H8  UNL     1      19.617  32.464  41.898  1.00  0.00     0.210 HD
ENDBRANCH   8  15
BRANCH   7  17
HETATM   17  O7  UNL     1      16.550  31.328  43.008  1.00  0.00    -0.390 OA
ATOM     18  H7  UNL     1      15.614  31.221  43.130  1.00  0.00     0.210 HD
ENDBRANCH   7  17
BRANCH   4  19
HETATM   19  O5  UNL     1      15.645  32.910  46.903  1.00  0.00    -0.385 OA
ATOM     20  H5  UNL     1      15.932  33.198  47.762  1.00  0.00     0.210 HD
ENDBRANCH   4  19
BRANCH   6  21
HETATM   21  O6  UNL     1      16.965  31.824  45.270  1.00  0.00    -0.390 OA
ATOM     22  H6  UNL     1      17.066  31.495  44.384  1.00  0.00     0.210 HD
ENDBRANCH   6  21
TORSDOF 8
ENDMDL
MODEL 5
REMARK VINA RESULT: -6.262801437      1.621      4.453
REMARK  8 active torsions:
REMARK  status: ('A' for Active; 'I' for Inactive)
REMARK    1  A    between atoms: C2_2  and  O1_3 
REMARK    2  A    between atoms: O1_3  and  C3_4 
REMARK    3  A    between atoms: C3_4  and  O3_6 
REMARK    4  A    between atoms: O3_6  and  C4_7 
REMARK    5  A    between atoms: C6_10  and  O5_12 
REMARK    6  A    between atoms: C8_14  and  O6_15 
REMARK    7  A    between atoms: C9_17  and  O7_18 
REMARK    8  A    between atoms: C10_20  and  O8_21 
ROOT
HETATM    1  C4  UNL     1      22.982  33.009  45.573  1.00  0.00     0.302 C 
HETATM    2  O4  UNL     1      23.675  32.381  46.514  1.00  0.00    -0.355 OA
HETATM    3  C5  UNL     1      24.606  31.386  46.227  1.00  0.00     0.211 C 
HETATM    4  C6  UNL     1      23.809  30.033  46.112  1.00  0.00     0.104 C 
HETATM    5  C7  UNL     1      23.898  29.374  47.505  1.00  0.00     0.051 C 
HETATM    6  C8  UNL     1      22.507  30.330  45.618  1.00  0.00     0.185 C 
HETATM    7  C9  UNL     1      21.365  31.035  45.167  1.00  0.00     0.183 C 
HETATM    8  C10 UNL     1      21.611  32.563  45.150  1.00  0.00     0.205 C 
ENDROOT
BRANCH   1   9
HETATM    9  O3  UNL     1      22.793  34.338  46.048  1.00  0.00    -0.264 OA
BRANCH   9  10
HETATM   10  C3  UNL     1      23.829  35.195  46.262  1.00  0.00     0.408 C 
HETATM   11  O2  UNL     1      23.570  36.430  46.447  1.00  0.00    -0.229 OA
BRANCH  10  12
HETATM   12  O1  UNL     1      25.165  34.824  46.296  1.00  0.00    -0.298 OA
BRANCH  12  13
HETATM   13  C2  UNL     1      25.874  34.921  47.506  1.00  0.00     0.176 C 
HETATM   14  C1  UNL     1      26.737  33.726  47.775  1.00  0.00     0.034 C 
ENDBRANCH  12  13
ENDBRANCH  10  12
ENDBRANCH   9  10
ENDBRANCH   1   9
BRANCH   8  15
HETATM   15  O8  UNL     1      20.651  33.188  45.943  1.00  0.00    -0.388 OA
ATOM     16  H8  UNL     1      21.078  33.653  46.654  1.00  0.00     0.210 HD
ENDBRANCH   8  15
BRANCH   7  17
HETATM   17  O7  UNL     1      20.868  30.678  43.882  1.00  0.00    -0.390 OA
ATOM     18  H7  UNL     1      20.031  31.053  43.633  1.00  0.00     0.210 HD
ENDBRANCH   7  17
BRANCH   4  19
HETATM   19  O5  UNL     1      24.630  29.198  45.348  1.00  0.00    -0.385 OA
ATOM     20  H5  UNL     1      25.328  28.938  45.938  1.00  0.00     0.210 HD
ENDBRANCH   4  19
BRANCH   6  21
HETATM   21  O6  UNL     1      23.152  30.800  44.432  1.00  0.00    -0.390 OA
ATOM     22  H6  UNL     1      23.804  30.125  44.582  1.00  0.00     0.210 HD
ENDBRANCH   6  21
TORSDOF 8
ENDMDL
