MODEL 1
REMARK VINA RESULT: -8.155250510      0.000      0.000
REMARK  10 active torsions:
REMARK  status: ('A' for Active; 'I' for Inactive)
REMARK    1  A    between atoms: C2_2  and  O1_4 
REMARK    2  A    between atoms: C2_2  and  C4_6 
REMARK    3  A    between atoms: C4_6  and  C5_8 
REMARK    4  A    between atoms: C5_8  and  O3_9 
REMARK    5  A    between atoms: C5_8  and  N1_11 
REMARK    6  A    between atoms: C8_15  and  O4_16 
REMARK    7  A    between atoms: N2_19  and  C10_20 
REMARK    8  A    between atoms: C10_20  and  C11_25 
REMARK    9  A    between atoms: N3_21  and  O5_23 
REMARK   10  A    between atoms: C17_31  and  C18_32 
ROOT
HETATM    1  N1  UNL     1       7.074  18.917  85.129  1.00  0.00    -0.362 N 
ATOM      2  H1  UNL     1       7.545  19.289  85.954  1.00  0.00     0.162 HD
HETATM    3  C6  UNL     1       6.185  18.068  85.365  1.00  0.00     0.020 C 
HETATM    4  C7  UNL     1       5.341  17.360  84.369  1.00  0.00     0.088 C 
HETATM    5  C8  UNL     1       5.561  15.882  84.556  1.00  0.00     0.141 C 
HETATM    6  C9  UNL     1       5.151  15.454  85.970  1.00  0.00     0.158 C 
HETATM    7  N2  UNL     1       5.868  16.260  86.956  1.00  0.00    -0.343 N 
HETATM    8  C17 UNL     1       5.923  17.711  86.805  1.00  0.00     0.232 C 
ENDROOT
BRANCH   1   9
HETATM    9  C5  UNL     1       7.524  19.436  83.899  1.00  0.00     0.291 C 
BRANCH   9  10
HETATM   10  C4  UNL     1       9.009  19.484  83.792  1.00  0.00     0.208 C 
HETATM   11  O2  UNL     1       9.487  20.589  83.611  1.00  0.00    -0.290 OA
BRANCH  10  12
HETATM   12  C2  UNL     1       9.898  18.334  83.888  1.00  0.00     0.115 C 
HETATM   13  C1  UNL     1      11.059  18.552  82.928  1.00  0.00     0.054 C 
HETATM   14  C3  UNL     1      10.499  18.132  85.254  1.00  0.00     0.054 C 
BRANCH  12  15
HETATM   15  O1  UNL     1       9.202  17.174  83.562  1.00  0.00    -0.383 OA
ATOM     16  H1  UNL     1       8.580  16.953  84.245  1.00  0.00     0.211 HD
ENDBRANCH  12  15
ENDBRANCH  10  12
ENDBRANCH   9  10
BRANCH   9  17
HETATM   17  O3  UNL     1       7.047  18.653  82.826  1.00  0.00    -0.370 OA
ATOM     18  H3  UNL     1       6.325  18.130  83.153  1.00  0.00     0.212 HD
ENDBRANCH   9  17
ENDBRANCH   1   9
BRANCH   8  19
HETATM   19  C18 UNL     1       4.588  18.278  87.130  1.00  0.00     0.202 C 
HETATM   20  O6  UNL     1       3.799  17.794  87.981  1.00  0.00    -0.646 OA
HETATM   21  O7  UNL     1       4.114  19.432  86.482  1.00  0.00    -0.646 OA
ENDBRANCH   8  19
BRANCH   5  22
HETATM   22  O4  UNL     1       6.929  15.639  84.447  1.00  0.00    -0.394 OA
ATOM     23  H4  UNL     1       7.159  14.983  85.094  1.00  0.00     0.210 HD
ENDBRANCH   5  22
BRANCH   7  24
HETATM   24  C10 UNL     1       6.497  15.578  88.028  1.00  0.00     0.134 C 
HETATM   25  N3  UNL     1       6.018  14.436  88.352  1.00  0.00    -0.252 N 
ATOM     26  H3  UNL     1       5.219  14.108  87.809  1.00  0.00     0.196 HD
BRANCH  25  27
HETATM   27  O5  UNL     1       6.456  13.615  89.336  1.00  0.00    -0.288 OA
ATOM     28  H5  UNL     1       6.108  12.762  89.568  1.00  0.00     0.244 HD
ENDBRANCH  25  27
BRANCH  24  29
HETATM   29  C11 UNL     1       7.623  16.149  88.741  1.00  0.00     0.009 A 
HETATM   30  C12 UNL     1       7.631  16.389  90.107  1.00  0.00     0.015 A 
HETATM   31  C13 UNL     1       8.723  16.921  90.762  1.00  0.00     0.001 A 
HETATM   32  C14 UNL     1       9.872  17.246  90.079  1.00  0.00     0.000 A 
HETATM   33  C15 UNL     1       9.895  17.019  88.721  1.00  0.00     0.001 A 
HETATM   34  C16 UNL     1       8.805  16.486  88.066  1.00  0.00     0.015 A 
ENDBRANCH  24  29
ENDBRANCH   7  24
TORSDOF 10
ENDMDL
MODEL 2
REMARK VINA RESULT: -7.870964947      1.361      2.499
REMARK  10 active torsions:
REMARK  status: ('A' for Active; 'I' for Inactive)
REMARK    1  A    between atoms: C2_2  and  O1_4 
REMARK    2  A    between atoms: C2_2  and  C4_6 
REMARK    3  A    between atoms: C4_6  and  C5_8 
REMARK    4  A    between atoms: C5_8  and  O3_9 
REMARK    5  A    between atoms: C5_8  and  N1_11 
REMARK    6  A    between atoms: C8_15  and  O4_16 
REMARK    7  A    between atoms: N2_19  and  C10_20 
REMARK    8  A    between atoms: C10_20  and  C11_25 
REMARK    9  A    between atoms: N3_21  and  O5_23 
REMARK   10  A    between atoms: C17_31  and  C18_32 
ROOT
HETATM    1  N1  UNL     1       7.205  18.987  84.928  1.00  0.00    -0.362 N 
ATOM      2  H1  UNL     1       7.647  19.375  85.761  1.00  0.00     0.162 HD
HETATM    3  C6  UNL     1       6.314  18.136  85.148  1.00  0.00     0.020 C 
HETATM    4  C7  UNL     1       5.507  17.408  84.136  1.00  0.00     0.088 C 
HETATM    5  C8  UNL     1       5.730  15.934  84.353  1.00  0.00     0.141 C 
HETATM    6  C9  UNL     1       5.277  15.524  85.759  1.00  0.00     0.158 C 
HETATM    7  N2  UNL     1       5.958  16.350  86.755  1.00  0.00    -0.343 N 
HETATM    8  C17 UNL     1       6.008  17.798  86.584  1.00  0.00     0.232 C 
ENDROOT
BRANCH   1   9
HETATM    9  C5  UNL     1       7.691  19.491  83.705  1.00  0.00     0.291 C 
BRANCH   9  10
HETATM   10  C4  UNL     1       6.639  20.155  82.886  1.00  0.00     0.208 C 
HETATM   11  O2  UNL     1       6.454  19.679  81.781  1.00  0.00    -0.290 OA
BRANCH  10  12
HETATM   12  C2  UNL     1       5.841  21.299  83.307  1.00  0.00     0.115 C 
HETATM   13  C1  UNL     1       6.236  22.492  82.448  1.00  0.00     0.054 C 
HETATM   14  C3  UNL     1       4.357  21.113  83.132  1.00  0.00     0.054 C 
BRANCH  12  15
HETATM   15  O1  UNL     1       6.073  21.563  84.653  1.00  0.00    -0.383 OA
ATOM     16  H1  UNL     1       6.812  21.059  84.972  1.00  0.00     0.211 HD
ENDBRANCH  12  15
ENDBRANCH  10  12
ENDBRANCH   9  10
BRANCH   9  17
HETATM   17  O3  UNL     1       8.714  20.437  83.929  1.00  0.00    -0.370 OA
ATOM     18  H3  UNL     1       8.329  21.166  84.401  1.00  0.00     0.212 HD
ENDBRANCH   9  17
ENDBRANCH   1   9
BRANCH   8  19
HETATM   19  C18 UNL     1       4.660  18.361  86.858  1.00  0.00     0.202 C 
HETATM   20  O6  UNL     1       3.816  17.839  87.628  1.00  0.00    -0.646 OA
HETATM   21  O7  UNL     1       4.237  19.556  86.250  1.00  0.00    -0.646 OA
ENDBRANCH   8  19
BRANCH   5  22
HETATM   22  O4  UNL     1       7.102  15.698  84.292  1.00  0.00    -0.394 OA
ATOM     23  H4  UNL     1       7.521  16.253  84.938  1.00  0.00     0.210 HD
ENDBRANCH   5  22
BRANCH   7  24
HETATM   24  C10 UNL     1       6.556  15.688  87.857  1.00  0.00     0.134 C 
HETATM   25  N3  UNL     1       6.028  14.583  88.229  1.00  0.00    -0.252 N 
ATOM     26  H3  UNL     1       5.216  14.267  87.699  1.00  0.00     0.196 HD
BRANCH  25  27
HETATM   27  O5  UNL     1       6.430  13.787  89.248  1.00  0.00    -0.288 OA
ATOM     28  H5  UNL     1       6.028  12.977  89.536  1.00  0.00     0.244 HD
ENDBRANCH  25  27
BRANCH  24  29
HETATM   29  C11 UNL     1       7.706  16.240  88.547  1.00  0.00     0.009 A 
HETATM   30  C12 UNL     1       7.765  16.431  89.920  1.00  0.00     0.015 A 
HETATM   31  C13 UNL     1       8.878  16.946  90.551  1.00  0.00     0.001 A 
HETATM   32  C14 UNL     1       9.999  17.303  89.837  1.00  0.00     0.000 A 
HETATM   33  C15 UNL     1       9.971  17.124  88.473  1.00  0.00     0.001 A 
HETATM   34  C16 UNL     1       8.860  16.609  87.841  1.00  0.00     0.015 A 
ENDBRANCH  24  29
ENDBRANCH   7  24
TORSDOF 10
ENDMDL
MODEL 3
REMARK VINA RESULT: -7.868783774      0.846      1.208
REMARK  10 active torsions:
REMARK  status: ('A' for Active; 'I' for Inactive)
REMARK    1  A    between atoms: C2_2  and  O1_4 
REMARK    2  A    between atoms: C2_2  and  C4_6 
REMARK    3  A    between atoms: C4_6  and  C5_8 
REMARK    4  A    between atoms: C5_8  and  O3_9 
REMARK    5  A    between atoms: C5_8  and  N1_11 
REMARK    6  A    between atoms: C8_15  and  O4_16 
REMARK    7  A    between atoms: N2_19  and  C10_20 
REMARK    8  A    between atoms: C10_20  and  C11_25 
REMARK    9  A    between atoms: N3_21  and  O5_23 
REMARK   10  A    between atoms: C17_31  and  C18_32 
ROOT
HETATM    1  N1  UNL     1       7.311  18.798  84.959  1.00  0.00    -0.362 N 
ATOM      2  H1  UNL     1       7.826  19.174  85.756  1.00  0.00     0.162 HD
HETATM    3  C6  UNL     1       6.384  18.010  85.252  1.00  0.00     0.020 C 
HETATM    4  C7  UNL     1       5.473  17.315  84.308  1.00  0.00     0.088 C 
HETATM    5  C8  UNL     1       5.616  15.835  84.546  1.00  0.00     0.141 C 
HETATM    6  C9  UNL     1       5.225  15.483  85.986  1.00  0.00     0.158 C 
HETATM    7  N2  UNL     1       6.015  16.284  86.920  1.00  0.00    -0.343 N 
HETATM    8  C17 UNL     1       6.146  17.722  86.711  1.00  0.00     0.232 C 
ENDROOT
BRANCH   1   9
HETATM    9  C5  UNL     1       7.752  19.245  83.698  1.00  0.00     0.291 C 
BRANCH   9  10
HETATM   10  C4  UNL     1       8.783  18.358  83.090  1.00  0.00     0.208 C 
HETATM   11  O2  UNL     1       8.360  17.341  82.571  1.00  0.00    -0.290 OA
BRANCH  10  12
HETATM   12  C2  UNL     1      10.216  18.619  83.075  1.00  0.00     0.115 C 
HETATM   13  C1  UNL     1      10.790  18.034  81.793  1.00  0.00     0.054 C 
HETATM   14  C3  UNL     1      10.577  20.081  83.083  1.00  0.00     0.054 C 
BRANCH  12  15
HETATM   15  O1  UNL     1      10.810  18.037  84.191  1.00  0.00    -0.383 OA
ATOM     16  H1  UNL     1      11.732  18.262  84.236  1.00  0.00     0.211 HD
ENDBRANCH  12  15
ENDBRANCH  10  12
ENDBRANCH   9  10
BRANCH   9  17
HETATM   17  O3  UNL     1       6.671  19.321  82.793  1.00  0.00    -0.370 OA
ATOM     18  H3  UNL     1       5.875  19.393  83.305  1.00  0.00     0.212 HD
ENDBRANCH   9  17
ENDBRANCH   1   9
BRANCH   8  19
HETATM   19  C18 UNL     1       4.855  18.375  87.052  1.00  0.00     0.202 C 
HETATM   20  O6  UNL     1       4.376  19.364  86.441  1.00  0.00    -0.646 OA
HETATM   21  O7  UNL     1       4.066  17.907  88.117  1.00  0.00    -0.646 OA
ENDBRANCH   8  19
BRANCH   5  22
HETATM   22  O4  UNL     1       6.964  15.511  84.409  1.00  0.00    -0.394 OA
ATOM     23  H4  UNL     1       7.061  14.585  84.598  1.00  0.00     0.210 HD
ENDBRANCH   5  22
BRANCH   7  24
HETATM   24  C10 UNL     1       6.637  15.607  88.000  1.00  0.00     0.134 C 
HETATM   25  N3  UNL     1       6.164  14.461  88.319  1.00  0.00    -0.252 N 
ATOM     26  H3  UNL     1       5.374  14.127  87.767  1.00  0.00     0.196 HD
BRANCH  25  27
HETATM   27  O5  UNL     1       6.597  13.645  89.308  1.00  0.00    -0.288 OA
ATOM     28  H5  UNL     1       6.325  12.750  89.474  1.00  0.00     0.244 HD
ENDBRANCH  25  27
BRANCH  24  29
HETATM   29  C11 UNL     1       7.751  16.187  88.725  1.00  0.00     0.009 A 
HETATM   30  C12 UNL     1       7.752  16.400  90.096  1.00  0.00     0.015 A 
HETATM   31  C13 UNL     1       8.832  16.943  90.762  1.00  0.00     0.001 A 
HETATM   32  C14 UNL     1       9.975  17.305  90.087  1.00  0.00     0.000 A 
HETATM   33  C15 UNL     1      10.004  17.105  88.725  1.00  0.00     0.001 A 
HETATM   34  C16 UNL     1       8.926  16.563  88.058  1.00  0.00     0.015 A 
ENDBRANCH  24  29
ENDBRANCH   7  24
TORSDOF 10
ENDMDL
MODEL 4
REMARK VINA RESULT: -7.861925127      1.404      2.605
REMARK  10 active torsions:
REMARK  status: ('A' for Active; 'I' for Inactive)
REMARK    1  A    between atoms: C2_2  and  O1_4 
REMARK    2  A    between atoms: C2_2  and  C4_6 
REMARK    3  A    between atoms: C4_6  and  C5_8 
REMARK    4  A    between atoms: C5_8  and  O3_9 
REMARK    5  A    between atoms: C5_8  and  N1_11 
REMARK    6  A    between atoms: C8_15  and  O4_16 
REMARK    7  A    between atoms: N2_19  and  C10_20 
REMARK    8  A    between atoms: C10_20  and  C11_25 
REMARK    9  A    between atoms: N3_21  and  O5_23 
REMARK   10  A    between atoms: C17_31  and  C18_32 
ROOT
HETATM    1  N1  UNL     1       6.996  18.969  85.290  1.00  0.00    -0.362 N 
ATOM      2  H1  UNL     1       7.469  19.346  86.111  1.00  0.00     0.162 HD
HETATM    3  C6  UNL     1       6.164  18.064  85.527  1.00  0.00     0.020 C 
HETATM    4  C7  UNL     1       5.332  17.336  84.536  1.00  0.00     0.088 C 
HETATM    5  C8  UNL     1       5.642  15.868  84.674  1.00  0.00     0.141 C 
HETATM    6  C9  UNL     1       5.301  15.379  86.087  1.00  0.00     0.158 C 
HETATM    7  N2  UNL     1       6.001  16.199  87.074  1.00  0.00    -0.343 N 
HETATM    8  C17 UNL     1       5.968  17.654  86.963  1.00  0.00     0.232 C 
ENDROOT
BRANCH   1   9
HETATM    9  C5  UNL     1       7.377  19.547  84.062  1.00  0.00     0.291 C 
BRANCH   9  10
HETATM   10  C4  UNL     1       6.729  20.863  83.808  1.00  0.00     0.208 C 
HETATM   11  O2  UNL     1       7.476  21.824  83.801  1.00  0.00    -0.290 OA
BRANCH  10  12
HETATM   12  C2  UNL     1       5.306  21.071  83.575  1.00  0.00     0.115 C 
HETATM   13  C1  UNL     1       5.125  22.442  82.942  1.00  0.00     0.054 C 
HETATM   14  C3  UNL     1       4.684  20.074  82.632  1.00  0.00     0.054 C 
BRANCH  12  15
HETATM   15  O1  UNL     1       4.616  20.990  84.781  1.00  0.00    -0.383 OA
ATOM     16  H1  UNL     1       4.323  20.101  84.942  1.00  0.00     0.211 HD
ENDBRANCH  12  15
ENDBRANCH  10  12
ENDBRANCH   9  10
BRANCH   9  17
HETATM   17  O3  UNL     1       8.774  19.747  84.021  1.00  0.00    -0.370 OA
ATOM     18  H3  UNL     1       9.166  18.956  83.671  1.00  0.00     0.212 HD
ENDBRANCH   9  17
ENDBRANCH   1   9
BRANCH   8  19
HETATM   19  C18 UNL     1       4.613  18.133  87.344  1.00  0.00     0.202 C 
HETATM   20  O6  UNL     1       3.915  18.914  86.649  1.00  0.00    -0.646 OA
HETATM   21  O7  UNL     1       4.013  17.725  88.547  1.00  0.00    -0.646 OA
ENDBRANCH   8  19
BRANCH   5  22
HETATM   22  O4  UNL     1       7.018  15.708  84.519  1.00  0.00    -0.394 OA
ATOM     23  H4  UNL     1       7.295  15.006  85.096  1.00  0.00     0.210 HD
ENDBRANCH   5  22
BRANCH   7  24
HETATM   24  C10 UNL     1       6.700  15.526  88.108  1.00  0.00     0.134 C 
HETATM   25  N3  UNL     1       6.307  14.344  88.403  1.00  0.00    -0.252 N 
ATOM     26  H3  UNL     1       5.519  13.981  87.867  1.00  0.00     0.196 HD
BRANCH  25  27
HETATM   27  O5  UNL     1       6.824  13.523  89.348  1.00  0.00    -0.288 OA
ATOM     28  H5  UNL     1       6.356  12.878  89.864  1.00  0.00     0.244 HD
ENDBRANCH  25  27
BRANCH  24  29
HETATM   29  C11 UNL     1       7.804  16.148  88.814  1.00  0.00     0.009 A 
HETATM   30  C12 UNL     1       7.794  16.421  90.174  1.00  0.00     0.015 A 
HETATM   31  C13 UNL     1       8.864  17.003  90.823  1.00  0.00     0.001 A 
HETATM   32  C14 UNL     1      10.008  17.345  90.139  1.00  0.00     0.000 A 
HETATM   33  C15 UNL     1      10.049  17.085  88.789  1.00  0.00     0.001 A 
HETATM   34  C16 UNL     1       8.980  16.504  88.139  1.00  0.00     0.015 A 
ENDBRANCH  24  29
ENDBRANCH   7  24
TORSDOF 10
ENDMDL
MODEL 5
REMARK VINA RESULT: -7.829529345      4.064      7.352
REMARK  10 active torsions:
REMARK  status: ('A' for Active; 'I' for Inactive)
REMARK    1  A    between atoms: C2_2  and  O1_4 
REMARK    2  A    between atoms: C2_2  and  C4_6 
REMARK    3  A    between atoms: C4_6  and  C5_8 
REMARK    4  A    between atoms: C5_8  and  O3_9 
REMARK    5  A    between atoms: C5_8  and  N1_11 
REMARK    6  A    between atoms: C8_15  and  O4_16 
REMARK    7  A    between atoms: N2_19  and  C10_20 
REMARK    8  A    between atoms: C10_20  and  C11_25 
REMARK    9  A    between atoms: N3_21  and  O5_23 
REMARK   10  A    between atoms: C17_31  and  C18_32 
ROOT
HETATM    1  N1  UNL     1       4.782  16.889  84.246  1.00  0.00    -0.362 N 
ATOM      2  H1  UNL     1       4.137  16.104  84.343  1.00  0.00     0.162 HD
HETATM    3  C6  UNL     1       4.244  18.019  84.249  1.00  0.00     0.020 C 
HETATM    4  C7  UNL     1       4.927  19.332  84.124  1.00  0.00     0.088 C 
HETATM    5  C8  UNL     1       4.345  20.034  82.926  1.00  0.00     0.141 C 
HETATM    6  C9  UNL     1       2.839  20.257  83.113  1.00  0.00     0.158 C 
HETATM    7  N2  UNL     1       2.184  18.980  83.392  1.00  0.00    -0.343 N 
HETATM    8  C17 UNL     1       2.746  18.080  84.394  1.00  0.00     0.232 C 
ENDROOT
BRANCH   1   9
HETATM    9  C5  UNL     1       6.141  16.535  84.129  1.00  0.00     0.291 C 
BRANCH   9  10
HETATM   10  C4  UNL     1       6.920  16.787  85.373  1.00  0.00     0.208 C 
HETATM   11  O2  UNL     1       7.975  17.376  85.222  1.00  0.00    -0.290 OA
BRANCH  10  12
HETATM   12  C2  UNL     1       6.517  16.389  86.715  1.00  0.00     0.115 C 
HETATM   13  C1  UNL     1       7.745  15.859  87.440  1.00  0.00     0.054 C 
HETATM   14  C3  UNL     1       5.971  17.515  87.554  1.00  0.00     0.054 C 
BRANCH  12  15
HETATM   15  O1  UNL     1       5.530  15.411  86.638  1.00  0.00    -0.383 OA
ATOM     16  H1  UNL     1       4.704  15.788  86.358  1.00  0.00     0.211 HD
ENDBRANCH  12  15
ENDBRANCH  10  12
ENDBRANCH   9  10
BRANCH   9  17
HETATM   17  O3  UNL     1       6.272  15.165  83.817  1.00  0.00    -0.370 OA
ATOM     18  H3  UNL     1       6.326  15.091  82.872  1.00  0.00     0.212 HD
ENDBRANCH   9  17
ENDBRANCH   1   9
BRANCH   8  19
HETATM   19  C18 UNL     1       2.489  18.647  85.744  1.00  0.00     0.202 C 
HETATM   20  O6  UNL     1       2.129  19.831  85.961  1.00  0.00    -0.646 OA
HETATM   21  O7  UNL     1       2.639  17.860  86.900  1.00  0.00    -0.646 OA
ENDBRANCH   8  19
BRANCH   5  22
HETATM   22  O4  UNL     1       4.489  19.190  81.827  1.00  0.00    -0.394 OA
ATOM     23  H4  UNL     1       5.335  19.367  81.433  1.00  0.00     0.210 HD
ENDBRANCH   5  22
BRANCH   7  24
HETATM   24  C10 UNL     1       1.017  18.667  82.651  1.00  0.00     0.134 C 
HETATM   25  N3  UNL     1      -0.098  19.091  83.115  1.00  0.00    -0.252 N 
ATOM     26  H3  UNL     1      -0.055  19.623  83.985  1.00  0.00     0.196 HD
BRANCH  25  27
HETATM   27  O5  UNL     1      -1.329  18.912  82.578  1.00  0.00    -0.288 OA
ATOM     28  H5  UNL     1      -2.166  19.066  82.999  1.00  0.00     0.244 HD
ENDBRANCH  25  27
BRANCH  24  29
HETATM   29  C11 UNL     1       1.073  17.890  81.428  1.00  0.00     0.009 A 
HETATM   30  C12 UNL     1       0.633  16.578  81.326  1.00  0.00     0.015 A 
HETATM   31  C13 UNL     1       0.687  15.866  80.146  1.00  0.00     0.001 A 
HETATM   32  C14 UNL     1       1.189  16.432  78.997  1.00  0.00     0.000 A 
HETATM   33  C15 UNL     1       1.633  17.732  79.066  1.00  0.00     0.001 A 
HETATM   34  C16 UNL     1       1.580  18.446  80.245  1.00  0.00     0.015 A 
ENDBRANCH  24  29
ENDBRANCH   7  24
TORSDOF 10
ENDMDL
