MODEL 1
REMARK VINA RESULT: -9.122128220      0.000      0.000
REMARK  4 active torsions:
REMARK  status: ('A' for Active; 'I' for Inactive)
REMARK       I    between atoms: C1_4  and  N3_6 
REMARK    1  A    between atoms: C6_13  and  C7_14 
REMARK    2  A    between atoms: C7_14  and  N5_15 
REMARK    3  A    between atoms: N6_19  and  N7_21 
REMARK    4  A    between atoms: C17_33  and  N11_34 
ROOT
HETATM    1  N1  UNL     1       7.306  16.290  93.213  1.00  0.00    -0.372 N 
ATOM      2  H11 UNL     1       6.952  15.506  92.665  1.00  0.00     0.158 HD
ATOM      3  H12 UNL     1       7.058  16.371  94.199  1.00  0.00     0.158 HD
HETATM    4  C1  UNL     1       8.054  17.165  92.666  1.00  0.00     0.209 C 
HETATM    5  N2  UNL     1       8.542  18.247  93.422  1.00  0.00    -0.062 NA
HETATM    6  N3  UNL     1       8.397  17.054  91.300  1.00  0.00    -0.209 N 
HETATM    7  N4  UNL     1       7.544  17.064  90.318  1.00  0.00    -0.274 N 
ATOM      8  H4  UNL     1       6.560  17.159  90.570  1.00  0.00     0.189 HD
HETATM    9  C2  UNL     1       7.819  16.962  89.010  1.00  0.00     0.130 A 
HETATM   10  C3  UNL     1       6.816  16.979  87.970  1.00  0.00     0.009 A 
HETATM   11  C4  UNL     1       7.170  16.870  86.655  1.00  0.00     0.016 A 
HETATM   12  C5  UNL     1       6.219  16.884  85.631  1.00  0.00     0.014 A 
HETATM   13  C6  UNL     1       4.898  17.010  85.972  1.00  0.00    -0.020 A 
HETATM   14  C14 UNL     1       4.511  17.122  87.285  1.00  0.00     0.014 A 
HETATM   15  C15 UNL     1       5.484  17.104  88.261  1.00  0.00     0.016 A 
HETATM   16  N10 UNL     1       9.140  16.836  88.680  1.00  0.00    -0.347 N 
ATOM     17  H10 UNL     1       9.414  16.754  87.700  1.00  0.00     0.167 HD
HETATM   18  C16 UNL     1      10.077  16.819  89.640  1.00  0.00     0.139 A 
HETATM   19  C17 UNL     1       9.717  16.929  90.964  1.00  0.00     0.139 A 
ENDROOT
BRANCH  13  20
HETATM   20  C7  UNL     1       3.860  17.024  84.894  1.00  0.00     0.106 C 
BRANCH  20  21
HETATM   21  N5  UNL     1       3.441  18.257  84.444  1.00  0.00    -0.349 N 
HETATM   22  C8  UNL     1       4.086  18.914  83.397  1.00  0.00     0.074 C 
HETATM   23  C9  UNL     1       3.152  18.973  82.198  1.00  0.00     0.099 C 
HETATM   24  C10 UNL     1       1.740  18.890  82.650  1.00  0.00     0.013 C 
HETATM   25  N6  UNL     1       0.861  18.538  81.783  1.00  0.00    -0.306 N 
HETATM   26  C12 UNL     1       1.290  19.186  84.021  1.00  0.00     0.099 C 
ATOM     27  H6  UNL     1       1.173  18.332  80.833  1.00  0.00     0.186 HD
HETATM   28  C13 UNL     1       2.354  18.908  85.061  1.00  0.00     0.074 C 
BRANCH  25  29
HETATM   29  N7  UNL     1      -0.482  18.422  82.071  1.00  0.00    -0.276 N 
HETATM   30  C11 UNL     1      -1.369  19.119  81.456  1.00  0.00     0.215 C 
HETATM   31  N8  UNL     1      -2.743  18.968  81.785  1.00  0.00    -0.065 NA
HETATM   32  N9  UNL     1      -0.950  20.031  80.455  1.00  0.00    -0.065 NA
ATOM     33  H7  UNL     1      -0.780  17.765  82.792  1.00  0.00     0.189 HD
ENDBRANCH  25  29
ENDBRANCH  20  21
ENDBRANCH  13  20
BRANCH  19  34
HETATM   34  N11 UNL     1      10.580  16.917  91.915  1.00  0.00    -0.383 N 
ATOM     35 2H11 UNL     1      10.450  16.368  92.765  1.00  0.00     0.157 HD
ATOM     36 1H11 UNL     1      11.421  17.483  91.803  1.00  0.00     0.157 HD
ENDBRANCH  19  34
TORSDOF 4
ENDMDL
MODEL 2
REMARK VINA RESULT: -8.786606240      2.265      3.953
REMARK  4 active torsions:
REMARK  status: ('A' for Active; 'I' for Inactive)
REMARK       I    between atoms: C1_4  and  N3_6 
REMARK    1  A    between atoms: C6_13  and  C7_14 
REMARK    2  A    between atoms: C7_14  and  N5_15 
REMARK    3  A    between atoms: N6_19  and  N7_21 
REMARK    4  A    between atoms: C17_33  and  N11_34 
ROOT
HETATM    1  N1  UNL     1       7.435  16.230  93.145  1.00  0.00    -0.372 N 
ATOM      2  H11 UNL     1       7.072  15.439  92.612  1.00  0.00     0.158 HD
ATOM      3  H12 UNL     1       7.244  16.295  94.145  1.00  0.00     0.158 HD
HETATM    4  C1  UNL     1       8.124  17.130  92.563  1.00  0.00     0.209 C 
HETATM    5  N2  UNL     1       8.625  18.220  93.299  1.00  0.00    -0.062 NA
HETATM    6  N3  UNL     1       8.388  17.039  91.178  1.00  0.00    -0.209 N 
HETATM    7  N4  UNL     1       7.478  17.031  90.248  1.00  0.00    -0.274 N 
ATOM      8  H4  UNL     1       6.509  17.096  90.559  1.00  0.00     0.189 HD
HETATM    9  C2  UNL     1       7.678  16.947  88.925  1.00  0.00     0.130 A 
HETATM   10  C3  UNL     1       6.614  16.943  87.947  1.00  0.00     0.009 A 
HETATM   11  C4  UNL     1       6.892  16.854  86.613  1.00  0.00     0.016 A 
HETATM   12  C5  UNL     1       5.882  16.848  85.647  1.00  0.00     0.014 A 
HETATM   13  C6  UNL     1       4.581  16.934  86.068  1.00  0.00    -0.020 A 
HETATM   14  C14 UNL     1       4.270  17.024  87.402  1.00  0.00     0.014 A 
HETATM   15  C15 UNL     1       5.299  17.027  88.318  1.00  0.00     0.016 A 
HETATM   16  N10 UNL     1       8.980  16.862  88.516  1.00  0.00    -0.347 N 
ATOM     17  H10 UNL     1       9.197  16.795  87.522  1.00  0.00     0.167 HD
HETATM   18  C16 UNL     1       9.972  16.865  89.419  1.00  0.00     0.139 A 
HETATM   19  C17 UNL     1       9.689  16.954  90.763  1.00  0.00     0.139 A 
ENDROOT
BRANCH  13  20
HETATM   20  C7  UNL     1       3.480  16.926  85.053  1.00  0.00     0.106 C 
BRANCH  20  21
HETATM   21  N5  UNL     1       3.106  18.141  84.524  1.00  0.00    -0.349 N 
HETATM   22  C8  UNL     1       2.680  19.194  85.334  1.00  0.00     0.074 C 
HETATM   23  C9  UNL     1       3.710  20.312  85.275  1.00  0.00     0.099 C 
HETATM   24  C10 UNL     1       4.476  20.231  84.006  1.00  0.00     0.013 C 
HETATM   25  N6  UNL     1       5.612  20.828  83.961  1.00  0.00    -0.306 N 
HETATM   26  C12 UNL     1       4.016  19.514  82.805  1.00  0.00     0.099 C 
ATOM     27  H6  UNL     1       5.931  21.324  84.794  1.00  0.00     0.186 HD
HETATM   28  C13 UNL     1       3.113  18.343  83.129  1.00  0.00     0.074 C 
BRANCH  25  29
HETATM   29  N7  UNL     1       6.422  20.831  82.846  1.00  0.00    -0.276 N 
HETATM   30  C11 UNL     1       7.629  20.394  82.884  1.00  0.00     0.215 C 
HETATM   31  N8  UNL     1       8.429  20.416  81.710  1.00  0.00    -0.065 NA
HETATM   32  N9  UNL     1       8.139  19.896  84.110  1.00  0.00    -0.065 NA
ATOM     33  H7  UNL     1       6.051  21.191  81.965  1.00  0.00     0.189 HD
ENDBRANCH  25  29
ENDBRANCH  20  21
ENDBRANCH  13  20
BRANCH  19  34
HETATM   34  N11 UNL     1      10.608  16.961  91.661  1.00  0.00    -0.383 N 
ATOM     35 2H11 UNL     1      11.440  17.545  91.586  1.00  0.00     0.157 HD
ATOM     36 1H11 UNL     1      10.487  16.353  92.471  1.00  0.00     0.157 HD
ENDBRANCH  19  34
TORSDOF 4
ENDMDL
MODEL 3
REMARK VINA RESULT: -8.717984500      5.456      9.732
REMARK  4 active torsions:
REMARK  status: ('A' for Active; 'I' for Inactive)
REMARK       I    between atoms: C1_4  and  N3_6 
REMARK    1  A    between atoms: C6_13  and  C7_14 
REMARK    2  A    between atoms: C7_14  and  N5_15 
REMARK    3  A    between atoms: N6_19  and  N7_21 
REMARK    4  A    between atoms: C17_33  and  N11_34 
ROOT
HETATM    1  N1  UNL     1      14.522  16.055  81.934  1.00  0.00    -0.372 N 
ATOM      2  H11 UNL     1      13.793  15.416  82.254  1.00  0.00     0.158 HD
ATOM      3  H12 UNL     1      15.500  15.842  82.127  1.00  0.00     0.158 HD
HETATM    4  C1  UNL     1      14.209  17.112  81.296  1.00  0.00     0.209 C 
HETATM    5  N2  UNL     1      15.213  17.993  80.854  1.00  0.00    -0.062 NA
HETATM    6  N3  UNL     1      12.853  17.406  81.029  1.00  0.00    -0.209 N 
HETATM    7  N4  UNL     1      11.942  17.597  81.939  1.00  0.00    -0.274 N 
ATOM      8  H4  UNL     1      12.246  17.526  82.910  1.00  0.00     0.189 HD
HETATM    9  C2  UNL     1      10.647  17.878  81.736  1.00  0.00     0.130 A 
HETATM   10  C3  UNL     1       9.688  18.077  82.799  1.00  0.00     0.009 A 
HETATM   11  C4  UNL     1       8.382  18.361  82.518  1.00  0.00     0.016 A 
HETATM   12  C5  UNL     1       7.436  18.558  83.528  1.00  0.00     0.014 A 
HETATM   13  C6  UNL     1       7.847  18.460  84.831  1.00  0.00    -0.020 A 
HETATM   14  C14 UNL     1       9.153  18.177  85.145  1.00  0.00     0.014 A 
HETATM   15  C15 UNL     1      10.050  17.990  84.117  1.00  0.00     0.016 A 
HETATM   16  N10 UNL     1      10.247  17.974  80.432  1.00  0.00    -0.347 N 
ATOM     17  H10 UNL     1       9.273  18.185  80.212  1.00  0.00     0.167 HD
HETATM   18  C16 UNL     1      11.131  17.790  79.440  1.00  0.00     0.139 A 
HETATM   19  C17 UNL     1      12.447  17.504  79.726  1.00  0.00     0.139 A 
ENDROOT
BRANCH  13  20
HETATM   20  C7  UNL     1       6.852  18.663  85.931  1.00  0.00     0.106 C 
BRANCH  20  21
HETATM   21  N5  UNL     1       6.341  17.533  86.530  1.00  0.00    -0.349 N 
HETATM   22  C8  UNL     1       6.765  16.254  86.168  1.00  0.00     0.074 C 
HETATM   23  C9  UNL     1       7.528  15.638  87.331  1.00  0.00     0.099 C 
HETATM   24  C10 UNL     1       7.094  16.258  88.608  1.00  0.00     0.013 C 
HETATM   25  N6  UNL     1       7.883  16.148  89.616  1.00  0.00    -0.306 N 
HETATM   26  C12 UNL     1       5.826  16.984  88.789  1.00  0.00     0.099 C 
ATOM     27  H6  UNL     1       8.762  15.646  89.491  1.00  0.00     0.186 HD
HETATM   28  C13 UNL     1       5.339  17.641  87.515  1.00  0.00     0.074 C 
BRANCH  25  29
HETATM   29  N7  UNL     1       7.601  16.677  90.857  1.00  0.00    -0.276 N 
HETATM   30  C11 UNL     1       8.523  17.151  91.617  1.00  0.00     0.215 C 
HETATM   31  N8  UNL     1       8.187  17.686  92.889  1.00  0.00    -0.065 NA
HETATM   32  N9  UNL     1       9.865  17.128  91.162  1.00  0.00    -0.065 NA
ATOM     33  H7  UNL     1       6.634  16.691  91.182  1.00  0.00     0.189 HD
ENDBRANCH  25  29
ENDBRANCH  20  21
ENDBRANCH  13  20
BRANCH  19  34
HETATM   34  N11 UNL     1      13.326  17.320  78.808  1.00  0.00    -0.383 N 
ATOM     35 2H11 UNL     1      14.195  16.812  78.977  1.00  0.00     0.157 HD
ATOM     36 1H11 UNL     1      13.137  17.703  77.882  1.00  0.00     0.157 HD
ENDBRANCH  19  34
TORSDOF 4
ENDMDL
MODEL 4
REMARK VINA RESULT: -8.616466330      0.989      2.166
REMARK  4 active torsions:
REMARK  status: ('A' for Active; 'I' for Inactive)
REMARK       I    between atoms: C1_4  and  N3_6 
REMARK    1  A    between atoms: C6_13  and  C7_14 
REMARK    2  A    between atoms: C7_14  and  N5_15 
REMARK    3  A    between atoms: N6_19  and  N7_21 
REMARK    4  A    between atoms: C17_33  and  N11_34 
ROOT
HETATM    1  N1  UNL     1      11.814  18.740  89.552  1.00  0.00    -0.372 N 
ATOM      2  H11 UNL     1      11.118  19.448  89.316  1.00  0.00     0.158 HD
ATOM      3  H12 UNL     1      12.807  18.953  89.449  1.00  0.00     0.158 HD
HETATM    4  C1  UNL     1      11.444  17.596  89.975  1.00  0.00     0.209 C 
HETATM    5  N2  UNL     1      12.404  16.620  90.301  1.00  0.00    -0.062 NA
HETATM    6  N3  UNL     1      10.070  17.302  90.118  1.00  0.00    -0.209 N 
HETATM    7  N4  UNL     1       9.206  17.304  89.145  1.00  0.00    -0.274 N 
ATOM      8  H4  UNL     1       9.563  17.536  88.218  1.00  0.00     0.189 HD
HETATM    9  C2  UNL     1       7.896  17.032  89.230  1.00  0.00     0.130 A 
HETATM   10  C3  UNL     1       6.992  17.054  88.103  1.00  0.00     0.009 A 
HETATM   11  C4  UNL     1       5.667  16.766  88.263  1.00  0.00     0.016 A 
HETATM   12  C5  UNL     1       4.772  16.781  87.189  1.00  0.00     0.014 A 
HETATM   13  C6  UNL     1       5.255  17.096  85.946  1.00  0.00    -0.020 A 
HETATM   14  C14 UNL     1       6.582  17.390  85.753  1.00  0.00     0.014 A 
HETATM   15  C15 UNL     1       7.426  17.362  86.841  1.00  0.00     0.016 A 
HETATM   16  N10 UNL     1       7.424  16.719  90.475  1.00  0.00    -0.347 N 
ATOM     17  H10 UNL     1       6.435  16.502  90.604  1.00  0.00     0.167 HD
HETATM   18  C16 UNL     1       8.257  16.697  91.526  1.00  0.00     0.139 A 
HETATM   19  C17 UNL     1       9.593  16.987  91.361  1.00  0.00     0.139 A 
ENDROOT
BRANCH  13  20
HETATM   20  C7  UNL     1       4.317  17.122  84.780  1.00  0.00     0.106 C 
BRANCH  20  21
HETATM   21  N5  UNL     1       3.807  18.349  84.413  1.00  0.00    -0.349 N 
HETATM   22  C8  UNL     1       4.382  19.107  83.394  1.00  0.00     0.074 C 
HETATM   23  C9  UNL     1       3.415  19.173  82.221  1.00  0.00     0.099 C 
HETATM   24  C10 UNL     1       2.024  18.972  82.698  1.00  0.00     0.013 C 
HETATM   25  N6  UNL     1       1.148  18.613  81.830  1.00  0.00    -0.306 N 
HETATM   26  C12 UNL     1       1.590  19.157  84.093  1.00  0.00     0.099 C 
ATOM     27  H6  UNL     1       1.448  18.484  80.864  1.00  0.00     0.186 HD
HETATM   28  C13 UNL     1       2.696  18.890  85.091  1.00  0.00     0.074 C 
BRANCH  25  29
HETATM   29  N7  UNL     1      -0.177  18.393  82.140  1.00  0.00    -0.276 N 
HETATM   30  C11 UNL     1      -1.126  19.010  81.532  1.00  0.00     0.215 C 
HETATM   31  N8  UNL     1      -2.478  18.752  81.883  1.00  0.00    -0.065 NA
HETATM   32  N9  UNL     1      -0.797  19.942  80.516  1.00  0.00    -0.065 NA
ATOM     33  H7  UNL     1      -0.410  17.721  82.872  1.00  0.00     0.189 HD
ENDBRANCH  25  29
ENDBRANCH  20  21
ENDBRANCH  13  20
BRANCH  19  34
HETATM   34  N11 UNL     1      10.425  16.978  92.339  1.00  0.00    -0.383 N 
ATOM     35 2H11 UNL     1      11.434  17.027  92.198  1.00  0.00     0.157 HD
ATOM     36 1H11 UNL     1      10.049  16.918  93.285  1.00  0.00     0.157 HD
ENDBRANCH  19  34
TORSDOF 4
ENDMDL
MODEL 5
REMARK VINA RESULT: -8.583612772      2.071      2.919
REMARK  4 active torsions:
REMARK  status: ('A' for Active; 'I' for Inactive)
REMARK       I    between atoms: C1_4  and  N3_6 
REMARK    1  A    between atoms: C6_13  and  C7_14 
REMARK    2  A    between atoms: C7_14  and  N5_15 
REMARK    3  A    between atoms: N6_19  and  N7_21 
REMARK    4  A    between atoms: C17_33  and  N11_34 
ROOT
HETATM    1  N1  UNL     1       7.361  16.312  93.227  1.00  0.00    -0.372 N 
ATOM      2  H11 UNL     1       7.014  15.493  92.727  1.00  0.00     0.158 HD
ATOM      3  H12 UNL     1       7.152  16.424  94.219  1.00  0.00     0.158 HD
HETATM    4  C1  UNL     1       8.053  17.188  92.614  1.00  0.00     0.209 C 
HETATM    5  N2  UNL     1       8.533  18.317  93.304  1.00  0.00    -0.062 NA
HETATM    6  N3  UNL     1       8.342  17.032  91.240  1.00  0.00    -0.209 N 
HETATM    7  N4  UNL     1       7.448  16.972  90.296  1.00  0.00    -0.274 N 
ATOM      8  H4  UNL     1       6.473  17.043  90.587  1.00  0.00     0.189 HD
HETATM    9  C2  UNL     1       7.672  16.825  88.983  1.00  0.00     0.130 A 
HETATM   10  C3  UNL     1       6.626  16.764  87.988  1.00  0.00     0.009 A 
HETATM   11  C4  UNL     1       6.927  16.613  86.664  1.00  0.00     0.016 A 
HETATM   12  C5  UNL     1       5.934  16.551  85.683  1.00  0.00     0.014 A 
HETATM   13  C6  UNL     1       4.625  16.646  86.076  1.00  0.00    -0.020 A 
HETATM   14  C14 UNL     1       4.290  16.799  87.399  1.00  0.00     0.014 A 
HETATM   15  C15 UNL     1       5.303  16.855  88.331  1.00  0.00     0.016 A 
HETATM   16  N10 UNL     1       8.981  16.731  88.600  1.00  0.00    -0.347 N 
ATOM     17  H10 UNL     1       9.216  16.618  87.614  1.00  0.00     0.167 HD
HETATM   18  C16 UNL     1       9.958  16.787  89.518  1.00  0.00     0.139 A 
HETATM   19  C17 UNL     1       9.651  16.939  90.852  1.00  0.00     0.139 A 
ENDROOT
BRANCH  13  20
HETATM   20  C7  UNL     1       3.543  16.579  85.045  1.00  0.00     0.106 C 
BRANCH  20  21
HETATM   21  N5  UNL     1       3.478  17.613  84.136  1.00  0.00    -0.349 N 
HETATM   22  C8  UNL     1       2.449  17.701  83.198  1.00  0.00     0.074 C 
HETATM   23  C9  UNL     1       1.583  18.908  83.526  1.00  0.00     0.099 C 
HETATM   24  C10 UNL     1       2.372  19.907  84.290  1.00  0.00     0.013 C 
HETATM   25  N6  UNL     1       1.720  20.779  84.971  1.00  0.00    -0.306 N 
HETATM   26  C12 UNL     1       3.843  19.959  84.314  1.00  0.00     0.099 C 
ATOM     27  H6  UNL     1       0.701  20.744  84.955  1.00  0.00     0.186 HD
HETATM   28  C13 UNL     1       4.481  18.602  84.109  1.00  0.00     0.074 C 
BRANCH  25  29
HETATM   29  N7  UNL     1       2.329  21.761  85.722  1.00  0.00    -0.276 N 
HETATM   30  C11 UNL     1       1.651  22.663  86.337  1.00  0.00     0.215 C 
HETATM   31  N8  UNL     1       2.320  23.656  87.101  1.00  0.00    -0.065 NA
HETATM   32  N9  UNL     1       0.237  22.644  86.236  1.00  0.00    -0.065 NA
ATOM     33  H7  UNL     1       3.347  21.772  85.793  1.00  0.00     0.189 HD
ENDBRANCH  25  29
ENDBRANCH  20  21
ENDBRANCH  13  20
BRANCH  19  34
HETATM   34  N11 UNL     1      10.553  16.997  91.763  1.00  0.00    -0.383 N 
ATOM     35 2H11 UNL     1      11.486  17.369  91.586  1.00  0.00     0.157 HD
ATOM     36 1H11 UNL     1      10.315  16.653  92.694  1.00  0.00     0.157 HD
ENDBRANCH  19  34
TORSDOF 4
ENDMDL
