MODEL 1
REMARK VINA RESULT: -8.339948615      0.000      0.000
REMARK  11 active torsions:
REMARK  status: ('A' for Active; 'I' for Inactive)
REMARK    1  A    between atoms: C2_2  and  C3_3 
REMARK    2  A    between atoms: C2_2  and  C19_27 
REMARK    3  A    between atoms: C3_3  and  C4_4 
REMARK    4  A    between atoms: C4_4  and  C5_5 
REMARK    5  A    between atoms: C5_5  and  O1_6 
REMARK    6  A    between atoms: C8_10  and  O2_11 
REMARK    7  A    between atoms: C16_20  and  O3_21 
REMARK    8  A    between atoms: C19_27  and  O6_28 
REMARK    9  A    between atoms: C19_27  and  C20_30 
REMARK   10  A    between atoms: C20_30  and  O7_31 
REMARK   11  A    between atoms: C20_30  and  O8_33 
ROOT
HETATM    1  C4  UNL     1       7.568  16.635  87.674  1.00  0.00     0.028 C 
HETATM    2  C6  UNL     1       8.407  17.404  86.674  1.00  0.00     0.021 C 
HETATM    3  C7  UNL     1       8.221  17.248  85.234  1.00  0.00     0.042 C 
HETATM    4  C8  UNL     1       6.943  17.655  84.553  1.00  0.00     0.092 C 
HETATM    5  C9  UNL     1       6.372  18.962  85.192  1.00  0.00     0.081 C 
HETATM    6  C10 UNL     1       4.936  18.782  85.435  1.00  0.00     0.093 A 
HETATM    7  C11 UNL     1       4.745  17.920  84.304  1.00  0.00     0.082 C 
HETATM    8  C12 UNL     1       5.748  16.892  84.884  1.00  0.00     0.095 C 
HETATM    9  C13 UNL     1       5.080  15.693  84.697  1.00  0.00     0.042 C 
HETATM   10  C14 UNL     1       3.891  15.755  85.673  1.00  0.00     0.013 C 
HETATM   11  C15 UNL     1       3.898  16.838  86.716  1.00  0.00     0.049 C 
HETATM   12  C16 UNL     1       4.949  16.517  87.837  1.00  0.00     0.154 C 
HETATM   13  C17 UNL     1       6.154  17.171  87.261  1.00  0.00     0.166 C 
HETATM   14  O4  UNL     1       6.097  16.839  86.109  1.00  0.00    -0.368 OA
HETATM   15  C18 UNL     1       3.914  18.232  86.273  1.00  0.00     0.164 A 
HETATM   16  O5  UNL     1       4.506  19.344  86.499  1.00  0.00    -0.368 OA
ENDROOT
BRANCH   1  17
HETATM   17  C3  UNL     1       7.808  17.160  89.022  1.00  0.00    -0.003 C 
BRANCH  17  18
HETATM   18  C2  UNL     1       9.034  17.118  89.774  1.00  0.00    -0.037 C 
HETATM   19  C1  UNL     1      10.282  17.289  89.459  1.00  0.00     0.021 C 
BRANCH  18  20
HETATM   20  C19 UNL     1       8.780  16.818  91.242  1.00  0.00     0.205 C 
BRANCH  20  21
HETATM   21  O6  UNL     1       7.419  16.565  91.440  1.00  0.00    -0.386 OA
ATOM     22  H6  UNL     1       7.176  16.801  92.327  1.00  0.00     0.210 HD
ENDBRANCH  20  21
BRANCH  20  23
HETATM   23  C20 UNL     1       9.327  17.761  92.229  1.00  0.00     0.287 C 
BRANCH  23  24
HETATM   24  O7  UNL     1      10.589  17.507  92.723  1.00  0.00    -0.369 OA
ATOM     25  H7  UNL     1      10.962  18.142  93.322  1.00  0.00     0.212 HD
ENDBRANCH  23  24
BRANCH  23  26
HETATM   26  O8  UNL     1       8.488  18.140  93.264  1.00  0.00    -0.369 OA
ATOM     27  H8  UNL     1       8.396  19.072  93.422  1.00  0.00     0.212 HD
ENDBRANCH  23  26
ENDBRANCH  20  23
ENDBRANCH  18  20
ENDBRANCH  17  18
ENDBRANCH   1  17
BRANCH   1  28
HETATM   28  C5  UNL     1       7.625  15.173  87.555  1.00  0.00     0.180 C 
BRANCH  28  29
HETATM   29  O1  UNL     1       7.436  14.385  88.653  1.00  0.00    -0.400 OA
ATOM     30  H1  UNL     1       7.356  13.443  88.559  1.00  0.00     0.209 HD
ENDBRANCH  28  29
ENDBRANCH   1  28
BRANCH  12  31
HETATM   31  O3  UNL     1       4.519  17.063  89.027  1.00  0.00    -0.392 OA
ATOM     32  H3  UNL     1       5.270  17.215  89.587  1.00  0.00     0.210 HD
ENDBRANCH  12  31
BRANCH   4  33
HETATM   33  O2  UNL     1       7.148  17.773  83.210  1.00  0.00    -0.387 OA
ATOM     34  H2  UNL     1       6.463  17.316  82.736  1.00  0.00     0.210 HD
ENDBRANCH   4  33
TORSDOF 11
ENDMDL
MODEL 2
REMARK VINA RESULT: -8.080490178      2.615      4.165
REMARK  11 active torsions:
REMARK  status: ('A' for Active; 'I' for Inactive)
REMARK    1  A    between atoms: C2_2  and  C3_3 
REMARK    2  A    between atoms: C2_2  and  C19_27 
REMARK    3  A    between atoms: C3_3  and  C4_4 
REMARK    4  A    between atoms: C4_4  and  C5_5 
REMARK    5  A    between atoms: C5_5  and  O1_6 
REMARK    6  A    between atoms: C8_10  and  O2_11 
REMARK    7  A    between atoms: C16_20  and  O3_21 
REMARK    8  A    between atoms: C19_27  and  O6_28 
REMARK    9  A    between atoms: C19_27  and  C20_30 
REMARK   10  A    between atoms: C20_30  and  O7_31 
REMARK   11  A    between atoms: C20_30  and  O8_33 
ROOT
HETATM    1  C4  UNL     1       5.857  18.232  85.383  1.00  0.00     0.028 C 
HETATM    2  C6  UNL     1       6.711  19.375  84.873  1.00  0.00     0.021 C 
HETATM    3  C7  UNL     1       6.478  19.983  83.566  1.00  0.00     0.042 C 
HETATM    4  C8  UNL     1       5.208  20.724  83.254  1.00  0.00     0.092 C 
HETATM    5  C9  UNL     1       4.727  21.540  84.497  1.00  0.00     0.081 C 
HETATM    6  C10 UNL     1       3.291  21.311  84.689  1.00  0.00     0.093 A 
HETATM    7  C11 UNL     1       3.021  21.156  83.287  1.00  0.00     0.082 C 
HETATM    8  C12 UNL     1       3.981  19.942  83.211  1.00  0.00     0.095 C 
HETATM    9  C13 UNL     1       3.242  19.030  82.474  1.00  0.00     0.042 C 
HETATM   10  C14 UNL     1       2.085  18.626  83.406  1.00  0.00     0.013 C 
HETATM   11  C15 UNL     1       2.180  19.023  84.852  1.00  0.00     0.049 C 
HETATM   12  C16 UNL     1       3.241  18.138  85.598  1.00  0.00     0.154 C 
HETATM   13  C17 UNL     1       4.465  18.952  85.374  1.00  0.00     0.166 C 
HETATM   14  O4  UNL     1       4.358  19.258  84.219  1.00  0.00    -0.368 OA
HETATM   15  C18 UNL     1       2.262  20.446  85.181  1.00  0.00     0.164 A 
HETATM   16  O5  UNL     1       2.921  21.264  85.911  1.00  0.00    -0.368 OA
ENDROOT
BRANCH   1  17
HETATM   17  C3  UNL     1       6.161  17.986  86.796  1.00  0.00    -0.003 C 
BRANCH  17  18
HETATM   18  C2  UNL     1       7.157  17.097  87.337  1.00  0.00    -0.037 C 
HETATM   19  C1  UNL     1       8.455  17.095  87.323  1.00  0.00     0.021 C 
BRANCH  18  20
HETATM   20  C19 UNL     1       6.522  15.934  88.081  1.00  0.00     0.205 C 
BRANCH  20  21
HETATM   21  O6  UNL     1       7.392  14.839  88.069  1.00  0.00    -0.386 OA
ATOM     22  H6  UNL     1       7.069  14.168  88.659  1.00  0.00     0.210 HD
ENDBRANCH  20  21
BRANCH  20  23
HETATM   23  C20 UNL     1       5.147  15.565  87.713  1.00  0.00     0.287 C 
BRANCH  23  24
HETATM   24  O7  UNL     1       4.148  15.839  88.622  1.00  0.00    -0.369 OA
ATOM     25  H7  UNL     1       4.407  16.034  89.514  1.00  0.00     0.212 HD
ENDBRANCH  23  24
BRANCH  23  26
HETATM   26  O8  UNL     1       4.961  14.300  87.180  1.00  0.00    -0.369 OA
ATOM     27  H8  UNL     1       4.068  14.049  86.976  1.00  0.00     0.212 HD
ENDBRANCH  23  26
ENDBRANCH  20  23
ENDBRANCH  18  20
ENDBRANCH  17  18
ENDBRANCH   1  17
BRANCH   1  28
HETATM   28  C5  UNL     1       5.829  17.035  84.534  1.00  0.00     0.180 C 
BRANCH  28  29
HETATM   29  O1  UNL     1       6.975  16.574  83.954  1.00  0.00    -0.400 OA
ATOM     30  H1  UNL     1       7.046  15.664  83.691  1.00  0.00     0.209 HD
ENDBRANCH  28  29
ENDBRANCH   1  28
BRANCH  12  31
HETATM   31  O3  UNL     1       2.874  18.013  86.920  1.00  0.00    -0.392 OA
ATOM     32  H3  UNL     1       3.387  17.322  87.321  1.00  0.00     0.210 HD
ENDBRANCH  12  31
BRANCH   4  33
HETATM   33  O2  UNL     1       5.382  21.505  82.150  1.00  0.00    -0.387 OA
ATOM     34  H2  UNL     1       4.919  22.328  82.257  1.00  0.00     0.210 HD
ENDBRANCH   4  33
TORSDOF 11
ENDMDL
MODEL 3
REMARK VINA RESULT: -7.671317656      1.994      3.492
REMARK  11 active torsions:
REMARK  status: ('A' for Active; 'I' for Inactive)
REMARK    1  A    between atoms: C2_2  and  C3_3 
REMARK    2  A    between atoms: C2_2  and  C19_27 
REMARK    3  A    between atoms: C3_3  and  C4_4 
REMARK    4  A    between atoms: C4_4  and  C5_5 
REMARK    5  A    between atoms: C5_5  and  O1_6 
REMARK    6  A    between atoms: C8_10  and  O2_11 
REMARK    7  A    between atoms: C16_20  and  O3_21 
REMARK    8  A    between atoms: C19_27  and  O6_28 
REMARK    9  A    between atoms: C19_27  and  C20_30 
REMARK   10  A    between atoms: C20_30  and  O7_31 
REMARK   11  A    between atoms: C20_30  and  O8_33 
ROOT
HETATM    1  C4  UNL     1       5.687  17.516  85.495  1.00  0.00     0.028 C 
HETATM    2  C6  UNL     1       6.771  18.428  84.957  1.00  0.00     0.021 C 
HETATM    3  C7  UNL     1       6.684  19.020  83.625  1.00  0.00     0.042 C 
HETATM    4  C8  UNL     1       5.605  20.002  83.264  1.00  0.00     0.092 C 
HETATM    5  C9  UNL     1       5.300  20.951  84.469  1.00  0.00     0.081 C 
HETATM    6  C10 UNL     1       3.847  21.042  84.644  1.00  0.00     0.093 A 
HETATM    7  C11 UNL     1       3.562  20.892  83.245  1.00  0.00     0.082 C 
HETATM    8  C12 UNL     1       4.239  19.499  83.229  1.00  0.00     0.095 C 
HETATM    9  C13 UNL     1       3.329  18.738  82.515  1.00  0.00     0.042 C 
HETATM   10  C14 UNL     1       2.104  18.627  83.441  1.00  0.00     0.013 C 
HETATM   11  C15 UNL     1       2.269  19.052  84.873  1.00  0.00     0.049 C 
HETATM   12  C16 UNL     1       3.110  17.991  85.669  1.00  0.00     0.154 C 
HETATM   13  C17 UNL     1       4.482  18.516  85.436  1.00  0.00     0.166 C 
HETATM   14  O4  UNL     1       4.453  18.791  84.268  1.00  0.00    -0.368 OA
HETATM   15  C18 UNL     1       2.652  20.437  85.150  1.00  0.00     0.164 A 
HETATM   16  O5  UNL     1       3.465  21.124  85.860  1.00  0.00    -0.368 OA
ENDROOT
BRANCH   1  17
HETATM   17  C3  UNL     1       5.919  17.266  86.921  1.00  0.00    -0.003 C 
BRANCH  17  18
HETATM   18  C2  UNL     1       5.829  16.009  87.618  1.00  0.00    -0.037 C 
HETATM   19  C1  UNL     1       4.844  15.212  87.897  1.00  0.00     0.021 C 
BRANCH  18  20
HETATM   20  C19 UNL     1       7.190  15.543  88.108  1.00  0.00     0.205 C 
BRANCH  20  21
HETATM   21  O6  UNL     1       7.073  14.270  88.674  1.00  0.00    -0.386 OA
ATOM     22  H6  UNL     1       7.253  13.610  88.015  1.00  0.00     0.210 HD
ENDBRANCH  20  21
BRANCH  20  23
HETATM   23  C20 UNL     1       7.957  16.469  88.955  1.00  0.00     0.287 C 
BRANCH  23  24
HETATM   24  O7  UNL     1       9.300  16.616  88.685  1.00  0.00    -0.369 OA
ATOM     25  H7  UNL     1       9.910  16.479  89.401  1.00  0.00     0.212 HD
ENDBRANCH  23  24
BRANCH  23  26
HETATM   26  O8  UNL     1       7.762  16.371  90.323  1.00  0.00    -0.369 OA
ATOM     27  H8  UNL     1       8.173  17.036  90.863  1.00  0.00     0.212 HD
ENDBRANCH  23  26
ENDBRANCH  20  23
ENDBRANCH  18  20
ENDBRANCH  17  18
ENDBRANCH   1  17
BRANCH   1  28
HETATM   28  C5  UNL     1       5.410  16.320  84.690  1.00  0.00     0.180 C 
BRANCH  28  29
HETATM   29  O1  UNL     1       6.431  15.509  84.286  1.00  0.00    -0.400 OA
ATOM     30  H1  UNL     1       6.390  14.573  84.441  1.00  0.00     0.209 HD
ENDBRANCH  28  29
ENDBRANCH   1  28
BRANCH  12  31
HETATM   31  O3  UNL     1       2.713  18.001  86.988  1.00  0.00    -0.392 OA
ATOM     32  H3  UNL     1       2.014  17.370  87.107  1.00  0.00     0.210 HD
ENDBRANCH  12  31
BRANCH   4  33
HETATM   33  O2  UNL     1       5.952  20.683  82.135  1.00  0.00    -0.387 OA
ATOM     34  H2  UNL     1       5.960  21.617  82.308  1.00  0.00     0.210 HD
ENDBRANCH   4  33
TORSDOF 11
ENDMDL
MODEL 4
REMARK VINA RESULT: -7.648183954      1.530      2.233
REMARK  11 active torsions:
REMARK  status: ('A' for Active; 'I' for Inactive)
REMARK    1  A    between atoms: C2_2  and  C3_3 
REMARK    2  A    between atoms: C2_2  and  C19_27 
REMARK    3  A    between atoms: C3_3  and  C4_4 
REMARK    4  A    between atoms: C4_4  and  C5_5 
REMARK    5  A    between atoms: C5_5  and  O1_6 
REMARK    6  A    between atoms: C8_10  and  O2_11 
REMARK    7  A    between atoms: C16_20  and  O3_21 
REMARK    8  A    between atoms: C19_27  and  O6_28 
REMARK    9  A    between atoms: C19_27  and  C20_30 
REMARK   10  A    between atoms: C20_30  and  O7_31 
REMARK   11  A    between atoms: C20_30  and  O8_33 
ROOT
HETATM    1  C4  UNL     1       7.688  17.284  86.393  1.00  0.00     0.028 C 
HETATM    2  C6  UNL     1       7.381  18.551  85.621  1.00  0.00     0.021 C 
HETATM    3  C7  UNL     1       6.472  18.552  84.478  1.00  0.00     0.042 C 
HETATM    4  C8  UNL     1       5.011  18.229  84.630  1.00  0.00     0.092 C 
HETATM    5  C9  UNL     1       4.453  18.819  85.966  1.00  0.00     0.081 C 
HETATM    6  C10 UNL     1       3.659  17.788  86.644  1.00  0.00     0.093 A 
HETATM    7  C11 UNL     1       3.212  17.179  85.423  1.00  0.00     0.082 C 
HETATM    8  C12 UNL     1       4.673  16.866  85.014  1.00  0.00     0.095 C 
HETATM    9  C13 UNL     1       4.581  15.554  84.577  1.00  0.00     0.042 C 
HETATM   10  C14 UNL     1       4.291  14.741  85.852  1.00  0.00     0.013 C 
HETATM   11  C15 UNL     1       4.466  15.429  87.176  1.00  0.00     0.049 C 
HETATM   12  C16 UNL     1       5.991  15.614  87.504  1.00  0.00     0.154 C 
HETATM   13  C17 UNL     1       6.236  16.938  86.870  1.00  0.00     0.166 C 
HETATM   14  O4  UNL     1       5.656  16.830  85.825  1.00  0.00    -0.368 OA
HETATM   15  C18 UNL     1       3.654  16.613  87.460  1.00  0.00     0.164 A 
HETATM   16  O5  UNL     1       3.751  17.803  87.918  1.00  0.00    -0.368 OA
ENDROOT
BRANCH   1  17
HETATM   17  C3  UNL     1       8.432  17.619  87.611  1.00  0.00    -0.003 C 
BRANCH  17  18
HETATM   18  C2  UNL     1       9.846  17.477  87.843  1.00  0.00    -0.037 C 
HETATM   19  C1  UNL     1      10.900  17.794  87.154  1.00  0.00     0.021 C 
BRANCH  18  20
HETATM   20  C19 UNL     1      10.129  16.824  89.185  1.00  0.00     0.205 C 
BRANCH  20  21
HETATM   21  O6  UNL     1       8.931  16.655  89.886  1.00  0.00    -0.386 OA
ATOM     22  H6  UNL     1       8.920  17.231  90.642  1.00  0.00     0.210 HD
ENDBRANCH  20  21
BRANCH  20  23
HETATM   23  C20 UNL     1      11.189  17.417  90.014  1.00  0.00     0.287 C 
BRANCH  23  24
HETATM   24  O7  UNL     1      12.449  16.862  89.933  1.00  0.00    -0.369 OA
ATOM     25  H7  UNL     1      12.510  15.942  89.708  1.00  0.00     0.212 HD
ENDBRANCH  23  24
BRANCH  23  26
HETATM   26  O8  UNL     1      10.877  17.674  91.339  1.00  0.00    -0.369 OA
ATOM     27  H8  UNL     1      11.547  18.095  91.863  1.00  0.00     0.212 HD
ENDBRANCH  23  26
ENDBRANCH  20  23
ENDBRANCH  18  20
ENDBRANCH  17  18
ENDBRANCH   1  17
BRANCH   1  28
HETATM   28  C5  UNL     1       8.251  16.182  85.602  1.00  0.00     0.180 C 
BRANCH  28  29
HETATM   29  O1  UNL     1       8.045  16.125  84.255  1.00  0.00    -0.400 OA
ATOM     30  H1  UNL     1       7.791  15.308  83.842  1.00  0.00     0.209 HD
ENDBRANCH  28  29
ENDBRANCH   1  28
BRANCH  12  31
HETATM   31  O3  UNL     1       6.163  15.597  88.870  1.00  0.00    -0.392 OA
ATOM     32  H3  UNL     1       6.076  16.481  89.205  1.00  0.00     0.210 HD
ENDBRANCH  12  31
BRANCH   4  33
HETATM   33  O2  UNL     1       4.321  18.663  83.536  1.00  0.00    -0.387 OA
ATOM     34  H2  UNL     1       4.145  17.934  82.953  1.00  0.00     0.210 HD
ENDBRANCH   4  33
TORSDOF 11
ENDMDL
MODEL 5
REMARK VINA RESULT: -7.378697041      1.213      1.483
REMARK  11 active torsions:
REMARK  status: ('A' for Active; 'I' for Inactive)
REMARK    1  A    between atoms: C2_2  and  C3_3 
REMARK    2  A    between atoms: C2_2  and  C19_27 
REMARK    3  A    between atoms: C3_3  and  C4_4 
REMARK    4  A    between atoms: C4_4  and  C5_5 
REMARK    5  A    between atoms: C5_5  and  O1_6 
REMARK    6  A    between atoms: C8_10  and  O2_11 
REMARK    7  A    between atoms: C16_20  and  O3_21 
REMARK    8  A    between atoms: C19_27  and  O6_28 
REMARK    9  A    between atoms: C19_27  and  C20_30 
REMARK   10  A    between atoms: C20_30  and  O7_31 
REMARK   11  A    between atoms: C20_30  and  O8_33 
ROOT
HETATM    1  C4  UNL     1       7.256  16.818  87.063  1.00  0.00     0.028 C 
HETATM    2  C6  UNL     1       7.419  18.193  86.448  1.00  0.00     0.021 C 
HETATM    3  C7  UNL     1       6.963  18.486  85.092  1.00  0.00     0.042 C 
HETATM    4  C8  UNL     1       5.507  18.433  84.718  1.00  0.00     0.092 C 
HETATM    5  C9  UNL     1       4.620  18.977  85.884  1.00  0.00     0.081 C 
HETATM    6  C10 UNL     1       3.502  18.053  86.101  1.00  0.00     0.093 A 
HETATM    7  C11 UNL     1       3.414  17.669  84.720  1.00  0.00     0.082 C 
HETATM    8  C12 UNL     1       4.865  17.127  84.751  1.00  0.00     0.095 C 
HETATM    9  C13 UNL     1       4.737  15.909  84.103  1.00  0.00     0.042 C 
HETATM   10  C14 UNL     1       3.915  15.039  85.071  1.00  0.00     0.013 C 
HETATM   11  C15 UNL     1       3.727  15.541  86.475  1.00  0.00     0.049 C 
HETATM   12  C16 UNL     1       5.059  15.398  87.295  1.00  0.00     0.154 C 
HETATM   13  C17 UNL     1       5.694  16.708  86.993  1.00  0.00     0.166 C 
HETATM   14  O4  UNL     1       5.496  16.821  85.815  1.00  0.00    -0.368 OA
HETATM   15  C18 UNL     1       3.048  16.822  86.673  1.00  0.00     0.164 A 
HETATM   16  O5  UNL     1       3.156  17.918  87.323  1.00  0.00    -0.368 OA
ENDROOT
BRANCH   1  17
HETATM   17  C3  UNL     1       7.581  16.878  88.492  1.00  0.00    -0.003 C 
BRANCH  17  18
HETATM   18  C2  UNL     1       8.889  16.928  89.093  1.00  0.00    -0.037 C 
HETATM   19  C1  UNL     1      10.077  17.169  88.628  1.00  0.00     0.021 C 
BRANCH  18  20
HETATM   20  C19 UNL     1       8.830  16.645  90.585  1.00  0.00     0.205 C 
BRANCH  20  21
HETATM   21  O6  UNL     1       7.496  16.516  90.985  1.00  0.00    -0.386 OA
ATOM     22  H6  UNL     1       7.454  16.421  91.929  1.00  0.00     0.210 HD
ENDBRANCH  20  21
BRANCH  20  23
HETATM   23  C20 UNL     1       9.602  17.527  91.471  1.00  0.00     0.287 C 
BRANCH  23  24
HETATM   24  O7  UNL     1      10.859  17.109  91.852  1.00  0.00    -0.369 OA
ATOM     25  H7  UNL     1      10.917  16.479  92.560  1.00  0.00     0.212 HD
ENDBRANCH  23  24
BRANCH  23  26
HETATM   26  O8  UNL     1       8.934  18.054  92.565  1.00  0.00    -0.369 OA
ATOM     27  H8  UNL     1       9.130  18.955  92.793  1.00  0.00     0.212 HD
ENDBRANCH  23  26
ENDBRANCH  20  23
ENDBRANCH  18  20
ENDBRANCH  17  18
ENDBRANCH   1  17
BRANCH   1  28
HETATM   28  C5  UNL     1       7.888  15.717  86.326  1.00  0.00     0.180 C 
BRANCH  28  29
HETATM   29  O1  UNL     1       7.845  15.687  84.963  1.00  0.00    -0.400 OA
ATOM     30  H1  UNL     1       8.411  15.098  84.478  1.00  0.00     0.209 HD
ENDBRANCH  28  29
ENDBRANCH   1  28
BRANCH  12  31
HETATM   31  O3  UNL     1       4.751  15.207  88.624  1.00  0.00    -0.392 OA
ATOM     32  H3  UNL     1       5.495  15.464  89.155  1.00  0.00     0.210 HD
ENDBRANCH  12  31
BRANCH   4  33
HETATM   33  O2  UNL     1       5.302  19.101  83.547  1.00  0.00    -0.387 OA
ATOM     34  H2  UNL     1       4.432  18.912  83.214  1.00  0.00     0.210 HD
ENDBRANCH   4  33
TORSDOF 11
ENDMDL
