MODEL 1
REMARK VINA RESULT: -8.899672730      0.000      0.000
REMARK  9 active torsions:
REMARK  status: ('A' for Active; 'I' for Inactive)
REMARK       I    between atoms: C1_4  and  N3_6 
REMARK    1  A    between atoms: N3_6  and  N4_8 
REMARK       I    between atoms: N4_8  and  C2_10 
REMARK    2  A    between atoms: C2_10  and  C3_12 
REMARK    3  A    between atoms: N5_14  and  C5_15 
REMARK    4  A    between atoms: C5_15  and  N6_16 
REMARK    5  A    between atoms: N6_16  and  N7_17 
REMARK    6  A    between atoms: N6_16  and  C6_20 
REMARK    7  A    between atoms: C9_23  and  C10_24 
REMARK    8  A    between atoms: C17_31  and  N8_32 
REMARK    9  A    between atoms: N8_32  and  O2_34 
ROOT
HETATM    1  N6  UNL     1       5.618  15.999  85.752  1.00  0.00    -0.277 N 
ENDROOT
BRANCH   1   2
HETATM    2  C5  UNL     1       5.604  16.891  84.613  1.00  0.00     0.298 C 
BRANCH   2   3
HETATM    3  N5  UNL     1       6.921  16.955  84.009  1.00  0.00    -0.267 N 
HETATM    4  C4  UNL     1       7.688  18.060  83.797  1.00  0.00     0.150 A 
HETATM    5  C3  UNL     1       8.866  17.667  83.198  1.00  0.00     0.136 A 
HETATM    6  N10 UNL     1       8.789  16.344  83.059  1.00  0.00    -0.280 N 
HETATM    7  N9  UNL     1       7.614  15.938  83.553  1.00  0.00    -0.239 N 
ATOM      8  H10 UNL     1       9.503  15.744  82.648  1.00  0.00     0.189 HD
ATOM      9  H9  UNL     1       7.299  14.969  83.573  1.00  0.00     0.208 HD
BRANCH   5  10
HETATM   10  C2  UNL     1       9.946  18.571  82.816  1.00  0.00     0.289 C 
HETATM   11  N4  UNL     1      11.291  18.274  83.119  1.00  0.00    -0.262 N 
ATOM     12  H4  UNL     1      11.528  17.414  83.615  1.00  0.00     0.190 HD
HETATM   13  O1  UNL     1       9.632  19.628  82.205  1.00  0.00    -0.264 OA
BRANCH  11  14
HETATM   14  N3  UNL     1      12.289  19.160  82.739  1.00  0.00    -0.271 N 
HETATM   15  C1  UNL     1      13.395  18.705  82.005  1.00  0.00     0.200 C 
HETATM   16  N1  UNL     1      13.331  17.599  81.345  1.00  0.00    -0.372 N 
HETATM   17  N2  UNL     1      14.583  19.482  82.003  1.00  0.00    -0.062 NA
ATOM     18  H12 UNL     1      14.134  17.268  80.811  1.00  0.00     0.158 HD
ATOM     19  H11 UNL     1      12.477  17.042  81.347  1.00  0.00     0.158 HD
ATOM     20  H3  UNL     1      12.218  20.145  82.993  1.00  0.00     0.189 HD
ENDBRANCH  11  14
ENDBRANCH   5  10
ENDBRANCH   2   3
ENDBRANCH   1   2
BRANCH   1  21
HETATM   21  N7  UNL     1       4.836  14.838  85.681  1.00  0.00    -0.341 N 
ATOM     22  H72 UNL     1       3.822  14.939  85.689  1.00  0.00     0.177 HD
ATOM     23  H71 UNL     1       5.321  13.943  85.625  1.00  0.00     0.177 HD
ENDBRANCH   1  21
BRANCH   1  24
HETATM   24  C6  UNL     1       6.366  16.227  86.918  1.00  0.00     0.080 A 
HETATM   25  C7  UNL     1       7.706  15.922  87.009  1.00  0.00     0.034 A 
HETATM   26  C8  UNL     1       8.442  16.146  88.151  1.00  0.00     0.014 A 
HETATM   27  C9  UNL     1       7.851  16.693  89.267  1.00  0.00    -0.024 A 
HETATM   28  C16 UNL     1       6.503  17.009  89.200  1.00  0.00     0.046 A 
HETATM   29  C17 UNL     1       5.768  16.780  88.045  1.00  0.00     0.083 A 
BRANCH  27  30
HETATM   30  C10 UNL     1       8.660  16.916  90.457  1.00  0.00    -0.026 A 
HETATM   31  C11 UNL     1      10.037  17.051  90.411  1.00  0.00     0.012 A 
HETATM   32  C12 UNL     1      10.732  17.257  91.567  1.00  0.00     0.001 A 
HETATM   33  C13 UNL     1      10.107  17.337  92.790  1.00  0.00     0.000 A 
HETATM   34  C14 UNL     1       8.751  17.206  92.854  1.00  0.00     0.001 A 
HETATM   35  C15 UNL     1       8.046  16.996  91.681  1.00  0.00     0.012 A 
ENDBRANCH  27  30
BRANCH  29  36
HETATM   36  N8  UNL     1       4.385  17.092  87.945  1.00  0.00    -0.267 N 
ATOM     37  H8  UNL     1       3.785  16.913  87.140  1.00  0.00     0.194 HD
BRANCH  36  38
HETATM   38  O2  UNL     1       4.005  17.671  89.113  1.00  0.00    -0.289 OA
ATOM     39  H2  UNL     1       3.071  17.836  89.064  1.00  0.00     0.244 HD
ENDBRANCH  36  38
ENDBRANCH  29  36
ENDBRANCH   1  24
TORSDOF 9
ENDMDL
MODEL 2
REMARK VINA RESULT: -8.680995317      0.974      1.214
REMARK  9 active torsions:
REMARK  status: ('A' for Active; 'I' for Inactive)
REMARK       I    between atoms: C1_4  and  N3_6 
REMARK    1  A    between atoms: N3_6  and  N4_8 
REMARK       I    between atoms: N4_8  and  C2_10 
REMARK    2  A    between atoms: C2_10  and  C3_12 
REMARK    3  A    between atoms: N5_14  and  C5_15 
REMARK    4  A    between atoms: C5_15  and  N6_16 
REMARK    5  A    between atoms: N6_16  and  N7_17 
REMARK    6  A    between atoms: N6_16  and  C6_20 
REMARK    7  A    between atoms: C9_23  and  C10_24 
REMARK    8  A    between atoms: C17_31  and  N8_32 
REMARK    9  A    between atoms: N8_32  and  O2_34 
ROOT
HETATM    1  N6  UNL     1       5.697  16.309  85.556  1.00  0.00    -0.277 N 
ENDROOT
BRANCH   1   2
HETATM    2  C5  UNL     1       5.425  17.374  84.617  1.00  0.00     0.298 C 
BRANCH   2   3
HETATM    3  N5  UNL     1       6.668  17.942  84.129  1.00  0.00    -0.267 N 
HETATM    4  C4  UNL     1       7.582  17.362  83.304  1.00  0.00     0.150 A 
HETATM    5  C3  UNL     1       8.613  18.254  83.097  1.00  0.00     0.136 A 
HETATM    6  N10 UNL     1       8.305  19.346  83.796  1.00  0.00    -0.280 N 
HETATM    7  N9  UNL     1       7.134  19.137  84.407  1.00  0.00    -0.239 N 
ATOM      8  H10 UNL     1       8.866  20.195  83.855  1.00  0.00     0.189 HD
ATOM      9  H9  UNL     1       6.666  19.815  85.008  1.00  0.00     0.208 HD
BRANCH   5  10
HETATM   10  C2  UNL     1       9.782  17.994  82.264  1.00  0.00     0.289 C 
HETATM   11  N4  UNL     1      11.067  17.856  82.827  1.00  0.00    -0.262 N 
ATOM     12  H4  UNL     1      11.197  17.937  83.836  1.00  0.00     0.190 HD
HETATM   13  O1  UNL     1       9.601  17.898  81.020  1.00  0.00    -0.264 OA
BRANCH  11  14
HETATM   14  N3  UNL     1      12.154  17.609  81.999  1.00  0.00    -0.271 N 
HETATM   15  C1  UNL     1      13.027  18.651  81.650  1.00  0.00     0.200 C 
HETATM   16  N1  UNL     1      13.085  19.721  82.367  1.00  0.00    -0.372 N 
HETATM   17  N2  UNL     1      13.840  18.506  80.496  1.00  0.00    -0.062 NA
ATOM     18  H12 UNL     1      13.720  20.479  82.113  1.00  0.00     0.158 HD
ATOM     19  H11 UNL     1      12.501  19.825  83.196  1.00  0.00     0.158 HD
ATOM     20  H3  UNL     1      12.318  16.668  81.644  1.00  0.00     0.189 HD
ENDBRANCH  11  14
ENDBRANCH   5  10
ENDBRANCH   2   3
ENDBRANCH   1   2
BRANCH   1  21
HETATM   21  N7  UNL     1       5.177  15.039  85.271  1.00  0.00    -0.341 N 
ATOM     22  H72 UNL     1       4.484  14.647  85.907  1.00  0.00     0.177 HD
ATOM     23  H71 UNL     1       5.517  14.564  84.435  1.00  0.00     0.177 HD
ENDBRANCH   1  21
BRANCH   1  24
HETATM   24  C6  UNL     1       6.446  16.471  86.732  1.00  0.00     0.080 A 
HETATM   25  C7  UNL     1       7.815  16.312  86.765  1.00  0.00     0.034 A 
HETATM   26  C8  UNL     1       8.552  16.472  87.916  1.00  0.00     0.014 A 
HETATM   27  C9  UNL     1       7.936  16.802  89.101  1.00  0.00    -0.024 A 
HETATM   28  C16 UNL     1       6.560  16.967  89.094  1.00  0.00     0.046 A 
HETATM   29  C17 UNL     1       5.823  16.804  87.929  1.00  0.00     0.083 A 
BRANCH  27  30
HETATM   30  C10 UNL     1       8.749  16.962  90.299  1.00  0.00    -0.026 A 
HETATM   31  C11 UNL     1      10.125  17.097  90.257  1.00  0.00     0.012 A 
HETATM   32  C12 UNL     1      10.824  17.243  91.420  1.00  0.00     0.001 A 
HETATM   33  C13 UNL     1      10.201  17.263  92.647  1.00  0.00     0.000 A 
HETATM   34  C14 UNL     1       8.846  17.132  92.707  1.00  0.00     0.001 A 
HETATM   35  C15 UNL     1       8.137  16.983  91.527  1.00  0.00     0.012 A 
ENDBRANCH  27  30
BRANCH  29  36
HETATM   36  N8  UNL     1       4.411  16.965  87.890  1.00  0.00    -0.267 N 
ATOM     37  H8  UNL     1       3.793  16.668  87.134  1.00  0.00     0.194 HD
BRANCH  36  38
HETATM   38  O2  UNL     1       4.032  17.586  89.036  1.00  0.00    -0.289 OA
ATOM     39  H2  UNL     1       3.956  16.924  89.713  1.00  0.00     0.244 HD
ENDBRANCH  36  38
ENDBRANCH  29  36
ENDBRANCH   1  24
TORSDOF 9
ENDMDL
MODEL 3
REMARK VINA RESULT: -8.639228661      1.451      1.873
REMARK  9 active torsions:
REMARK  status: ('A' for Active; 'I' for Inactive)
REMARK       I    between atoms: C1_4  and  N3_6 
REMARK    1  A    between atoms: N3_6  and  N4_8 
REMARK       I    between atoms: N4_8  and  C2_10 
REMARK    2  A    between atoms: C2_10  and  C3_12 
REMARK    3  A    between atoms: N5_14  and  C5_15 
REMARK    4  A    between atoms: C5_15  and  N6_16 
REMARK    5  A    between atoms: N6_16  and  N7_17 
REMARK    6  A    between atoms: N6_16  and  C6_20 
REMARK    7  A    between atoms: C9_23  and  C10_24 
REMARK    8  A    between atoms: C17_31  and  N8_32 
REMARK    9  A    between atoms: N8_32  and  O2_34 
ROOT
HETATM    1  N6  UNL     1       6.693  16.578  85.019  1.00  0.00    -0.277 N 
ENDROOT
BRANCH   1   2
HETATM    2  C5  UNL     1       6.170  17.697  84.268  1.00  0.00     0.298 C 
BRANCH   2   3
HETATM    3  N5  UNL     1       7.240  18.617  83.928  1.00  0.00    -0.267 N 
HETATM    4  C4  UNL     1       8.372  18.354  83.219  1.00  0.00     0.150 A 
HETATM    5  C3  UNL     1       9.114  19.512  83.132  1.00  0.00     0.136 A 
HETATM    6  N10 UNL     1       8.423  20.446  83.786  1.00  0.00    -0.280 N 
HETATM    7  N9  UNL     1       7.303  19.886  84.255  1.00  0.00    -0.239 N 
ATOM      8  H10 UNL     1       8.701  21.419  83.907  1.00  0.00     0.189 HD
ATOM      9  H9  UNL     1       6.592  20.380  84.794  1.00  0.00     0.208 HD
BRANCH   5  10
HETATM   10  C2  UNL     1      10.395  19.629  82.443  1.00  0.00     0.289 C 
HETATM   11  N4  UNL     1      11.590  19.174  83.037  1.00  0.00    -0.262 N 
ATOM     12  H4  UNL     1      11.574  18.753  83.965  1.00  0.00     0.190 HD
HETATM   13  O1  UNL     1      10.394  20.154  81.297  1.00  0.00    -0.264 OA
BRANCH  11  14
HETATM   14  N3  UNL     1      12.788  19.304  82.348  1.00  0.00    -0.271 N 
HETATM   15  C1  UNL     1      13.422  18.172  81.813  1.00  0.00     0.200 C 
HETATM   16  N1  UNL     1      12.754  17.090  81.599  1.00  0.00    -0.372 N 
HETATM   17  N2  UNL     1      14.808  18.239  81.514  1.00  0.00    -0.062 NA
ATOM     18  H12 UNL     1      13.214  16.267  81.210  1.00  0.00     0.158 HD
ATOM     19  H11 UNL     1      11.758  17.043  81.813  1.00  0.00     0.158 HD
ATOM     20  H3  UNL     1      13.209  20.226  82.230  1.00  0.00     0.189 HD
ENDBRANCH  11  14
ENDBRANCH   5  10
ENDBRANCH   2   3
ENDBRANCH   1   2
BRANCH   1  21
HETATM   21  N7  UNL     1       6.700  15.322  84.397  1.00  0.00    -0.341 N 
ATOM     22  H72 UNL     1       5.948  15.102  83.745  1.00  0.00     0.177 HD
ATOM     23  H71 UNL     1       7.462  14.683  84.626  1.00  0.00     0.177 HD
ENDBRANCH   1  21
BRANCH   1  24
HETATM   24  C6  UNL     1       7.191  16.674  86.328  1.00  0.00     0.080 A 
HETATM   25  C7  UNL     1       8.493  17.035  86.600  1.00  0.00     0.034 A 
HETATM   26  C8  UNL     1       8.983  17.132  87.882  1.00  0.00     0.014 A 
HETATM   27  C9  UNL     1       8.173  16.864  88.962  1.00  0.00    -0.024 A 
HETATM   28  C16 UNL     1       6.860  16.498  88.714  1.00  0.00     0.046 A 
HETATM   29  C17 UNL     1       6.373  16.403  87.418  1.00  0.00     0.083 A 
BRANCH  27  30
HETATM   30  C10 UNL     1       8.727  16.976  90.304  1.00  0.00    -0.026 A 
HETATM   31  C11 UNL     1       7.943  16.920  91.444  1.00  0.00     0.012 A 
HETATM   32  C12 UNL     1       8.530  17.032  92.671  1.00  0.00     0.001 A 
HETATM   33  C13 UNL     1       9.888  17.201  92.818  1.00  0.00     0.000 A 
HETATM   34  C14 UNL     1      10.674  17.259  91.706  1.00  0.00     0.001 A 
HETATM   35  C15 UNL     1      10.079  17.146  90.461  1.00  0.00     0.012 A 
ENDBRANCH  27  30
BRANCH  29  36
HETATM   36  N8  UNL     1       5.031  16.029  87.132  1.00  0.00    -0.267 N 
ATOM     37  H8  UNL     1       4.244  16.666  87.003  1.00  0.00     0.194 HD
BRANCH  36  38
HETATM   38  O2  UNL     1       4.984  14.675  87.060  1.00  0.00    -0.289 OA
ATOM     39  H2  UNL     1       5.676  14.331  87.613  1.00  0.00     0.244 HD
ENDBRANCH  36  38
ENDBRANCH  29  36
ENDBRANCH   1  24
TORSDOF 9
ENDMDL
MODEL 4
REMARK VINA RESULT: -8.620819025      1.620      1.940
REMARK  9 active torsions:
REMARK  status: ('A' for Active; 'I' for Inactive)
REMARK       I    between atoms: C1_4  and  N3_6 
REMARK    1  A    between atoms: N3_6  and  N4_8 
REMARK       I    between atoms: N4_8  and  C2_10 
REMARK    2  A    between atoms: C2_10  and  C3_12 
REMARK    3  A    between atoms: N5_14  and  C5_15 
REMARK    4  A    between atoms: C5_15  and  N6_16 
REMARK    5  A    between atoms: N6_16  and  N7_17 
REMARK    6  A    between atoms: N6_16  and  C6_20 
REMARK    7  A    between atoms: C9_23  and  C10_24 
REMARK    8  A    between atoms: C17_31  and  N8_32 
REMARK    9  A    between atoms: N8_32  and  O2_34 
ROOT
HETATM    1  N6  UNL     1       5.634  15.967  85.723  1.00  0.00    -0.277 N 
ENDROOT
BRANCH   1   2
HETATM    2  C5  UNL     1       5.627  16.849  84.577  1.00  0.00     0.298 C 
BRANCH   2   3
HETATM    3  N5  UNL     1       6.982  17.074  84.108  1.00  0.00    -0.267 N 
HETATM    4  C4  UNL     1       7.705  18.226  84.168  1.00  0.00     0.150 A 
HETATM    5  C3  UNL     1       8.943  17.996  83.609  1.00  0.00     0.136 A 
HETATM    6  N10 UNL     1       8.945  16.720  83.223  1.00  0.00    -0.280 N 
HETATM    7  N9  UNL     1       7.759  16.187  83.533  1.00  0.00    -0.239 N 
ATOM      8  H10 UNL     1       9.719  16.235  82.770  1.00  0.00     0.189 HD
ATOM      9  H9  UNL     1       7.494  15.220  83.347  1.00  0.00     0.208 HD
BRANCH   5  10
HETATM   10  C2  UNL     1      10.001  18.994  83.492  1.00  0.00     0.289 C 
HETATM   11  N4  UNL     1       9.916  20.233  84.159  1.00  0.00    -0.262 N 
ATOM     12  H4  UNL     1       9.104  20.450  84.737  1.00  0.00     0.190 HD
HETATM   13  O1  UNL     1      10.995  18.707  82.773  1.00  0.00    -0.264 OA
BRANCH  11  14
HETATM   14  N3  UNL     1      10.944  21.156  84.022  1.00  0.00    -0.271 N 
HETATM   15  C1  UNL     1      10.707  22.391  83.399  1.00  0.00     0.200 C 
HETATM   16  N1  UNL     1       9.507  22.853  83.302  1.00  0.00    -0.372 N 
HETATM   17  N2  UNL     1      11.809  23.119  82.877  1.00  0.00    -0.062 NA
ATOM     18  H12 UNL     1       9.335  23.751  82.849  1.00  0.00     0.158 HD
ATOM     19  H11 UNL     1       8.716  22.330  83.677  1.00  0.00     0.158 HD
ATOM     20  H3  UNL     1      11.875  20.935  84.376  1.00  0.00     0.189 HD
ENDBRANCH  11  14
ENDBRANCH   5  10
ENDBRANCH   2   3
ENDBRANCH   1   2
BRANCH   1  21
HETATM   21  N7  UNL     1       4.849  14.808  85.660  1.00  0.00    -0.341 N 
ATOM     22  H72 UNL     1       4.524  14.495  84.746  1.00  0.00     0.177 HD
ATOM     23  H71 UNL     1       4.640  14.329  86.536  1.00  0.00     0.177 HD
ENDBRANCH   1  21
BRANCH   1  24
HETATM   24  C6  UNL     1       6.378  16.204  86.891  1.00  0.00     0.080 A 
HETATM   25  C7  UNL     1       7.717  15.896  86.990  1.00  0.00     0.034 A 
HETATM   26  C8  UNL     1       8.448  16.129  88.133  1.00  0.00     0.014 A 
HETATM   27  C9  UNL     1       7.854  16.687  89.242  1.00  0.00    -0.024 A 
HETATM   28  C16 UNL     1       6.507  17.004  89.166  1.00  0.00     0.046 A 
HETATM   29  C17 UNL     1       5.777  16.768  88.010  1.00  0.00     0.083 A 
BRANCH  27  30
HETATM   30  C10 UNL     1       8.659  16.917  90.433  1.00  0.00    -0.026 A 
HETATM   31  C11 UNL     1      10.033  17.075  90.389  1.00  0.00     0.012 A 
HETATM   32  C12 UNL     1      10.724  17.288  91.546  1.00  0.00     0.001 A 
HETATM   33  C13 UNL     1      10.097  17.353  92.769  1.00  0.00     0.000 A 
HETATM   34  C14 UNL     1       8.744  17.200  92.831  1.00  0.00     0.001 A 
HETATM   35  C15 UNL     1       8.042  16.983  91.657  1.00  0.00     0.012 A 
ENDBRANCH  27  30
BRANCH  29  36
HETATM   36  N8  UNL     1       4.394  17.082  87.902  1.00  0.00    -0.267 N 
ATOM     37  H8  UNL     1       3.798  16.900  87.094  1.00  0.00     0.194 HD
BRANCH  36  38
HETATM   38  O2  UNL     1       4.010  17.667  89.065  1.00  0.00    -0.289 OA
ATOM     39  H2  UNL     1       3.235  18.187  88.886  1.00  0.00     0.244 HD
ENDBRANCH  36  38
ENDBRANCH  29  36
ENDBRANCH   1  24
TORSDOF 9
ENDMDL
MODEL 5
REMARK VINA RESULT: -8.529571993      1.256      1.401
REMARK  9 active torsions:
REMARK  status: ('A' for Active; 'I' for Inactive)
REMARK       I    between atoms: C1_4  and  N3_6 
REMARK    1  A    between atoms: N3_6  and  N4_8 
REMARK       I    between atoms: N4_8  and  C2_10 
REMARK    2  A    between atoms: C2_10  and  C3_12 
REMARK    3  A    between atoms: N5_14  and  C5_15 
REMARK    4  A    between atoms: C5_15  and  N6_16 
REMARK    5  A    between atoms: N6_16  and  N7_17 
REMARK    6  A    between atoms: N6_16  and  C6_20 
REMARK    7  A    between atoms: C9_23  and  C10_24 
REMARK    8  A    between atoms: C17_31  and  N8_32 
REMARK    9  A    between atoms: N8_32  and  O2_34 
ROOT
HETATM    1  N6  UNL     1       4.728  16.384  85.695  1.00  0.00    -0.277 N 
ENDROOT
BRANCH   1   2
HETATM    2  C5  UNL     1       4.945  15.899  84.350  1.00  0.00     0.298 C 
BRANCH   2   3
HETATM    3  N5  UNL     1       6.341  16.049  83.982  1.00  0.00    -0.267 N 
HETATM    4  C4  UNL     1       6.947  17.142  83.441  1.00  0.00     0.150 A 
HETATM    5  C3  UNL     1       8.281  16.852  83.249  1.00  0.00     0.136 A 
HETATM    6  N10 UNL     1       8.454  15.600  83.673  1.00  0.00    -0.280 N 
HETATM    7  N9  UNL     1       7.277  15.139  84.108  1.00  0.00    -0.239 N 
ATOM      8  H10 UNL     1       9.333  15.083  83.666  1.00  0.00     0.189 HD
ATOM      9  H9  UNL     1       7.127  14.204  84.488  1.00  0.00     0.208 HD
BRANCH   5  10
HETATM   10  C2  UNL     1       9.261  17.777  82.690  1.00  0.00     0.289 C 
HETATM   11  N4  UNL     1      10.520  17.965  83.295  1.00  0.00    -0.262 N 
ATOM     12  H4  UNL     1      10.765  17.450  84.141  1.00  0.00     0.190 HD
HETATM   13  O1  UNL     1       8.939  18.403  81.644  1.00  0.00    -0.264 OA
BRANCH  11  14
HETATM   14  N3  UNL     1      11.424  18.855  82.731  1.00  0.00    -0.271 N 
HETATM   15  C1  UNL     1      12.583  18.379  82.099  1.00  0.00     0.200 C 
HETATM   16  N1  UNL     1      12.648  17.159  81.686  1.00  0.00    -0.372 N 
HETATM   17  N2  UNL     1      13.682  19.261  81.927  1.00  0.00    -0.062 NA
ATOM     18  H12 UNL     1      13.490  16.813  81.227  1.00  0.00     0.158 HD
ATOM     19  H11 UNL     1      11.858  16.526  81.809  1.00  0.00     0.158 HD
ATOM     20  H3  UNL     1      11.244  19.858  82.774  1.00  0.00     0.189 HD
ENDBRANCH  11  14
ENDBRANCH   5  10
ENDBRANCH   2   3
ENDBRANCH   1   2
BRANCH   1  21
HETATM   21  N7  UNL     1       3.423  16.749  86.054  1.00  0.00    -0.341 N 
ATOM     22  H72 UNL     1       2.926  16.164  86.725  1.00  0.00     0.177 HD
ATOM     23  H71 UNL     1       3.030  17.587  85.625  1.00  0.00     0.177 HD
ENDBRANCH   1  21
BRANCH   1  24
HETATM   24  C6  UNL     1       5.742  16.510  86.658  1.00  0.00     0.080 A 
HETATM   25  C7  UNL     1       6.654  17.543  86.641  1.00  0.00     0.034 A 
HETATM   26  C8  UNL     1       7.648  17.670  87.584  1.00  0.00     0.014 A 
HETATM   27  C9  UNL     1       7.770  16.750  88.600  1.00  0.00    -0.024 A 
HETATM   28  C16 UNL     1       6.864  15.701  88.639  1.00  0.00     0.046 A 
HETATM   29  C17 UNL     1       5.864  15.580  87.684  1.00  0.00     0.083 A 
BRANCH  27  30
HETATM   30  C10 UNL     1       8.834  16.916  89.580  1.00  0.00    -0.026 A 
HETATM   31  C11 UNL     1      10.158  17.098  89.223  1.00  0.00     0.012 A 
HETATM   32  C12 UNL     1      11.104  17.247  90.195  1.00  0.00     0.001 A 
HETATM   33  C13 UNL     1      10.784  17.224  91.534  1.00  0.00     0.000 A 
HETATM   34  C14 UNL     1       9.484  17.047  91.903  1.00  0.00     0.001 A 
HETATM   35  C15 UNL     1       8.524  16.894  90.917  1.00  0.00     0.012 A 
ENDBRANCH  27  30
BRANCH  29  36
HETATM   36  N8  UNL     1       4.921  14.516  87.696  1.00  0.00    -0.267 N 
ATOM     37  H8  UNL     1       5.016  13.623  87.213  1.00  0.00     0.194 HD
BRANCH  36  38
HETATM   38  O2  UNL     1       3.870  14.902  88.464  1.00  0.00    -0.289 OA
ATOM     39  H2  UNL     1       3.610  15.772  88.184  1.00  0.00     0.244 HD
ENDBRANCH  36  38
ENDBRANCH  29  36
ENDBRANCH   1  24
TORSDOF 9
ENDMDL
