MODEL 1
REMARK VINA RESULT: -8.229620131      0.000      0.000
REMARK  10 active torsions:
REMARK  status: ('A' for Active; 'I' for Inactive)
REMARK    1  A    between atoms: C2_2  and  O1_4 
REMARK    2  A    between atoms: C2_2  and  C18_32 
REMARK    3  A    between atoms: O1_4  and  N1_5 
REMARK       I    between atoms: N1_5  and  C4_7 
REMARK    4  A    between atoms: C4_7  and  C5_9 
REMARK    5  A    between atoms: C5_9  and  O3_10 
REMARK    6  A    between atoms: C5_9  and  C6_12 
REMARK    7  A    between atoms: C5_9  and  C12_18 
REMARK    8  A    between atoms: C12_18  and  O4_19 
REMARK    9  A    between atoms: N2_22  and  O5_24 
REMARK   10  A    between atoms: C16_28  and  O6_30 
ROOT
HETATM    1  C5  UNL     1       7.509  16.509  87.148  1.00  0.00     0.207 C 
ENDROOT
BRANCH   1   2
HETATM    2  C4  UNL     1       7.448  16.809  85.697  1.00  0.00     0.284 C 
HETATM    3  N1  UNL     1       7.551  18.094  85.130  1.00  0.00    -0.231 N 
ATOM      4  H1  UNL     1       7.701  18.891  85.748  1.00  0.00     0.197 HD
HETATM    5  O2  UNL     1       7.287  15.861  84.856  1.00  0.00    -0.267 OA
BRANCH   3   6
HETATM    6  O1  UNL     1       7.461  18.309  83.821  1.00  0.00    -0.258 OA
BRANCH   6   7
HETATM    7  C2  UNL     1       8.261  19.239  83.252  1.00  0.00     0.159 C 
HETATM    8  C1  UNL     1       7.567  20.577  83.076  1.00  0.00     0.058 C 
HETATM    9  C3  UNL     1       8.478  18.691  81.786  1.00  0.00     0.058 C 
BRANCH   7  10
HETATM   10  C18 UNL     1       9.595  19.297  83.817  1.00  0.00     0.267 C 
HETATM   11  N3  UNL     1      10.537  18.272  83.604  1.00  0.00    -0.059 NA
HETATM   12  O7  UNL     1       9.928  20.298  84.524  1.00  0.00    -0.273 OA
ENDBRANCH   7  10
ENDBRANCH   6   7
ENDBRANCH   3   6
ENDBRANCH   1   2
BRANCH   1  13
HETATM   13  O3  UNL     1       7.751  15.068  87.158  1.00  0.00    -0.372 OA
ATOM     14  H3  UNL     1       8.624  15.013  87.525  1.00  0.00     0.211 HD
ENDBRANCH   1  13
BRANCH   1  15
HETATM   15  C6  UNL     1       8.777  16.985  87.699  1.00  0.00    -0.011 A 
HETATM   16  C7  UNL     1       9.766  17.676  87.044  1.00  0.00     0.011 A 
HETATM   17  C8  UNL     1      10.945  18.103  87.628  1.00  0.00     0.001 A 
HETATM   18  C9  UNL     1      11.143  17.815  88.960  1.00  0.00     0.000 A 
HETATM   19  C10 UNL     1      10.198  17.128  89.682  1.00  0.00     0.001 A 
HETATM   20  C11 UNL     1       9.047  16.728  89.053  1.00  0.00     0.011 A 
ENDBRANCH   1  15
BRANCH   1  21
HETATM   21  C12 UNL     1       6.281  16.610  87.899  1.00  0.00     0.172 C 
HETATM   22  C13 UNL     1       5.839  15.154  88.179  1.00  0.00     0.051 C 
HETATM   23  N2  UNL     1       6.397  14.358  89.019  1.00  0.00    -0.274 N 
HETATM   24  C14 UNL     1       4.694  14.809  87.343  1.00  0.00     0.061 C 
ATOM     25  H2  UNL     1       7.198  14.662  89.572  1.00  0.00     0.193 HD
HETATM   26  C15 UNL     1       4.165  16.111  86.867  1.00  0.00     0.047 C 
HETATM   27  C16 UNL     1       5.026  17.198  87.556  1.00  0.00     0.095 C 
HETATM   28  C17 UNL     1       4.831  18.420  86.768  1.00  0.00     0.049 C 
BRANCH  21  29
HETATM   29  O4  UNL     1       6.629  17.026  89.218  1.00  0.00    -0.377 OA
ATOM     30  H4  UNL     1       7.381  17.602  89.139  1.00  0.00     0.211 HD
ENDBRANCH  21  29
BRANCH  23  31
HETATM   31  O5  UNL     1       5.893  13.096  89.155  1.00  0.00    -0.290 OA
ATOM     32  H5  UNL     1       5.219  12.945  89.807  1.00  0.00     0.244 HD
ENDBRANCH  23  31
BRANCH  27  33
HETATM   33  O6  UNL     1       4.262  17.421  88.756  1.00  0.00    -0.387 OA
ATOM     34  H6  UNL     1       4.410  18.308  89.062  1.00  0.00     0.210 HD
ENDBRANCH  27  33
ENDBRANCH   1  21
TORSDOF 10
ENDMDL
MODEL 2
REMARK VINA RESULT: -8.182374219      1.743      2.572
REMARK  10 active torsions:
REMARK  status: ('A' for Active; 'I' for Inactive)
REMARK    1  A    between atoms: C2_2  and  O1_4 
REMARK    2  A    between atoms: C2_2  and  C18_32 
REMARK    3  A    between atoms: O1_4  and  N1_5 
REMARK       I    between atoms: N1_5  and  C4_7 
REMARK    4  A    between atoms: C4_7  and  C5_9 
REMARK    5  A    between atoms: C5_9  and  O3_10 
REMARK    6  A    between atoms: C5_9  and  C6_12 
REMARK    7  A    between atoms: C5_9  and  C12_18 
REMARK    8  A    between atoms: C12_18  and  O4_19 
REMARK    9  A    between atoms: N2_22  and  O5_24 
REMARK   10  A    between atoms: C16_28  and  O6_30 
ROOT
HETATM    1  C5  UNL     1       7.264  16.653  87.008  1.00  0.00     0.207 C 
ENDROOT
BRANCH   1   2
HETATM    2  C4  UNL     1       7.537  17.812  86.124  1.00  0.00     0.284 C 
HETATM    3  N1  UNL     1       8.443  17.813  85.044  1.00  0.00    -0.231 N 
ATOM      4  H1  UNL     1       8.943  16.952  84.825  1.00  0.00     0.197 HD
HETATM    5  O2  UNL     1       6.931  18.919  86.318  1.00  0.00    -0.267 OA
BRANCH   3   6
HETATM    6  O1  UNL     1       8.670  18.891  84.301  1.00  0.00    -0.258 OA
BRANCH   6   7
HETATM    7  C2  UNL     1       8.469  18.821  82.964  1.00  0.00     0.159 C 
HETATM    8  C1  UNL     1       9.038  20.018  82.226  1.00  0.00     0.058 C 
HETATM    9  C3  UNL     1       6.901  18.955  82.821  1.00  0.00     0.058 C 
BRANCH   7  10
HETATM   10  C18 UNL     1       8.775  17.527  82.387  1.00  0.00     0.267 C 
HETATM   11  N3  UNL     1       7.922  16.420  82.552  1.00  0.00    -0.059 NA
HETATM   12  O7  UNL     1       9.842  17.384  81.714  1.00  0.00    -0.273 OA
ENDBRANCH   7  10
ENDBRANCH   6   7
ENDBRANCH   3   6
ENDBRANCH   1   2
BRANCH   1  13
HETATM   13  O3  UNL     1       7.987  15.575  86.338  1.00  0.00    -0.372 OA
ATOM     14  H3  UNL     1       8.618  15.315  86.998  1.00  0.00     0.211 HD
ENDBRANCH   1  13
BRANCH   1  15
HETATM   15  C6  UNL     1       8.052  16.768  88.233  1.00  0.00    -0.011 A 
HETATM   16  C7  UNL     1       7.614  16.616  89.525  1.00  0.00     0.011 A 
HETATM   17  C8  UNL     1       8.418  16.734  90.646  1.00  0.00     0.001 A 
HETATM   18  C9  UNL     1       9.749  17.024  90.454  1.00  0.00     0.000 A 
HETATM   19  C10 UNL     1      10.261  17.190  89.190  1.00  0.00     0.001 A 
HETATM   20  C11 UNL     1       9.420  17.062  88.114  1.00  0.00     0.011 A 
ENDBRANCH   1  15
BRANCH   1  21
HETATM   21  C12 UNL     1       5.915  16.139  87.028  1.00  0.00     0.172 C 
HETATM   22  C13 UNL     1       5.534  15.901  85.549  1.00  0.00     0.051 C 
HETATM   23  N2  UNL     1       5.984  14.951  84.810  1.00  0.00    -0.274 N 
HETATM   24  C14 UNL     1       4.587  16.918  85.106  1.00  0.00     0.061 C 
ATOM     25  H2  UNL     1       6.649  14.272  85.182  1.00  0.00     0.193 HD
HETATM   26  C15 UNL     1       4.063  17.520  86.357  1.00  0.00     0.047 C 
HETATM   27  C16 UNL     1       4.705  16.720  87.516  1.00  0.00     0.095 C 
HETATM   28  C17 UNL     1       4.571  17.565  88.707  1.00  0.00     0.049 C 
BRANCH  21  29
HETATM   29  O4  UNL     1       5.988  14.791  87.491  1.00  0.00    -0.377 OA
ATOM     30  H4  UNL     1       5.411  14.723  88.243  1.00  0.00     0.211 HD
ENDBRANCH  21  29
BRANCH  23  31
HETATM   31  O5  UNL     1       5.555  14.870  83.517  1.00  0.00    -0.290 OA
ATOM     32  H5  UNL     1       6.203  14.856  82.823  1.00  0.00     0.244 HD
ENDBRANCH  23  31
BRANCH  27  33
HETATM   33  O6  UNL     1       3.722  15.683  87.701  1.00  0.00    -0.387 OA
ATOM     34  H6  UNL     1       2.976  16.039  88.170  1.00  0.00     0.210 HD
ENDBRANCH  27  33
ENDBRANCH   1  21
TORSDOF 10
ENDMDL
MODEL 3
REMARK VINA RESULT: -8.159581430      0.963      1.390
REMARK  10 active torsions:
REMARK  status: ('A' for Active; 'I' for Inactive)
REMARK    1  A    between atoms: C2_2  and  O1_4 
REMARK    2  A    between atoms: C2_2  and  C18_32 
REMARK    3  A    between atoms: O1_4  and  N1_5 
REMARK       I    between atoms: N1_5  and  C4_7 
REMARK    4  A    between atoms: C4_7  and  C5_9 
REMARK    5  A    between atoms: C5_9  and  O3_10 
REMARK    6  A    between atoms: C5_9  and  C6_12 
REMARK    7  A    between atoms: C5_9  and  C12_18 
REMARK    8  A    between atoms: C12_18  and  O4_19 
REMARK    9  A    between atoms: N2_22  and  O5_24 
REMARK   10  A    between atoms: C16_28  and  O6_30 
ROOT
HETATM    1  C5  UNL     1       7.520  16.480  87.068  1.00  0.00     0.207 C 
ENDROOT
BRANCH   1   2
HETATM    2  C4  UNL     1       7.521  16.648  85.594  1.00  0.00     0.284 C 
HETATM    3  N1  UNL     1       7.732  17.866  84.917  1.00  0.00    -0.231 N 
ATOM      4  H1  UNL     1       7.920  18.704  85.466  1.00  0.00     0.197 HD
HETATM    5  O2  UNL     1       7.318  15.640  84.837  1.00  0.00    -0.267 OA
BRANCH   3   6
HETATM    6  O1  UNL     1       7.694  17.964  83.592  1.00  0.00    -0.258 OA
BRANCH   6   7
HETATM    7  C2  UNL     1       8.144  19.097  83.005  1.00  0.00     0.159 C 
HETATM    8  C1  UNL     1       8.747  18.844  81.636  1.00  0.00     0.058 C 
HETATM    9  C3  UNL     1       9.358  19.529  83.919  1.00  0.00     0.058 C 
BRANCH   7  10
HETATM   10  C18 UNL     1       7.218  20.211  83.084  1.00  0.00     0.267 C 
HETATM   11  N3  UNL     1       6.534  20.689  81.950  1.00  0.00    -0.059 NA
HETATM   12  O7  UNL     1       7.016  20.773  84.204  1.00  0.00    -0.273 OA
ENDBRANCH   7  10
ENDBRANCH   6   7
ENDBRANCH   3   6
ENDBRANCH   1   2
BRANCH   1  13
HETATM   13  O3  UNL     1       7.723  15.041  87.216  1.00  0.00    -0.372 OA
ATOM     14  H3  UNL     1       7.657  14.925  88.157  1.00  0.00     0.211 HD
ENDBRANCH   1  13
BRANCH   1  15
HETATM   15  C6  UNL     1       8.778  16.975  87.624  1.00  0.00    -0.011 A 
HETATM   16  C7  UNL     1       9.751  17.697  86.977  1.00  0.00     0.011 A 
HETATM   17  C8  UNL     1      10.922  18.141  87.566  1.00  0.00     0.001 A 
HETATM   18  C9  UNL     1      11.129  17.837  88.893  1.00  0.00     0.000 A 
HETATM   19  C10 UNL     1      10.200  17.119  89.606  1.00  0.00     0.001 A 
HETATM   20  C11 UNL     1       9.057  16.704  88.973  1.00  0.00     0.011 A 
ENDBRANCH   1  15
BRANCH   1  21
HETATM   21  C12 UNL     1       6.267  16.677  87.756  1.00  0.00     0.172 C 
HETATM   22  C13 UNL     1       5.747  15.261  88.095  1.00  0.00     0.051 C 
HETATM   23  N2  UNL     1       6.231  14.489  89.001  1.00  0.00    -0.274 N 
HETATM   24  C14 UNL     1       4.623  14.921  87.229  1.00  0.00     0.061 C 
ATOM     25  H2  UNL     1       7.022  14.788  89.572  1.00  0.00     0.193 HD
HETATM   26  C15 UNL     1       4.176  16.216  86.660  1.00  0.00     0.047 C 
HETATM   27  C16 UNL     1       5.057  17.301  87.327  1.00  0.00     0.095 C 
HETATM   28  C17 UNL     1       4.952  18.483  86.466  1.00  0.00     0.049 C 
BRANCH  21  29
HETATM   29  O4  UNL     1       6.579  17.152  89.066  1.00  0.00    -0.377 OA
ATOM     30  H4  UNL     1       5.754  17.319  89.505  1.00  0.00     0.211 HD
ENDBRANCH  21  29
BRANCH  23  31
HETATM   31  O5  UNL     1       5.664  13.261  89.183  1.00  0.00    -0.290 OA
ATOM     32  H5  UNL     1       5.563  12.934  90.069  1.00  0.00     0.244 HD
ENDBRANCH  23  31
BRANCH  27  33
HETATM   33  O6  UNL     1       4.254  17.625  88.478  1.00  0.00    -0.387 OA
ATOM     34  H6  UNL     1       3.644  18.316  88.250  1.00  0.00     0.210 HD
ENDBRANCH  27  33
ENDBRANCH   1  21
TORSDOF 10
ENDMDL
MODEL 4
REMARK VINA RESULT: -8.137072140      1.820      2.290
REMARK  10 active torsions:
REMARK  status: ('A' for Active; 'I' for Inactive)
REMARK    1  A    between atoms: C2_2  and  O1_4 
REMARK    2  A    between atoms: C2_2  and  C18_32 
REMARK    3  A    between atoms: O1_4  and  N1_5 
REMARK       I    between atoms: N1_5  and  C4_7 
REMARK    4  A    between atoms: C4_7  and  C5_9 
REMARK    5  A    between atoms: C5_9  and  O3_10 
REMARK    6  A    between atoms: C5_9  and  C6_12 
REMARK    7  A    between atoms: C5_9  and  C12_18 
REMARK    8  A    between atoms: C12_18  and  O4_19 
REMARK    9  A    between atoms: N2_22  and  O5_24 
REMARK   10  A    between atoms: C16_28  and  O6_30 
ROOT
HETATM    1  C5  UNL     1       6.835  16.811  85.809  1.00  0.00     0.207 C 
ENDROOT
BRANCH   1   2
HETATM    2  C4  UNL     1       7.193  16.585  84.388  1.00  0.00     0.284 C 
HETATM    3  N1  UNL     1       8.103  17.364  83.647  1.00  0.00    -0.231 N 
ATOM      4  H1  UNL     1       8.578  18.137  84.113  1.00  0.00     0.197 HD
HETATM    5  O2  UNL     1       6.659  15.621  83.742  1.00  0.00    -0.267 OA
BRANCH   3   6
HETATM    6  O1  UNL     1       8.366  17.133  82.365  1.00  0.00    -0.258 OA
BRANCH   6   7
HETATM    7  C2  UNL     1       9.014  18.079  81.646  1.00  0.00     0.159 C 
HETATM    8  C1  UNL     1       9.068  17.751  80.166  1.00  0.00     0.058 C 
HETATM    9  C3  UNL     1      10.507  17.964  82.150  1.00  0.00     0.058 C 
BRANCH   7  10
HETATM   10  C18 UNL     1       8.626  19.437  81.972  1.00  0.00     0.267 C 
HETATM   11  N3  UNL     1       9.464  20.291  82.714  1.00  0.00    -0.059 NA
HETATM   12  O7  UNL     1       7.500  19.873  81.578  1.00  0.00    -0.273 OA
ENDBRANCH   7  10
ENDBRANCH   6   7
ENDBRANCH   3   6
ENDBRANCH   1   2
BRANCH   1  13
HETATM   13  O3  UNL     1       6.504  15.464  86.265  1.00  0.00    -0.372 OA
ATOM     14  H3  UNL     1       5.561  15.511  86.366  1.00  0.00     0.211 HD
ENDBRANCH   1  13
BRANCH   1  15
HETATM   15  C6  UNL     1       8.045  17.056  86.592  1.00  0.00    -0.011 A 
HETATM   16  C7  UNL     1       9.120  17.838  86.246  1.00  0.00     0.011 A 
HETATM   17  C8  UNL     1      10.237  18.032  87.039  1.00  0.00     0.001 A 
HETATM   18  C9  UNL     1      10.276  17.398  88.260  1.00  0.00     0.000 A 
HETATM   19  C10 UNL     1       9.238  16.599  88.676  1.00  0.00     0.001 A 
HETATM   20  C11 UNL     1       8.154  16.442  87.850  1.00  0.00     0.011 A 
ENDBRANCH   1  15
BRANCH   1  21
HETATM   21  C12 UNL     1       5.610  17.526  86.078  1.00  0.00     0.172 C 
HETATM   22  C13 UNL     1       4.668  16.504  86.757  1.00  0.00     0.051 C 
HETATM   23  N2  UNL     1       4.789  16.068  87.959  1.00  0.00    -0.274 N 
HETATM   24  C14 UNL     1       3.620  16.098  85.828  1.00  0.00     0.061 C 
ATOM     25  H2  UNL     1       5.549  16.392  88.557  1.00  0.00     0.193 HD
HETATM   26  C15 UNL     1       3.638  17.126  84.760  1.00  0.00     0.047 C 
HETATM   27  C16 UNL     1       4.695  18.171  85.193  1.00  0.00     0.095 C 
HETATM   28  C17 UNL     1       5.046  18.912  83.977  1.00  0.00     0.049 C 
BRANCH  21  29
HETATM   29  O4  UNL     1       5.869  18.399  87.177  1.00  0.00    -0.377 OA
ATOM     30  H4  UNL     1       6.033  17.852  87.936  1.00  0.00     0.211 HD
ENDBRANCH  21  29
BRANCH  23  31
HETATM   31  O5  UNL     1       3.877  15.162  88.420  1.00  0.00    -0.290 OA
ATOM     32  H5  UNL     1       3.259  15.439  89.085  1.00  0.00     0.244 HD
ENDBRANCH  23  31
BRANCH  27  33
HETATM   33  O6  UNL     1       3.873  19.086  85.943  1.00  0.00    -0.387 OA
ATOM     34  H6  UNL     1       3.694  19.853  85.413  1.00  0.00     0.210 HD
ENDBRANCH  27  33
ENDBRANCH   1  21
TORSDOF 10
ENDMDL
MODEL 5
REMARK VINA RESULT: -8.021405357      1.802      2.293
REMARK  10 active torsions:
REMARK  status: ('A' for Active; 'I' for Inactive)
REMARK    1  A    between atoms: C2_2  and  O1_4 
REMARK    2  A    between atoms: C2_2  and  C18_32 
REMARK    3  A    between atoms: O1_4  and  N1_5 
REMARK       I    between atoms: N1_5  and  C4_7 
REMARK    4  A    between atoms: C4_7  and  C5_9 
REMARK    5  A    between atoms: C5_9  and  O3_10 
REMARK    6  A    between atoms: C5_9  and  C6_12 
REMARK    7  A    between atoms: C5_9  and  C12_18 
REMARK    8  A    between atoms: C12_18  and  O4_19 
REMARK    9  A    between atoms: N2_22  and  O5_24 
REMARK   10  A    between atoms: C16_28  and  O6_30 
ROOT
HETATM    1  C5  UNL     1       6.778  16.789  85.823  1.00  0.00     0.207 C 
ENDROOT
BRANCH   1   2
HETATM    2  C4  UNL     1       7.188  16.618  84.408  1.00  0.00     0.284 C 
HETATM    3  N1  UNL     1       8.125  17.425  83.733  1.00  0.00    -0.231 N 
ATOM      4  H1  UNL     1       8.583  18.177  84.247  1.00  0.00     0.197 HD
HETATM    5  O2  UNL     1       6.678  15.682  83.705  1.00  0.00    -0.267 OA
BRANCH   3   6
HETATM    6  O1  UNL     1       8.436  17.244  82.453  1.00  0.00    -0.258 OA
BRANCH   6   7
HETATM    7  C2  UNL     1       9.196  18.171  81.825  1.00  0.00     0.159 C 
HETATM    8  C1  UNL     1       8.608  19.565  81.915  1.00  0.00     0.058 C 
HETATM    9  C3  UNL     1       9.079  17.770  80.301  1.00  0.00     0.058 C 
BRANCH   7  10
HETATM   10  C18 UNL     1      10.613  18.070  82.117  1.00  0.00     0.267 C 
HETATM   11  N3  UNL     1      11.547  17.683  81.137  1.00  0.00    -0.059 NA
HETATM   12  O7  UNL     1      11.027  18.336  83.287  1.00  0.00    -0.273 OA
ENDBRANCH   7  10
ENDBRANCH   6   7
ENDBRANCH   3   6
ENDBRANCH   1   2
BRANCH   1  13
HETATM   13  O3  UNL     1       6.410  15.428  86.206  1.00  0.00    -0.372 OA
ATOM     14  H3  UNL     1       5.863  15.155  85.479  1.00  0.00     0.211 HD
ENDBRANCH   1  13
BRANCH   1  15
HETATM   15  C6  UNL     1       7.959  16.981  86.662  1.00  0.00    -0.011 A 
HETATM   16  C7  UNL     1       8.197  16.450  87.905  1.00  0.00     0.011 A 
HETATM   17  C8  UNL     1       9.344  16.669  88.648  1.00  0.00     0.001 A 
HETATM   18  C9  UNL     1      10.316  17.477  88.103  1.00  0.00     0.000 A 
HETATM   19  C10 UNL     1      10.151  18.044  86.862  1.00  0.00     0.001 A 
HETATM   20  C11 UNL     1       8.994  17.792  86.170  1.00  0.00     0.011 A 
ENDBRANCH   1  15
BRANCH   1  21
HETATM   21  C12 UNL     1       5.553  17.510  86.075  1.00  0.00     0.172 C 
HETATM   22  C13 UNL     1       4.612  16.506  86.781  1.00  0.00     0.051 C 
HETATM   23  N2  UNL     1       4.735  16.102  87.995  1.00  0.00    -0.274 N 
HETATM   24  C14 UNL     1       3.562  16.076  85.865  1.00  0.00     0.061 C 
ATOM     25  H2  UNL     1       5.496  16.441  88.583  1.00  0.00     0.193 HD
HETATM   26  C15 UNL     1       3.579  17.076  84.770  1.00  0.00     0.047 C 
HETATM   27  C16 UNL     1       4.637  18.132  85.175  1.00  0.00     0.095 C 
HETATM   28  C17 UNL     1       4.986  18.841  83.940  1.00  0.00     0.049 C 
BRANCH  21  29
HETATM   29  O4  UNL     1       5.813  18.412  87.151  1.00  0.00    -0.377 OA
ATOM     30  H4  UNL     1       5.135  19.077  87.126  1.00  0.00     0.211 HD
ENDBRANCH  21  29
BRANCH  23  31
HETATM   31  O5  UNL     1       3.824  15.208  88.480  1.00  0.00    -0.290 OA
ATOM     32  H5  UNL     1       3.857  14.311  88.169  1.00  0.00     0.244 HD
ENDBRANCH  23  31
BRANCH  27  33
HETATM   33  O6  UNL     1       3.815  19.066  85.902  1.00  0.00    -0.387 OA
ATOM     34  H6  UNL     1       4.228  19.264  86.734  1.00  0.00     0.210 HD
ENDBRANCH  27  33
ENDBRANCH   1  21
TORSDOF 10
ENDMDL
