MODEL 1
REMARK VINA RESULT: -7.259659950      0.000      0.000
REMARK  9 active torsions:
REMARK  status: ('A' for Active; 'I' for Inactive)
REMARK    1  A    between atoms: S1_2  and  C2_5 
REMARK    2  A    between atoms: C2_5  and  C3_6 
REMARK    3  A    between atoms: C2_5  and  C9_26 
REMARK    4  A    between atoms: C3_6  and  O3_7 
REMARK    5  A    between atoms: C3_6  and  N1_9 
REMARK    6  A    between atoms: N1_9  and  N2_10 
REMARK       I    between atoms: N2_10  and  C4_12 
REMARK       I    between atoms: C4_12  and  N3_14 
REMARK    7  A    between atoms: N3_14  and  N4_16 
REMARK    8  A    between atoms: C5_18  and  C6_19 
REMARK    9  A    between atoms: C11_29  and  N7_30 
ROOT
HETATM    1  C3  UNL     1       5.972  16.079  84.641  1.00  0.00     0.239 C 
ENDROOT
BRANCH   1   2
HETATM    2  C2  UNL     1       5.520  16.990  85.846  1.00  0.00     0.249 C 
BRANCH   2   3
HETATM    3  S1  UNL     1       3.781  16.979  85.930  1.00  0.00     0.159 S 
HETATM    4  C1  UNL     1       3.056  17.676  84.448  1.00  0.00     0.162 C 
HETATM    5  O1  UNL     1       3.281  17.880  87.066  1.00  0.00    -0.227 OA
HETATM    6  O2  UNL     1       3.206  15.633  86.227  1.00  0.00    -0.227 OA
ENDBRANCH   2   3
BRANCH   2   7
HETATM    7  C9  UNL     1       6.229  16.466  87.079  1.00  0.00     0.045 A 
HETATM    8  C10 UNL     1       7.167  17.164  87.703  1.00  0.00     0.080 A 
HETATM    9  S2  UNL     1       7.682  16.115  88.964  1.00  0.00    -0.064 SA
HETATM   10  C11 UNL     1       6.616  14.809  88.591  1.00  0.00     0.142 A 
HETATM   11  N8  UNL     1       5.928  15.237  87.535  1.00  0.00    -0.338 N 
ATOM     12  H8  UNL     1       5.210  14.663  87.093  1.00  0.00     0.168 HD
BRANCH  10  13
HETATM   13  N7  UNL     1       6.546  13.644  89.244  1.00  0.00    -0.380 N 
ATOM     14  H72 UNL     1       7.167  12.835  89.207  1.00  0.00     0.158 HD
ATOM     15  H71 UNL     1       5.829  13.380  89.919  1.00  0.00     0.158 HD
ENDBRANCH  10  13
ENDBRANCH   2   7
ENDBRANCH   1   2
BRANCH   1  16
HETATM   16  O3  UNL     1       5.189  15.044  84.497  1.00  0.00    -0.336 OA
ATOM     17  H3  UNL     1       5.532  14.427  83.860  1.00  0.00     0.220 HD
ENDBRANCH   1  16
BRANCH   1  18
HETATM   18  N1  UNL     1       6.979  16.365  83.924  1.00  0.00    -0.299 NA
BRANCH  18  19
HETATM   19  N2  UNL     1       8.077  16.678  83.144  1.00  0.00    -0.181 N 
HETATM   20  C4  UNL     1       9.202  17.396  83.592  1.00  0.00     0.363 C 
HETATM   21  O4  UNL     1       9.289  17.838  84.752  1.00  0.00    -0.243 OA
HETATM   22  N3  UNL     1      10.272  17.606  82.674  1.00  0.00    -0.250 N 
ATOM     23  H3  UNL     1      10.142  17.232  81.734  1.00  0.00     0.192 HD
ATOM     24  H2  UNL     1       8.072  16.365  82.173  1.00  0.00     0.207 HD
BRANCH  22  25
HETATM   25  N4  UNL     1      11.455  18.254  82.914  1.00  0.00    -0.306 N 
HETATM   26  C5  UNL     1      12.421  18.283  82.102  1.00  0.00     0.138 C 
ATOM     27  H4  UNL     1      11.562  18.743  83.802  1.00  0.00     0.186 HD
BRANCH  26  28
HETATM   28  C6  UNL     1      12.402  17.653  80.812  1.00  0.00     0.065 A 
HETATM   29  C7  UNL     1      13.196  16.541  80.405  1.00  0.00     0.119 A 
HETATM   30  N5  UNL     1      12.937  16.297  79.104  1.00  0.00    -0.360 N 
HETATM   31  C8  UNL     1      12.039  17.183  78.684  1.00  0.00     0.180 A 
ATOM     32  H5  UNL     1      13.358  15.558  78.540  1.00  0.00     0.166 HD
HETATM   33  N6  UNL     1      11.721  17.981  79.688  1.00  0.00    -0.350 N 
ATOM     34  H6  UNL     1      11.050  18.746  79.624  1.00  0.00     0.166 HD
ENDBRANCH  26  28
ENDBRANCH  22  25
ENDBRANCH  18  19
ENDBRANCH   1  18
TORSDOF 9
ENDMDL
MODEL 2
REMARK VINA RESULT: -7.255218976      3.820      7.029
REMARK  9 active torsions:
REMARK  status: ('A' for Active; 'I' for Inactive)
REMARK    1  A    between atoms: S1_2  and  C2_5 
REMARK    2  A    between atoms: C2_5  and  C3_6 
REMARK    3  A    between atoms: C2_5  and  C9_26 
REMARK    4  A    between atoms: C3_6  and  O3_7 
REMARK    5  A    between atoms: C3_6  and  N1_9 
REMARK    6  A    between atoms: N1_9  and  N2_10 
REMARK       I    between atoms: N2_10  and  C4_12 
REMARK       I    between atoms: C4_12  and  N3_14 
REMARK    7  A    between atoms: N3_14  and  N4_16 
REMARK    8  A    between atoms: C5_18  and  C6_19 
REMARK    9  A    between atoms: C11_29  and  N7_30 
ROOT
HETATM    1  C3  UNL     1       4.516  15.723  87.021  1.00  0.00     0.239 C 
ENDROOT
BRANCH   1   2
HETATM    2  C2  UNL     1       4.277  16.412  85.623  1.00  0.00     0.249 C 
BRANCH   2   3
HETATM    3  S1  UNL     1       3.461  17.927  85.881  1.00  0.00     0.159 S 
HETATM    4  C1  UNL     1       3.063  18.722  84.327  1.00  0.00     0.162 C 
HETATM    5  O1  UNL     1       4.374  18.927  86.604  1.00  0.00    -0.227 OA
HETATM    6  O2  UNL     1       2.253  17.814  86.752  1.00  0.00    -0.227 OA
ENDBRANCH   2   3
BRANCH   2   7
HETATM    7  C9  UNL     1       5.633  16.516  84.951  1.00  0.00     0.045 A 
HETATM    8  C10 UNL     1       6.139  15.528  84.227  1.00  0.00     0.080 A 
HETATM    9  S2  UNL     1       7.686  16.116  83.762  1.00  0.00    -0.064 SA
HETATM   10  C11 UNL     1       7.569  17.646  84.553  1.00  0.00     0.142 A 
HETATM   11  N8  UNL     1       6.367  17.629  85.126  1.00  0.00    -0.338 N 
ATOM     12  H8  UNL     1       6.021  18.420  85.669  1.00  0.00     0.168 HD
BRANCH  10  13
HETATM   13  N7  UNL     1       8.510  18.595  84.566  1.00  0.00    -0.380 N 
ATOM     14  H72 UNL     1       8.602  19.433  83.992  1.00  0.00     0.158 HD
ATOM     15  H71 UNL     1       9.316  18.629  85.191  1.00  0.00     0.158 HD
ENDBRANCH  10  13
ENDBRANCH   2   7
ENDBRANCH   1   2
BRANCH   1  16
HETATM   16  O3  UNL     1       3.396  15.323  87.561  1.00  0.00    -0.336 OA
ATOM     17  H3  UNL     1       3.545  14.853  88.373  1.00  0.00     0.220 HD
ENDBRANCH   1  16
BRANCH   1  18
HETATM   18  N1  UNL     1       5.678  15.592  87.515  1.00  0.00    -0.299 NA
BRANCH  18  19
HETATM   19  N2  UNL     1       6.943  15.448  88.054  1.00  0.00    -0.181 N 
HETATM   20  C4  UNL     1       7.918  16.464  88.098  1.00  0.00     0.363 C 
HETATM   21  O4  UNL     1       7.718  17.596  87.623  1.00  0.00    -0.243 OA
HETATM   22  N3  UNL     1       9.164  16.170  88.722  1.00  0.00    -0.250 N 
ATOM     23  H3  UNL     1       9.277  15.223  89.085  1.00  0.00     0.192 HD
ATOM     24  H2  UNL     1       7.189  14.541  88.448  1.00  0.00     0.207 HD
BRANCH  22  25
HETATM   25  N4  UNL     1      10.228  17.017  88.890  1.00  0.00    -0.306 N 
HETATM   26  C5  UNL     1      10.513  17.585  89.980  1.00  0.00     0.138 C 
ATOM     27  H4  UNL     1      10.826  17.199  88.084  1.00  0.00     0.186 HD
BRANCH  26  28
HETATM   28  C6  UNL     1       9.769  17.406  91.195  1.00  0.00     0.065 A 
HETATM   29  C7  UNL     1      10.307  17.371  92.515  1.00  0.00     0.119 A 
HETATM   30  N5  UNL     1       9.297  17.115  93.371  1.00  0.00    -0.360 N 
HETATM   31  C8  UNL     1       8.176  16.990  92.667  1.00  0.00     0.180 A 
ATOM     32  H5  UNL     1       9.379  17.032  94.384  1.00  0.00     0.166 HD
HETATM   33  N6  UNL     1       8.451  17.163  91.386  1.00  0.00    -0.350 N 
ATOM     34  H6  UNL     1       7.759  17.118  90.638  1.00  0.00     0.166 HD
ENDBRANCH  26  28
ENDBRANCH  22  25
ENDBRANCH  18  19
ENDBRANCH   1  18
TORSDOF 9
ENDMDL
MODEL 3
REMARK VINA RESULT: -7.184637500      3.965      7.158
REMARK  9 active torsions:
REMARK  status: ('A' for Active; 'I' for Inactive)
REMARK    1  A    between atoms: S1_2  and  C2_5 
REMARK    2  A    between atoms: C2_5  and  C3_6 
REMARK    3  A    between atoms: C2_5  and  C9_26 
REMARK    4  A    between atoms: C3_6  and  O3_7 
REMARK    5  A    between atoms: C3_6  and  N1_9 
REMARK    6  A    between atoms: N1_9  and  N2_10 
REMARK       I    between atoms: N2_10  and  C4_12 
REMARK       I    between atoms: C4_12  and  N3_14 
REMARK    7  A    between atoms: N3_14  and  N4_16 
REMARK    8  A    between atoms: C5_18  and  C6_19 
REMARK    9  A    between atoms: C11_29  and  N7_30 
ROOT
HETATM    1  C3  UNL     1       5.981  16.066  85.309  1.00  0.00     0.239 C 
ENDROOT
BRANCH   1   2
HETATM    2  C2  UNL     1       4.831  17.145  85.296  1.00  0.00     0.249 C 
BRANCH   2   3
HETATM    3  S1  UNL     1       4.073  17.168  86.863  1.00  0.00     0.159 S 
HETATM    4  C1  UNL     1       3.850  15.509  87.499  1.00  0.00     0.162 C 
HETATM    5  O1  UNL     1       2.653  17.743  86.777  1.00  0.00    -0.227 OA
HETATM    6  O2  UNL     1       4.778  18.034  87.855  1.00  0.00    -0.227 OA
ENDBRANCH   2   3
BRANCH   2   7
HETATM    7  C9  UNL     1       5.465  18.454  84.867  1.00  0.00     0.045 A 
HETATM    8  C10 UNL     1       4.745  19.537  84.614  1.00  0.00     0.080 A 
HETATM    9  S2  UNL     1       5.914  20.693  84.112  1.00  0.00    -0.064 SA
HETATM   10  C11 UNL     1       7.295  19.670  84.271  1.00  0.00     0.142 A 
HETATM   11  N8  UNL     1       6.798  18.510  84.696  1.00  0.00    -0.338 N 
ATOM     12  H8  UNL     1       7.397  17.706  84.882  1.00  0.00     0.168 HD
BRANCH  10  13
HETATM   13  N7  UNL     1       8.559  20.014  84.003  1.00  0.00    -0.380 N 
ATOM     14  H72 UNL     1       9.064  20.872  84.223  1.00  0.00     0.158 HD
ATOM     15  H71 UNL     1       9.246  19.434  83.520  1.00  0.00     0.158 HD
ENDBRANCH  10  13
ENDBRANCH   2   7
ENDBRANCH   1   2
BRANCH   1  16
HETATM   16  O3  UNL     1       5.968  15.332  84.229  1.00  0.00    -0.336 OA
ATOM     17  H3  UNL     1       6.633  14.654  84.255  1.00  0.00     0.220 HD
ENDBRANCH   1  16
BRANCH   1  18
HETATM   18  N1  UNL     1       6.800  15.970  86.273  1.00  0.00    -0.299 NA
BRANCH  18  19
HETATM   19  N2  UNL     1       7.691  15.865  87.325  1.00  0.00    -0.181 N 
HETATM   20  C4  UNL     1       8.795  16.716  87.531  1.00  0.00     0.363 C 
HETATM   21  O4  UNL     1       9.075  17.640  86.747  1.00  0.00    -0.243 OA
HETATM   22  N3  UNL     1       9.600  16.500  88.686  1.00  0.00    -0.250 N 
ATOM     23  H3  UNL     1       9.331  15.722  89.287  1.00  0.00     0.192 HD
ATOM     24  H2  UNL     1       7.538  15.118  88.002  1.00  0.00     0.207 HD
BRANCH  22  25
HETATM   25  N4  UNL     1      10.696  17.222  89.080  1.00  0.00    -0.306 N 
HETATM   26  C5  UNL     1      10.865  17.668  90.248  1.00  0.00     0.138 C 
ATOM     27  H4  UNL     1      11.419  17.412  88.386  1.00  0.00     0.186 HD
BRANCH  26  28
HETATM   28  C6  UNL     1       9.939  17.462  91.326  1.00  0.00     0.065 A 
HETATM   29  C7  UNL     1      10.260  17.403  92.714  1.00  0.00     0.119 A 
HETATM   30  N5  UNL     1       9.129  17.126  93.393  1.00  0.00    -0.360 N 
HETATM   31  C8  UNL     1       8.134  17.011  92.518  1.00  0.00     0.180 A 
ATOM     32  H5  UNL     1       9.050  17.024  94.405  1.00  0.00     0.166 HD
HETATM   33  N6  UNL     1       8.608  17.210  91.301  1.00  0.00    -0.350 N 
ATOM     34  H6  UNL     1       8.045  17.178  90.451  1.00  0.00     0.166 HD
ENDBRANCH  26  28
ENDBRANCH  22  25
ENDBRANCH  18  19
ENDBRANCH   1  18
TORSDOF 9
ENDMDL
MODEL 4
REMARK VINA RESULT: -7.061974827      1.012      1.069
REMARK  9 active torsions:
REMARK  status: ('A' for Active; 'I' for Inactive)
REMARK    1  A    between atoms: S1_2  and  C2_5 
REMARK    2  A    between atoms: C2_5  and  C3_6 
REMARK    3  A    between atoms: C2_5  and  C9_26 
REMARK    4  A    between atoms: C3_6  and  O3_7 
REMARK    5  A    between atoms: C3_6  and  N1_9 
REMARK    6  A    between atoms: N1_9  and  N2_10 
REMARK       I    between atoms: N2_10  and  C4_12 
REMARK       I    between atoms: C4_12  and  N3_14 
REMARK    7  A    between atoms: N3_14  and  N4_16 
REMARK    8  A    between atoms: C5_18  and  C6_19 
REMARK    9  A    between atoms: C11_29  and  N7_30 
ROOT
HETATM    1  C3  UNL     1       6.792  16.316  84.468  1.00  0.00     0.239 C 
ENDROOT
BRANCH   1   2
HETATM    2  C2  UNL     1       6.284  17.251  85.633  1.00  0.00     0.249 C 
BRANCH   2   3
HETATM    3  S1  UNL     1       4.567  17.475  85.458  1.00  0.00     0.159 S 
HETATM    4  C1  UNL     1       4.180  18.368  83.955  1.00  0.00     0.162 C 
HETATM    5  O1  UNL     1       4.011  18.355  86.585  1.00  0.00    -0.227 OA
HETATM    6  O2  UNL     1       3.787  16.204  85.544  1.00  0.00    -0.227 OA
ENDBRANCH   2   3
BRANCH   2   7
HETATM    7  C9  UNL     1       6.721  16.605  86.933  1.00  0.00     0.045 A 
HETATM    8  C10 UNL     1       7.654  17.139  87.707  1.00  0.00     0.080 A 
HETATM    9  S2  UNL     1       7.819  16.003  88.987  1.00  0.00    -0.064 SA
HETATM   10  C11 UNL     1       6.634  14.883  88.421  1.00  0.00     0.142 A 
HETATM   11  N8  UNL     1       6.177  15.429  87.295  1.00  0.00    -0.338 N 
ATOM     12  H8  UNL     1       5.452  14.980  86.737  1.00  0.00     0.168 HD
BRANCH  10  13
HETATM   13  N7  UNL     1       6.296  13.734  89.013  1.00  0.00    -0.380 N 
ATOM     14  H72 UNL     1       6.886  13.030  89.458  1.00  0.00     0.158 HD
ATOM     15  H71 UNL     1       5.348  13.374  89.123  1.00  0.00     0.158 HD
ENDBRANCH  10  13
ENDBRANCH   2   7
ENDBRANCH   1   2
BRANCH   1  16
HETATM   16  O3  UNL     1       5.974  15.321  84.256  1.00  0.00    -0.336 OA
ATOM     17  H3  UNL     1       6.404  14.481  84.365  1.00  0.00     0.220 HD
ENDBRANCH   1  16
BRANCH   1  18
HETATM   18  N1  UNL     1       7.869  16.552  83.840  1.00  0.00    -0.299 NA
BRANCH  18  19
HETATM   19  N2  UNL     1       9.042  16.810  83.156  1.00  0.00    -0.181 N 
HETATM   20  C4  UNL     1       9.879  17.919  83.386  1.00  0.00     0.363 C 
HETATM   21  O4  UNL     1       9.608  18.791  84.231  1.00  0.00    -0.243 OA
HETATM   22  N3  UNL     1      11.077  18.024  82.622  1.00  0.00    -0.250 N 
ATOM     23  H3  UNL     1      11.243  17.288  81.937  1.00  0.00     0.192 HD
ATOM     24  H2  UNL     1       9.323  16.148  82.433  1.00  0.00     0.207 HD
BRANCH  22  25
HETATM   25  N4  UNL     1      12.031  19.004  82.706  1.00  0.00    -0.306 N 
HETATM   26  C5  UNL     1      13.118  18.987  82.066  1.00  0.00     0.138 C 
ATOM     27  H4  UNL     1      11.852  19.796  83.324  1.00  0.00     0.186 HD
BRANCH  26  28
HETATM   28  C6  UNL     1      13.494  17.946  81.151  1.00  0.00     0.065 A 
HETATM   29  C7  UNL     1      14.554  17.010  81.328  1.00  0.00     0.119 A 
HETATM   30  N5  UNL     1      14.627  16.247  80.219  1.00  0.00    -0.360 N 
HETATM   31  C8  UNL     1      13.684  16.650  79.373  1.00  0.00     0.180 A 
ATOM     32  H5  UNL     1      15.291  15.490  80.058  1.00  0.00     0.166 HD
HETATM   33  N6  UNL     1      13.014  17.649  79.919  1.00  0.00    -0.350 N 
ATOM     34  H6  UNL     1      12.237  18.133  79.472  1.00  0.00     0.166 HD
ENDBRANCH  26  28
ENDBRANCH  22  25
ENDBRANCH  18  19
ENDBRANCH   1  18
TORSDOF 9
ENDMDL
MODEL 5
REMARK VINA RESULT: -7.027016055      3.809      7.204
REMARK  9 active torsions:
REMARK  status: ('A' for Active; 'I' for Inactive)
REMARK    1  A    between atoms: S1_2  and  C2_5 
REMARK    2  A    between atoms: C2_5  and  C3_6 
REMARK    3  A    between atoms: C2_5  and  C9_26 
REMARK    4  A    between atoms: C3_6  and  O3_7 
REMARK    5  A    between atoms: C3_6  and  N1_9 
REMARK    6  A    between atoms: N1_9  and  N2_10 
REMARK       I    between atoms: N2_10  and  C4_12 
REMARK       I    between atoms: C4_12  and  N3_14 
REMARK    7  A    between atoms: N3_14  and  N4_16 
REMARK    8  A    between atoms: C5_18  and  C6_19 
REMARK    9  A    between atoms: C11_29  and  N7_30 
ROOT
HETATM    1  C3  UNL     1       5.429  16.038  85.226  1.00  0.00     0.239 C 
ENDROOT
BRANCH   1   2
HETATM    2  C2  UNL     1       4.593  17.285  84.744  1.00  0.00     0.249 C 
BRANCH   2   3
HETATM    3  S1  UNL     1       3.681  17.899  86.093  1.00  0.00     0.159 S 
HETATM    4  C1  UNL     1       2.597  19.232  85.589  1.00  0.00     0.162 C 
HETATM    5  O1  UNL     1       4.608  18.530  87.141  1.00  0.00    -0.227 OA
HETATM    6  O2  UNL     1       2.927  16.844  86.834  1.00  0.00    -0.227 OA
ENDBRANCH   2   3
BRANCH   2   7
HETATM    7  C9  UNL     1       5.580  18.262  84.134  1.00  0.00     0.045 A 
HETATM    8  C10 UNL     1       5.318  18.922  83.015  1.00  0.00     0.080 A 
HETATM    9  S2  UNL     1       6.756  19.820  82.728  1.00  0.00    -0.064 SA
HETATM   10  C11 UNL     1       7.621  19.270  84.117  1.00  0.00     0.142 A 
HETATM   11  N8  UNL     1       6.776  18.437  84.722  1.00  0.00    -0.338 N 
ATOM     12  H8  UNL     1       7.024  17.958  85.587  1.00  0.00     0.168 HD
BRANCH  10  13
HETATM   13  N7  UNL     1       8.865  19.624  84.455  1.00  0.00    -0.380 N 
ATOM     14  H72 UNL     1       9.719  19.629  83.897  1.00  0.00     0.158 HD
ATOM     15  H71 UNL     1       9.160  19.968  85.369  1.00  0.00     0.158 HD
ENDBRANCH  10  13
ENDBRANCH   2   7
ENDBRANCH   1   2
BRANCH   1  16
HETATM   16  O3  UNL     1       5.291  15.021  84.419  1.00  0.00    -0.336 OA
ATOM     17  H3  UNL     1       5.798  14.271  84.707  1.00  0.00     0.220 HD
ENDBRANCH   1  16
BRANCH   1  18
HETATM   18  N1  UNL     1       6.142  16.074  86.276  1.00  0.00    -0.299 NA
BRANCH  18  19
HETATM   19  N2  UNL     1       6.918  16.111  87.419  1.00  0.00    -0.181 N 
HETATM   20  C4  UNL     1       8.221  16.642  87.489  1.00  0.00     0.363 C 
HETATM   21  O4  UNL     1       8.800  17.112  86.494  1.00  0.00    -0.243 OA
HETATM   22  N3  UNL     1       8.878  16.640  88.753  1.00  0.00    -0.250 N 
ATOM     23  H3  UNL     1       8.361  16.233  89.532  1.00  0.00     0.192 HD
ATOM     24  H2  UNL     1       6.518  15.726  88.275  1.00  0.00     0.207 HD
BRANCH  22  25
HETATM   25  N4  UNL     1      10.127  17.126  89.039  1.00  0.00    -0.306 N 
HETATM   26  C5  UNL     1      10.507  17.458  90.196  1.00  0.00     0.138 C 
ATOM     27  H4  UNL     1      10.790  17.225  88.271  1.00  0.00     0.186 HD
BRANCH  26  28
HETATM   28  C6  UNL     1       9.686  17.355  91.370  1.00  0.00     0.065 A 
HETATM   29  C7  UNL     1      10.134  17.436  92.721  1.00  0.00     0.119 A 
HETATM   30  N5  UNL     1       9.073  17.222  93.525  1.00  0.00    -0.360 N 
HETATM   31  C8  UNL     1       8.005  17.014  92.761  1.00  0.00     0.180 A 
ATOM     32  H5  UNL     1       9.088  17.220  94.545  1.00  0.00     0.166 HD
HETATM   33  N6  UNL     1       8.362  17.094  91.492  1.00  0.00    -0.350 N 
ATOM     34  H6  UNL     1       7.724  16.974  90.706  1.00  0.00     0.166 HD
ENDBRANCH  26  28
ENDBRANCH  22  25
ENDBRANCH  18  19
ENDBRANCH   1  18
TORSDOF 9
ENDMDL
