MODEL 1
REMARK VINA RESULT: -6.128458701      0.000      0.000
REMARK  4 active torsions:
REMARK  status: ('A' for Active; 'I' for Inactive)
REMARK    1  A    between atoms: C2_2  and  O2_4 
REMARK    2  A    between atoms: O2_4  and  C3_5 
REMARK    3  A    between atoms: C3_5  and  C4_6 
REMARK    4  A    between atoms: C7_15  and  C9_18 
ROOT
HETATM    1  C3  UNL     1      33.596 -12.857  -1.695  1.00  0.00     0.252 C 
HETATM    2  N1  UNL     1      34.697 -12.237  -0.986  1.00  0.00    -0.326 N 
ATOM      3  H1  UNL     1      34.800 -11.257  -0.726  1.00  0.00     0.165 HD
HETATM    4  C6  UNL     1      35.602 -13.307  -0.735  1.00  0.00     0.172 C 
HETATM    5  S1  UNL     1      37.022 -13.142   0.021  1.00  0.00    -0.041 SA
HETATM    6  N2  UNL     1      35.037 -14.527  -1.263  1.00  0.00    -0.335 N 
ATOM      7  H2  UNL     1      35.520 -15.358  -1.603  1.00  0.00     0.164 HD
HETATM    8  C7  UNL     1      33.558 -14.261  -1.184  1.00  0.00     0.240 C 
HETATM    9  C8  UNL     1      33.098 -14.508   0.130  1.00  0.00     0.105 C 
HETATM   10  N3  UNL     1      32.739 -14.759   1.204  1.00  0.00    -0.194 NA
ENDROOT
BRANCH   8  11
HETATM   11  C9  UNL     1      32.900 -15.238  -2.106  1.00  0.00     0.171 C 
HETATM   12  C10 UNL     1      33.739 -16.199  -2.847  1.00  0.00     0.095 C 
HETATM   13  O4  UNL     1      31.696 -15.270  -2.269  1.00  0.00    -0.294 OA
ENDBRANCH   8  11
BRANCH   1  14
HETATM   14  O2  UNL     1      32.493 -12.081  -1.709  1.00  0.00    -0.278 OA
BRANCH  14  15
HETATM   15  C2  UNL     1      32.332 -10.772  -1.382  1.00  0.00     0.257 C 
HETATM   16  C1  UNL     1      31.930  -9.760  -2.435  1.00  0.00     0.126 C 
HETATM   17  O1  UNL     1      32.496 -10.306  -0.236  1.00  0.00    -0.266 OA
ENDBRANCH  14  15
ENDBRANCH   1  14
BRANCH   1  18
HETATM   18  C4  UNL     1      34.097 -13.045  -3.137  1.00  0.00     0.182 C 
HETATM   19  C5  UNL     1      33.185 -13.059  -4.298  1.00  0.00     0.096 C 
HETATM   20  O3  UNL     1      35.277 -13.180  -3.289  1.00  0.00    -0.293 OA
ENDBRANCH   1  18
TORSDOF 4
ENDMDL
MODEL 2
REMARK VINA RESULT: -5.877052381      2.430      4.068
REMARK  4 active torsions:
REMARK  status: ('A' for Active; 'I' for Inactive)
REMARK    1  A    between atoms: C2_2  and  O2_4 
REMARK    2  A    between atoms: O2_4  and  C3_5 
REMARK    3  A    between atoms: C3_5  and  C4_6 
REMARK    4  A    between atoms: C7_15  and  C9_18 
ROOT
HETATM    1  C3  UNL     1      34.013 -13.016  -2.220  1.00  0.00     0.252 C 
HETATM    2  N1  UNL     1      33.838 -11.579  -2.159  1.00  0.00    -0.326 N 
ATOM      3  H1  UNL     1      34.562 -10.863  -2.099  1.00  0.00     0.165 HD
HETATM    4  C6  UNL     1      32.428 -11.393  -2.201  1.00  0.00     0.172 C 
HETATM    5  S1  UNL     1      31.695  -9.952  -2.136  1.00  0.00    -0.041 SA
HETATM    6  N2  UNL     1      31.792 -12.686  -2.306  1.00  0.00    -0.335 N 
ATOM      7  H2  UNL     1      30.866 -12.969  -1.987  1.00  0.00     0.164 HD
HETATM    8  C7  UNL     1      32.841 -13.507  -3.005  1.00  0.00     0.240 C 
HETATM    9  C8  UNL     1      32.787 -13.265  -4.397  1.00  0.00     0.105 C 
HETATM   10  N3  UNL     1      32.694 -13.081  -5.538  1.00  0.00    -0.194 NA
ENDROOT
BRANCH   8  11
HETATM   11  C9  UNL     1      32.490 -14.941  -2.762  1.00  0.00     0.171 C 
HETATM   12  C10 UNL     1      33.312 -15.995  -3.385  1.00  0.00     0.095 C 
HETATM   13  O4  UNL     1      31.546 -15.271  -2.070  1.00  0.00    -0.294 OA
ENDBRANCH   8  11
BRANCH   1  14
HETATM   14  O2  UNL     1      35.276 -13.366  -2.543  1.00  0.00    -0.278 OA
BRANCH  14  15
HETATM   15  C2  UNL     1      36.445 -12.693  -2.382  1.00  0.00     0.257 C 
HETATM   16  C1  UNL     1      37.617 -13.346  -1.679  1.00  0.00     0.126 C 
HETATM   17  O1  UNL     1      36.649 -11.528  -2.779  1.00  0.00    -0.266 OA
ENDBRANCH  14  15
ENDBRANCH   1  14
BRANCH   1  18
HETATM   18  C4  UNL     1      33.698 -13.524  -0.804  1.00  0.00     0.182 C 
HETATM   19  C5  UNL     1      34.336 -14.726  -0.231  1.00  0.00     0.096 C 
HETATM   20  O3  UNL     1      32.902 -12.896  -0.166  1.00  0.00    -0.293 OA
ENDBRANCH   1  18
TORSDOF 4
ENDMDL
MODEL 3
REMARK VINA RESULT: -5.872611594      1.373      1.553
REMARK  4 active torsions:
REMARK  status: ('A' for Active; 'I' for Inactive)
REMARK    1  A    between atoms: C2_2  and  O2_4 
REMARK    2  A    between atoms: O2_4  and  C3_5 
REMARK    3  A    between atoms: C3_5  and  C4_6 
REMARK    4  A    between atoms: C7_15  and  C9_18 
ROOT
HETATM    1  C3  UNL     1      33.845 -13.244  -2.513  1.00  0.00     0.252 C 
HETATM    2  N1  UNL     1      35.241 -13.243  -2.126  1.00  0.00    -0.326 N 
ATOM      3  H1  UNL     1      35.867 -12.442  -2.046  1.00  0.00     0.165 HD
HETATM    4  C6  UNL     1      35.540 -14.613  -1.882  1.00  0.00     0.172 C 
HETATM    5  S1  UNL     1      36.995 -15.163  -1.438  1.00  0.00    -0.041 SA
HETATM    6  N2  UNL     1      34.346 -15.395  -2.098  1.00  0.00    -0.335 N 
ATOM      7  H2  UNL     1      34.265 -16.370  -2.388  1.00  0.00     0.164 HD
HETATM    8  C7  UNL     1      33.252 -14.409  -1.789  1.00  0.00     0.240 C 
HETATM    9  C8  UNL     1      33.059 -14.333  -0.391  1.00  0.00     0.105 C 
HETATM   10  N3  UNL     1      32.892 -14.320   0.757  1.00  0.00    -0.194 NA
ENDROOT
BRANCH   8  11
HETATM   11  C9  UNL     1      32.003 -14.952  -2.409  1.00  0.00     0.171 C 
HETATM   12  C10 UNL     1      30.760 -14.162  -2.327  1.00  0.00     0.095 C 
HETATM   13  O4  UNL     1      31.973 -16.027  -2.977  1.00  0.00    -0.294 OA
ENDBRANCH   8  11
BRANCH   1  14
HETATM   14  O2  UNL     1      33.292 -12.015  -2.444  1.00  0.00    -0.278 OA
BRANCH  14  15
HETATM   15  C2  UNL     1      33.269 -11.116  -1.425  1.00  0.00     0.257 C 
HETATM   16  C1  UNL     1      32.093 -10.178  -1.254  1.00  0.00     0.126 C 
HETATM   17  O1  UNL     1      34.176 -10.987  -0.577  1.00  0.00    -0.266 OA
ENDBRANCH  14  15
ENDBRANCH   1  14
BRANCH   1  18
HETATM   18  C4  UNL     1      33.829 -13.721  -3.975  1.00  0.00     0.182 C 
HETATM   19  C5  UNL     1      32.836 -13.239  -4.956  1.00  0.00     0.096 C 
HETATM   20  O3  UNL     1      34.669 -14.510  -4.298  1.00  0.00    -0.293 OA
ENDBRANCH   1  18
TORSDOF 4
ENDMDL
MODEL 4
REMARK VINA RESULT: -5.803156473      3.294      4.664
REMARK  4 active torsions:
REMARK  status: ('A' for Active; 'I' for Inactive)
REMARK    1  A    between atoms: C2_2  and  O2_4 
REMARK    2  A    between atoms: O2_4  and  C3_5 
REMARK    3  A    between atoms: C3_5  and  C4_6 
REMARK    4  A    between atoms: C7_15  and  C9_18 
ROOT
HETATM    1  C3  UNL     1      37.140 -12.083  -0.539  1.00  0.00     0.252 C 
HETATM    2  N1  UNL     1      38.101 -13.153  -0.720  1.00  0.00    -0.326 N 
ATOM      3  H1  UNL     1      38.934 -13.347  -0.165  1.00  0.00     0.165 HD
HETATM    4  C6  UNL     1      37.617 -13.872  -1.850  1.00  0.00     0.172 C 
HETATM    5  S1  UNL     1      38.350 -15.166  -2.489  1.00  0.00    -0.041 SA
HETATM    6  N2  UNL     1      36.394 -13.255  -2.306  1.00  0.00    -0.335 N 
ATOM      7  H2  UNL     1      35.999 -13.239  -3.245  1.00  0.00     0.164 HD
HETATM    8  C7  UNL     1      35.850 -12.643  -1.043  1.00  0.00     0.240 C 
HETATM    9  C8  UNL     1      35.178 -13.629  -0.285  1.00  0.00     0.105 C 
HETATM   10  N3  UNL     1      34.597 -14.447   0.296  1.00  0.00    -0.194 NA
ENDROOT
BRANCH   8  11
HETATM   11  C9  UNL     1      34.851 -11.612  -1.467  1.00  0.00     0.171 C 
HETATM   12  C10 UNL     1      34.507 -11.493  -2.896  1.00  0.00     0.095 C 
HETATM   13  O4  UNL     1      34.312 -10.864  -0.674  1.00  0.00    -0.294 OA
ENDBRANCH   8  11
BRANCH   1  14
HETATM   14  O2  UNL     1      37.234 -11.512   0.680  1.00  0.00    -0.278 OA
BRANCH  14  15
HETATM   15  C2  UNL     1      38.172 -11.658   1.652  1.00  0.00     0.257 C 
HETATM   16  C1  UNL     1      39.454 -10.854   1.609  1.00  0.00     0.126 C 
HETATM   17  O1  UNL     1      38.066 -12.434   2.624  1.00  0.00    -0.266 OA
ENDBRANCH  14  15
ENDBRANCH   1  14
BRANCH   1  18
HETATM   18  C4  UNL     1      37.488 -11.039  -1.612  1.00  0.00     0.182 C 
HETATM   19  C5  UNL     1      37.247  -9.595  -1.421  1.00  0.00     0.096 C 
HETATM   20  O3  UNL     1      37.975 -11.445  -2.628  1.00  0.00    -0.293 OA
ENDBRANCH   1  18
TORSDOF 4
ENDMDL
MODEL 5
REMARK VINA RESULT: -5.770051256      1.755      3.783
REMARK  4 active torsions:
REMARK  status: ('A' for Active; 'I' for Inactive)
REMARK    1  A    between atoms: C2_2  and  O2_4 
REMARK    2  A    between atoms: O2_4  and  C3_5 
REMARK    3  A    between atoms: C3_5  and  C4_6 
REMARK    4  A    between atoms: C7_15  and  C9_18 
ROOT
HETATM    1  C3  UNL     1      32.816 -12.583  -1.755  1.00  0.00     0.252 C 
HETATM    2  N1  UNL     1      33.357 -13.439  -0.718  1.00  0.00    -0.326 N 
ATOM      3  H1  UNL     1      32.845 -14.043  -0.076  1.00  0.00     0.165 HD
HETATM    4  C6  UNL     1      34.765 -13.246  -0.801  1.00  0.00     0.172 C 
HETATM    5  S1  UNL     1      35.843 -13.966   0.167  1.00  0.00    -0.041 SA
HETATM    6  N2  UNL     1      35.045 -12.319  -1.872  1.00  0.00    -0.335 N 
ATOM      7  H2  UNL     1      35.833 -11.678  -1.972  1.00  0.00     0.164 HD
HETATM    8  C7  UNL     1      33.882 -12.536  -2.801  1.00  0.00     0.240 C 
HETATM    9  C8  UNL     1      34.117 -13.675  -3.604  1.00  0.00     0.105 C 
HETATM   10  N3  UNL     1      34.355 -14.589  -4.278  1.00  0.00    -0.194 NA
ENDROOT
BRANCH   8  11
HETATM   11  C9  UNL     1      33.821 -11.336  -3.693  1.00  0.00     0.171 C 
HETATM   12  C10 UNL     1      32.804 -11.287  -4.760  1.00  0.00     0.095 C 
HETATM   13  O4  UNL     1      34.583 -10.396  -3.573  1.00  0.00    -0.294 OA
ENDBRANCH   8  11
BRANCH   1  14
HETATM   14  O2  UNL     1      31.539 -12.893  -2.061  1.00  0.00    -0.278 OA
BRANCH  14  15
HETATM   15  C2  UNL     1      30.980 -14.082  -2.405  1.00  0.00     0.257 C 
HETATM   16  C1  UNL     1      30.009 -14.169  -3.564  1.00  0.00     0.126 C 
HETATM   17  O1  UNL     1      31.204 -15.162  -1.821  1.00  0.00    -0.266 OA
ENDBRANCH  14  15
ENDBRANCH   1  14
BRANCH   1  18
HETATM   18  C4  UNL     1      32.863 -11.161  -1.172  1.00  0.00     0.182 C 
HETATM   19  C5  UNL     1      31.871 -10.126  -1.525  1.00  0.00     0.096 C 
HETATM   20  O3  UNL     1      33.749 -10.918  -0.404  1.00  0.00    -0.293 OA
ENDBRANCH   1  18
TORSDOF 4
ENDMDL
