MODEL 1
REMARK VINA RESULT: -7.952721442      0.000      0.000
REMARK  4 active torsions:
REMARK  status: ('A' for Active; 'I' for Inactive)
REMARK    1  A    between atoms: C1_2  and  C2_4 
REMARK    2  A    between atoms: C2_4  and  N2_5 
REMARK    3  A    between atoms: C2_4  and  C3_9 
REMARK    4  A    between atoms: C6_12  and  C7_13 
ROOT
HETATM    1  C3  UNL     1      37.917 -10.906  -0.629  1.00  0.00    -0.019 A 
HETATM    2  C4  UNL     1      36.729 -10.425  -0.159  1.00  0.00     0.011 A 
HETATM    3  C5  UNL     1      35.505 -10.671  -0.793  1.00  0.00     0.016 A 
HETATM    4  C6  UNL     1      35.439 -11.414  -1.931  1.00  0.00     0.011 A 
HETATM    5  C12 UNL     1      36.655 -11.912  -2.423  1.00  0.00     0.016 A 
HETATM    6  C13 UNL     1      37.850 -11.671  -1.800  1.00  0.00     0.011 A 
ENDROOT
BRANCH   4   7
HETATM    7  C7  UNL     1      34.199 -11.712  -2.650  1.00  0.00     0.154 A 
HETATM    8  N3  UNL     1      33.916 -12.940  -3.187  1.00  0.00    -0.282 N 
HETATM    9  N4  UNL     1      32.740 -12.900  -3.765  1.00  0.00    -0.282 N 
ATOM     10  H3  UNL     1      34.524 -13.757  -3.144  1.00  0.00     0.188 HD
HETATM   11  C8  UNL     1      32.210 -11.674  -3.638  1.00  0.00     0.143 A 
ATOM     12  H4  UNL     1      32.294 -13.684  -4.241  1.00  0.00     0.188 HD
HETATM   13  C9  UNL     1      31.009 -11.116  -4.063  1.00  0.00     0.053 A 
HETATM   14  N6  UNL     1      33.138 -10.954  -2.941  1.00  0.00    -0.221 N 
HETATM   15  C10 UNL     1      30.789  -9.797  -3.751  1.00  0.00     0.022 A 
HETATM   16  C11 UNL     1      31.758  -9.118  -3.046  1.00  0.00     0.108 A 
HETATM   17  N5  UNL     1      32.899  -9.682  -2.652  1.00  0.00    -0.302 N 
ATOM     18  H5  UNL     1      33.587  -9.137  -2.132  1.00  0.00     0.186 HD
ENDBRANCH   4   7
BRANCH   1  19
HETATM   19  C2  UNL     1      39.232 -10.665   0.022  1.00  0.00     0.304 C 
BRANCH  19  20
HETATM   20  C1  UNL     1      39.304 -11.117   1.422  1.00  0.00     0.266 C 
HETATM   21  N1  UNL     1      40.192 -10.400   2.306  1.00  0.00    -0.060 NA
HETATM   22  O1  UNL     1      38.640 -12.087   1.889  1.00  0.00    -0.274 OA
ENDBRANCH  19  20
BRANCH  19  23
HETATM   23  N2  UNL     1      39.444  -9.220  -0.032  1.00  0.00    -0.063 N 
ATOM     24  H23 UNL     1      39.062  -8.743   0.784  1.00  0.00     0.275 HD
ATOM     25  H22 UNL     1      40.424  -8.969   0.099  1.00  0.00     0.275 HD
ATOM     26  H21 UNL     1      39.065  -8.855  -0.905  1.00  0.00     0.275 HD
ENDBRANCH  19  23
ENDBRANCH   1  19
TORSDOF 4
ENDMDL
MODEL 2
REMARK VINA RESULT: -7.949428592      2.950      7.116
REMARK  4 active torsions:
REMARK  status: ('A' for Active; 'I' for Inactive)
REMARK    1  A    between atoms: C1_2  and  C2_4 
REMARK    2  A    between atoms: C2_4  and  N2_5 
REMARK    3  A    between atoms: C2_4  and  C3_9 
REMARK    4  A    between atoms: C6_12  and  C7_13 
ROOT
HETATM    1  C3  UNL     1      32.261 -12.234  -2.427  1.00  0.00    -0.019 A 
HETATM    2  C4  UNL     1      32.438 -11.246  -1.503  1.00  0.00     0.011 A 
HETATM    3  C5  UNL     1      33.692 -10.695  -1.210  1.00  0.00     0.016 A 
HETATM    4  C6  UNL     1      34.816 -11.127  -1.844  1.00  0.00     0.011 A 
HETATM    5  C12 UNL     1      34.644 -12.144  -2.796  1.00  0.00     0.016 A 
HETATM    6  C13 UNL     1      33.416 -12.680  -3.080  1.00  0.00     0.011 A 
ENDROOT
BRANCH   4   7
HETATM    7  C7  UNL     1      36.159 -10.602  -1.592  1.00  0.00     0.154 A 
HETATM    8  N3  UNL     1      36.744  -9.630  -2.358  1.00  0.00    -0.282 N 
HETATM    9  N4  UNL     1      37.940  -9.369  -1.889  1.00  0.00    -0.282 N 
ATOM     10  H3  UNL     1      36.317  -9.179  -3.167  1.00  0.00     0.188 HD
HETATM   11  C8  UNL     1      38.190 -10.139  -0.820  1.00  0.00     0.143 A 
ATOM     12  H4  UNL     1      38.586  -8.683  -2.280  1.00  0.00     0.188 HD
HETATM   13  C9  UNL     1      39.287 -10.254   0.027  1.00  0.00     0.053 A 
HETATM   14  N6  UNL     1      37.065 -10.898  -0.656  1.00  0.00    -0.221 N 
HETATM   15  C10 UNL     1      39.196 -11.169   1.046  1.00  0.00     0.022 A 
HETATM   16  C11 UNL     1      38.040 -11.907   1.166  1.00  0.00     0.108 A 
HETATM   17  N5  UNL     1      37.004 -11.774   0.338  1.00  0.00    -0.302 N 
ATOM     18  H5  UNL     1      36.168 -12.345   0.467  1.00  0.00     0.186 HD
ENDBRANCH   4   7
BRANCH   1  19
HETATM   19  C2  UNL     1      30.943 -12.838  -2.762  1.00  0.00     0.304 C 
BRANCH  19  20
HETATM   20  C1  UNL     1      30.919 -14.309  -2.698  1.00  0.00     0.266 C 
HETATM   21  N1  UNL     1      30.532 -15.019  -3.893  1.00  0.00    -0.060 NA
HETATM   22  O1  UNL     1      31.215 -14.978  -1.666  1.00  0.00    -0.274 OA
ENDBRANCH  19  20
BRANCH  19  23
HETATM   23  N2  UNL     1      30.643 -12.407  -4.126  1.00  0.00    -0.063 N 
ATOM     24  H23 UNL     1      30.812 -13.146  -4.810  1.00  0.00     0.275 HD
ATOM     25  H22 UNL     1      29.643 -12.290  -4.283  1.00  0.00     0.275 HD
ATOM     26  H21 UNL     1      31.169 -11.560  -4.337  1.00  0.00     0.275 HD
ENDBRANCH  19  23
ENDBRANCH   1  19
TORSDOF 4
ENDMDL
MODEL 3
REMARK VINA RESULT: -7.873677705      2.841      6.852
REMARK  4 active torsions:
REMARK  status: ('A' for Active; 'I' for Inactive)
REMARK    1  A    between atoms: C1_2  and  C2_4 
REMARK    2  A    between atoms: C2_4  and  N2_5 
REMARK    3  A    between atoms: C2_4  and  C3_9 
REMARK    4  A    between atoms: C6_12  and  C7_13 
ROOT
HETATM    1  C3  UNL     1      33.312 -12.629  -2.385  1.00  0.00    -0.019 A 
HETATM    2  C4  UNL     1      33.221 -11.496  -1.630  1.00  0.00     0.011 A 
HETATM    3  C5  UNL     1      34.339 -10.736  -1.262  1.00  0.00     0.016 A 
HETATM    4  C6  UNL     1      35.593 -11.097  -1.648  1.00  0.00     0.011 A 
HETATM    5  C12 UNL     1      35.696 -12.261  -2.425  1.00  0.00     0.016 A 
HETATM    6  C13 UNL     1      34.601 -13.002  -2.781  1.00  0.00     0.011 A 
ENDROOT
BRANCH   4   7
HETATM    7  C7  UNL     1      36.807 -10.356  -1.304  1.00  0.00     0.154 A 
HETATM    8  N3  UNL     1      37.600  -9.735  -2.232  1.00  0.00    -0.282 N 
HETATM    9  N4  UNL     1      38.608  -9.157  -1.625  1.00  0.00    -0.282 N 
ATOM     10  H3  UNL     1      37.433  -9.724  -3.238  1.00  0.00     0.188 HD
HETATM   11  C8  UNL     1      38.526  -9.367  -0.303  1.00  0.00     0.143 A 
ATOM     12  H4  UNL     1      39.345  -8.627  -2.089  1.00  0.00     0.188 HD
HETATM   13  C9  UNL     1      39.325  -8.978   0.766  1.00  0.00     0.053 A 
HETATM   14  N6  UNL     1      37.396 -10.116  -0.129  1.00  0.00    -0.221 N 
HETATM   15  C10 UNL     1      38.932  -9.381   2.019  1.00  0.00     0.022 A 
HETATM   16  C11 UNL     1      37.785 -10.134   2.137  1.00  0.00     0.108 A 
HETATM   17  N5  UNL     1      37.039 -10.490   1.092  1.00  0.00    -0.302 N 
ATOM     18  H5  UNL     1      36.197 -11.050   1.230  1.00  0.00     0.186 HD
ENDBRANCH   4   7
BRANCH   1  19
HETATM   19  C2  UNL     1      32.145 -13.457  -2.792  1.00  0.00     0.304 C 
BRANCH  19  20
HETATM   20  C1  UNL     1      32.051 -14.752  -2.098  1.00  0.00     0.266 C 
HETATM   21  N1  UNL     1      32.208 -15.945  -2.895  1.00  0.00    -0.060 NA
HETATM   22  O1  UNL     1      31.843 -14.878  -0.857  1.00  0.00    -0.274 OA
ENDBRANCH  19  20
BRANCH  19  23
HETATM   23  N2  UNL     1      32.301 -13.686  -4.228  1.00  0.00    -0.063 N 
ATOM     24  H23 UNL     1      31.405 -13.721  -4.713  1.00  0.00     0.275 HD
ATOM     25  H22 UNL     1      32.695 -12.877  -4.707  1.00  0.00     0.275 HD
ATOM     26  H21 UNL     1      32.854 -14.530  -4.377  1.00  0.00     0.275 HD
ENDBRANCH  19  23
ENDBRANCH   1  19
TORSDOF 4
ENDMDL
MODEL 4
REMARK VINA RESULT: -7.872729237      1.329      2.175
REMARK  4 active torsions:
REMARK  status: ('A' for Active; 'I' for Inactive)
REMARK    1  A    between atoms: C1_2  and  C2_4 
REMARK    2  A    between atoms: C2_4  and  N2_5 
REMARK    3  A    between atoms: C2_4  and  C3_9 
REMARK    4  A    between atoms: C6_12  and  C7_13 
ROOT
HETATM    1  C3  UNL     1      37.370 -11.085  -0.968  1.00  0.00    -0.019 A 
HETATM    2  C4  UNL     1      36.230 -11.382  -0.280  1.00  0.00     0.011 A 
HETATM    3  C5  UNL     1      34.951 -11.252  -0.836  1.00  0.00     0.016 A 
HETATM    4  C6  UNL     1      34.780 -10.816  -2.113  1.00  0.00     0.011 A 
HETATM    5  C12 UNL     1      35.947 -10.507  -2.829  1.00  0.00     0.016 A 
HETATM    6  C13 UNL     1      37.196 -10.635  -2.281  1.00  0.00     0.011 A 
ENDROOT
BRANCH   4   7
HETATM    7  C7  UNL     1      33.479 -10.654  -2.763  1.00  0.00     0.154 A 
HETATM    8  N3  UNL     1      32.745  -9.500  -2.706  1.00  0.00    -0.282 N 
HETATM    9  N4  UNL     1      31.632  -9.658  -3.380  1.00  0.00    -0.282 N 
ATOM     10  H3  UNL     1      33.021  -8.649  -2.215  1.00  0.00     0.188 HD
HETATM   11  C8  UNL     1      31.584 -10.894  -3.899  1.00  0.00     0.143 A 
ATOM     12  H4  UNL     1      30.910  -8.947  -3.494  1.00  0.00     0.188 HD
HETATM   13  C9  UNL     1      30.642 -11.555  -4.679  1.00  0.00     0.053 A 
HETATM   14  N6  UNL     1      32.745 -11.494  -3.499  1.00  0.00    -0.221 N 
HETATM   15  C10 UNL     1      30.926 -12.849  -5.038  1.00  0.00     0.022 A 
HETATM   16  C11 UNL     1      32.111 -13.406  -4.609  1.00  0.00     0.108 A 
HETATM   17  N5  UNL     1      32.994 -12.745  -3.861  1.00  0.00    -0.302 N 
ATOM     18  H5  UNL     1      33.859 -13.201  -3.567  1.00  0.00     0.186 HD
ENDBRANCH   4   7
BRANCH   1  19
HETATM   19  C2  UNL     1      38.742 -11.214  -0.406  1.00  0.00     0.304 C 
BRANCH  19  20
HETATM   20  C1  UNL     1      38.902 -10.627   0.935  1.00  0.00     0.266 C 
HETATM   21  N1  UNL     1      39.223 -11.525   2.018  1.00  0.00    -0.060 NA
HETATM   22  O1  UNL     1      38.776  -9.395   1.189  1.00  0.00    -0.274 OA
ENDBRANCH  19  20
BRANCH  19  23
HETATM   23  N2  UNL     1      39.623 -10.524  -1.346  1.00  0.00    -0.063 N 
ATOM     24  H23 UNL     1      39.744  -9.539  -1.110  1.00  0.00     0.275 HD
ATOM     25  H22 UNL     1      40.595 -10.817  -1.249  1.00  0.00     0.275 HD
ATOM     26  H21 UNL     1      39.274 -10.654  -2.295  1.00  0.00     0.275 HD
ENDBRANCH  19  23
ENDBRANCH   1  19
TORSDOF 4
ENDMDL
MODEL 5
REMARK VINA RESULT: -7.856814028      1.864      2.831
REMARK  4 active torsions:
REMARK  status: ('A' for Active; 'I' for Inactive)
REMARK    1  A    between atoms: C1_2  and  C2_4 
REMARK    2  A    between atoms: C2_4  and  N2_5 
REMARK    3  A    between atoms: C2_4  and  C3_9 
REMARK    4  A    between atoms: C6_12  and  C7_13 
ROOT
HETATM    1  C3  UNL     1      38.366  -9.698   0.091  1.00  0.00    -0.019 A 
HETATM    2  C4  UNL     1      38.313  -9.411  -1.242  1.00  0.00     0.011 A 
HETATM    3  C5  UNL     1      37.260  -9.825  -2.067  1.00  0.00     0.016 A 
HETATM    4  C6  UNL     1      36.219 -10.548  -1.571  1.00  0.00     0.011 A 
HETATM    5  C12 UNL     1      36.265 -10.848  -0.201  1.00  0.00     0.016 A 
HETATM    6  C13 UNL     1      37.296 -10.441   0.603  1.00  0.00     0.011 A 
ENDROOT
BRANCH   4   7
HETATM    7  C7  UNL     1      35.085 -11.017  -2.369  1.00  0.00     0.154 A 
HETATM    8  N3  UNL     1      34.073 -10.199  -2.793  1.00  0.00    -0.282 N 
HETATM    9  N4  UNL     1      33.207 -10.902  -3.483  1.00  0.00    -0.282 N 
ATOM     10  H3  UNL     1      34.002  -9.199  -2.603  1.00  0.00     0.188 HD
HETATM   11  C8  UNL     1      33.602 -12.182  -3.542  1.00  0.00     0.143 A 
ATOM     12  H4  UNL     1      32.359 -10.530  -3.911  1.00  0.00     0.188 HD
HETATM   13  C9  UNL     1      33.054 -13.313  -4.138  1.00  0.00     0.053 A 
HETATM   14  N6  UNL     1      34.773 -12.227  -2.840  1.00  0.00    -0.221 N 
HETATM   15  C10 UNL     1      33.744 -14.491  -3.993  1.00  0.00     0.022 A 
HETATM   16  C11 UNL     1      34.920 -14.481  -3.276  1.00  0.00     0.108 A 
HETATM   17  N5  UNL     1      35.419 -13.379  -2.716  1.00  0.00    -0.302 N 
ATOM     18  H5  UNL     1      36.295 -13.421  -2.194  1.00  0.00     0.186 HD
ENDBRANCH   4   7
BRANCH   1  19
HETATM   19  C2  UNL     1      39.468  -9.270   0.994  1.00  0.00     0.304 C 
BRANCH  19  20
HETATM   20  C1  UNL     1      39.719 -10.189   2.117  1.00  0.00     0.266 C 
HETATM   21  N1  UNL     1      39.331  -9.746   3.435  1.00  0.00    -0.060 NA
HETATM   22  O1  UNL     1      40.249 -11.330   1.995  1.00  0.00    -0.274 OA
ENDBRANCH  19  20
BRANCH  19  23
HETATM   23  N2  UNL     1      39.072  -7.963   1.515  1.00  0.00    -0.063 N 
ATOM     24  H23 UNL     1      38.100  -7.740   1.299  1.00  0.00     0.275 HD
ATOM     25  H22 UNL     1      38.999  -7.959   2.532  1.00  0.00     0.275 HD
ATOM     26  H21 UNL     1      39.717  -7.252   1.171  1.00  0.00     0.275 HD
ENDBRANCH  19  23
ENDBRANCH   1  19
TORSDOF 4
ENDMDL
