MODEL 1
REMARK VINA RESULT: -6.698989934      0.000      0.000
REMARK  6 active torsions:
REMARK  status: ('A' for Active; 'I' for Inactive)
REMARK    1  A    between atoms: O1_2  and  C2_3 
REMARK    2  A    between atoms: C2_3  and  C3_5 
REMARK    3  A    between atoms: N1_6  and  N2_8 
REMARK    4  A    between atoms: N2_8  and  C4_10 
REMARK    5  A    between atoms: C4_10  and  N3_12 
REMARK       I    between atoms: N3_12  and  C5_14 
REMARK    6  A    between atoms: C5_14  and  C6_16 
ROOT
HETATM    1  C4  UNL     1      37.440  -9.898  -0.577  1.00  0.00     0.193 C 
HETATM    2  S1  UNL     1      38.814 -10.570  -1.133  1.00  0.00    -0.039 SA
ENDROOT
BRANCH   1   3
HETATM    3  N2  UNL     1      37.430  -9.345   0.717  1.00  0.00    -0.276 N 
ATOM      4  H2  UNL     1      37.651  -8.359   0.852  1.00  0.00     0.189 HD
BRANCH   3   5
HETATM    5  N1  UNL     1      37.118 -10.143   1.811  1.00  0.00    -0.304 N 
HETATM    6  C3  UNL     1      38.028 -10.460   2.648  1.00  0.00     0.189 C 
ATOM      7  H1  UNL     1      36.163 -10.475   1.944  1.00  0.00     0.186 HD
BRANCH   6   8
HETATM    8  C2  UNL     1      39.400 -10.004   2.487  1.00  0.00     0.299 C 
HETATM    9  O2  UNL     1      40.339 -10.792   2.223  1.00  0.00    -0.259 OA
BRANCH   8  10
HETATM   10  O1  UNL     1      39.735  -8.660   2.621  1.00  0.00    -0.322 OA
HETATM   11  C1  UNL     1      40.608  -8.059   1.686  1.00  0.00     0.213 C 
ENDBRANCH   8  10
ENDBRANCH   6   8
ENDBRANCH   3   5
ENDBRANCH   1   3
BRANCH   1  12
HETATM   12  N3  UNL     1      36.246  -9.850  -1.356  1.00  0.00    -0.298 N 
HETATM   13  C5  UNL     1      35.153 -10.710  -1.139  1.00  0.00     0.258 C 
HETATM   14  O3  UNL     1      35.279 -11.550  -0.198  1.00  0.00    -0.267 OA
ATOM     15  H3  UNL     1      36.182  -9.161  -2.105  1.00  0.00     0.171 HD
BRANCH  13  16
HETATM   16  C6  UNL     1      33.934 -10.668  -1.927  1.00  0.00     0.035 A 
HETATM   17  C7  UNL     1      32.693 -10.507  -1.382  1.00  0.00     0.034 A 
HETATM   18  C8  UNL     1      31.537 -10.471  -2.181  1.00  0.00     0.088 A 
HETATM   19  N4  UNL     1      31.653 -10.599  -3.505  1.00  0.00    -0.375 N 
HETATM   20  C9  UNL     1      32.850 -10.760  -4.105  1.00  0.00     0.088 A 
ATOM     21  H4  UNL     1      30.811 -10.572  -4.080  1.00  0.00     0.164 HD
HETATM   22  C10 UNL     1      33.973 -10.794  -3.323  1.00  0.00     0.034 A 
ENDBRANCH  13  16
ENDBRANCH   1  12
TORSDOF 6
ENDMDL
MODEL 2
REMARK VINA RESULT: -6.674338682      0.046      1.106
REMARK  6 active torsions:
REMARK  status: ('A' for Active; 'I' for Inactive)
REMARK    1  A    between atoms: O1_2  and  C2_3 
REMARK    2  A    between atoms: C2_3  and  C3_5 
REMARK    3  A    between atoms: N1_6  and  N2_8 
REMARK    4  A    between atoms: N2_8  and  C4_10 
REMARK    5  A    between atoms: C4_10  and  N3_12 
REMARK       I    between atoms: N3_12  and  C5_14 
REMARK    6  A    between atoms: C5_14  and  C6_16 
ROOT
HETATM    1  C4  UNL     1      37.449  -9.887  -0.559  1.00  0.00     0.193 C 
HETATM    2  S1  UNL     1      38.837 -10.549  -1.092  1.00  0.00    -0.039 SA
ENDROOT
BRANCH   1   3
HETATM    3  N2  UNL     1      37.411  -9.340   0.737  1.00  0.00    -0.276 N 
ATOM      4  H2  UNL     1      37.608  -8.350   0.879  1.00  0.00     0.189 HD
BRANCH   3   5
HETATM    5  N1  UNL     1      37.105 -10.151   1.823  1.00  0.00    -0.304 N 
HETATM    6  C3  UNL     1      38.017 -10.466   2.660  1.00  0.00     0.189 C 
ATOM      7  H1  UNL     1      36.153 -10.494   1.952  1.00  0.00     0.186 HD
BRANCH   6   8
HETATM    8  C2  UNL     1      39.384  -9.993   2.506  1.00  0.00     0.299 C 
HETATM    9  O2  UNL     1      40.334 -10.772   2.254  1.00  0.00    -0.259 OA
BRANCH   8  10
HETATM   10  O1  UNL     1      39.702  -8.645   2.634  1.00  0.00    -0.322 OA
HETATM   11  C1  UNL     1      40.569  -8.038   1.698  1.00  0.00     0.213 C 
ENDBRANCH   8  10
ENDBRANCH   6   8
ENDBRANCH   3   5
ENDBRANCH   1   3
BRANCH   1  12
HETATM   12  N3  UNL     1      36.270  -9.840  -1.361  1.00  0.00    -0.298 N 
HETATM   13  C5  UNL     1      35.176 -10.704  -1.167  1.00  0.00     0.258 C 
HETATM   14  O3  UNL     1      35.287 -11.547  -0.226  1.00  0.00    -0.267 OA
ATOM     15  H3  UNL     1      36.217  -9.149  -2.109  1.00  0.00     0.171 HD
BRANCH  13  16
HETATM   16  C6  UNL     1      33.971 -10.664  -1.978  1.00  0.00     0.035 A 
HETATM   17  C7  UNL     1      33.974 -10.820  -3.334  1.00  0.00     0.034 A 
HETATM   18  C8  UNL     1      32.786 -10.775  -4.082  1.00  0.00     0.088 A 
HETATM   19  N4  UNL     1      31.625 -10.573  -3.455  1.00  0.00    -0.375 N 
HETATM   20  C9  UNL     1      31.555 -10.411  -2.118  1.00  0.00     0.088 A 
ATOM     21  H4  UNL     1      30.765 -10.540  -4.003  1.00  0.00     0.164 HD
HETATM   22  C10 UNL     1      32.715 -10.457  -1.393  1.00  0.00     0.034 A 
ENDBRANCH  13  16
ENDBRANCH   1  12
TORSDOF 6
ENDMDL
MODEL 3
REMARK VINA RESULT: -6.654243720      1.183      1.315
REMARK  6 active torsions:
REMARK  status: ('A' for Active; 'I' for Inactive)
REMARK    1  A    between atoms: O1_2  and  C2_3 
REMARK    2  A    between atoms: C2_3  and  C3_5 
REMARK    3  A    between atoms: N1_6  and  N2_8 
REMARK    4  A    between atoms: N2_8  and  C4_10 
REMARK    5  A    between atoms: C4_10  and  N3_12 
REMARK       I    between atoms: N3_12  and  C5_14 
REMARK    6  A    between atoms: C5_14  and  C6_16 
ROOT
HETATM    1  C4  UNL     1      37.198  -9.984  -0.241  1.00  0.00     0.193 C 
HETATM    2  S1  UNL     1      38.463  -9.614  -1.196  1.00  0.00    -0.039 SA
ENDROOT
BRANCH   1   3
HETATM    3  N2  UNL     1      37.425 -10.206   1.130  1.00  0.00    -0.276 N 
ATOM      4  H2  UNL     1      37.587 -11.152   1.474  1.00  0.00     0.189 HD
BRANCH   3   5
HETATM    5  N1  UNL     1      37.429  -9.134   2.015  1.00  0.00    -0.304 N 
HETATM    6  C3  UNL     1      38.520  -8.766   2.565  1.00  0.00     0.189 C 
ATOM      7  H1  UNL     1      36.559  -8.643   2.225  1.00  0.00     0.186 HD
BRANCH   6   8
HETATM    8  C2  UNL     1      39.776  -9.444   2.287  1.00  0.00     0.299 C 
HETATM    9  O2  UNL     1      39.957 -10.654   2.562  1.00  0.00    -0.259 OA
BRANCH   8  10
HETATM   10  O1  UNL     1      40.845  -8.774   1.700  1.00  0.00    -0.322 OA
HETATM   11  C1  UNL     1      40.822  -7.364   1.606  1.00  0.00     0.213 C 
ENDBRANCH   8  10
ENDBRANCH   6   8
ENDBRANCH   3   5
ENDBRANCH   1   3
BRANCH   1  12
HETATM   12  N3  UNL     1      35.868 -10.089  -0.745  1.00  0.00    -0.298 N 
HETATM   13  C5  UNL     1      35.178 -11.312  -0.839  1.00  0.00     0.258 C 
HETATM   14  O3  UNL     1      35.806 -12.341  -0.447  1.00  0.00    -0.267 OA
ATOM     15  H3  UNL     1      35.395  -9.239  -1.051  1.00  0.00     0.171 HD
BRANCH  13  16
HETATM   16  C6  UNL     1      33.823 -11.429  -1.350  1.00  0.00     0.035 A 
HETATM   17  C7  UNL     1      32.994 -10.359  -1.531  1.00  0.00     0.034 A 
HETATM   18  C8  UNL     1      31.690 -10.516  -2.029  1.00  0.00     0.088 A 
HETATM   19  N4  UNL     1      31.247 -11.738  -2.333  1.00  0.00    -0.375 N 
HETATM   20  C9  UNL     1      32.017 -12.835  -2.177  1.00  0.00     0.088 A 
ATOM     21  H4  UNL     1      30.299 -11.846  -2.694  1.00  0.00     0.164 HD
HETATM   22  C10 UNL     1      33.287 -12.678  -1.692  1.00  0.00     0.034 A 
ENDBRANCH  13  16
ENDBRANCH   1  12
TORSDOF 6
ENDMDL
MODEL 4
REMARK VINA RESULT: -6.646325104      1.184      1.418
REMARK  6 active torsions:
REMARK  status: ('A' for Active; 'I' for Inactive)
REMARK    1  A    between atoms: O1_2  and  C2_3 
REMARK    2  A    between atoms: C2_3  and  C3_5 
REMARK    3  A    between atoms: N1_6  and  N2_8 
REMARK    4  A    between atoms: N2_8  and  C4_10 
REMARK    5  A    between atoms: C4_10  and  N3_12 
REMARK       I    between atoms: N3_12  and  C5_14 
REMARK    6  A    between atoms: C5_14  and  C6_16 
ROOT
HETATM    1  C4  UNL     1      37.199 -10.003  -0.236  1.00  0.00     0.193 C 
HETATM    2  S1  UNL     1      38.459  -9.614  -1.189  1.00  0.00    -0.039 SA
ENDROOT
BRANCH   1   3
HETATM    3  N2  UNL     1      37.428 -10.227   1.134  1.00  0.00    -0.276 N 
ATOM      4  H2  UNL     1      37.595 -11.173   1.475  1.00  0.00     0.189 HD
BRANCH   3   5
HETATM    5  N1  UNL     1      37.426  -9.158   2.022  1.00  0.00    -0.304 N 
HETATM    6  C3  UNL     1      38.516  -8.783   2.570  1.00  0.00     0.189 C 
ATOM      7  H1  UNL     1      36.554  -8.673   2.235  1.00  0.00     0.186 HD
BRANCH   6   8
HETATM    8  C2  UNL     1      39.776  -9.452   2.288  1.00  0.00     0.299 C 
HETATM    9  O2  UNL     1      39.967 -10.661   2.566  1.00  0.00    -0.259 OA
BRANCH   8  10
HETATM   10  O1  UNL     1      40.837  -8.776   1.694  1.00  0.00    -0.322 OA
HETATM   11  C1  UNL     1      40.806  -7.367   1.603  1.00  0.00     0.213 C 
ENDBRANCH   8  10
ENDBRANCH   6   8
ENDBRANCH   3   5
ENDBRANCH   1   3
BRANCH   1  12
HETATM   12  N3  UNL     1      35.870 -10.124  -0.741  1.00  0.00    -0.298 N 
HETATM   13  C5  UNL     1      35.195 -11.355  -0.838  1.00  0.00     0.258 C 
HETATM   14  O3  UNL     1      35.835 -12.377  -0.448  1.00  0.00    -0.267 OA
ATOM     15  H3  UNL     1      35.387  -9.279  -1.046  1.00  0.00     0.171 HD
BRANCH  13  16
HETATM   16  C6  UNL     1      33.842 -11.487  -1.351  1.00  0.00     0.035 A 
HETATM   17  C7  UNL     1      33.281 -12.684  -1.689  1.00  0.00     0.034 A 
HETATM   18  C8  UNL     1      31.968 -12.768  -2.182  1.00  0.00     0.088 A 
HETATM   19  N4  UNL     1      31.250 -11.652  -2.326  1.00  0.00    -0.375 N 
HETATM   20  C9  UNL     1      31.747 -10.438  -2.010  1.00  0.00     0.088 A 
ATOM     21  H4  UNL     1      30.298 -11.718  -2.684  1.00  0.00     0.164 HD
HETATM   22  C10 UNL     1      33.027 -10.361  -1.530  1.00  0.00     0.034 A 
ENDBRANCH  13  16
ENDBRANCH   1  12
TORSDOF 6
ENDMDL
MODEL 5
REMARK VINA RESULT: -6.547661915      1.304      1.304
REMARK  6 active torsions:
REMARK  status: ('A' for Active; 'I' for Inactive)
REMARK    1  A    between atoms: O1_2  and  C2_3 
REMARK    2  A    between atoms: C2_3  and  C3_5 
REMARK    3  A    between atoms: N1_6  and  N2_8 
REMARK    4  A    between atoms: N2_8  and  C4_10 
REMARK    5  A    between atoms: C4_10  and  N3_12 
REMARK       I    between atoms: N3_12  and  C5_14 
REMARK    6  A    between atoms: C5_14  and  C6_16 
ROOT
HETATM    1  C4  UNL     1      36.958 -10.972   0.313  1.00  0.00     0.193 C 
HETATM    2  S1  UNL     1      37.538 -12.408   0.814  1.00  0.00    -0.039 SA
ENDROOT
BRANCH   1   3
HETATM    3  N2  UNL     1      37.778  -9.833   0.421  1.00  0.00    -0.276 N 
ATOM      4  H2  UNL     1      38.516  -9.669  -0.264  1.00  0.00     0.189 HD
BRANCH   3   5
HETATM    5  N1  UNL     1      37.582  -8.933   1.461  1.00  0.00    -0.304 N 
HETATM    6  C3  UNL     1      38.531  -8.690   2.279  1.00  0.00     0.189 C 
ATOM      7  H1  UNL     1      36.681  -8.468   1.570  1.00  0.00     0.186 HD
BRANCH   6   8
HETATM    8  C2  UNL     1      39.828  -9.335   2.152  1.00  0.00     0.299 C 
HETATM    9  O2  UNL     1      40.013 -10.532   2.480  1.00  0.00    -0.259 OA
BRANCH   8  10
HETATM   10  O1  UNL     1      40.932  -8.649   1.657  1.00  0.00    -0.322 OA
HETATM   11  C1  UNL     1      40.888  -7.241   1.543  1.00  0.00     0.213 C 
ENDBRANCH   8  10
ENDBRANCH   6   8
ENDBRANCH   3   5
ENDBRANCH   1   3
BRANCH   1  12
HETATM   12  N3  UNL     1      35.648 -10.828  -0.232  1.00  0.00    -0.298 N 
HETATM   13  C5  UNL     1      35.390 -10.805  -1.616  1.00  0.00     0.258 C 
HETATM   14  O3  UNL     1      36.399 -10.920  -2.375  1.00  0.00    -0.267 OA
ATOM     15  H3  UNL     1      34.861 -10.737   0.410  1.00  0.00     0.171 HD
BRANCH  13  16
HETATM   16  C6  UNL     1      34.059 -10.658  -2.179  1.00  0.00     0.035 A 
HETATM   17  C7  UNL     1      32.951 -10.396  -1.428  1.00  0.00     0.034 A 
HETATM   18  C8  UNL     1      31.680 -10.261  -2.013  1.00  0.00     0.088 A 
HETATM   19  N4  UNL     1      31.551 -10.395  -3.335  1.00  0.00    -0.375 N 
HETATM   20  C9  UNL     1      32.608 -10.655  -4.133  1.00  0.00     0.088 A 
ATOM     21  H4  UNL     1      30.627 -10.296  -3.754  1.00  0.00     0.164 HD
HETATM   22  C10 UNL     1      33.843 -10.784  -3.558  1.00  0.00     0.034 A 
ENDBRANCH  13  16
ENDBRANCH   1  12
TORSDOF 6
ENDMDL
