MODEL 1
REMARK VINA RESULT: -7.057258315      0.000      0.000
REMARK  3 active torsions:
REMARK  status: ('A' for Active; 'I' for Inactive)
REMARK       I    between atoms: C2_4  and  N2_5 
REMARK       I    between atoms: C2_4  and  N5_16 
REMARK    1  A    between atoms: N2_5  and  N3_7 
REMARK    2  A    between atoms: C3_9  and  C5_12 
REMARK    3  A    between atoms: C5_12  and  C7_14 
ROOT
HETATM    1  N3  UNL     1      37.418  -9.110   1.203  1.00  0.00    -0.280 N 
ATOM      2  H3  UNL     1      36.932  -8.227   1.051  1.00  0.00     0.188 HD
HETATM    3  C3  UNL     1      38.607  -9.087   1.701  1.00  0.00     0.110 C 
HETATM    4  C4  UNL     1      39.285 -10.331   1.912  1.00  0.00     0.115 C 
HETATM    5  N4  UNL     1      39.830 -11.346   2.081  1.00  0.00    -0.190 NA
ENDROOT
BRANCH   3   6
HETATM    6  C5  UNL     1      39.291  -7.823   2.060  1.00  0.00     0.054 C 
HETATM    7  C6  UNL     1      39.426  -7.686   3.581  1.00  0.00     0.018 C 
BRANCH   6   8
HETATM    8  C7  UNL     1      40.716  -7.806   1.520  1.00  0.00     0.097 C 
HETATM    9  S1  UNL     1      40.887  -6.251   0.582  1.00  0.00    -0.097 SA
ENDBRANCH   6   8
ENDBRANCH   3   6
BRANCH   1  10
HETATM   10  N2  UNL     1      36.774 -10.303   0.865  1.00  0.00    -0.132 N 
HETATM   11  C2  UNL     1      36.715 -10.689  -0.514  1.00  0.00     0.690 C 
HETATM   12  N1  UNL     1      36.711  -9.765  -1.391  1.00  0.00    -0.229 N 
HETATM   13  N5  UNL     1      36.662 -12.051  -0.857  1.00  0.00    -0.213 N 
HETATM   14  C1  UNL     1      36.651 -10.124  -2.794  1.00  0.00     0.165 C 
ATOM     15  H1  UNL     1      36.749  -8.785  -1.110  1.00  0.00     0.177 HD
HETATM   16  C8  UNL     1      37.772 -12.950  -0.544  1.00  0.00     0.167 C 
HETATM   17  C11 UNL     1      35.526 -12.659  -1.537  1.00  0.00     0.167 C 
HETATM   18  C9  UNL     1      37.187 -14.304  -0.249  1.00  0.00     0.188 C 
HETATM   19  O1  UNL     1      35.891 -14.211   0.272  1.00  0.00    -0.388 OA
HETATM   20  C10 UNL     1      35.022 -13.884  -0.776  1.00  0.00     0.188 C 
ATOM     21  H2  UNL     1      36.353 -10.888   1.587  1.00  0.00     0.205 HD
ENDBRANCH   1  10
TORSDOF 3
ENDMDL
MODEL 2
REMARK VINA RESULT: -6.953297037      1.399      1.509
REMARK  3 active torsions:
REMARK  status: ('A' for Active; 'I' for Inactive)
REMARK       I    between atoms: C2_4  and  N2_5 
REMARK       I    between atoms: C2_4  and  N5_16 
REMARK    1  A    between atoms: N2_5  and  N3_7 
REMARK    2  A    between atoms: C3_9  and  C5_12 
REMARK    3  A    between atoms: C5_12  and  C7_14 
ROOT
HETATM    1  N3  UNL     1      37.214  -9.708   0.751  1.00  0.00    -0.280 N 
ATOM      2  H3  UNL     1      36.555  -8.971   0.498  1.00  0.00     0.188 HD
HETATM    3  C3  UNL     1      38.273  -9.393   1.413  1.00  0.00     0.110 C 
HETATM    4  C4  UNL     1      39.194 -10.432   1.766  1.00  0.00     0.115 C 
HETATM    5  N4  UNL     1      39.938 -11.282   2.048  1.00  0.00    -0.190 NA
ENDROOT
BRANCH   3   6
HETATM    6  C5  UNL     1      38.568  -8.000   1.822  1.00  0.00     0.054 C 
HETATM    7  C6  UNL     1      39.235  -7.963   3.203  1.00  0.00     0.018 C 
BRANCH   6   8
HETATM    8  C7  UNL     1      39.567  -7.356   0.868  1.00  0.00     0.097 C 
HETATM    9  S1  UNL     1      41.168  -7.338   1.743  1.00  0.00    -0.097 SA
ENDBRANCH   6   8
ENDBRANCH   3   6
BRANCH   1  10
HETATM   10  N2  UNL     1      36.936 -11.022   0.366  1.00  0.00    -0.132 N 
HETATM   11  C2  UNL     1      35.864 -11.261  -0.554  1.00  0.00     0.690 C 
HETATM   12  N1  UNL     1      34.885 -10.444  -0.552  1.00  0.00    -0.229 N 
HETATM   13  N5  UNL     1      35.916 -12.369  -1.417  1.00  0.00    -0.213 N 
HETATM   14  C1  UNL     1      33.785 -10.660  -1.471  1.00  0.00     0.165 C 
ATOM     15  H1  UNL     1      34.877  -9.650   0.087  1.00  0.00     0.177 HD
HETATM   16  C8  UNL     1      36.956 -12.481  -2.438  1.00  0.00     0.167 C 
HETATM   17  C11 UNL     1      34.959 -13.467  -1.363  1.00  0.00     0.167 C 
HETATM   18  C9  UNL     1      37.278 -13.942  -2.597  1.00  0.00     0.188 C 
HETATM   19  O1  UNL     1      37.055 -14.657  -1.415  1.00  0.00    -0.388 OA
HETATM   20  C10 UNL     1      35.674 -14.813  -1.253  1.00  0.00     0.188 C 
ATOM     21  H2  UNL     1      37.488 -11.797   0.734  1.00  0.00     0.205 HD
ENDBRANCH   1  10
TORSDOF 3
ENDMDL
MODEL 3
REMARK VINA RESULT: -6.631509161      3.055      4.138
REMARK  3 active torsions:
REMARK  status: ('A' for Active; 'I' for Inactive)
REMARK       I    between atoms: C2_4  and  N2_5 
REMARK       I    between atoms: C2_4  and  N5_16 
REMARK    1  A    between atoms: N2_5  and  N3_7 
REMARK    2  A    between atoms: C3_9  and  C5_12 
REMARK    3  A    between atoms: C5_12  and  C7_14 
ROOT
HETATM    1  N3  UNL     1      36.524  -9.892   0.122  1.00  0.00    -0.280 N 
ATOM      2  H3  UNL     1      36.137  -9.792   1.061  1.00  0.00     0.188 HD
HETATM    3  C3  UNL     1      37.804  -9.858  -0.029  1.00  0.00     0.110 C 
HETATM    4  C4  UNL     1      38.342  -9.999  -1.349  1.00  0.00     0.115 C 
HETATM    5  N4  UNL     1      38.771 -10.114  -2.425  1.00  0.00    -0.190 NA
ENDROOT
BRANCH   3   6
HETATM    6  C5  UNL     1      38.732  -9.681   1.112  1.00  0.00     0.054 C 
HETATM    7  C6  UNL     1      38.463  -8.357   1.837  1.00  0.00     0.018 C 
BRANCH   6   8
HETATM    8  C7  UNL     1      38.520 -10.770   2.157  1.00  0.00     0.097 C 
HETATM    9  S1  UNL     1      37.716  -9.960   3.581  1.00  0.00    -0.097 SA
ENDBRANCH   6   8
ENDBRANCH   3   6
BRANCH   1  10
HETATM   10  N2  UNL     1      35.650 -10.059  -0.954  1.00  0.00    -0.132 N 
HETATM   11  C2  UNL     1      34.882 -11.266  -1.041  1.00  0.00     0.690 C 
HETATM   12  N1  UNL     1      35.380 -12.325  -0.535  1.00  0.00    -0.229 N 
HETATM   13  N5  UNL     1      33.625 -11.253  -1.669  1.00  0.00    -0.213 N 
HETATM   14  C1  UNL     1      34.628 -13.562  -0.608  1.00  0.00     0.165 C 
ATOM     15  H1  UNL     1      36.296 -12.301  -0.087  1.00  0.00     0.177 HD
HETATM   16  C8  UNL     1      32.520 -10.465  -1.127  1.00  0.00     0.167 C 
HETATM   17  C11 UNL     1      33.332 -12.006  -2.881  1.00  0.00     0.167 C 
HETATM   18  C9  UNL     1      31.695  -9.982  -2.289  1.00  0.00     0.188 C 
HETATM   19  O1  UNL     1      32.465  -9.828  -3.447  1.00  0.00    -0.388 OA
HETATM   20  C10 UNL     1      32.741 -11.101  -3.961  1.00  0.00     0.188 C 
ATOM     21  H2  UNL     1      35.559  -9.334  -1.666  1.00  0.00     0.205 HD
ENDBRANCH   1  10
TORSDOF 3
ENDMDL
MODEL 4
REMARK VINA RESULT: -6.629899769      2.840      4.029
REMARK  3 active torsions:
REMARK  status: ('A' for Active; 'I' for Inactive)
REMARK       I    between atoms: C2_4  and  N2_5 
REMARK       I    between atoms: C2_4  and  N5_16 
REMARK    1  A    between atoms: N2_5  and  N3_7 
REMARK    2  A    between atoms: C3_9  and  C5_12 
REMARK    3  A    between atoms: C5_12  and  C7_14 
ROOT
HETATM    1  N3  UNL     1      36.286 -10.191   0.302  1.00  0.00    -0.280 N 
ATOM      2  H3  UNL     1      35.868 -10.353   1.218  1.00  0.00     0.188 HD
HETATM    3  C3  UNL     1      37.547  -9.935   0.232  1.00  0.00     0.110 C 
HETATM    4  C4  UNL     1      38.129  -9.708  -1.057  1.00  0.00     0.115 C 
HETATM    5  N4  UNL     1      38.595  -9.525  -2.108  1.00  0.00    -0.190 NA
ENDROOT
BRANCH   3   6
HETATM    6  C5  UNL     1      38.411  -9.868   1.434  1.00  0.00     0.054 C 
HETATM    7  C6  UNL     1      39.796 -10.461   1.148  1.00  0.00     0.018 C 
BRANCH   6   8
HETATM    8  C7  UNL     1      38.661  -8.421   1.841  1.00  0.00     0.097 C 
HETATM    9  S1  UNL     1      40.450  -8.134   1.625  1.00  0.00    -0.097 SA
ENDBRANCH   6   8
ENDBRANCH   3   6
BRANCH   1  10
HETATM   10  N2  UNL     1      35.473 -10.254  -0.832  1.00  0.00    -0.132 N 
HETATM   11  C2  UNL     1      34.672 -11.423  -1.044  1.00  0.00     0.690 C 
HETATM   12  N1  UNL     1      35.102 -12.531  -0.583  1.00  0.00    -0.229 N 
HETATM   13  N5  UNL     1      33.456 -11.322  -1.742  1.00  0.00    -0.213 N 
HETATM   14  C1  UNL     1      34.315 -13.731  -0.783  1.00  0.00     0.165 C 
ATOM     15  H1  UNL     1      35.989 -12.572  -0.082  1.00  0.00     0.177 HD
HETATM   16  C8  UNL     1      32.347 -10.530  -1.212  1.00  0.00     0.167 C 
HETATM   17  C11 UNL     1      33.211 -11.982  -3.017  1.00  0.00     0.167 C 
HETATM   18  C9  UNL     1      31.611  -9.941  -2.384  1.00  0.00     0.188 C 
HETATM   19  O1  UNL     1      32.454  -9.741  -3.483  1.00  0.00    -0.388 OA
HETATM   20  C10 UNL     1      32.716 -10.986  -4.064  1.00  0.00     0.188 C 
ATOM     21  H2  UNL     1      35.450  -9.481  -1.497  1.00  0.00     0.205 HD
ENDBRANCH   1  10
TORSDOF 3
ENDMDL
MODEL 5
REMARK VINA RESULT: -6.557366764      3.893      6.731
REMARK  3 active torsions:
REMARK  status: ('A' for Active; 'I' for Inactive)
REMARK       I    between atoms: C2_4  and  N2_5 
REMARK       I    between atoms: C2_4  and  N5_16 
REMARK    1  A    between atoms: N2_5  and  N3_7 
REMARK    2  A    between atoms: C3_9  and  C5_12 
REMARK    3  A    between atoms: C5_12  and  C7_14 
ROOT
HETATM    1  N3  UNL     1      37.437 -13.754  -2.698  1.00  0.00    -0.280 N 
ATOM      2  H3  UNL     1      37.682 -13.540  -3.664  1.00  0.00     0.188 HD
HETATM    3  C3  UNL     1      36.511 -14.620  -2.468  1.00  0.00     0.110 C 
HETATM    4  C4  UNL     1      36.172 -14.917  -1.109  1.00  0.00     0.115 C 
HETATM    5  N4  UNL     1      35.902 -15.153  -0.001  1.00  0.00    -0.190 NA
ENDROOT
BRANCH   3   6
HETATM    6  C5  UNL     1      35.789 -15.317  -3.559  1.00  0.00     0.054 C 
HETATM    7  C6  UNL     1      35.530 -16.784  -3.195  1.00  0.00     0.018 C 
BRANCH   6   8
HETATM    8  C7  UNL     1      34.413 -14.700  -3.777  1.00  0.00     0.097 C 
HETATM    9  S1  UNL     1      33.201 -15.963  -3.260  1.00  0.00    -0.097 SA
ENDBRANCH   6   8
ENDBRANCH   3   6
BRANCH   1  10
HETATM   10  N2  UNL     1      38.117 -13.098  -1.668  1.00  0.00    -0.132 N 
HETATM   11  C2  UNL     1      37.838 -11.713  -1.429  1.00  0.00     0.690 C 
HETATM   12  N1  UNL     1      37.468 -11.001  -2.418  1.00  0.00    -0.229 N 
HETATM   13  N5  UNL     1      37.977 -11.185  -0.133  1.00  0.00    -0.213 N 
HETATM   14  C1  UNL     1      37.179  -9.596  -2.207  1.00  0.00     0.165 C 
ATOM     15  H1  UNL     1      37.377 -11.414  -3.346  1.00  0.00     0.177 HD
HETATM   16  C8  UNL     1      37.135 -11.654   0.966  1.00  0.00     0.167 C 
HETATM   17  C11 UNL     1      38.948 -10.154   0.207  1.00  0.00     0.167 C 
HETATM   18  C9  UNL     1      37.959 -11.597   2.223  1.00  0.00     0.188 C 
HETATM   19  O1  UNL     1      39.323 -11.765   1.961  1.00  0.00    -0.388 OA
HETATM   20  C10 UNL     1      39.808 -10.580   1.395  1.00  0.00     0.188 C 
ATOM     21  H2  UNL     1      38.800 -13.597  -1.098  1.00  0.00     0.205 HD
ENDBRANCH   1  10
TORSDOF 3
ENDMDL
