MODEL 1
REMARK VINA RESULT: -7.519035097      0.000      0.000
REMARK  4 active torsions:
REMARK  status: ('A' for Active; 'I' for Inactive)
REMARK    1  A    between atoms: C4_7  and  N3_8 
REMARK    2  A    between atoms: C8_12  and  C9_13 
REMARK    3  A    between atoms: C9_13  and  N4_14 
REMARK    4  A    between atoms: C9_13  and  C10_18 
ROOT
HETATM    1  N1  UNL     1      40.398 -10.490   2.088  1.00  0.00    -0.191 NA
HETATM    2  C1  UNL     1      39.403 -10.711   1.539  1.00  0.00     0.102 C 
HETATM    3  C2  UNL     1      38.167 -11.004   0.839  1.00  0.00     0.076 A 
HETATM    4  C3  UNL     1      37.376  -9.996   0.328  1.00  0.00     0.130 A 
HETATM    5  N2  UNL     1      36.233 -10.279  -0.318  1.00  0.00    -0.200 N 
ATOM      6  H2  UNL     1      35.671  -9.511  -0.684  1.00  0.00     0.183 HD
HETATM    7  C4  UNL     1      35.803 -11.541  -0.499  1.00  0.00     0.679 A 
HETATM    8  N6  UNL     1      36.580 -12.532   0.003  1.00  0.00    -0.200 N 
ATOM      9  H6  UNL     1      36.277 -13.499  -0.120  1.00  0.00     0.183 HD
HETATM   10  C12 UNL     1      37.732 -12.301   0.657  1.00  0.00     0.130 A 
ENDROOT
BRANCH   7  11
HETATM   11  N3  UNL     1      34.588 -11.833  -1.187  1.00  0.00    -0.217 N 
HETATM   12  C5  UNL     1      33.883 -10.820  -1.939  1.00  0.00     0.141 C 
HETATM   13  C6  UNL     1      32.434 -10.872  -1.501  1.00  0.00     0.021 C 
HETATM   14  C7  UNL     1      31.868 -12.194  -1.956  1.00  0.00     0.010 C 
HETATM   15  C8  UNL     1      32.927 -13.233  -2.219  1.00  0.00     0.043 C 
HETATM   16  C11 UNL     1      34.023 -13.164  -1.148  1.00  0.00     0.148 C 
BRANCH  15  17
HETATM   17  C9  UNL     1      32.293 -14.610  -2.058  1.00  0.00     0.277 C 
BRANCH  17  18
HETATM   18  N4  UNL     1      30.882 -14.466  -2.299  1.00  0.00    -0.066 N 
ATOM     19  H43 UNL     1      30.335 -15.250  -1.942  1.00  0.00     0.275 HD
ATOM     20  H42 UNL     1      30.453 -13.735  -1.731  1.00  0.00     0.275 HD
ATOM     21  H41 UNL     1      30.757 -14.317  -3.300  1.00  0.00     0.275 HD
ENDBRANCH  17  18
BRANCH  17  22
HETATM   22  C10 UNL     1      32.867 -15.583  -3.020  1.00  0.00     0.262 C 
HETATM   23  N5  UNL     1      32.456 -16.940  -3.059  1.00  0.00    -0.060 NA
HETATM   24  O1  UNL     1      33.750 -15.215  -3.839  1.00  0.00    -0.275 OA
ENDBRANCH  17  22
ENDBRANCH  15  17
ENDBRANCH   7  11
TORSDOF 4
ENDMDL
MODEL 2
REMARK VINA RESULT: -7.516574345      1.449      1.565
REMARK  4 active torsions:
REMARK  status: ('A' for Active; 'I' for Inactive)
REMARK    1  A    between atoms: C4_7  and  N3_8 
REMARK    2  A    between atoms: C8_12  and  C9_13 
REMARK    3  A    between atoms: C9_13  and  N4_14 
REMARK    4  A    between atoms: C9_13  and  C10_18 
ROOT
HETATM    1  N1  UNL     1      39.495 -11.421   2.030  1.00  0.00    -0.191 NA
HETATM    2  C1  UNL     1      38.539 -11.418   1.377  1.00  0.00     0.102 C 
HETATM    3  C2  UNL     1      37.350 -11.431   0.547  1.00  0.00     0.076 A 
HETATM    4  C3  UNL     1      36.766 -10.259   0.113  1.00  0.00     0.130 A 
HETATM    5  N2  UNL     1      35.665 -10.282  -0.656  1.00  0.00    -0.200 N 
ATOM      6  H2  UNL     1      35.258  -9.397  -0.960  1.00  0.00     0.183 HD
HETATM    7  C4  UNL     1      35.080 -11.432  -1.038  1.00  0.00     0.679 A 
HETATM    8  N6  UNL     1      35.654 -12.584  -0.612  1.00  0.00    -0.200 N 
ATOM      9  H6  UNL     1      35.230 -13.470  -0.888  1.00  0.00     0.183 HD
HETATM   10  C12 UNL     1      36.755 -12.613   0.158  1.00  0.00     0.130 A 
ENDROOT
BRANCH   7  11
HETATM   11  N3  UNL     1      33.910 -11.448  -1.855  1.00  0.00    -0.217 N 
HETATM   12  C5  UNL     1      33.706 -10.472  -2.903  1.00  0.00     0.141 C 
HETATM   13  C6  UNL     1      32.310  -9.914  -2.720  1.00  0.00     0.021 C 
HETATM   14  C7  UNL     1      31.334 -11.030  -2.998  1.00  0.00     0.010 C 
HETATM   15  C8  UNL     1      31.946 -12.400  -2.864  1.00  0.00     0.043 C 
HETATM   16  C11 UNL     1      32.888 -12.450  -1.654  1.00  0.00     0.148 C 
BRANCH  15  17
HETATM   17  C9  UNL     1      30.831 -13.391  -2.548  1.00  0.00     0.277 C 
BRANCH  17  18
HETATM   18  N4  UNL     1      29.971 -13.454  -3.700  1.00  0.00    -0.066 N 
ATOM     19  H43 UNL     1      29.009 -13.186  -3.493  1.00  0.00     0.275 HD
ATOM     20  H42 UNL     1      30.168 -12.724  -4.384  1.00  0.00     0.275 HD
ATOM     21  H41 UNL     1      30.048 -14.394  -4.087  1.00  0.00     0.275 HD
ENDBRANCH  17  18
BRANCH  17  22
HETATM   22  C10 UNL     1      31.377 -14.740  -2.257  1.00  0.00     0.262 C 
HETATM   23  N5  UNL     1      31.998 -15.535  -3.255  1.00  0.00    -0.060 NA
HETATM   24  O1  UNL     1      31.298 -15.216  -1.095  1.00  0.00    -0.275 OA
ENDBRANCH  17  22
ENDBRANCH  15  17
ENDBRANCH   7  11
TORSDOF 4
ENDMDL
MODEL 3
REMARK VINA RESULT: -7.499560135      2.058      2.833
REMARK  4 active torsions:
REMARK  status: ('A' for Active; 'I' for Inactive)
REMARK    1  A    between atoms: C4_7  and  N3_8 
REMARK    2  A    between atoms: C8_12  and  C9_13 
REMARK    3  A    between atoms: C9_13  and  N4_14 
REMARK    4  A    between atoms: C9_13  and  C10_18 
ROOT
HETATM    1  N1  UNL     1      41.003  -7.875   2.101  1.00  0.00    -0.191 NA
HETATM    2  C1  UNL     1      40.277  -8.637   1.619  1.00  0.00     0.102 C 
HETATM    3  C2  UNL     1      39.382  -9.593   0.998  1.00  0.00     0.076 A 
HETATM    4  C3  UNL     1      38.015  -9.404   1.002  1.00  0.00     0.130 A 
HETATM    5  N2  UNL     1      37.195 -10.296   0.424  1.00  0.00    -0.200 N 
ATOM      6  H2  UNL     1      36.189 -10.126   0.444  1.00  0.00     0.183 HD
HETATM    7  C4  UNL     1      37.653 -11.407  -0.182  1.00  0.00     0.679 A 
HETATM    8  N6  UNL     1      38.996 -11.593  -0.186  1.00  0.00    -0.200 N 
ATOM      9  H6  UNL     1      39.370 -12.428  -0.638  1.00  0.00     0.183 HD
HETATM   10  C12 UNL     1      39.858 -10.730   0.379  1.00  0.00     0.130 A 
ENDROOT
BRANCH   7  11
HETATM   11  N3  UNL     1      36.775 -12.350  -0.794  1.00  0.00    -0.217 N 
HETATM   12  C5  UNL     1      37.281 -13.477  -1.545  1.00  0.00     0.141 C 
HETATM   13  C6  UNL     1      36.542 -13.495  -2.867  1.00  0.00     0.021 C 
HETATM   14  C7  UNL     1      35.095 -13.808  -2.575  1.00  0.00     0.010 C 
HETATM   15  C8  UNL     1      34.700 -13.512  -1.151  1.00  0.00     0.043 C 
HETATM   16  C11 UNL     1      35.341 -12.201  -0.678  1.00  0.00     0.148 C 
BRANCH  15  17
HETATM   17  C9  UNL     1      33.196 -13.261  -1.117  1.00  0.00     0.277 C 
BRANCH  17  18
HETATM   18  N4  UNL     1      32.756 -13.095  -2.476  1.00  0.00    -0.066 N 
ATOM     19  H43 UNL     1      33.016 -12.191  -2.872  1.00  0.00     0.275 HD
ATOM     20  H42 UNL     1      33.269 -13.681  -3.135  1.00  0.00     0.275 HD
ATOM     21  H41 UNL     1      31.750 -13.263  -2.494  1.00  0.00     0.275 HD
ENDBRANCH  17  18
BRANCH  17  22
HETATM   22  C10 UNL     1      32.475 -14.397  -0.493  1.00  0.00     0.262 C 
HETATM   23  N5  UNL     1      31.402 -15.059  -1.142  1.00  0.00    -0.060 NA
HETATM   24  O1  UNL     1      32.808 -14.806   0.650  1.00  0.00    -0.275 OA
ENDBRANCH  17  22
ENDBRANCH  15  17
ENDBRANCH   7  11
TORSDOF 4
ENDMDL
MODEL 4
REMARK VINA RESULT: -7.429861211      2.045      2.914
REMARK  4 active torsions:
REMARK  status: ('A' for Active; 'I' for Inactive)
REMARK    1  A    between atoms: C4_7  and  N3_8 
REMARK    2  A    between atoms: C8_12  and  C9_13 
REMARK    3  A    between atoms: C9_13  and  N4_14 
REMARK    4  A    between atoms: C9_13  and  C10_18 
ROOT
HETATM    1  N1  UNL     1      40.849  -7.851   2.203  1.00  0.00    -0.191 NA
HETATM    2  C1  UNL     1      40.150  -8.614   1.685  1.00  0.00     0.102 C 
HETATM    3  C2  UNL     1      39.261  -9.571   1.056  1.00  0.00     0.076 A 
HETATM    4  C3  UNL     1      39.752 -10.661   0.368  1.00  0.00     0.130 A 
HETATM    5  N2  UNL     1      38.919 -11.541  -0.212  1.00  0.00    -0.200 N 
ATOM      6  H2  UNL     1      39.315 -12.337  -0.714  1.00  0.00     0.183 HD
HETATM    7  C4  UNL     1      37.582 -11.410  -0.155  1.00  0.00     0.679 A 
HETATM    8  N6  UNL     1      37.099 -10.339   0.521  1.00  0.00    -0.200 N 
ATOM      9  H6  UNL     1      36.087 -10.215   0.579  1.00  0.00     0.183 HD
HETATM   10  C12 UNL     1      37.890  -9.431   1.118  1.00  0.00     0.130 A 
ENDROOT
BRANCH   7  11
HETATM   11  N3  UNL     1      36.704 -12.350  -0.773  1.00  0.00    -0.217 N 
HETATM   12  C5  UNL     1      37.211 -13.469  -1.535  1.00  0.00     0.141 C 
HETATM   13  C6  UNL     1      36.469 -13.477  -2.856  1.00  0.00     0.021 C 
HETATM   14  C7  UNL     1      35.023 -13.795  -2.564  1.00  0.00     0.010 C 
HETATM   15  C8  UNL     1      34.631 -13.513  -1.137  1.00  0.00     0.043 C 
HETATM   16  C11 UNL     1      35.270 -12.205  -0.653  1.00  0.00     0.148 C 
BRANCH  15  17
HETATM   17  C9  UNL     1      33.127 -13.265  -1.097  1.00  0.00     0.277 C 
BRANCH  17  18
HETATM   18  N4  UNL     1      32.686 -13.067  -2.452  1.00  0.00    -0.066 N 
ATOM     19  H43 UNL     1      33.458 -12.968  -3.111  1.00  0.00     0.275 HD
ATOM     20  H42 UNL     1      32.269 -13.904  -2.861  1.00  0.00     0.275 HD
ATOM     21  H41 UNL     1      32.056 -12.266  -2.454  1.00  0.00     0.275 HD
ENDBRANCH  17  18
BRANCH  17  22
HETATM   22  C10 UNL     1      32.408 -14.418  -0.501  1.00  0.00     0.262 C 
HETATM   23  N5  UNL     1      31.368 -15.097  -1.188  1.00  0.00    -0.060 NA
HETATM   24  O1  UNL     1      32.711 -14.826   0.650  1.00  0.00    -0.275 OA
ENDBRANCH  17  22
ENDBRANCH  15  17
ENDBRANCH   7  11
TORSDOF 4
ENDMDL
MODEL 5
REMARK VINA RESULT: -7.399786107      2.955      7.536
REMARK  4 active torsions:
REMARK  status: ('A' for Active; 'I' for Inactive)
REMARK    1  A    between atoms: C4_7  and  N3_8 
REMARK    2  A    between atoms: C8_12  and  C9_13 
REMARK    3  A    between atoms: C9_13  and  N4_14 
REMARK    4  A    between atoms: C9_13  and  C10_18 
ROOT
HETATM    1  N1  UNL     1      31.235 -15.177  -1.340  1.00  0.00    -0.191 NA
HETATM    2  C1  UNL     1      32.129 -14.457  -1.197  1.00  0.00     0.102 C 
HETATM    3  C2  UNL     1      33.254 -13.564  -0.998  1.00  0.00     0.076 A 
HETATM    4  C3  UNL     1      33.150 -12.212  -1.251  1.00  0.00     0.130 A 
HETATM    5  N2  UNL     1      34.199 -11.394  -1.063  1.00  0.00    -0.200 N 
ATOM      6  H2  UNL     1      34.089 -10.399  -1.260  1.00  0.00     0.183 HD
HETATM    7  C4  UNL     1      35.390 -11.841  -0.625  1.00  0.00     0.679 A 
HETATM    8  N6  UNL     1      35.492 -13.170  -0.376  1.00  0.00    -0.200 N 
ATOM      9  H6  UNL     1      36.385 -13.535  -0.043  1.00  0.00     0.183 HD
HETATM   10  C12 UNL     1      34.473 -14.029  -0.548  1.00  0.00     0.130 A 
ENDROOT
BRANCH   7  11
HETATM   11  N3  UNL     1      36.499 -10.965  -0.428  1.00  0.00    -0.217 N 
HETATM   12  C5  UNL     1      36.887  -9.999  -1.432  1.00  0.00     0.141 C 
HETATM   13  C6  UNL     1      38.378 -10.157  -1.643  1.00  0.00     0.021 C 
HETATM   14  C7  UNL     1      39.065  -9.729  -0.370  1.00  0.00     0.010 C 
HETATM   15  C8  UNL     1      38.162  -9.772   0.835  1.00  0.00     0.043 C 
HETATM   16  C11 UNL     1      37.271 -11.021   0.793  1.00  0.00     0.148 C 
BRANCH  15  17
HETATM   17  C9  UNL     1      39.031  -9.938   2.077  1.00  0.00     0.277 C 
BRANCH  17  18
HETATM   18  N4  UNL     1      40.010 -10.951   1.784  1.00  0.00    -0.066 N 
ATOM     19  H43 UNL     1      39.782 -11.856   2.196  1.00  0.00     0.275 HD
ATOM     20  H42 UNL     1      40.001 -11.243   0.807  1.00  0.00     0.275 HD
ATOM     21  H41 UNL     1      40.917 -10.594   2.085  1.00  0.00     0.275 HD
ENDBRANCH  17  18
BRANCH  17  22
HETATM   22  C10 UNL     1      39.714  -8.669   2.429  1.00  0.00     0.262 C 
HETATM   23  N5  UNL     1      41.043  -8.387   2.020  1.00  0.00    -0.060 NA
HETATM   24  O1  UNL     1      39.116  -7.798   3.112  1.00  0.00    -0.275 OA
ENDBRANCH  17  22
ENDBRANCH  15  17
ENDBRANCH   7  11
TORSDOF 4
ENDMDL
