MODEL 1
REMARK VINA RESULT: -5.888615440      0.000      0.000
REMARK  13 active torsions:
REMARK  status: ('A' for Active; 'I' for Inactive)
REMARK    1  A    between atoms: N1_1  and  C1_5 
REMARK    2  A    between atoms: C3_7  and  N2_8 
REMARK    3  A    between atoms: C5_13  and  O1_14 
REMARK    4  A    between atoms: O1_14  and  C6_15 
REMARK    5  A    between atoms: C7_16  and  N3_17 
REMARK    6  A    between atoms: C8_21  and  N4_22 
REMARK    7  A    between atoms: C10_27  and  N5_28 
REMARK    8  A    between atoms: C11_32  and  O2_33 
REMARK    9  A    between atoms: O2_33  and  C12_34 
REMARK   10  A    between atoms: C13_36  and  C14_37 
REMARK   11  A    between atoms: C14_37  and  O4_38 
REMARK   12  A    between atoms: C15_40  and  N6_41 
REMARK   13  A    between atoms: C16_48  and  N10_49 
ROOT
HETATM    1  C6  UNL     1      -7.389  40.746  24.138  1.00  0.00     0.185 C 
HETATM    2  C7  UNL     1      -6.659  40.000  25.256  1.00  0.00     0.245 C 
HETATM    3  C8  UNL     1      -5.250  40.457  25.407  1.00  0.00     0.218 C 
HETATM    4  C9  UNL     1      -4.693  41.126  24.187  1.00  0.00     0.070 C 
HETATM    5  C10 UNL     1      -5.204  40.488  22.920  1.00  0.00     0.217 C 
HETATM    6  C11 UNL     1      -6.711  40.503  22.801  1.00  0.00     0.186 C 
ENDROOT
BRANCH   6   7
HETATM    7  O2  UNL     1      -7.175  41.429  21.893  1.00  0.00    -0.349 OA
BRANCH   7   8
HETATM    8  C12 UNL     1      -8.080  40.955  20.976  1.00  0.00     0.293 C 
HETATM    9  O3  UNL     1      -9.344  41.253  21.486  1.00  0.00    -0.349 OA
HETATM   10  C13 UNL     1     -10.254  40.423  20.883  1.00  0.00     0.177 C 
HETATM   11  C15 UNL     1      -9.533  39.292  20.226  1.00  0.00     0.196 C 
HETATM   12  C16 UNL     1      -8.112  39.483  20.769  1.00  0.00     0.267 C 
BRANCH  10  13
HETATM   13  C14 UNL     1     -11.153  41.181  19.949  1.00  0.00     0.198 C 
BRANCH  13  14
HETATM   14  O4  UNL     1     -11.542  40.367  18.883  1.00  0.00    -0.398 OA
ATOM     15  H4  UNL     1     -12.424  40.586  18.605  1.00  0.00     0.209 HD
ENDBRANCH  13  14
ENDBRANCH  10  13
BRANCH  11  16
HETATM   16  N6  UNL     1     -10.057  37.989  20.563  1.00  0.00    -0.193 N 
HETATM   17  N7  UNL     1      -9.742  36.949  21.301  1.00  0.00    -0.208 N 
HETATM   18  N8  UNL     1     -10.824  36.344  20.919  1.00  0.00    -0.211 N 
ATOM     19  H7  UNL     1      -8.966  36.713  21.920  1.00  0.00     0.211 HD
HETATM   20  N9  UNL     1     -11.155  37.364  20.182  1.00  0.00    -0.208 N 
ATOM     21  H8  UNL     1     -11.246  35.437  21.117  1.00  0.00     0.211 HD
ATOM     22  H9  UNL     1     -11.937  37.587  19.566  1.00  0.00     0.211 HD
ENDBRANCH  11  16
BRANCH  12  23
HETATM   23  N10 UNL     1      -7.236  39.028  19.708  1.00  0.00    -0.068 N 
ATOM     24 3H10 UNL     1      -7.220  39.699  18.940  1.00  0.00     0.275 HD
ATOM     25 2H10 UNL     1      -6.260  39.080  19.998  1.00  0.00     0.275 HD
ATOM     26 1H10 UNL     1      -7.462  38.095  19.365  1.00  0.00     0.275 HD
ENDBRANCH  12  23
ENDBRANCH   7   8
ENDBRANCH   6   7
BRANCH   1  27
HETATM   27  O1  UNL     1      -7.348  42.068  24.482  1.00  0.00    -0.376 OA
BRANCH  27  28
HETATM   28  C5  UNL     1      -8.511  42.666  24.837  1.00  0.00     0.126 C 
HETATM   29  C4  UNL     1      -8.646  42.933  26.320  1.00  0.00     0.065 C 
HETATM   30  C3  UNL     1     -10.126  43.107  26.602  1.00  0.00     0.188 C 
HETATM   31  C2  UNL     1     -10.704  44.229  25.787  1.00  0.00     0.065 C 
HETATM   32  C1  UNL     1     -10.349  44.175  24.335  1.00  0.00     0.188 C 
HETATM   33  C17 UNL     1      -8.855  43.934  24.120  1.00  0.00     0.065 C 
BRANCH  30  34
HETATM   34  N2  UNL     1     -10.332  43.425  28.001  1.00  0.00    -0.075 N 
ATOM     35  H23 UNL     1      -9.939  44.329  28.264  1.00  0.00     0.274 HD
ATOM     36  H22 UNL     1     -11.306  43.633  28.221  1.00  0.00     0.274 HD
ATOM     37  H21 UNL     1      -9.958  42.654  28.555  1.00  0.00     0.274 HD
ENDBRANCH  30  34
BRANCH  32  38
HETATM   38  N1  UNL     1     -10.635  45.475  23.759  1.00  0.00    -0.075 N 
ATOM     39  H13 UNL     1     -11.523  45.862  24.078  1.00  0.00     0.274 HD
ATOM     40  H12 UNL     1     -10.028  46.210  24.122  1.00  0.00     0.274 HD
ATOM     41  H11 UNL     1     -10.585  45.386  22.745  1.00  0.00     0.274 HD
ENDBRANCH  32  38
ENDBRANCH  27  28
ENDBRANCH   1  27
BRANCH   5  42
HETATM   42  N5  UNL     1      -4.668  41.275  21.823  1.00  0.00    -0.072 N 
ATOM     43  H53 UNL     1      -4.820  42.277  21.931  1.00  0.00     0.274 HD
ATOM     44  H52 UNL     1      -3.649  41.304  21.807  1.00  0.00     0.274 HD
ATOM     45  H51 UNL     1      -5.077  40.892  20.971  1.00  0.00     0.274 HD
ENDBRANCH   5  42
BRANCH   2  46
HETATM   46  N3  UNL     1      -6.763  38.558  25.056  1.00  0.00    -0.070 N 
ATOM     47  H33 UNL     1      -7.540  38.156  25.581  1.00  0.00     0.274 HD
ATOM     48  H32 UNL     1      -7.081  38.327  24.115  1.00  0.00     0.274 HD
ATOM     49  H31 UNL     1      -5.878  38.104  25.281  1.00  0.00     0.274 HD
ENDBRANCH   2  46
BRANCH   3  50
HETATM   50  N4  UNL     1      -5.163  41.334  26.565  1.00  0.00    -0.073 N 
ATOM     51  H43 UNL     1      -4.744  42.236  26.339  1.00  0.00     0.274 HD
ATOM     52  H42 UNL     1      -6.077  41.673  26.866  1.00  0.00     0.274 HD
ATOM     53  H41 UNL     1      -4.664  40.846  27.309  1.00  0.00     0.274 HD
ENDBRANCH   3  50
TORSDOF 13
ENDMDL
MODEL 2
REMARK VINA RESULT: -5.806704232      2.470      3.643
REMARK  13 active torsions:
REMARK  status: ('A' for Active; 'I' for Inactive)
REMARK    1  A    between atoms: N1_1  and  C1_5 
REMARK    2  A    between atoms: C3_7  and  N2_8 
REMARK    3  A    between atoms: C5_13  and  O1_14 
REMARK    4  A    between atoms: O1_14  and  C6_15 
REMARK    5  A    between atoms: C7_16  and  N3_17 
REMARK    6  A    between atoms: C8_21  and  N4_22 
REMARK    7  A    between atoms: C10_27  and  N5_28 
REMARK    8  A    between atoms: C11_32  and  O2_33 
REMARK    9  A    between atoms: O2_33  and  C12_34 
REMARK   10  A    between atoms: C13_36  and  C14_37 
REMARK   11  A    between atoms: C14_37  and  O4_38 
REMARK   12  A    between atoms: C15_40  and  N6_41 
REMARK   13  A    between atoms: C16_48  and  N10_49 
ROOT
HETATM    1  C6  UNL     1      -8.093  43.494  22.460  1.00  0.00     0.185 C 
HETATM    2  C7  UNL     1      -6.906  44.433  22.676  1.00  0.00     0.245 C 
HETATM    3  C8  UNL     1      -7.061  45.712  21.930  1.00  0.00     0.218 C 
HETATM    4  C9  UNL     1      -8.014  45.633  20.776  1.00  0.00     0.070 C 
HETATM    5  C10 UNL     1      -7.936  44.297  20.082  1.00  0.00     0.217 C 
HETATM    6  C11 UNL     1      -8.223  43.125  20.993  1.00  0.00     0.186 C 
ENDROOT
BRANCH   6   7
HETATM    7  O2  UNL     1      -9.464  42.565  20.784  1.00  0.00    -0.349 OA
BRANCH   7   8
HETATM    8  C12 UNL     1      -9.517  41.586  19.823  1.00  0.00     0.293 C 
HETATM    9  O3  UNL     1     -10.776  41.688  19.231  1.00  0.00    -0.349 OA
HETATM   10  C13 UNL     1     -11.061  40.493  18.624  1.00  0.00     0.177 C 
HETATM   11  C15 UNL     1     -10.130  39.443  19.137  1.00  0.00     0.196 C 
HETATM   12  C16 UNL     1      -9.456  40.179  20.301  1.00  0.00     0.267 C 
BRANCH  10  13
HETATM   13  C14 UNL     1     -11.049  40.621  17.127  1.00  0.00     0.198 C 
BRANCH  13  14
HETATM   14  O4  UNL     1     -11.663  39.512  16.540  1.00  0.00    -0.398 OA
ATOM     15  H4  UNL     1     -12.451  39.280  17.018  1.00  0.00     0.209 HD
ENDBRANCH  13  14
ENDBRANCH  10  13
BRANCH  11  16
HETATM   16  N6  UNL     1     -10.793  38.241  19.584  1.00  0.00    -0.193 N 
HETATM   17  N7  UNL     1     -10.890  37.499  20.665  1.00  0.00    -0.208 N 
HETATM   18  N8  UNL     1     -11.693  36.691  20.044  1.00  0.00    -0.211 N 
ATOM     19  H7  UNL     1     -10.495  37.541  21.604  1.00  0.00     0.211 HD
HETATM   20  N9  UNL     1     -11.612  37.411  18.964  1.00  0.00    -0.208 N 
ATOM     21  H8  UNL     1     -12.188  35.837  20.299  1.00  0.00     0.211 HD
ATOM     22  H9  UNL     1     -12.013  37.357  18.027  1.00  0.00     0.211 HD
ENDBRANCH  11  16
BRANCH  12  23
HETATM   23  N10 UNL     1      -8.111  39.644  20.359  1.00  0.00    -0.068 N 
ATOM     24 3H10 UNL     1      -7.879  39.155  19.495  1.00  0.00     0.275 HD
ATOM     25 2H10 UNL     1      -7.422  40.396  20.319  1.00  0.00     0.275 HD
ATOM     26 1H10 UNL     1      -7.945  39.045  21.168  1.00  0.00     0.275 HD
ENDBRANCH  12  23
ENDBRANCH   7   8
ENDBRANCH   6   7
BRANCH   1  27
HETATM   27  O1  UNL     1      -9.194  44.176  22.899  1.00  0.00    -0.376 OA
BRANCH  27  28
HETATM   28  C5  UNL     1      -9.498  44.104  24.218  1.00  0.00     0.126 C 
HETATM   29  C4  UNL     1     -10.938  44.437  24.543  1.00  0.00     0.065 C 
HETATM   30  C3  UNL     1     -10.981  44.808  26.013  1.00  0.00     0.188 C 
HETATM   31  C2  UNL     1     -10.470  43.684  26.869  1.00  0.00     0.065 C 
HETATM   32  C1  UNL     1      -9.167  43.110  26.410  1.00  0.00     0.188 C 
HETATM   33  C17 UNL     1      -9.167  42.820  24.910  1.00  0.00     0.065 C 
BRANCH  30  34
HETATM   34  N2  UNL     1     -12.346  45.085  26.417  1.00  0.00    -0.075 N 
ATOM     35  H23 UNL     1     -12.968  45.249  25.624  1.00  0.00     0.274 HD
ATOM     36  H22 UNL     1     -12.822  44.265  26.794  1.00  0.00     0.274 HD
ATOM     37  H21 UNL     1     -12.324  45.866  27.072  1.00  0.00     0.274 HD
ENDBRANCH  30  34
BRANCH  32  38
HETATM   38  N1  UNL     1      -8.988  41.830  27.069  1.00  0.00    -0.075 N 
ATOM     39  H13 UNL     1      -8.310  41.868  27.830  1.00  0.00     0.274 HD
ATOM     40  H12 UNL     1      -9.799  41.555  27.624  1.00  0.00     0.274 HD
ATOM     41  H11 UNL     1      -8.745  41.143  26.356  1.00  0.00     0.274 HD
ENDBRANCH  32  38
ENDBRANCH  27  28
ENDBRANCH   1  27
BRANCH   5  42
HETATM   42  N5  UNL     1      -8.959  44.314  19.051  1.00  0.00    -0.072 N 
ATOM     43  H53 UNL     1      -9.865  44.644  19.384  1.00  0.00     0.274 HD
ATOM     44  H52 UNL     1      -8.812  45.037  18.348  1.00  0.00     0.274 HD
ATOM     45  H51 UNL     1      -8.990  43.371  18.664  1.00  0.00     0.274 HD
ENDBRANCH   5  42
BRANCH   2  46
HETATM   46  N3  UNL     1      -5.655  43.750  22.365  1.00  0.00    -0.070 N 
ATOM     47  H33 UNL     1      -5.804  42.764  22.149  1.00  0.00     0.274 HD
ATOM     48  H32 UNL     1      -5.273  44.046  21.467  1.00  0.00     0.274 HD
ATOM     49  H31 UNL     1      -4.984  43.874  23.123  1.00  0.00     0.274 HD
ENDBRANCH   2  46
BRANCH   3  50
HETATM   50  N4  UNL     1      -7.462  46.754  22.863  1.00  0.00    -0.073 N 
ATOM     51  H43 UNL     1      -8.454  46.709  23.093  1.00  0.00     0.274 HD
ATOM     52  H42 UNL     1      -7.092  46.600  23.802  1.00  0.00     0.274 HD
ATOM     53  H41 UNL     1      -7.190  47.660  22.482  1.00  0.00     0.274 HD
ENDBRANCH   3  50
TORSDOF 13
ENDMDL
MODEL 3
REMARK VINA RESULT: -5.723622095      7.556     11.632
REMARK  13 active torsions:
REMARK  status: ('A' for Active; 'I' for Inactive)
REMARK    1  A    between atoms: N1_1  and  C1_5 
REMARK    2  A    between atoms: C3_7  and  N2_8 
REMARK    3  A    between atoms: C5_13  and  O1_14 
REMARK    4  A    between atoms: O1_14  and  C6_15 
REMARK    5  A    between atoms: C7_16  and  N3_17 
REMARK    6  A    between atoms: C8_21  and  N4_22 
REMARK    7  A    between atoms: C10_27  and  N5_28 
REMARK    8  A    between atoms: C11_32  and  O2_33 
REMARK    9  A    between atoms: O2_33  and  C12_34 
REMARK   10  A    between atoms: C13_36  and  C14_37 
REMARK   11  A    between atoms: C14_37  and  O4_38 
REMARK   12  A    between atoms: C15_40  and  N6_41 
REMARK   13  A    between atoms: C16_48  and  N10_49 
ROOT
HETATM    1  C6  UNL     1      -3.828  39.097  29.863  1.00  0.00     0.185 C 
HETATM    2  C7  UNL     1      -5.152  38.352  29.688  1.00  0.00     0.245 C 
HETATM    3  C8  UNL     1      -5.264  37.717  28.346  1.00  0.00     0.218 C 
HETATM    4  C9  UNL     1      -4.369  38.324  27.309  1.00  0.00     0.070 C 
HETATM    5  C10 UNL     1      -4.241  39.815  27.489  1.00  0.00     0.217 C 
HETATM    6  C11 UNL     1      -3.706  40.217  28.845  1.00  0.00     0.186 C 
ENDROOT
BRANCH   6   7
HETATM    7  O2  UNL     1      -2.397  40.642  28.808  1.00  0.00    -0.349 OA
BRANCH   7   8
HETATM    8  C12 UNL     1      -2.026  41.502  29.813  1.00  0.00     0.293 C 
HETATM    9  O3  UNL     1      -2.812  42.645  29.657  1.00  0.00    -0.349 OA
HETATM   10  C13 UNL     1      -2.188  43.682  30.301  1.00  0.00     0.177 C 
HETATM   11  C15 UNL     1      -0.768  43.310  30.580  1.00  0.00     0.196 C 
HETATM   12  C16 UNL     1      -0.631  42.015  29.772  1.00  0.00     0.267 C 
BRANCH  10  13
HETATM   13  C14 UNL     1      -2.947  44.102  31.528  1.00  0.00     0.198 C 
BRANCH  13  14
HETATM   14  O4  UNL     1      -3.683  45.261  31.271  1.00  0.00    -0.398 OA
ATOM     15  H4  UNL     1      -4.518  45.040  30.874  1.00  0.00     0.209 HD
ENDBRANCH  13  14
ENDBRANCH  10  13
BRANCH  11  16
HETATM   16  N6  UNL     1       0.191  44.303  30.157  1.00  0.00    -0.193 N 
HETATM   17  N7  UNL     1       1.013  45.182  30.684  1.00  0.00    -0.208 N 
HETATM   18  N8  UNL     1       1.393  45.544  29.498  1.00  0.00    -0.211 N 
ATOM     19  H7  UNL     1       1.253  45.463  31.635  1.00  0.00     0.211 HD
HETATM   20  N9  UNL     1       0.586  44.680  28.956  1.00  0.00    -0.208 N 
ATOM     21  H8  UNL     1       2.057  46.229  29.137  1.00  0.00     0.211 HD
ATOM     22  H9  UNL     1       0.355  44.408  28.000  1.00  0.00     0.211 HD
ENDBRANCH  11  16
BRANCH  12  23
HETATM   23  N10 UNL     1       0.307  41.200  30.517  1.00  0.00    -0.068 N 
ATOM     24 3H10 UNL     1       0.110  40.209  30.384  1.00  0.00     0.275 HD
ATOM     25 2H10 UNL     1       1.236  41.246  30.099  1.00  0.00     0.275 HD
ATOM     26 1H10 UNL     1       0.347  41.429  31.510  1.00  0.00     0.275 HD
ENDBRANCH  12  23
ENDBRANCH   7   8
ENDBRANCH   6   7
BRANCH   1  27
HETATM   27  O1  UNL     1      -2.847  38.161  29.691  1.00  0.00    -0.376 OA
BRANCH  27  28
HETATM   28  C5  UNL     1      -2.426  37.478  30.784  1.00  0.00     0.126 C 
HETATM   29  C4  UNL     1      -1.784  36.143  30.474  1.00  0.00     0.065 C 
HETATM   30  C3  UNL     1      -1.846  35.320  31.746  1.00  0.00     0.188 C 
HETATM   31  C2  UNL     1      -1.145  36.018  32.877  1.00  0.00     0.065 C 
HETATM   32  C1  UNL     1      -1.534  37.453  33.044  1.00  0.00     0.188 C 
HETATM   33  C17 UNL     1      -1.512  38.209  31.716  1.00  0.00     0.065 C 
BRANCH  30  34
HETATM   34  N2  UNL     1      -1.195  34.041  31.544  1.00  0.00    -0.075 N 
ATOM     35  H23 UNL     1      -0.177  34.112  31.538  1.00  0.00     0.274 HD
ATOM     36  H22 UNL     1      -1.282  33.420  32.348  1.00  0.00     0.274 HD
ATOM     37  H21 UNL     1      -1.568  33.633  30.686  1.00  0.00     0.274 HD
ENDBRANCH  30  34
BRANCH  32  38
HETATM   38  N1  UNL     1      -0.538  38.087  33.886  1.00  0.00    -0.075 N 
ATOM     39  H13 UNL     1       0.079  37.416  34.344  1.00  0.00     0.274 HD
ATOM     40  H12 UNL     1       0.175  38.583  33.351  1.00  0.00     0.274 HD
ATOM     41  H11 UNL     1      -1.026  38.690  34.548  1.00  0.00     0.274 HD
ENDBRANCH  32  38
ENDBRANCH  27  28
ENDBRANCH   1  27
BRANCH   5  42
HETATM   42  N5  UNL     1      -3.288  40.266  26.489  1.00  0.00    -0.072 N 
ATOM     43  H53 UNL     1      -2.537  40.840  26.874  1.00  0.00     0.274 HD
ATOM     44  H52 UNL     1      -2.700  39.517  26.125  1.00  0.00     0.274 HD
ATOM     45  H51 UNL     1      -3.832  40.741  25.769  1.00  0.00     0.274 HD
ENDBRANCH   5  42
BRANCH   2  46
HETATM   46  N3  UNL     1      -6.275  39.235  29.987  1.00  0.00    -0.070 N 
ATOM     47  H33 UNL     1      -6.139  40.168  29.597  1.00  0.00     0.274 HD
ATOM     48  H32 UNL     1      -7.112  38.974  29.466  1.00  0.00     0.274 HD
ATOM     49  H31 UNL     1      -6.445  39.264  30.992  1.00  0.00     0.274 HD
ENDBRANCH   2  46
BRANCH   3  50
HETATM   50  N4  UNL     1      -5.010  36.291  28.479  1.00  0.00    -0.073 N 
ATOM     51  H43 UNL     1      -5.339  35.919  29.370  1.00  0.00     0.274 HD
ATOM     52  H42 UNL     1      -5.601  35.731  27.865  1.00  0.00     0.274 HD
ATOM     53  H41 UNL     1      -4.016  36.118  28.328  1.00  0.00     0.274 HD
ENDBRANCH   3  50
TORSDOF 13
ENDMDL
MODEL 4
REMARK VINA RESULT: -5.658292705      0.428      1.546
REMARK  13 active torsions:
REMARK  status: ('A' for Active; 'I' for Inactive)
REMARK    1  A    between atoms: N1_1  and  C1_5 
REMARK    2  A    between atoms: C3_7  and  N2_8 
REMARK    3  A    between atoms: C5_13  and  O1_14 
REMARK    4  A    between atoms: O1_14  and  C6_15 
REMARK    5  A    between atoms: C7_16  and  N3_17 
REMARK    6  A    between atoms: C8_21  and  N4_22 
REMARK    7  A    between atoms: C10_27  and  N5_28 
REMARK    8  A    between atoms: C11_32  and  O2_33 
REMARK    9  A    between atoms: O2_33  and  C12_34 
REMARK   10  A    between atoms: C13_36  and  C14_37 
REMARK   11  A    between atoms: C14_37  and  O4_38 
REMARK   12  A    between atoms: C15_40  and  N6_41 
REMARK   13  A    between atoms: C16_48  and  N10_49 
ROOT
HETATM    1  C6  UNL     1      -7.480  41.106  24.317  1.00  0.00     0.185 C 
HETATM    2  C7  UNL     1      -6.715  40.382  25.428  1.00  0.00     0.245 C 
HETATM    3  C8  UNL     1      -5.273  40.752  25.446  1.00  0.00     0.218 C 
HETATM    4  C9  UNL     1      -4.769  41.305  24.148  1.00  0.00     0.070 C 
HETATM    5  C10 UNL     1      -5.414  40.626  22.967  1.00  0.00     0.217 C 
HETATM    6  C11 UNL     1      -6.921  40.735  22.955  1.00  0.00     0.186 C 
ENDROOT
BRANCH   6   7
HETATM    7  O2  UNL     1      -7.394  41.632  22.023  1.00  0.00    -0.349 OA
BRANCH   7   8
HETATM    8  C12 UNL     1      -8.219  41.105  21.060  1.00  0.00     0.293 C 
HETATM    9  O3  UNL     1      -9.524  41.357  21.486  1.00  0.00    -0.349 OA
HETATM   10  C13 UNL     1     -10.359  40.480  20.844  1.00  0.00     0.177 C 
HETATM   11  C15 UNL     1      -9.552  39.369  20.254  1.00  0.00     0.196 C 
HETATM   12  C16 UNL     1      -8.177  39.630  20.880  1.00  0.00     0.267 C 
BRANCH  10  13
HETATM   13  C14 UNL     1     -11.228  41.183  19.841  1.00  0.00     0.198 C 
BRANCH  13  14
HETATM   14  O4  UNL     1     -11.597  40.306  18.819  1.00  0.00    -0.398 OA
ATOM     15  H4  UNL     1     -11.532  40.737  17.974  1.00  0.00     0.209 HD
ENDBRANCH  13  14
ENDBRANCH  10  13
BRANCH  11  16
HETATM   16  N6  UNL     1     -10.042  38.051  20.582  1.00  0.00    -0.193 N 
HETATM   17  N7  UNL     1      -9.695  37.012  21.308  1.00  0.00    -0.208 N 
HETATM   18  N8  UNL     1     -10.766  36.385  20.930  1.00  0.00    -0.211 N 
ATOM     19  H7  UNL     1      -8.908  36.789  21.917  1.00  0.00     0.211 HD
HETATM   20  N9  UNL     1     -11.128  37.403  20.206  1.00  0.00    -0.208 N 
ATOM     21  H8  UNL     1     -11.164  35.467  21.122  1.00  0.00     0.211 HD
ATOM     22  H9  UNL     1     -11.921  37.614  19.599  1.00  0.00     0.211 HD
ENDBRANCH  11  16
BRANCH  12  23
HETATM   23  N10 UNL     1      -7.218  39.196  19.884  1.00  0.00    -0.068 N 
ATOM     24 3H10 UNL     1      -7.694  38.800  19.074  1.00  0.00     0.275 HD
ATOM     25 2H10 UNL     1      -6.769  39.997  19.442  1.00  0.00     0.275 HD
ATOM     26 1H10 UNL     1      -6.521  38.545  20.246  1.00  0.00     0.275 HD
ENDBRANCH  12  23
ENDBRANCH   7   8
ENDBRANCH   6   7
BRANCH   1  27
HETATM   27  O1  UNL     1      -7.329  42.441  24.569  1.00  0.00    -0.376 OA
BRANCH  27  28
HETATM   28  C5  UNL     1      -8.352  43.090  25.176  1.00  0.00     0.126 C 
HETATM   29  C4  UNL     1      -9.479  43.482  24.246  1.00  0.00     0.065 C 
HETATM   30  C3  UNL     1     -10.248  44.594  24.932  1.00  0.00     0.188 C 
HETATM   31  C2  UNL     1     -10.769  44.147  26.268  1.00  0.00     0.065 C 
HETATM   32  C1  UNL     1      -9.747  43.475  27.129  1.00  0.00     0.188 C 
HETATM   33  C17 UNL     1      -8.964  42.411  26.360  1.00  0.00     0.065 C 
BRANCH  30  34
HETATM   34  N2  UNL     1     -11.386  44.986  24.123  1.00  0.00    -0.075 N 
ATOM     35  H23 UNL     1     -12.239  45.107  24.670  1.00  0.00     0.274 HD
ATOM     36  H22 UNL     1     -11.314  45.942  23.774  1.00  0.00     0.274 HD
ATOM     37  H21 UNL     1     -11.488  44.298  23.376  1.00  0.00     0.274 HD
ENDBRANCH  30  34
BRANCH  32  38
HETATM   38  N1  UNL     1     -10.449  42.774  28.187  1.00  0.00    -0.075 N 
ATOM     39  H13 UNL     1      -9.818  42.371  28.881  1.00  0.00     0.274 HD
ATOM     40  H12 UNL     1     -10.953  43.403  28.811  1.00  0.00     0.274 HD
ATOM     41  H11 UNL     1     -11.055  42.078  27.753  1.00  0.00     0.274 HD
ENDBRANCH  32  38
ENDBRANCH  27  28
ENDBRANCH   1  27
BRANCH   5  42
HETATM   42  N5  UNL     1      -4.914  41.305  21.784  1.00  0.00    -0.072 N 
ATOM     43  H53 UNL     1      -5.558  41.270  20.994  1.00  0.00     0.274 HD
ATOM     44  H52 UNL     1      -4.888  42.319  21.881  1.00  0.00     0.274 HD
ATOM     45  H51 UNL     1      -4.003  40.893  21.582  1.00  0.00     0.274 HD
ENDBRANCH   5  42
BRANCH   2  46
HETATM   46  N3  UNL     1      -6.925  38.942  25.332  1.00  0.00    -0.070 N 
ATOM     47  H33 UNL     1      -7.197  38.537  26.229  1.00  0.00     0.274 HD
ATOM     48  H32 UNL     1      -7.765  38.714  24.802  1.00  0.00     0.274 HD
ATOM     49  H31 UNL     1      -6.096  38.487  24.947  1.00  0.00     0.274 HD
ENDBRANCH   2  46
BRANCH   3  50
HETATM   50  N4  UNL     1      -5.044  41.691  26.534  1.00  0.00    -0.073 N 
ATOM     51  H43 UNL     1      -4.928  41.224  27.433  1.00  0.00     0.274 HD
ATOM     52  H42 UNL     1      -4.124  42.129  26.483  1.00  0.00     0.274 HD
ATOM     53  H41 UNL     1      -5.800  42.375  26.544  1.00  0.00     0.274 HD
ENDBRANCH   3  50
TORSDOF 13
ENDMDL
MODEL 5
REMARK VINA RESULT: -5.642359333      6.529     11.135
REMARK  13 active torsions:
REMARK  status: ('A' for Active; 'I' for Inactive)
REMARK    1  A    between atoms: N1_1  and  C1_5 
REMARK    2  A    between atoms: C3_7  and  N2_8 
REMARK    3  A    between atoms: C5_13  and  O1_14 
REMARK    4  A    between atoms: O1_14  and  C6_15 
REMARK    5  A    between atoms: C7_16  and  N3_17 
REMARK    6  A    between atoms: C8_21  and  N4_22 
REMARK    7  A    between atoms: C10_27  and  N5_28 
REMARK    8  A    between atoms: C11_32  and  O2_33 
REMARK    9  A    between atoms: O2_33  and  C12_34 
REMARK   10  A    between atoms: C13_36  and  C14_37 
REMARK   11  A    between atoms: C14_37  and  O4_38 
REMARK   12  A    between atoms: C15_40  and  N6_41 
REMARK   13  A    between atoms: C16_48  and  N10_49 
ROOT
HETATM    1  C6  UNL     1      -2.058  38.830  29.063  1.00  0.00     0.185 C 
HETATM    2  C7  UNL     1      -1.936  37.388  28.567  1.00  0.00     0.245 C 
HETATM    3  C8  UNL     1      -2.283  36.401  29.626  1.00  0.00     0.218 C 
HETATM    4  C9  UNL     1      -2.177  36.940  31.020  1.00  0.00     0.070 C 
HETATM    5  C10 UNL     1      -1.023  37.901  31.158  1.00  0.00     0.217 C 
HETATM    6  C11 UNL     1      -1.103  39.081  30.217  1.00  0.00     0.186 C 
ENDROOT
BRANCH   6   7
HETATM    7  O2  UNL     1      -1.464  40.253  30.844  1.00  0.00    -0.349 OA
BRANCH   7   8
HETATM    8  C12 UNL     1      -1.116  41.407  30.187  1.00  0.00     0.293 C 
HETATM    9  O3  UNL     1       0.263  41.547  30.350  1.00  0.00    -0.349 OA
HETATM   10  C13 UNL     1       0.586  42.862  30.139  1.00  0.00     0.177 C 
HETATM   11  C15 UNL     1      -0.654  43.693  30.199  1.00  0.00     0.196 C 
HETATM   12  C16 UNL     1      -1.674  42.676  30.724  1.00  0.00     0.267 C 
BRANCH  10  13
HETATM   13  C14 UNL     1       1.361  43.039  28.864  1.00  0.00     0.198 C 
BRANCH  13  14
HETATM   14  O4  UNL     1       1.934  44.312  28.817  1.00  0.00    -0.398 OA
ATOM     15  H4  UNL     1       1.296  44.950  28.517  1.00  0.00     0.209 HD
ENDBRANCH  13  14
ENDBRANCH  10  13
BRANCH  11  16
HETATM   16  N6  UNL     1      -0.550  44.838  31.073  1.00  0.00    -0.193 N 
HETATM   17  N7  UNL     1      -1.319  45.584  31.834  1.00  0.00    -0.208 N 
HETATM   18  N8  UNL     1      -0.296  46.308  32.166  1.00  0.00    -0.211 N 
ATOM     19  H7  UNL     1      -2.312  45.591  32.067  1.00  0.00     0.211 HD
HETATM   20  N9  UNL     1       0.484  45.582  31.420  1.00  0.00    -0.208 N 
ATOM     21  H8  UNL     1      -0.157  47.118  32.770  1.00  0.00     0.211 HD
ATOM     22  H9  UNL     1       1.479  45.586  31.195  1.00  0.00     0.211 HD
ENDBRANCH  11  16
BRANCH  12  23
HETATM   23  N10 UNL     1      -2.935  43.056  30.120  1.00  0.00    -0.068 N 
ATOM     24 3H10 UNL     1      -3.359  42.263  29.641  1.00  0.00     0.275 HD
ATOM     25 2H10 UNL     1      -3.642  43.221  30.836  1.00  0.00     0.275 HD
ATOM     26 1H10 UNL     1      -2.861  43.858  29.494  1.00  0.00     0.275 HD
ENDBRANCH  12  23
ENDBRANCH   7   8
ENDBRANCH   6   7
BRANCH   1  27
HETATM   27  O1  UNL     1      -3.359  38.982  29.453  1.00  0.00    -0.376 OA
BRANCH  27  28
HETATM   28  C5  UNL     1      -4.192  39.660  28.628  1.00  0.00     0.126 C 
HETATM   29  C4  UNL     1      -3.494  40.383  27.496  1.00  0.00     0.065 C 
HETATM   30  C3  UNL     1      -4.445  41.459  27.009  1.00  0.00     0.188 C 
HETATM   31  C2  UNL     1      -5.749  40.864  26.559  1.00  0.00     0.065 C 
HETATM   32  C1  UNL     1      -6.348  39.897  27.531  1.00  0.00     0.188 C 
HETATM   33  C17 UNL     1      -5.322  38.881  28.032  1.00  0.00     0.065 C 
BRANCH  30  34
HETATM   34  N2  UNL     1      -3.867  42.161  25.880  1.00  0.00    -0.075 N 
ATOM     35  H23 UNL     1      -2.996  41.739  25.555  1.00  0.00     0.274 HD
ATOM     36  H22 UNL     1      -4.403  42.040  25.021  1.00  0.00     0.274 HD
ATOM     37  H21 UNL     1      -3.759  43.140  26.144  1.00  0.00     0.274 HD
ENDBRANCH  30  34
BRANCH  32  38
HETATM   38  N1  UNL     1      -7.363  39.134  26.831  1.00  0.00    -0.075 N 
ATOM     39  H13 UNL     1      -8.257  39.118  27.323  1.00  0.00     0.274 HD
ATOM     40  H12 UNL     1      -7.686  39.593  25.979  1.00  0.00     0.274 HD
ATOM     41  H11 UNL     1      -6.990  38.201  26.659  1.00  0.00     0.274 HD
ENDBRANCH  32  38
ENDBRANCH  27  28
ENDBRANCH   1  27
BRANCH   5  42
HETATM   42  N5  UNL     1      -1.082  38.416  32.515  1.00  0.00    -0.072 N 
ATOM     43  H53 UNL     1      -1.681  39.235  32.612  1.00  0.00     0.274 HD
ATOM     44  H52 UNL     1      -1.594  37.810  33.156  1.00  0.00     0.274 HD
ATOM     45  H51 UNL     1      -0.117  38.583  32.799  1.00  0.00     0.274 HD
ENDBRANCH   5  42
BRANCH   2  46
HETATM   46  N3  UNL     1      -0.612  37.158  27.997  1.00  0.00    -0.070 N 
ATOM     47  H33 UNL     1       0.025  37.931  28.191  1.00  0.00     0.274 HD
ATOM     48  H32 UNL     1      -0.110  36.420  28.489  1.00  0.00     0.274 HD
ATOM     49  H31 UNL     1      -0.685  36.968  26.997  1.00  0.00     0.274 HD
ENDBRANCH   2  46
BRANCH   3  50
HETATM   50  N4  UNL     1      -3.620  35.888  29.369  1.00  0.00    -0.073 N 
ATOM     51  H43 UNL     1      -4.115  36.430  28.662  1.00  0.00     0.274 HD
ATOM     52  H42 UNL     1      -3.606  34.994  28.877  1.00  0.00     0.274 HD
ATOM     53  H41 UNL     1      -4.129  35.839  30.251  1.00  0.00     0.274 HD
ENDBRANCH   3  50
TORSDOF 13
ENDMDL
