MODEL 1
REMARK VINA RESULT: -5.866759140      0.000      0.000
REMARK  11 active torsions:
REMARK  status: ('A' for Active; 'I' for Inactive)
REMARK    1  A    between atoms: N1_2  and  C3_4 
REMARK    2  A    between atoms: C3_4  and  C4_5 
REMARK    3  A    between atoms: C7_13  and  O2_14 
REMARK    4  A    between atoms: O2_14  and  C8_15 
REMARK    5  A    between atoms: C9_16  and  N4_17 
REMARK    6  A    between atoms: C11_22  and  N5_23 
REMARK    7  A    between atoms: N5_23  and  O3_24 
REMARK    8  A    between atoms: C12_26  and  O4_27 
REMARK    9  A    between atoms: C13_29  and  N6_30 
REMARK   10  A    between atoms: N6_30  and  C14_32 
REMARK   11  A    between atoms: C16_36  and  N8_37 
ROOT
HETATM    1  C4  UNL     1      -5.622  38.176  28.086  1.00  0.00     0.357 C 
HETATM    2  N2  UNL     1      -6.314  38.454  29.319  1.00  0.00    -0.008 N 
ATOM      3  H21 UNL     1      -7.293  38.679  29.144  1.00  0.00     0.284 HD
ATOM      4  H22 UNL     1      -6.007  39.343  29.716  1.00  0.00     0.284 HD
HETATM    5  C5  UNL     1      -6.196  37.389  30.286  1.00  0.00     0.436 C 
HETATM    6  C6  UNL     1      -7.414  36.567  30.176  1.00  0.00     0.121 C 
HETATM    7  N3  UNL     1      -8.372  35.917  30.070  1.00  0.00    -0.193 NA
HETATM    8  O1  UNL     1      -5.123  36.572  30.028  1.00  0.00    -0.294 OA
HETATM    9  C7  UNL     1      -4.034  37.219  29.479  1.00  0.00     0.418 C 
HETATM   10  O5  UNL     1      -4.322  37.787  28.237  1.00  0.00    -0.303 OA
ENDROOT
BRANCH   1  11
HETATM   11  C3  UNL     1      -5.656  39.441  27.254  1.00  0.00     0.332 C 
BRANCH  11  12
HETATM   12  N1  UNL     1      -6.907  39.441  26.493  1.00  0.00     0.084 N 
HETATM   13  C1  UNL     1      -7.593  40.711  26.651  1.00  0.00     0.309 C 
HETATM   14  C2  UNL     1      -6.627  39.157  25.104  1.00  0.00     0.309 C 
ENDBRANCH  11  12
ENDBRANCH   1  11
BRANCH   9  15
HETATM   15  O2  UNL     1      -3.491  38.223  30.245  1.00  0.00    -0.329 OA
BRANCH  15  16
HETATM   16  C8  UNL     1      -2.183  38.508  29.783  1.00  0.00     0.182 C 
HETATM   17  C9  UNL     1      -2.185  39.857  29.108  1.00  0.00     0.216 C 
HETATM   18  C10 UNL     1      -0.945  40.634  29.132  1.00  0.00     0.061 C 
HETATM   19  C11 UNL     1       0.092  40.236  30.126  1.00  0.00     0.139 C 
HETATM   20  C12 UNL     1       0.138  38.759  30.398  1.00  0.00     0.165 C 
HETATM   21  C13 UNL     1      -1.253  38.383  30.937  1.00  0.00     0.144 C 
BRANCH  17  22
HETATM   22  N4  UNL     1      -3.302  40.608  29.710  1.00  0.00    -0.072 N 
ATOM     23  H43 UNL     1      -4.148  40.607  29.142  1.00  0.00     0.274 HD
ATOM     24  H42 UNL     1      -3.704  40.154  30.530  1.00  0.00     0.274 HD
ATOM     25  H41 UNL     1      -2.940  41.543  29.899  1.00  0.00     0.274 HD
ENDBRANCH  17  22
BRANCH  19  26
HETATM   26  N5  UNL     1       1.416  40.642  29.688  1.00  0.00    -0.096 NA
BRANCH  26  27
HETATM   27  O3  UNL     1       1.579  40.549  28.369  1.00  0.00    -0.296 OA
ATOM     28  H3  UNL     1       1.304  41.332  27.905  1.00  0.00     0.238 HD
ENDBRANCH  26  27
ENDBRANCH  19  26
BRANCH  20  29
HETATM   29  O4  UNL     1       0.406  37.993  29.290  1.00  0.00    -0.392 OA
ATOM     30  H4  UNL     1      -0.323  37.454  29.005  1.00  0.00     0.210 HD
ENDBRANCH  20  29
BRANCH  21  31
HETATM   31  N6  UNL     1      -1.157  37.007  31.346  1.00  0.00    -0.369 N 
ATOM     32  H6  UNL     1      -1.253  36.247  30.672  1.00  0.00     0.161 HD
BRANCH  31  33
HETATM   33  C14 UNL     1      -0.922  36.745  32.732  1.00  0.00     0.091 C 
HETATM   34  N7  UNL     1      -0.877  35.561  33.202  1.00  0.00    -0.375 N 
HETATM   35  C15 UNL     1      -0.627  35.444  34.646  1.00  0.00     0.174 C 
ATOM     36  H7  UNL     1      -1.008  34.741  32.610  1.00  0.00     0.160 HD
HETATM   37  C16 UNL     1      -1.616  36.413  35.293  1.00  0.00     0.295 C 
HETATM   38  N9  UNL     1      -1.188  37.734  34.961  1.00  0.00    -0.388 N 
HETATM   39  C17 UNL     1      -0.721  37.907  33.623  1.00  0.00     0.192 C 
ATOM     40  H9  UNL     1      -1.215  38.501  35.632  1.00  0.00     0.155 HD
BRANCH  37  41
HETATM   41  N8  UNL     1      -2.964  36.140  34.845  1.00  0.00    -0.057 N 
ATOM     42  H83 UNL     1      -3.029  36.130  33.827  1.00  0.00     0.276 HD
ATOM     43  H82 UNL     1      -3.235  35.174  35.025  1.00  0.00     0.276 HD
ATOM     44  H81 UNL     1      -3.621  36.802  35.260  1.00  0.00     0.276 HD
ENDBRANCH  37  41
ENDBRANCH  31  33
ENDBRANCH  21  31
ENDBRANCH  15  16
ENDBRANCH   9  15
TORSDOF 11
ENDMDL
MODEL 2
REMARK VINA RESULT: -5.748972277      3.317      6.342
REMARK  11 active torsions:
REMARK  status: ('A' for Active; 'I' for Inactive)
REMARK    1  A    between atoms: N1_2  and  C3_4 
REMARK    2  A    between atoms: C3_4  and  C4_5 
REMARK    3  A    between atoms: C7_13  and  O2_14 
REMARK    4  A    between atoms: O2_14  and  C8_15 
REMARK    5  A    between atoms: C9_16  and  N4_17 
REMARK    6  A    between atoms: C11_22  and  N5_23 
REMARK    7  A    between atoms: N5_23  and  O3_24 
REMARK    8  A    between atoms: C12_26  and  O4_27 
REMARK    9  A    between atoms: C13_29  and  N6_30 
REMARK   10  A    between atoms: N6_30  and  C14_32 
REMARK   11  A    between atoms: C16_36  and  N8_37 
ROOT
HETATM    1  C4  UNL     1      -6.257  42.158  25.521  1.00  0.00     0.357 C 
HETATM    2  N2  UNL     1      -5.568  41.461  24.466  1.00  0.00    -0.008 N 
ATOM      3  H21 UNL     1      -5.955  41.704  23.555  1.00  0.00     0.284 HD
ATOM      4  H22 UNL     1      -5.791  40.465  24.482  1.00  0.00     0.284 HD
HETATM    5  C5  UNL     1      -4.139  41.670  24.491  1.00  0.00     0.436 C 
HETATM    6  C6  UNL     1      -3.842  42.741  23.524  1.00  0.00     0.121 C 
HETATM    7  N3  UNL     1      -3.621  43.596  22.769  1.00  0.00    -0.193 NA
HETATM    8  O1  UNL     1      -3.699  42.091  25.721  1.00  0.00    -0.294 OA
HETATM    9  C7  UNL     1      -4.405  41.572  26.788  1.00  0.00     0.418 C 
HETATM   10  O5  UNL     1      -5.749  41.950  26.771  1.00  0.00    -0.303 OA
ENDROOT
BRANCH   1  11
HETATM   11  C3  UNL     1      -7.699  41.694  25.502  1.00  0.00     0.332 C 
BRANCH  11  12
HETATM   12  N1  UNL     1      -8.524  42.778  26.042  1.00  0.00     0.084 N 
HETATM   13  C1  UNL     1      -9.289  43.405  24.978  1.00  0.00     0.309 C 
HETATM   14  C2  UNL     1      -9.383  42.259  27.080  1.00  0.00     0.309 C 
ENDBRANCH  11  12
ENDBRANCH   1  11
BRANCH   9  15
HETATM   15  O2  UNL     1      -4.392  40.201  26.898  1.00  0.00    -0.329 OA
BRANCH  15  16
HETATM   16  C8  UNL     1      -5.323  39.805  27.889  1.00  0.00     0.182 C 
HETATM   17  C9  UNL     1      -6.293  38.821  27.284  1.00  0.00     0.216 C 
HETATM   18  C10 UNL     1      -6.893  37.821  28.167  1.00  0.00     0.061 C 
HETATM   19  C11 UNL     1      -6.234  37.590  29.485  1.00  0.00     0.139 C 
HETATM   20  C12 UNL     1      -5.609  38.822  30.076  1.00  0.00     0.165 C 
HETATM   21  C13 UNL     1      -4.557  39.294  29.057  1.00  0.00     0.144 C 
BRANCH  17  22
HETATM   22  N4  UNL     1      -5.577  38.185  26.162  1.00  0.00    -0.072 N 
ATOM     23  H43 UNL     1      -5.949  38.436  25.246  1.00  0.00     0.274 HD
ATOM     24  H42 UNL     1      -4.637  38.554  26.017  1.00  0.00     0.274 HD
ATOM     25  H41 UNL     1      -5.598  37.183  26.350  1.00  0.00     0.274 HD
ENDBRANCH  17  22
BRANCH  19  26
HETATM   26  N5  UNL     1      -7.182  37.071  30.456  1.00  0.00    -0.096 NA
BRANCH  26  27
HETATM   27  O3  UNL     1      -8.076  36.243  29.920  1.00  0.00    -0.296 OA
ATOM     28  H3  UNL     1      -8.508  35.695  30.565  1.00  0.00     0.238 HD
ENDBRANCH  26  27
ENDBRANCH  19  26
BRANCH  20  29
HETATM   29  O4  UNL     1      -6.495  39.847  30.305  1.00  0.00    -0.392 OA
ATOM     30  H4  UNL     1      -6.830  39.879  31.193  1.00  0.00     0.210 HD
ENDBRANCH  20  29
BRANCH  21  31
HETATM   31  N6  UNL     1      -3.851  40.374  29.694  1.00  0.00    -0.369 N 
ATOM     32  H6  UNL     1      -4.338  41.051  30.282  1.00  0.00     0.161 HD
BRANCH  31  33
HETATM   33  C14 UNL     1      -2.441  40.463  29.472  1.00  0.00     0.091 C 
HETATM   34  N7  UNL     1      -1.808  39.609  28.769  1.00  0.00    -0.375 N 
HETATM   35  C15 UNL     1      -0.362  39.827  28.628  1.00  0.00     0.174 C 
ATOM     36  H7  UNL     1      -2.279  38.818  28.331  1.00  0.00     0.160 HD
HETATM   37  C16 UNL     1       0.140  40.065  30.051  1.00  0.00     0.295 C 
HETATM   38  N9  UNL     1      -0.376  41.329  30.473  1.00  0.00    -0.388 N 
HETATM   39  C17 UNL     1      -1.723  41.599  30.086  1.00  0.00     0.192 C 
ATOM     40  H9  UNL     1       0.180  41.992  31.012  1.00  0.00     0.155 HD
BRANCH  37  41
HETATM   41  N8  UNL     1      -0.271  38.985  30.922  1.00  0.00    -0.057 N 
ATOM     42  H83 UNL     1      -1.010  39.274  31.563  1.00  0.00     0.276 HD
ATOM     43  H82 UNL     1      -0.782  38.262  30.415  1.00  0.00     0.276 HD
ATOM     44  H81 UNL     1       0.533  38.601  31.420  1.00  0.00     0.276 HD
ENDBRANCH  37  41
ENDBRANCH  31  33
ENDBRANCH  21  31
ENDBRANCH  15  16
ENDBRANCH   9  15
TORSDOF 11
ENDMDL
MODEL 3
REMARK VINA RESULT: -5.651512581      2.889      6.007
REMARK  11 active torsions:
REMARK  status: ('A' for Active; 'I' for Inactive)
REMARK    1  A    between atoms: N1_2  and  C3_4 
REMARK    2  A    between atoms: C3_4  and  C4_5 
REMARK    3  A    between atoms: C7_13  and  O2_14 
REMARK    4  A    between atoms: O2_14  and  C8_15 
REMARK    5  A    between atoms: C9_16  and  N4_17 
REMARK    6  A    between atoms: C11_22  and  N5_23 
REMARK    7  A    between atoms: N5_23  and  O3_24 
REMARK    8  A    between atoms: C12_26  and  O4_27 
REMARK    9  A    between atoms: C13_29  and  N6_30 
REMARK   10  A    between atoms: N6_30  and  C14_32 
REMARK   11  A    between atoms: C16_36  and  N8_37 
ROOT
HETATM    1  C4  UNL     1      -4.027  35.437  29.787  1.00  0.00     0.357 C 
HETATM    2  N2  UNL     1      -4.903  35.984  28.782  1.00  0.00    -0.008 N 
ATOM      3  H21 UNL     1      -5.522  35.265  28.409  1.00  0.00     0.284 HD
ATOM      4  H22 UNL     1      -4.384  36.215  27.934  1.00  0.00     0.284 HD
HETATM    5  C5  UNL     1      -5.658  37.122  29.251  1.00  0.00     0.436 C 
HETATM    6  C6  UNL     1      -6.984  36.623  29.658  1.00  0.00     0.121 C 
HETATM    7  N3  UNL     1      -8.020  36.217  29.991  1.00  0.00    -0.193 NA
HETATM    8  O1  UNL     1      -5.083  37.709  30.350  1.00  0.00    -0.294 OA
HETATM    9  C7  UNL     1      -3.703  37.660  30.365  1.00  0.00     0.418 C 
HETATM   10  O5  UNL     1      -3.217  36.352  30.397  1.00  0.00    -0.303 OA
ENDROOT
BRANCH   1  11
HETATM   11  C3  UNL     1      -3.159  34.397  29.110  1.00  0.00     0.332 C 
BRANCH  11  12
HETATM   12  N1  UNL     1      -1.825  34.976  28.934  1.00  0.00     0.084 N 
HETATM   13  C1  UNL     1      -0.814  34.085  29.476  1.00  0.00     0.309 C 
HETATM   14  C2  UNL     1      -1.598  35.248  27.534  1.00  0.00     0.309 C 
ENDBRANCH  11  12
ENDBRANCH   1  11
BRANCH   9  15
HETATM   15  O2  UNL     1      -3.076  38.278  29.310  1.00  0.00    -0.329 OA
BRANCH  15  16
HETATM   16  C8  UNL     1      -2.642  39.565  29.715  1.00  0.00     0.182 C 
HETATM   17  C9  UNL     1      -1.194  39.485  30.131  1.00  0.00     0.216 C 
HETATM   18  C10 UNL     1      -0.369  40.682  29.967  1.00  0.00     0.061 C 
HETATM   19  C11 UNL     1      -0.886  41.749  29.064  1.00  0.00     0.139 C 
HETATM   20  C12 UNL     1      -2.384  41.876  29.067  1.00  0.00     0.165 C 
HETATM   21  C13 UNL     1      -2.925  40.512  28.604  1.00  0.00     0.144 C 
BRANCH  17  22
HETATM   22  N4  UNL     1      -0.626  38.337  29.400  1.00  0.00    -0.072 N 
ATOM     23  H43 UNL     1      -1.249  37.961  28.685  1.00  0.00     0.274 HD
ATOM     24  H42 UNL     1       0.139  38.590  28.775  1.00  0.00     0.274 HD
ATOM     25  H41 UNL     1      -0.364  37.655  30.111  1.00  0.00     0.274 HD
ENDBRANCH  17  22
BRANCH  19  26
HETATM   26  N5  UNL     1      -0.337  43.046  29.423  1.00  0.00    -0.096 NA
BRANCH  26  27
HETATM   27  O3  UNL     1      -1.045  44.064  28.936  1.00  0.00    -0.296 OA
ATOM     28  H3  UNL     1      -0.504  44.731  28.529  1.00  0.00     0.238 HD
ENDBRANCH  26  27
ENDBRANCH  19  26
BRANCH  20  29
HETATM   29  O4  UNL     1      -2.919  42.171  30.297  1.00  0.00    -0.392 OA
ATOM     30  H4  UNL     1      -3.345  41.435  30.722  1.00  0.00     0.210 HD
ENDBRANCH  20  29
BRANCH  21  31
HETATM   31  N6  UNL     1      -4.346  40.685  28.453  1.00  0.00    -0.369 N 
ATOM     32  H6  UNL     1      -4.928  40.985  29.236  1.00  0.00     0.161 HD
BRANCH  31  33
HETATM   33  C14 UNL     1      -4.910  40.421  27.166  1.00  0.00     0.091 C 
HETATM   34  N7  UNL     1      -5.745  41.211  26.616  1.00  0.00    -0.375 N 
HETATM   35  C15 UNL     1      -6.242  40.810  25.291  1.00  0.00     0.174 C 
ATOM     36  H7  UNL     1      -6.051  42.072  27.068  1.00  0.00     0.160 HD
HETATM   37  C16 UNL     1      -6.669  39.353  25.458  1.00  0.00     0.295 C 
HETATM   38  N9  UNL     1      -5.480  38.584  25.643  1.00  0.00    -0.388 N 
HETATM   39  C17 UNL     1      -4.487  39.185  26.475  1.00  0.00     0.192 C 
ATOM     40  H9  UNL     1      -5.348  37.670  25.212  1.00  0.00     0.155 HD
BRANCH  37  41
HETATM   41  N8  UNL     1      -7.591  39.216  26.565  1.00  0.00    -0.057 N 
ATOM     42  H83 UNL     1      -7.213  39.615  27.424  1.00  0.00     0.276 HD
ATOM     43  H82 UNL     1      -8.403  39.824  26.459  1.00  0.00     0.276 HD
ATOM     44  H81 UNL     1      -7.862  38.240  26.688  1.00  0.00     0.276 HD
ENDBRANCH  37  41
ENDBRANCH  31  33
ENDBRANCH  21  31
ENDBRANCH  15  16
ENDBRANCH   9  15
TORSDOF 11
ENDMDL
MODEL 4
REMARK VINA RESULT: -5.622721656      2.629      5.713
REMARK  11 active torsions:
REMARK  status: ('A' for Active; 'I' for Inactive)
REMARK    1  A    between atoms: N1_2  and  C3_4 
REMARK    2  A    between atoms: C3_4  and  C4_5 
REMARK    3  A    between atoms: C7_13  and  O2_14 
REMARK    4  A    between atoms: O2_14  and  C8_15 
REMARK    5  A    between atoms: C9_16  and  N4_17 
REMARK    6  A    between atoms: C11_22  and  N5_23 
REMARK    7  A    between atoms: N5_23  and  O3_24 
REMARK    8  A    between atoms: C12_26  and  O4_27 
REMARK    9  A    between atoms: C13_29  and  N6_30 
REMARK   10  A    between atoms: N6_30  and  C14_32 
REMARK   11  A    between atoms: C16_36  and  N8_37 
ROOT
HETATM    1  C4  UNL     1      -0.915  42.346  29.438  1.00  0.00     0.357 C 
HETATM    2  N2  UNL     1      -1.230  41.778  30.724  1.00  0.00    -0.008 N 
ATOM      3  H21 UNL     1      -0.917  42.389  31.478  1.00  0.00     0.284 HD
ATOM      4  H22 UNL     1      -0.646  40.963  30.915  1.00  0.00     0.284 HD
HETATM    5  C5  UNL     1      -2.630  41.456  30.871  1.00  0.00     0.436 C 
HETATM    6  C6  UNL     1      -3.260  42.580  31.585  1.00  0.00     0.121 C 
HETATM    7  N3  UNL     1      -3.750  43.479  32.135  1.00  0.00    -0.193 NA
HETATM    8  O1  UNL     1      -3.262  41.330  29.659  1.00  0.00    -0.294 OA
HETATM    9  C7  UNL     1      -2.470  40.814  28.653  1.00  0.00     0.418 C 
HETATM   10  O5  UNL     1      -1.372  41.628  28.370  1.00  0.00    -0.303 OA
ENDROOT
BRANCH   1  11
HETATM   11  C3  UNL     1       0.594  42.443  29.346  1.00  0.00     0.332 C 
BRANCH  11  12
HETATM   12  N1  UNL     1       1.009  43.642  30.078  1.00  0.00     0.084 N 
HETATM   13  C1  UNL     1       1.944  43.289  31.132  1.00  0.00     0.309 C 
HETATM   14  C2  UNL     1       1.582  44.596  29.157  1.00  0.00     0.309 C 
ENDBRANCH  11  12
ENDBRANCH   1  11
BRANCH   9  15
HETATM   15  O2  UNL     1      -1.967  39.555  28.881  1.00  0.00    -0.329 OA
BRANCH  15  16
HETATM   16  C8  UNL     1      -3.015  38.608  28.777  1.00  0.00     0.182 C 
HETATM   17  C9  UNL     1      -3.168  38.204  27.331  1.00  0.00     0.216 C 
HETATM   18  C10 UNL     1      -3.674  36.861  27.047  1.00  0.00     0.061 C 
HETATM   19  C11 UNL     1      -3.635  35.867  28.157  1.00  0.00     0.139 C 
HETATM   20  C12 UNL     1      -3.849  36.468  29.518  1.00  0.00     0.165 C 
HETATM   21  C13 UNL     1      -2.718  37.492  29.713  1.00  0.00     0.144 C 
BRANCH  17  22
HETATM   22  N4  UNL     1      -1.850  38.425  26.709  1.00  0.00    -0.072 N 
ATOM     23  H43 UNL     1      -1.837  38.243  25.706  1.00  0.00     0.274 HD
ATOM     24  H42 UNL     1      -1.581  39.408  26.659  1.00  0.00     0.274 HD
ATOM     25  H41 UNL     1      -1.193  37.849  27.235  1.00  0.00     0.274 HD
ENDBRANCH  17  22
BRANCH  19  26
HETATM   26  N5  UNL     1      -4.642  34.838  27.970  1.00  0.00    -0.096 NA
BRANCH  26  27
HETATM   27  O3  UNL     1      -5.014  34.259  29.111  1.00  0.00    -0.296 OA
ATOM     28  H3  UNL     1      -5.926  34.414  29.326  1.00  0.00     0.238 HD
ENDBRANCH  26  27
ENDBRANCH  19  26
BRANCH  20  29
HETATM   29  O4  UNL     1      -5.056  37.107  29.666  1.00  0.00    -0.392 OA
ATOM     30  H4  UNL     1      -5.007  37.919  30.156  1.00  0.00     0.210 HD
ENDBRANCH  20  29
BRANCH  21  31
HETATM   31  N6  UNL     1      -2.830  37.946  31.074  1.00  0.00    -0.369 N 
ATOM     32  H6  UNL     1      -3.533  38.634  31.346  1.00  0.00     0.161 HD
BRANCH  31  33
HETATM   33  C14 UNL     1      -1.919  37.398  32.031  1.00  0.00     0.091 C 
HETATM   34  N7  UNL     1      -1.912  36.159  32.329  1.00  0.00    -0.375 N 
HETATM   35  C15 UNL     1      -0.920  35.738  33.330  1.00  0.00     0.174 C 
ATOM     36  H7  UNL     1      -2.557  35.498  31.899  1.00  0.00     0.160 HD
HETATM   37  C16 UNL     1      -1.080  36.731  34.481  1.00  0.00     0.295 C 
HETATM   38  N9  UNL     1      -0.606  37.995  34.015  1.00  0.00    -0.388 N 
HETATM   39  C17 UNL     1      -0.963  38.324  32.672  1.00  0.00     0.192 C 
ATOM     40  H9  UNL     1      -0.051  38.619  34.600  1.00  0.00     0.155 HD
BRANCH  37  41
HETATM   41  N8  UNL     1      -2.458  36.786  34.917  1.00  0.00    -0.057 N 
ATOM     42  H83 UNL     1      -3.011  37.425  34.346  1.00  0.00     0.276 HD
ATOM     43  H82 UNL     1      -2.958  35.922  34.707  1.00  0.00     0.276 HD
ATOM     44  H81 UNL     1      -2.511  37.022  35.909  1.00  0.00     0.276 HD
ENDBRANCH  37  41
ENDBRANCH  31  33
ENDBRANCH  21  31
ENDBRANCH  15  16
ENDBRANCH   9  15
TORSDOF 11
ENDMDL
MODEL 5
REMARK VINA RESULT: -5.589657536      2.637      4.926
REMARK  11 active torsions:
REMARK  status: ('A' for Active; 'I' for Inactive)
REMARK    1  A    between atoms: N1_2  and  C3_4 
REMARK    2  A    between atoms: C3_4  and  C4_5 
REMARK    3  A    between atoms: C7_13  and  O2_14 
REMARK    4  A    between atoms: O2_14  and  C8_15 
REMARK    5  A    between atoms: C9_16  and  N4_17 
REMARK    6  A    between atoms: C11_22  and  N5_23 
REMARK    7  A    between atoms: N5_23  and  O3_24 
REMARK    8  A    between atoms: C12_26  and  O4_27 
REMARK    9  A    between atoms: C13_29  and  N6_30 
REMARK   10  A    between atoms: N6_30  and  C14_32 
REMARK   11  A    between atoms: C16_36  and  N8_37 
ROOT
HETATM    1  C4  UNL     1      -4.511  35.234  27.765  1.00  0.00     0.357 C 
HETATM    2  N2  UNL     1      -4.808  36.476  28.430  1.00  0.00    -0.008 N 
ATOM      3  H21 UNL     1      -5.524  36.998  27.925  1.00  0.00     0.284 HD
ATOM      4  H22 UNL     1      -4.031  37.131  28.343  1.00  0.00     0.284 HD
HETATM    5  C5  UNL     1      -5.181  36.300  29.814  1.00  0.00     0.436 C 
HETATM    6  C6  UNL     1      -6.653  36.303  29.869  1.00  0.00     0.121 C 
HETATM    7  N3  UNL     1      -7.815  36.291  29.899  1.00  0.00    -0.193 NA
HETATM    8  O1  UNL     1      -4.752  35.097  30.317  1.00  0.00    -0.294 OA
HETATM    9  C7  UNL     1      -3.551  34.657  29.796  1.00  0.00     0.418 C 
HETATM   10  O5  UNL     1      -3.618  34.435  28.420  1.00  0.00    -0.303 OA
ENDROOT
BRANCH   1  11
HETATM   11  C3  UNL     1      -3.945  35.577  26.402  1.00  0.00     0.332 C 
BRANCH  11  12
HETATM   12  N1  UNL     1      -3.257  36.865  26.516  1.00  0.00     0.084 N 
HETATM   13  C1  UNL     1      -1.820  36.665  26.570  1.00  0.00     0.309 C 
HETATM   14  C2  UNL     1      -3.635  37.713  25.409  1.00  0.00     0.309 C 
ENDBRANCH  11  12
ENDBRANCH   1  11
BRANCH   9  15
HETATM   15  O2  UNL     1      -2.475  35.489  30.000  1.00  0.00    -0.329 OA
BRANCH  15  16
HETATM   16  C8  UNL     1      -2.200  35.562  31.388  1.00  0.00     0.182 C 
HETATM   17  C9  UNL     1      -1.379  34.362  31.788  1.00  0.00     0.216 C 
HETATM   18  C10 UNL     1      -0.461  34.508  32.918  1.00  0.00     0.061 C 
HETATM   19  C11 UNL     1      -0.113  35.894  33.340  1.00  0.00     0.139 C 
HETATM   20  C12 UNL     1      -1.229  36.884  33.160  1.00  0.00     0.165 C 
HETATM   21  C13 UNL     1      -1.562  36.878  31.658  1.00  0.00     0.144 C 
BRANCH  17  22
HETATM   22  N4  UNL     1      -0.667  33.935  30.569  1.00  0.00    -0.072 N 
ATOM     23  H43 UNL     1       0.093  33.280  30.750  1.00  0.00     0.274 HD
ATOM     24  H42 UNL     1      -1.218  33.321  29.969  1.00  0.00     0.274 HD
ATOM     25  H41 UNL     1      -0.366  34.792  30.107  1.00  0.00     0.274 HD
ENDBRANCH  17  22
BRANCH  19  26
HETATM   26  N5  UNL     1       0.281  35.929  34.738  1.00  0.00    -0.096 NA
BRANCH  26  27
HETATM   27  O3  UNL     1      -0.001  37.089  35.330  1.00  0.00    -0.296 OA
ATOM     28  H3  UNL     1       0.768  37.625  35.481  1.00  0.00     0.238 HD
ENDBRANCH  26  27
ENDBRANCH  19  26
BRANCH  20  29
HETATM   29  O4  UNL     1      -2.367  36.580  33.867  1.00  0.00    -0.392 OA
ATOM     30  H4  UNL     1      -3.164  36.937  33.492  1.00  0.00     0.210 HD
ENDBRANCH  20  29
BRANCH  21  31
HETATM   31  N6  UNL     1      -2.516  37.938  31.464  1.00  0.00    -0.369 N 
ATOM     32  H6  UNL     1      -3.428  37.919  31.920  1.00  0.00     0.161 HD
BRANCH  31  33
HETATM   33  C14 UNL     1      -2.137  39.020  30.608  1.00  0.00     0.091 C 
HETATM   34  N7  UNL     1      -0.993  39.576  30.682  1.00  0.00    -0.375 N 
HETATM   35  C15 UNL     1      -0.742  40.675  29.739  1.00  0.00     0.174 C 
ATOM     36  H7  UNL     1      -0.291  39.276  31.358  1.00  0.00     0.160 HD
HETATM   37  C16 UNL     1      -1.966  41.582  29.861  1.00  0.00     0.295 C 
HETATM   38  N9  UNL     1      -3.072  40.873  29.302  1.00  0.00    -0.388 N 
HETATM   39  C17 UNL     1      -3.124  39.480  29.610  1.00  0.00     0.192 C 
ATOM     40  H9  UNL     1      -3.776  41.330  28.722  1.00  0.00     0.155 HD
BRANCH  37  41
HETATM   41  N8  UNL     1      -2.190  41.951  31.242  1.00  0.00    -0.057 N 
ATOM     42  H83 UNL     1      -3.034  41.518  31.618  1.00  0.00     0.276 HD
ATOM     43  H82 UNL     1      -1.507  41.520  31.865  1.00  0.00     0.276 HD
ATOM     44  H81 UNL     1      -2.207  42.966  31.344  1.00  0.00     0.276 HD
ENDBRANCH  37  41
ENDBRANCH  31  33
ENDBRANCH  21  31
ENDBRANCH  15  16
ENDBRANCH   9  15
TORSDOF 11
ENDMDL
