MODEL 1
REMARK VINA RESULT: -6.129704453      0.000      0.000
REMARK  13 active torsions:
REMARK  status: ('A' for Active; 'I' for Inactive)
REMARK    1  A    between atoms: N1_2  and  C3_4 
REMARK    2  A    between atoms: C3_4  and  C4_5 
REMARK    3  A    between atoms: C5_8  and  N3_9 
REMARK    4  A    between atoms: C7_12  and  C8_13 
REMARK    5  A    between atoms: C8_13  and  O1_14 
REMARK    6  A    between atoms: C9_16  and  C10_17 
REMARK    7  A    between atoms: C10_17  and  N4_18 
REMARK    8  A    between atoms: C10_17  and  O2_22 
REMARK    9  A    between atoms: C12_29  and  C13_30 
REMARK   10  A    between atoms: C13_30  and  N8_32 
REMARK   11  A    between atoms: N8_32  and  O4_34 
REMARK   12  A    between atoms: N9_36  and  N10_37 
REMARK   13  A    between atoms: C15_44  and  O6_45 
ROOT
HETATM    1  N3  UNL     1      -6.692  42.626  23.416  1.00  0.00    -0.174 N 
ATOM      2  H3  UNL     1      -5.848  42.220  23.015  1.00  0.00     0.186 HD
HETATM    3  C6  UNL     1      -7.073  42.180  24.540  1.00  0.00     0.157 A 
HETATM    4  C7  UNL     1      -6.339  41.154  25.200  1.00  0.00     0.046 A 
HETATM    5  C9  UNL     1      -6.808  40.724  26.396  1.00  0.00     0.124 A 
HETATM    6  O3  UNL     1      -7.915  41.245  26.946  1.00  0.00    -0.276 OA
HETATM    7  C11 UNL     1      -8.567  42.168  26.349  1.00  0.00     0.276 A 
HETATM    8  N5  UNL     1      -8.162  42.635  25.162  1.00  0.00    -0.198 N 
HETATM    9  N6  UNL     1      -9.048  43.588  24.800  1.00  0.00    -0.270 N 
ATOM     10  H6  UNL     1      -9.012  44.134  23.940  1.00  0.00     0.189 HD
HETATM   11  C12 UNL     1      -9.981  43.699  25.755  1.00  0.00     0.189 A 
HETATM   12  N9  UNL     1      -9.707  42.827  26.733  1.00  0.00    -0.202 N 
ENDROOT
BRANCH   1  13
HETATM   13  C5  UNL     1      -7.339  43.635  22.675  1.00  0.00     0.687 A 
HETATM   14  N2  UNL     1      -8.224  43.307  21.699  1.00  0.00    -0.191 N 
HETATM   15  C4  UNL     1      -8.841  44.259  20.985  1.00  0.00     0.093 A 
ATOM     16  H2  UNL     1      -8.422  42.324  21.508  1.00  0.00     0.184 HD
HETATM   17  C15 UNL     1      -8.563  45.596  21.256  1.00  0.00     0.160 A 
HETATM   18  C14 UNL     1      -7.661  45.928  22.251  1.00  0.00     0.294 A 
HETATM   19  N11 UNL     1      -7.074  44.936  22.933  1.00  0.00    -0.153 N 
HETATM   20  O5  UNL     1      -7.403  47.130  22.504  1.00  0.00    -0.265 OA
ATOM     21  H11 UNL     1      -6.407  45.169  23.668  1.00  0.00     0.187 HD
BRANCH  15  22
HETATM   22  C3  UNL     1      -9.819  43.975  19.904  1.00  0.00     0.332 C 
BRANCH  22  23
HETATM   23  N1  UNL     1      -9.662  42.623  19.387  1.00  0.00     0.085 N 
HETATM   24  C1  UNL     1     -10.907  41.934  19.672  1.00  0.00     0.309 C 
HETATM   25  C2  UNL     1      -9.490  42.625  17.949  1.00  0.00     0.309 C 
ENDBRANCH  22  23
ENDBRANCH  15  22
BRANCH  17  26
HETATM   26  O6  UNL     1      -9.194  46.598  20.525  1.00  0.00    -0.354 OA
ATOM     27  H6  UNL     1      -8.676  47.257  20.078  1.00  0.00     0.218 HD
ENDBRANCH  17  26
ENDBRANCH   1  13
BRANCH   4  28
HETATM   28  C8  UNL     1      -5.119  40.760  24.483  1.00  0.00     0.209 C 
BRANCH  28  29
HETATM   29  O1  UNL     1      -5.188  39.959  23.397  1.00  0.00    -0.396 OA
ATOM     30  H1  UNL     1      -5.406  39.039  23.488  1.00  0.00     0.209 HD
ENDBRANCH  28  29
ENDBRANCH   4  28
BRANCH   5  31
HETATM   31  C10 UNL     1      -6.127  39.635  27.162  1.00  0.00     0.375 C 
BRANCH  31  32
HETATM   32  N4  UNL     1      -6.496  38.309  26.796  1.00  0.00    -0.047 N 
ATOM     33  H43 UNL     1      -7.217  38.333  26.075  1.00  0.00     0.277 HD
ATOM     34  H42 UNL     1      -5.738  37.865  26.278  1.00  0.00     0.277 HD
ATOM     35  H41 UNL     1      -6.792  37.710  27.567  1.00  0.00     0.277 HD
ENDBRANCH  31  32
BRANCH  31  36
HETATM   36  O2  UNL     1      -6.399  39.780  28.517  1.00  0.00    -0.365 OA
ATOM     37  H2  UNL     1      -6.922  39.046  28.816  1.00  0.00     0.212 HD
ENDBRANCH  31  36
ENDBRANCH   5  31
BRANCH  12  38
HETATM   38  N10 UNL     1     -10.436  42.623  27.914  1.00  0.00    -0.334 N 
ATOM     39 2H10 UNL     1     -10.096  42.214  28.785  1.00  0.00     0.177 HD
ATOM     40 1H10 UNL     1     -11.416  42.855  28.073  1.00  0.00     0.177 HD
ENDBRANCH  12  38
BRANCH  11  41
HETATM   41  C13 UNL     1     -11.140  44.610  25.786  1.00  0.00     0.183 C 
HETATM   42  N7  UNL     1     -11.697  45.069  27.000  1.00  0.00    -0.077 NA
BRANCH  41  43
HETATM   43  N8  UNL     1     -11.677  45.009  24.675  1.00  0.00    -0.252 N 
ATOM     44  H8  UNL     1     -12.676  44.862  24.529  1.00  0.00     0.195 HD
BRANCH  43  45
HETATM   45  O4  UNL     1     -10.944  45.625  23.691  1.00  0.00    -0.288 OA
ATOM     46  H4  UNL     1     -10.751  46.556  23.712  1.00  0.00     0.244 HD
ENDBRANCH  43  45
ENDBRANCH  41  43
ENDBRANCH  11  41
TORSDOF 13
ENDMDL
MODEL 2
REMARK VINA RESULT: -5.895860610      1.287      2.691
REMARK  13 active torsions:
REMARK  status: ('A' for Active; 'I' for Inactive)
REMARK    1  A    between atoms: N1_2  and  C3_4 
REMARK    2  A    between atoms: C3_4  and  C4_5 
REMARK    3  A    between atoms: C5_8  and  N3_9 
REMARK    4  A    between atoms: C7_12  and  C8_13 
REMARK    5  A    between atoms: C8_13  and  O1_14 
REMARK    6  A    between atoms: C9_16  and  C10_17 
REMARK    7  A    between atoms: C10_17  and  N4_18 
REMARK    8  A    between atoms: C10_17  and  O2_22 
REMARK    9  A    between atoms: C12_29  and  C13_30 
REMARK   10  A    between atoms: C13_30  and  N8_32 
REMARK   11  A    between atoms: N8_32  and  O4_34 
REMARK   12  A    between atoms: N9_36  and  N10_37 
REMARK   13  A    between atoms: C15_44  and  O6_45 
ROOT
HETATM    1  N3  UNL     1      -7.108  41.769  23.484  1.00  0.00    -0.174 N 
ATOM      2  H3  UNL     1      -6.339  41.225  23.095  1.00  0.00     0.186 HD
HETATM    3  C6  UNL     1      -7.384  41.590  24.709  1.00  0.00     0.157 A 
HETATM    4  C7  UNL     1      -6.639  40.664  25.492  1.00  0.00     0.046 A 
HETATM    5  C9  UNL     1      -6.994  40.523  26.792  1.00  0.00     0.124 A 
HETATM    6  O3  UNL     1      -8.000  41.230  27.328  1.00  0.00    -0.276 OA
HETATM    7  C11 UNL     1      -8.662  42.061  26.619  1.00  0.00     0.276 A 
HETATM    8  N5  UNL     1      -8.368  42.246  25.327  1.00  0.00    -0.198 N 
HETATM    9  N6  UNL     1      -9.234  43.173  24.863  1.00  0.00    -0.270 N 
ATOM     10  H6  UNL     1      -9.265  43.530  23.908  1.00  0.00     0.189 HD
HETATM   11  C12 UNL     1     -10.045  43.547  25.861  1.00  0.00     0.189 A 
HETATM   12  N9  UNL     1      -9.712  42.872  26.967  1.00  0.00    -0.202 N 
ENDROOT
BRANCH   1  13
HETATM   13  C5  UNL     1      -7.776  42.656  22.616  1.00  0.00     0.687 A 
HETATM   14  N2  UNL     1      -7.396  43.958  22.543  1.00  0.00    -0.191 N 
HETATM   15  C4  UNL     1      -8.028  44.811  21.725  1.00  0.00     0.093 A 
ATOM     16  H2  UNL     1      -6.620  44.290  23.117  1.00  0.00     0.184 HD
HETATM   17  C15 UNL     1      -9.084  44.347  20.946  1.00  0.00     0.160 A 
HETATM   18  C14 UNL     1      -9.469  43.019  21.021  1.00  0.00     0.294 A 
HETATM   19  N11 UNL     1      -8.803  42.212  21.857  1.00  0.00    -0.153 N 
HETATM   20  O5  UNL     1     -10.419  42.590  20.324  1.00  0.00    -0.265 OA
ATOM     21  H11 UNL     1      -9.078  41.232  21.921  1.00  0.00     0.187 HD
BRANCH  15  22
HETATM   22  C3  UNL     1      -7.667  46.245  21.593  1.00  0.00     0.332 C 
BRANCH  22  23
HETATM   23  N1  UNL     1      -6.300  46.492  22.029  1.00  0.00     0.085 N 
HETATM   24  C1  UNL     1      -5.484  46.476  20.829  1.00  0.00     0.309 C 
HETATM   25  C2  UNL     1      -6.164  47.806  22.623  1.00  0.00     0.309 C 
ENDBRANCH  22  23
ENDBRANCH  15  22
BRANCH  17  26
HETATM   26  O6  UNL     1      -9.750  45.218  20.090  1.00  0.00    -0.354 OA
ATOM     27  H6  UNL     1     -10.595  45.573  20.339  1.00  0.00     0.218 HD
ENDBRANCH  17  26
ENDBRANCH   1  13
BRANCH   4  28
HETATM   28  C8  UNL     1      -5.532  40.039  24.756  1.00  0.00     0.209 C 
BRANCH  28  29
HETATM   29  O1  UNL     1      -5.763  39.012  23.909  1.00  0.00    -0.396 OA
ATOM     30  H1  UNL     1      -5.072  38.688  23.343  1.00  0.00     0.209 HD
ENDBRANCH  28  29
ENDBRANCH   4  28
BRANCH   5  31
HETATM   31  C10 UNL     1      -6.293  39.561  27.697  1.00  0.00     0.375 C 
BRANCH  31  32
HETATM   32  N4  UNL     1      -6.668  38.195  27.544  1.00  0.00    -0.047 N 
ATOM     33  H43 UNL     1      -7.162  38.065  26.662  1.00  0.00     0.277 HD
ATOM     34  H42 UNL     1      -5.841  37.622  27.374  1.00  0.00     0.277 HD
ATOM     35  H41 UNL     1      -7.214  37.804  28.312  1.00  0.00     0.277 HD
ENDBRANCH  31  32
BRANCH  31  36
HETATM   36  O2  UNL     1      -6.533  39.908  29.021  1.00  0.00    -0.365 OA
ATOM     37  H2  UNL     1      -6.061  39.317  29.595  1.00  0.00     0.212 HD
ENDBRANCH  31  36
ENDBRANCH   5  31
BRANCH  12  38
HETATM   38  N10 UNL     1     -10.313  42.968  28.232  1.00  0.00    -0.334 N 
ATOM     39 2H10 UNL     1      -9.899  42.722  29.131  1.00  0.00     0.177 HD
ATOM     40 1H10 UNL     1     -11.257  43.299  28.434  1.00  0.00     0.177 HD
ENDBRANCH  12  38
BRANCH  11  41
HETATM   41  C13 UNL     1     -11.140  44.533  25.816  1.00  0.00     0.183 C 
HETATM   42  N7  UNL     1     -11.724  45.056  26.990  1.00  0.00    -0.077 NA
BRANCH  41  43
HETATM   43  N8  UNL     1     -11.593  44.944  24.672  1.00  0.00    -0.252 N 
ATOM     44  H8  UNL     1     -12.573  44.781  24.441  1.00  0.00     0.195 HD
BRANCH  43  45
HETATM   45  O4  UNL     1     -10.794  45.591  23.761  1.00  0.00    -0.288 OA
ATOM     46  H4  UNL     1     -11.140  46.235  23.153  1.00  0.00     0.244 HD
ENDBRANCH  43  45
ENDBRANCH  41  43
ENDBRANCH  11  41
TORSDOF 13
ENDMDL
MODEL 3
REMARK VINA RESULT: -5.677719838      5.157     10.273
REMARK  13 active torsions:
REMARK  status: ('A' for Active; 'I' for Inactive)
REMARK    1  A    between atoms: N1_2  and  C3_4 
REMARK    2  A    between atoms: C3_4  and  C4_5 
REMARK    3  A    between atoms: C5_8  and  N3_9 
REMARK    4  A    between atoms: C7_12  and  C8_13 
REMARK    5  A    between atoms: C8_13  and  O1_14 
REMARK    6  A    between atoms: C9_16  and  C10_17 
REMARK    7  A    between atoms: C10_17  and  N4_18 
REMARK    8  A    between atoms: C10_17  and  O2_22 
REMARK    9  A    between atoms: C12_29  and  C13_30 
REMARK   10  A    between atoms: C13_30  and  N8_32 
REMARK   11  A    between atoms: N8_32  and  O4_34 
REMARK   12  A    between atoms: N9_36  and  N10_37 
REMARK   13  A    between atoms: C15_44  and  O6_45 
ROOT
HETATM    1  N3  UNL     1      -6.238  38.427  27.686  1.00  0.00    -0.174 N 
ATOM      2  H3  UNL     1      -7.065  38.340  27.097  1.00  0.00     0.186 HD
HETATM    3  C6  UNL     1      -5.524  39.463  27.535  1.00  0.00     0.157 A 
HETATM    4  C7  UNL     1      -5.877  40.454  26.575  1.00  0.00     0.046 A 
HETATM    5  C9  UNL     1      -5.065  41.532  26.467  1.00  0.00     0.124 A 
HETATM    6  O3  UNL     1      -3.973  41.671  27.234  1.00  0.00    -0.276 OA
HETATM    7  C11 UNL     1      -3.664  40.779  28.094  1.00  0.00     0.276 A 
HETATM    8  N5  UNL     1      -4.420  39.686  28.251  1.00  0.00    -0.198 N 
HETATM    9  N6  UNL     1      -3.837  38.949  29.220  1.00  0.00    -0.270 N 
ATOM     10  H6  UNL     1      -4.178  38.053  29.570  1.00  0.00     0.189 HD
HETATM   11  C12 UNL     1      -2.739  39.585  29.649  1.00  0.00     0.189 A 
HETATM   12  N9  UNL     1      -2.606  40.728  28.966  1.00  0.00    -0.202 N 
ENDROOT
BRANCH   1  13
HETATM   13  C5  UNL     1      -5.985  37.385  28.601  1.00  0.00     0.687 A 
HETATM   14  N2  UNL     1      -5.082  36.416  28.301  1.00  0.00    -0.191 N 
HETATM   15  C4  UNL     1      -4.837  35.418  29.162  1.00  0.00     0.093 A 
ATOM     16  H2  UNL     1      -4.585  36.448  27.411  1.00  0.00     0.184 HD
HETATM   17  C15 UNL     1      -5.521  35.385  30.374  1.00  0.00     0.160 A 
HETATM   18  C14 UNL     1      -6.440  36.375  30.678  1.00  0.00     0.294 A 
HETATM   19  N11 UNL     1      -6.645  37.347  29.780  1.00  0.00    -0.153 N 
HETATM   20  O5  UNL     1      -7.062  36.356  31.768  1.00  0.00    -0.265 OA
ATOM     21  H11 UNL     1      -7.320  38.081  29.993  1.00  0.00     0.187 HD
BRANCH  15  22
HETATM   22  C3  UNL     1      -3.866  34.325  28.902  1.00  0.00     0.332 C 
BRANCH  22  23
HETATM   23  N1  UNL     1      -2.493  34.801  28.998  1.00  0.00     0.085 N 
HETATM   24  C1  UNL     1      -1.886  34.067  30.093  1.00  0.00     0.309 C 
HETATM   25  C2  UNL     1      -1.741  34.486  27.801  1.00  0.00     0.309 C 
ENDBRANCH  22  23
ENDBRANCH  15  22
BRANCH  17  26
HETATM   26  O6  UNL     1      -5.279  34.357  31.281  1.00  0.00    -0.354 OA
ATOM     27  H6  UNL     1      -5.018  34.562  32.170  1.00  0.00     0.218 HD
ENDBRANCH  17  26
ENDBRANCH   1  13
BRANCH   4  28
HETATM   28  C8  UNL     1      -7.141  40.167  25.882  1.00  0.00     0.209 C 
BRANCH  28  29
HETATM   29  O1  UNL     1      -7.266  39.065  25.110  1.00  0.00    -0.396 OA
ATOM     30  H1  UNL     1      -8.050  38.924  24.593  1.00  0.00     0.209 HD
ENDBRANCH  28  29
ENDBRANCH   4  28
BRANCH   5  31
HETATM   31  C10 UNL     1      -5.331  42.619  25.475  1.00  0.00     0.375 C 
BRANCH  31  32
HETATM   32  N4  UNL     1      -4.211  43.019  24.692  1.00  0.00    -0.047 N 
ATOM     33  H43 UNL     1      -3.481  43.401  25.293  1.00  0.00     0.277 HD
ATOM     34  H42 UNL     1      -3.730  42.197  24.325  1.00  0.00     0.277 HD
ATOM     35  H41 UNL     1      -4.417  43.670  23.935  1.00  0.00     0.277 HD
ENDBRANCH  31  32
BRANCH  31  36
HETATM   36  O2  UNL     1      -5.794  43.750  26.138  1.00  0.00    -0.365 OA
ATOM     37  H2  UNL     1      -6.382  44.233  25.570  1.00  0.00     0.212 HD
ENDBRANCH  31  36
ENDBRANCH   5  31
BRANCH  12  38
HETATM   38  N10 UNL     1      -1.590  41.686  29.107  1.00  0.00    -0.334 N 
ATOM     39 2H10 UNL     1      -1.618  42.535  29.672  1.00  0.00     0.177 HD
ATOM     40 1H10 UNL     1      -0.672  41.671  28.663  1.00  0.00     0.177 HD
ENDBRANCH  12  38
BRANCH  11  41
HETATM   41  C13 UNL     1      -1.793  39.154  30.695  1.00  0.00     0.183 C 
HETATM   42  N7  UNL     1      -0.436  39.543  30.681  1.00  0.00    -0.077 NA
BRANCH  41  43
HETATM   43  N8  UNL     1      -2.203  38.394  31.662  1.00  0.00    -0.252 N 
ATOM     44  H8  UNL     1      -1.995  38.664  32.624  1.00  0.00     0.195 HD
BRANCH  43  45
HETATM   45  O4  UNL     1      -2.907  37.236  31.434  1.00  0.00    -0.288 OA
ATOM     46  H4  UNL     1      -2.503  36.378  31.497  1.00  0.00     0.244 HD
ENDBRANCH  43  45
ENDBRANCH  41  43
ENDBRANCH  11  41
TORSDOF 13
ENDMDL
MODEL 4
REMARK VINA RESULT: -5.610440442      6.506      9.787
REMARK  13 active torsions:
REMARK  status: ('A' for Active; 'I' for Inactive)
REMARK    1  A    between atoms: N1_2  and  C3_4 
REMARK    2  A    between atoms: C3_4  and  C4_5 
REMARK    3  A    between atoms: C5_8  and  N3_9 
REMARK    4  A    between atoms: C7_12  and  C8_13 
REMARK    5  A    between atoms: C8_13  and  O1_14 
REMARK    6  A    between atoms: C9_16  and  C10_17 
REMARK    7  A    between atoms: C10_17  and  N4_18 
REMARK    8  A    between atoms: C10_17  and  O2_22 
REMARK    9  A    between atoms: C12_29  and  C13_30 
REMARK   10  A    between atoms: C13_30  and  N8_32 
REMARK   11  A    between atoms: N8_32  and  O4_34 
REMARK   12  A    between atoms: N9_36  and  N10_37 
REMARK   13  A    between atoms: C15_44  and  O6_45 
ROOT
HETATM    1  N3  UNL     1      -3.400  40.817  29.872  1.00  0.00    -0.174 N 
ATOM      2  H3  UNL     1      -3.863  40.312  30.627  1.00  0.00     0.186 HD
HETATM    3  C6  UNL     1      -3.794  40.583  28.690  1.00  0.00     0.157 A 
HETATM    4  C7  UNL     1      -4.841  39.650  28.446  1.00  0.00     0.046 A 
HETATM    5  C9  UNL     1      -5.207  39.449  27.157  1.00  0.00     0.124 A 
HETATM    6  O3  UNL     1      -4.616  40.104  26.147  1.00  0.00    -0.276 OA
HETATM    7  C11 UNL     1      -3.679  40.942  26.374  1.00  0.00     0.276 A 
HETATM    8  N5  UNL     1      -3.265  41.185  27.624  1.00  0.00    -0.198 N 
HETATM    9  N6  UNL     1      -2.279  42.103  27.531  1.00  0.00    -0.270 N 
ATOM     10  H6  UNL     1      -1.759  42.495  28.316  1.00  0.00     0.189 HD
HETATM   11  C12 UNL     1      -2.094  42.414  26.241  1.00  0.00     0.189 A 
HETATM   12  N9  UNL     1      -2.952  41.707  25.497  1.00  0.00    -0.202 N 
ENDROOT
BRANCH   1  13
HETATM   13  C5  UNL     1      -2.376  41.716  30.230  1.00  0.00     0.687 A 
HETATM   14  N2  UNL     1      -2.680  42.987  30.601  1.00  0.00    -0.191 N 
HETATM   15  C4  UNL     1      -1.713  43.852  30.938  1.00  0.00     0.093 A 
ATOM     16  H2  UNL     1      -3.655  43.286  30.623  1.00  0.00     0.184 HD
HETATM   17  C15 UNL     1      -0.386  43.432  30.904  1.00  0.00     0.160 A 
HETATM   18  C14 UNL     1      -0.078  42.136  30.526  1.00  0.00     0.294 A 
HETATM   19  N11 UNL     1      -1.085  41.316  30.199  1.00  0.00    -0.153 N 
HETATM   20  O5  UNL     1       1.114  41.747  30.493  1.00  0.00    -0.265 OA
ATOM     21  H11 UNL     1      -0.870  40.359  29.919  1.00  0.00     0.187 HD
BRANCH  15  22
HETATM   22  C3  UNL     1      -1.970  45.254  31.353  1.00  0.00     0.332 C 
BRANCH  22  23
HETATM   23  N1  UNL     1      -2.783  45.311  32.559  1.00  0.00     0.085 N 
HETATM   24  C1  UNL     1      -2.210  46.357  33.385  1.00  0.00     0.309 C 
HETATM   25  C2  UNL     1      -4.146  45.698  32.259  1.00  0.00     0.309 C 
ENDBRANCH  22  23
ENDBRANCH  15  22
BRANCH  17  26
HETATM   26  O6  UNL     1       0.631  44.316  31.252  1.00  0.00    -0.354 OA
ATOM     27  H6  UNL     1       0.731  44.591  32.155  1.00  0.00     0.218 HD
ENDBRANCH  17  26
ENDBRANCH   1  13
BRANCH   4  28
HETATM   28  C8  UNL     1      -5.416  39.087  29.675  1.00  0.00     0.209 C 
BRANCH  28  29
HETATM   29  O1  UNL     1      -6.507  39.647  30.243  1.00  0.00    -0.396 OA
ATOM     30  H1  UNL     1      -6.607  39.659  31.188  1.00  0.00     0.209 HD
ENDBRANCH  28  29
ENDBRANCH   4  28
BRANCH   5  31
HETATM   31  C10 UNL     1      -6.279  38.474  26.788  1.00  0.00     0.375 C 
BRANCH  31  32
HETATM   32  N4  UNL     1      -6.366  38.157  25.403  1.00  0.00    -0.047 N 
ATOM     33  H43 UNL     1      -7.028  38.780  24.942  1.00  0.00     0.277 HD
ATOM     34  H42 UNL     1      -5.504  38.427  24.928  1.00  0.00     0.277 HD
ATOM     35  H41 UNL     1      -6.594  37.186  25.190  1.00  0.00     0.277 HD
ENDBRANCH  31  32
BRANCH  31  36
HETATM   36  O2  UNL     1      -7.516  38.976  27.174  1.00  0.00    -0.365 OA
ATOM     37  H2  UNL     1      -7.934  39.396  26.431  1.00  0.00     0.212 HD
ENDBRANCH  31  36
ENDBRANCH   5  31
BRANCH  12  38
HETATM   38  N10 UNL     1      -3.087  41.736  24.101  1.00  0.00    -0.334 N 
ATOM     39 2H10 UNL     1      -3.655  42.379  23.550  1.00  0.00     0.177 HD
ATOM     40 1H10 UNL     1      -2.632  41.115  23.432  1.00  0.00     0.177 HD
ENDBRANCH  12  38
BRANCH  11  41
HETATM   41  C13 UNL     1      -1.125  43.368  25.670  1.00  0.00     0.183 C 
HETATM   42  N7  UNL     1      -1.136  43.714  24.302  1.00  0.00    -0.077 NA
BRANCH  41  43
HETATM   43  N8  UNL     1      -0.231  43.915  26.433  1.00  0.00    -0.252 N 
ATOM     44  H8  UNL     1       0.739  43.939  26.118  1.00  0.00     0.195 HD
BRANCH  43  45
HETATM   45  O4  UNL     1      -0.547  44.462  27.653  1.00  0.00    -0.288 OA
ATOM     46  H4  UNL     1      -0.420  43.988  28.467  1.00  0.00     0.244 HD
ENDBRANCH  43  45
ENDBRANCH  41  43
ENDBRANCH  11  41
TORSDOF 13
ENDMDL
MODEL 5
REMARK VINA RESULT: -5.559745176      1.408      3.047
REMARK  13 active torsions:
REMARK  status: ('A' for Active; 'I' for Inactive)
REMARK    1  A    between atoms: N1_2  and  C3_4 
REMARK    2  A    between atoms: C3_4  and  C4_5 
REMARK    3  A    between atoms: C5_8  and  N3_9 
REMARK    4  A    between atoms: C7_12  and  C8_13 
REMARK    5  A    between atoms: C8_13  and  O1_14 
REMARK    6  A    between atoms: C9_16  and  C10_17 
REMARK    7  A    between atoms: C10_17  and  N4_18 
REMARK    8  A    between atoms: C10_17  and  O2_22 
REMARK    9  A    between atoms: C12_29  and  C13_30 
REMARK   10  A    between atoms: C13_30  and  N8_32 
REMARK   11  A    between atoms: N8_32  and  O4_34 
REMARK   12  A    between atoms: N9_36  and  N10_37 
REMARK   13  A    between atoms: C15_44  and  O6_45 
ROOT
HETATM    1  N3  UNL     1      -6.437  42.674  23.812  1.00  0.00    -0.174 N 
ATOM      2  H3  UNL     1      -5.567  42.275  23.462  1.00  0.00     0.186 HD
HETATM    3  C6  UNL     1      -6.906  42.193  24.888  1.00  0.00     0.157 A 
HETATM    4  C7  UNL     1      -6.231  41.137  25.564  1.00  0.00     0.046 A 
HETATM    5  C9  UNL     1      -6.793  40.671  26.705  1.00  0.00     0.124 A 
HETATM    6  O3  UNL     1      -7.935  41.183  27.188  1.00  0.00    -0.276 OA
HETATM    7  C11 UNL     1      -8.533  42.132  26.577  1.00  0.00     0.276 A 
HETATM    8  N5  UNL     1      -8.035  42.637  25.441  1.00  0.00    -0.198 N 
HETATM    9  N6  UNL     1      -8.884  43.610  25.048  1.00  0.00    -0.270 N 
ATOM     10  H6  UNL     1      -8.780  44.186  24.213  1.00  0.00     0.189 HD
HETATM   11  C12 UNL     1      -9.887  43.696  25.933  1.00  0.00     0.189 A 
HETATM   12  N9  UNL     1      -9.694  42.788  26.896  1.00  0.00    -0.202 N 
ENDROOT
BRANCH   1  13
HETATM   13  C5  UNL     1      -7.019  43.716  23.061  1.00  0.00     0.687 A 
HETATM   14  N2  UNL     1      -6.551  44.985  23.176  1.00  0.00    -0.191 N 
HETATM   15  C4  UNL     1      -7.100  45.984  22.470  1.00  0.00     0.093 A 
ATOM     16  H2  UNL     1      -5.773  45.181  23.807  1.00  0.00     0.184 HD
HETATM   17  C15 UNL     1      -8.160  45.705  21.612  1.00  0.00     0.160 A 
HETATM   18  C14 UNL     1      -8.635  44.410  21.496  1.00  0.00     0.294 A 
HETATM   19  N11 UNL     1      -8.049  43.452  22.226  1.00  0.00    -0.153 N 
HETATM   20  O5  UNL     1      -9.589  44.146  20.726  1.00  0.00    -0.265 OA
ATOM     21  H11 UNL     1      -8.390  42.494  22.149  1.00  0.00     0.187 HD
BRANCH  15  22
HETATM   22  C3  UNL     1      -6.641  47.394  22.544  1.00  0.00     0.332 C 
BRANCH  22  23
HETATM   23  N1  UNL     1      -5.191  47.477  22.645  1.00  0.00     0.085 N 
HETATM   24  C1  UNL     1      -4.706  47.735  21.302  1.00  0.00     0.309 C 
HETATM   25  C2  UNL     1      -4.783  48.595  23.471  1.00  0.00     0.309 C 
ENDBRANCH  22  23
ENDBRANCH  15  22
BRANCH  17  26
HETATM   26  O6  UNL     1      -8.741  46.729  20.871  1.00  0.00    -0.354 OA
ATOM     27  H6  UNL     1      -8.200  47.279  20.318  1.00  0.00     0.218 HD
ENDBRANCH  17  26
ENDBRANCH   1  13
BRANCH   4  28
HETATM   28  C8  UNL     1      -4.962  40.757  24.928  1.00  0.00     0.209 C 
BRANCH  28  29
HETATM   29  O1  UNL     1      -3.870  41.542  25.051  1.00  0.00    -0.396 OA
ATOM     30  H1  UNL     1      -3.179  41.317  25.663  1.00  0.00     0.209 HD
ENDBRANCH  28  29
ENDBRANCH   4  28
BRANCH   5  31
HETATM   31  C10 UNL     1      -6.179  39.549  27.480  1.00  0.00     0.375 C 
BRANCH  31  32
HETATM   32  N4  UNL     1      -6.602  38.243  27.103  1.00  0.00    -0.047 N 
ATOM     33  H43 UNL     1      -7.620  38.186  27.121  1.00  0.00     0.277 HD
ATOM     34  H42 UNL     1      -6.431  38.094  26.108  1.00  0.00     0.277 HD
ATOM     35  H41 UNL     1      -6.200  37.479  27.645  1.00  0.00     0.277 HD
ENDBRANCH  31  32
BRANCH  31  36
HETATM   36  O2  UNL     1      -6.472  39.702  28.830  1.00  0.00    -0.365 OA
ATOM     37  H2  UNL     1      -6.182  38.935  29.308  1.00  0.00     0.212 HD
ENDBRANCH  31  36
ENDBRANCH   5  31
BRANCH  12  38
HETATM   38  N10 UNL     1     -10.512  42.549  28.011  1.00  0.00    -0.334 N 
ATOM     39 2H10 UNL     1     -11.457  42.900  28.168  1.00  0.00     0.177 HD
ATOM     40 1H10 UNL     1     -10.278  41.987  28.829  1.00  0.00     0.177 HD
ENDBRANCH  12  38
BRANCH  11  41
HETATM   41  C13 UNL     1     -11.039  44.616  25.908  1.00  0.00     0.183 C 
HETATM   42  N7  UNL     1     -11.714  44.999  27.087  1.00  0.00    -0.077 NA
BRANCH  41  43
HETATM   43  N8  UNL     1     -11.457  45.098  24.779  1.00  0.00    -0.252 N 
ATOM     44  H8  UNL     1     -12.024  45.946  24.783  1.00  0.00     0.195 HD
BRANCH  43  45
HETATM   45  O4  UNL     1     -11.162  44.502  23.577  1.00  0.00    -0.288 OA
ATOM     46  H4  UNL     1     -11.247  44.963  22.750  1.00  0.00     0.244 HD
ENDBRANCH  43  45
ENDBRANCH  41  43
ENDBRANCH  11  41
TORSDOF 13
ENDMDL
