MODEL 1
REMARK VINA RESULT: -7.382708127      0.000      0.000
REMARK  12 active torsions:
REMARK  status: ('A' for Active; 'I' for Inactive)
REMARK    1  A    between atoms: O1_2  and  C2_3 
REMARK    2  A    between atoms: C2_3  and  C3_5 
REMARK    3  A    between atoms: C6_14  and  N4_15 
REMARK    4  A    between atoms: N5_17  and  N6_19 
REMARK    5  A    between atoms: N6_19  and  C7_21 
REMARK    6  A    between atoms: C7_21  and  N7_22 
REMARK    7  A    between atoms: C7_21  and  C8_26 
REMARK    8  A    between atoms: C11_29  and  N8_30 
REMARK    9  A    between atoms: C13_38  and  O3_39 
REMARK   10  A    between atoms: C15_45  and  O5_46 
REMARK   11  A    between atoms: C15_45  and  C16_48 
REMARK   12  A    between atoms: C16_48  and  O6_49 
ROOT
HETATM    1  C3  UNL     1      -4.506  36.360  29.803  1.00  0.00     0.229 C 
HETATM    2  N1  UNL     1      -3.590  37.445  29.833  1.00  0.00    -0.357 N 
ATOM      3  H1  UNL     1      -2.667  37.225  30.209  1.00  0.00     0.162 HD
HETATM    4  C4  UNL     1      -3.754  38.673  29.455  1.00  0.00     0.137 C 
HETATM    5  C5  UNL     1      -2.624  39.552  29.612  1.00  0.00     0.144 A 
HETATM    6  N2  UNL     1      -1.448  39.059  30.138  1.00  0.00    -0.279 N 
ATOM      7  H2  UNL     1      -1.403  38.075  30.403  1.00  0.00     0.188 HD
HETATM    8  N3  UNL     1      -0.394  39.805  30.308  1.00  0.00    -0.130 N 
ATOM      9  H3  UNL     1       0.440  39.369  30.702  1.00  0.00     0.205 HD
HETATM   10  C6  UNL     1      -0.333  41.114  29.998  1.00  0.00     0.714 A 
HETATM   11  N10 UNL     1      -1.452  41.639  29.483  1.00  0.00    -0.165 N 
ATOM     12  H10 UNL     1      -1.469  42.626  29.226  1.00  0.00     0.186 HD
HETATM   13  C13 UNL     1      -2.583  40.872  29.293  1.00  0.00     0.187 A 
HETATM   14  N11 UNL     1      -5.024  38.976  28.929  1.00  0.00    -0.309 N 
ATOM     15  H11 UNL     1      -5.226  39.923  28.610  1.00  0.00     0.170 HD
HETATM   16  C14 UNL     1      -6.043  37.952  28.837  1.00  0.00     0.262 C 
HETATM   17  O4  UNL     1      -6.914  38.048  27.961  1.00  0.00    -0.270 OA
HETATM   18  C15 UNL     1      -5.939  36.859  29.829  1.00  0.00     0.189 C 
ENDROOT
BRANCH  10  19
HETATM   19  N4  UNL     1       0.858  41.830  30.203  1.00  0.00    -0.116 N 
HETATM   20  N5  UNL     1       1.151  42.825  30.815  1.00  0.00    -0.231 N 
ATOM     21  H5  UNL     1       2.136  43.080  30.752  1.00  0.00     0.208 HD
ATOM     22  H4  UNL     1       1.656  41.413  29.725  1.00  0.00     0.207 HD
BRANCH  20  23
HETATM   23  N6  UNL     1       0.404  43.667  31.575  1.00  0.00    -0.287 N 
ATOM     24  H6  UNL     1       0.059  43.279  32.452  1.00  0.00     0.184 HD
BRANCH  23  25
HETATM   25  C7  UNL     1       0.034  45.033  31.312  1.00  0.00     0.332 C 
BRANCH  25  26
HETATM   26  N7  UNL     1       0.323  45.335  29.915  1.00  0.00    -0.053 N 
ATOM     27  H73 UNL     1      -0.426  45.040  29.289  1.00  0.00     0.277 HD
ATOM     28  H72 UNL     1       0.287  46.335  29.717  1.00  0.00     0.277 HD
ATOM     29  H71 UNL     1       1.222  44.919  29.670  1.00  0.00     0.277 HD
ENDBRANCH  25  26
BRANCH  25  30
HETATM   30  C8  UNL     1      -1.387  45.254  31.637  1.00  0.00     0.008 A 
HETATM   31  C9  UNL     1      -1.750  46.265  32.490  1.00  0.00     0.016 A 
HETATM   32  C10 UNL     1      -3.100  46.490  32.806  1.00  0.00     0.049 A 
HETATM   33  C11 UNL     1      -4.042  45.642  32.215  1.00  0.00     0.098 A 
HETATM   34  N9  UNL     1      -3.683  44.652  31.378  1.00  0.00    -0.352 N 
HETATM   35  C12 UNL     1      -2.357  44.458  31.089  1.00  0.00     0.100 A 
ATOM     36  H9  UNL     1      -4.393  44.049  30.961  1.00  0.00     0.166 HD
BRANCH  33  37
HETATM   37  N8  UNL     1      -5.272  45.866  32.523  1.00  0.00    -0.385 N 
ATOM     38  H82 UNL     1      -6.040  45.638  31.891  1.00  0.00     0.157 HD
ATOM     39  H81 UNL     1      -5.434  46.284  33.440  1.00  0.00     0.157 HD
ENDBRANCH  33  37
ENDBRANCH  25  30
ENDBRANCH  23  25
ENDBRANCH  20  23
ENDBRANCH  10  19
BRANCH  13  40
HETATM   40  O3  UNL     1      -3.707  41.485  28.755  1.00  0.00    -0.344 OA
ATOM     41  H3  UNL     1      -4.149  42.170  29.244  1.00  0.00     0.219 HD
ENDBRANCH  13  40
BRANCH   1  42
HETATM   42  C2  UNL     1      -4.210  35.379  28.756  1.00  0.00     0.285 C 
HETATM   43  O2  UNL     1      -4.068  35.830  27.575  1.00  0.00    -0.263 OA
BRANCH  42  44
HETATM   44  O1  UNL     1      -4.098  34.055  29.062  1.00  0.00    -0.325 OA
HETATM   45  C1  UNL     1      -3.290  33.615  30.108  1.00  0.00     0.213 C 
ENDBRANCH  42  44
ENDBRANCH   1  42
BRANCH  18  46
HETATM   46  O5  UNL     1      -6.084  37.438  31.105  1.00  0.00    -0.376 OA
ATOM     47  H5  UNL     1      -5.677  36.814  31.695  1.00  0.00     0.211 HD
ENDBRANCH  18  46
BRANCH  18  48
HETATM   48  C16 UNL     1      -6.963  35.794  29.628  1.00  0.00     0.214 C 
BRANCH  48  49
HETATM   49  O6  UNL     1      -8.190  36.338  30.084  1.00  0.00    -0.397 OA
ATOM     50  H6  UNL     1      -8.277  37.184  29.660  1.00  0.00     0.209 HD
ENDBRANCH  48  49
ENDBRANCH  18  48
TORSDOF 12
ENDMDL
MODEL 2
REMARK VINA RESULT: -7.279842277      4.706      8.685
REMARK  12 active torsions:
REMARK  status: ('A' for Active; 'I' for Inactive)
REMARK    1  A    between atoms: O1_2  and  C2_3 
REMARK    2  A    between atoms: C2_3  and  C3_5 
REMARK    3  A    between atoms: C6_14  and  N4_15 
REMARK    4  A    between atoms: N5_17  and  N6_19 
REMARK    5  A    between atoms: N6_19  and  C7_21 
REMARK    6  A    between atoms: C7_21  and  N7_22 
REMARK    7  A    between atoms: C7_21  and  C8_26 
REMARK    8  A    between atoms: C11_29  and  N8_30 
REMARK    9  A    between atoms: C13_38  and  O3_39 
REMARK   10  A    between atoms: C15_45  and  O5_46 
REMARK   11  A    between atoms: C15_45  and  C16_48 
REMARK   12  A    between atoms: C16_48  and  O6_49 
ROOT
HETATM    1  C3  UNL     1      -1.145  43.176  30.689  1.00  0.00     0.229 C 
HETATM    2  N1  UNL     1      -2.028  42.442  29.854  1.00  0.00    -0.357 N 
ATOM      3  H1  UNL     1      -2.854  42.065  30.319  1.00  0.00     0.162 HD
HETATM    4  C4  UNL     1      -1.939  42.181  28.589  1.00  0.00     0.137 C 
HETATM    5  C5  UNL     1      -3.007  41.403  28.015  1.00  0.00     0.144 A 
HETATM    6  N2  UNL     1      -4.050  40.988  28.814  1.00  0.00    -0.279 N 
ATOM      7  H2  UNL     1      -4.045  41.246  29.802  1.00  0.00     0.188 HD
HETATM    8  N3  UNL     1      -5.042  40.280  28.355  1.00  0.00    -0.130 N 
ATOM      9  H3  UNL     1      -5.779  40.011  29.008  1.00  0.00     0.205 HD
HETATM   10  C6  UNL     1      -5.159  39.879  27.075  1.00  0.00     0.714 A 
HETATM   11  N10 UNL     1      -4.169  40.259  26.258  1.00  0.00    -0.165 N 
ATOM     12  H10 UNL     1      -4.200  39.988  25.275  1.00  0.00     0.186 HD
HETATM   13  C13 UNL     1      -3.106  41.009  26.718  1.00  0.00     0.187 A 
HETATM   14  N11 UNL     1      -0.805  42.709  27.943  1.00  0.00    -0.309 N 
ATOM     15  H11 UNL     1      -0.668  42.544  26.946  1.00  0.00     0.170 HD
HETATM   16  C14 UNL     1       0.167  43.483  28.685  1.00  0.00     0.262 C 
HETATM   17  O4  UNL     1       0.838  44.337  28.088  1.00  0.00    -0.270 OA
HETATM   18  C15 UNL     1       0.266  43.168  30.128  1.00  0.00     0.189 C 
ENDROOT
BRANCH  10  19
HETATM   19  N4  UNL     1      -6.277  39.130  26.672  1.00  0.00    -0.116 N 
HETATM   20  N5  UNL     1      -7.439  39.382  26.483  1.00  0.00    -0.231 N 
ATOM     21  H5  UNL     1      -7.998  38.581  26.187  1.00  0.00     0.208 HD
ATOM     22  H4  UNL     1      -6.053  38.150  26.499  1.00  0.00     0.207 HD
BRANCH  20  23
HETATM   23  N6  UNL     1      -8.140  40.540  26.594  1.00  0.00    -0.287 N 
ATOM     24  H6  UNL     1      -8.955  40.504  27.206  1.00  0.00     0.184 HD
BRANCH  23  25
HETATM   25  C7  UNL     1      -7.889  41.811  25.967  1.00  0.00     0.332 C 
BRANCH  25  26
HETATM   26  N7  UNL     1      -7.561  41.583  24.565  1.00  0.00    -0.053 N 
ATOM     27  H73 UNL     1      -6.582  41.778  24.357  1.00  0.00     0.277 HD
ATOM     28  H72 UNL     1      -7.563  40.593  24.319  1.00  0.00     0.277 HD
ATOM     29  H71 UNL     1      -8.199  42.130  23.986  1.00  0.00     0.277 HD
ENDBRANCH  25  26
BRANCH  25  30
HETATM   30  C8  UNL     1      -9.055  42.700  26.118  1.00  0.00     0.008 A 
HETATM   31  C9  UNL     1      -9.486  43.460  25.060  1.00  0.00     0.016 A 
HETATM   32  C10 UNL     1     -10.597  44.308  25.189  1.00  0.00     0.049 A 
HETATM   33  C11 UNL     1     -11.233  44.340  26.435  1.00  0.00     0.098 A 
HETATM   34  N9  UNL     1     -10.808  43.594  27.471  1.00  0.00    -0.352 N 
HETATM   35  C12 UNL     1      -9.721  42.775  27.313  1.00  0.00     0.100 A 
ATOM     36  H9  UNL     1     -11.292  43.638  28.367  1.00  0.00     0.166 HD
BRANCH  33  37
HETATM   37  N8  UNL     1     -12.247  45.129  26.529  1.00  0.00    -0.385 N 
ATOM     38  H82 UNL     1     -12.498  45.781  25.786  1.00  0.00     0.157 HD
ATOM     39  H81 UNL     1     -12.786  45.061  27.393  1.00  0.00     0.157 HD
ENDBRANCH  33  37
ENDBRANCH  25  30
ENDBRANCH  23  25
ENDBRANCH  20  23
ENDBRANCH  10  19
BRANCH  13  40
HETATM   40  O3  UNL     1      -2.115  41.364  25.813  1.00  0.00    -0.344 OA
ATOM     41  H3  UNL     1      -1.866  42.277  25.720  1.00  0.00     0.219 HD
ENDBRANCH  13  40
BRANCH   1  42
HETATM   42  C2  UNL     1      -1.657  44.499  31.058  1.00  0.00     0.285 C 
HETATM   43  O2  UNL     1      -2.843  44.775  30.688  1.00  0.00    -0.263 OA
BRANCH  42  44
HETATM   44  O1  UNL     1      -0.879  45.369  31.762  1.00  0.00    -0.325 OA
HETATM   45  C1  UNL     1      -1.438  46.353  32.574  1.00  0.00     0.213 C 
ENDBRANCH  42  44
ENDBRANCH   1  42
BRANCH  18  46
HETATM   46  O5  UNL     1       0.676  41.824  30.234  1.00  0.00    -0.376 OA
ATOM     47  H5  UNL     1       1.393  41.845  30.857  1.00  0.00     0.211 HD
ENDBRANCH  18  46
BRANCH  18  48
HETATM   48  C16 UNL     1       1.219  44.056  30.851  1.00  0.00     0.214 C 
BRANCH  48  49
HETATM   49  O6  UNL     1       1.573  43.369  32.040  1.00  0.00    -0.397 OA
ATOM     50  H6  UNL     1       1.832  42.495  31.772  1.00  0.00     0.209 HD
ENDBRANCH  48  49
ENDBRANCH  18  48
TORSDOF 12
ENDMDL
MODEL 3
REMARK VINA RESULT: -7.237484100      4.689      6.559
REMARK  12 active torsions:
REMARK  status: ('A' for Active; 'I' for Inactive)
REMARK    1  A    between atoms: O1_2  and  C2_3 
REMARK    2  A    between atoms: C2_3  and  C3_5 
REMARK    3  A    between atoms: C6_14  and  N4_15 
REMARK    4  A    between atoms: N5_17  and  N6_19 
REMARK    5  A    between atoms: N6_19  and  C7_21 
REMARK    6  A    between atoms: C7_21  and  N7_22 
REMARK    7  A    between atoms: C7_21  and  C8_26 
REMARK    8  A    between atoms: C11_29  and  N8_30 
REMARK    9  A    between atoms: C13_38  and  O3_39 
REMARK   10  A    between atoms: C15_45  and  O5_46 
REMARK   11  A    between atoms: C15_45  and  C16_48 
REMARK   12  A    between atoms: C16_48  and  O6_49 
ROOT
HETATM    1  C3  UNL     1      -3.588  36.050  29.067  1.00  0.00     0.229 C 
HETATM    2  N1  UNL     1      -3.707  37.324  28.451  1.00  0.00    -0.357 N 
ATOM      3  H1  UNL     1      -4.151  37.323  27.533  1.00  0.00     0.162 HD
HETATM    4  C4  UNL     1      -3.333  38.486  28.883  1.00  0.00     0.137 C 
HETATM    5  C5  UNL     1      -3.595  39.609  28.019  1.00  0.00     0.144 A 
HETATM    6  N2  UNL     1      -4.219  39.403  26.808  1.00  0.00    -0.279 N 
ATOM      7  H2  UNL     1      -4.488  38.453  26.549  1.00  0.00     0.188 HD
HETATM    8  N3  UNL     1      -4.479  40.376  25.982  1.00  0.00    -0.130 N 
ATOM      9  H3  UNL     1      -4.944  40.146  25.104  1.00  0.00     0.205 HD
HETATM   10  C6  UNL     1      -4.173  41.667  26.212  1.00  0.00     0.714 A 
HETATM   11  N10 UNL     1      -3.564  41.918  27.377  1.00  0.00    -0.165 N 
ATOM     12  H10 UNL     1      -3.308  42.878  27.611  1.00  0.00     0.186 HD
HETATM   13  C13 UNL     1      -3.277  40.906  28.270  1.00  0.00     0.187 A 
HETATM   14  N11 UNL     1      -2.728  38.490  30.153  1.00  0.00    -0.309 N 
ATOM     15  H11 UNL     1      -2.408  39.370  30.559  1.00  0.00     0.170 HD
HETATM   16  C14 UNL     1      -2.556  37.255  30.888  1.00  0.00     0.262 C 
HETATM   17  O4  UNL     1      -2.518  37.292  32.126  1.00  0.00    -0.270 OA
HETATM   18  C15 UNL     1      -2.440  36.033  30.061  1.00  0.00     0.189 C 
ENDROOT
BRANCH  10  19
HETATM   19  N4  UNL     1      -4.510  42.649  25.265  1.00  0.00    -0.116 N 
HETATM   20  N5  UNL     1      -5.504  43.282  25.022  1.00  0.00    -0.231 N 
ATOM     21  H5  UNL     1      -5.406  43.932  24.242  1.00  0.00     0.208 HD
ATOM     22  H4  UNL     1      -3.735  42.878  24.642  1.00  0.00     0.207 HD
BRANCH  20  23
HETATM   23  N6  UNL     1      -6.733  43.286  25.599  1.00  0.00    -0.287 N 
ATOM     24  H6  UNL     1      -6.856  43.944  26.368  1.00  0.00     0.184 HD
BRANCH  23  25
HETATM   25  C7  UNL     1      -7.886  42.488  25.275  1.00  0.00     0.332 C 
BRANCH  25  26
HETATM   26  N7  UNL     1      -7.778  41.207  25.962  1.00  0.00    -0.053 N 
ATOM     27  H73 UNL     1      -7.032  40.624  25.584  1.00  0.00     0.277 HD
ATOM     28  H72 UNL     1      -7.414  41.304  26.911  1.00  0.00     0.277 HD
ATOM     29  H71 UNL     1      -8.686  40.744  25.937  1.00  0.00     0.277 HD
ENDBRANCH  25  26
BRANCH  25  30
HETATM   30  C8  UNL     1      -9.126  43.200  25.636  1.00  0.00     0.008 A 
HETATM   31  C9  UNL     1      -9.713  44.061  24.744  1.00  0.00     0.016 A 
HETATM   32  C10 UNL     1     -10.895  44.743  25.074  1.00  0.00     0.049 A 
HETATM   33  C11 UNL     1     -11.435  44.504  26.341  1.00  0.00     0.098 A 
HETATM   34  N9  UNL     1     -10.857  43.659  27.215  1.00  0.00    -0.352 N 
HETATM   35  C12 UNL     1      -9.704  43.008  26.863  1.00  0.00     0.100 A 
ATOM     36  H9  UNL     1     -11.274  43.505  28.133  1.00  0.00     0.166 HD
BRANCH  33  37
HETATM   37  N8  UNL     1     -12.517  45.144  26.622  1.00  0.00    -0.385 N 
ATOM     38  H82 UNL     1     -13.089  45.585  25.901  1.00  0.00     0.157 HD
ATOM     39  H81 UNL     1     -12.770  45.183  27.610  1.00  0.00     0.157 HD
ENDBRANCH  33  37
ENDBRANCH  25  30
ENDBRANCH  23  25
ENDBRANCH  20  23
ENDBRANCH  10  19
BRANCH  13  40
HETATM   40  O3  UNL     1      -2.643  41.242  29.459  1.00  0.00    -0.344 OA
ATOM     41  H3  UNL     1      -3.015  41.915  30.018  1.00  0.00     0.219 HD
ENDBRANCH  13  40
BRANCH   1  42
HETATM   42  C2  UNL     1      -4.859  35.531  29.579  1.00  0.00     0.285 C 
HETATM   43  O2  UNL     1      -5.171  34.346  29.236  1.00  0.00    -0.263 OA
BRANCH  42  44
HETATM   44  O1  UNL     1      -5.646  36.302  30.382  1.00  0.00    -0.325 OA
HETATM   45  C1  UNL     1      -6.963  36.602  30.041  1.00  0.00     0.213 C 
ENDBRANCH  42  44
ENDBRANCH   1  42
BRANCH  18  46
HETATM   46  O5  UNL     1      -1.287  36.175  29.265  1.00  0.00    -0.376 OA
ATOM     47  H5  UNL     1      -1.231  37.108  29.096  1.00  0.00     0.211 HD
ENDBRANCH  18  46
BRANCH  18  48
HETATM   48  C16 UNL     1      -2.353  34.788  30.876  1.00  0.00     0.214 C 
BRANCH  48  49
HETATM   49  O6  UNL     1      -1.099  34.836  31.535  1.00  0.00    -0.397 OA
ATOM     50  H6  UNL     1      -0.501  34.328  31.000  1.00  0.00     0.209 HD
ENDBRANCH  48  49
ENDBRANCH  18  48
TORSDOF 12
ENDMDL
MODEL 4
REMARK VINA RESULT: -7.034243307      4.925      8.739
REMARK  12 active torsions:
REMARK  status: ('A' for Active; 'I' for Inactive)
REMARK    1  A    between atoms: O1_2  and  C2_3 
REMARK    2  A    between atoms: C2_3  and  C3_5 
REMARK    3  A    between atoms: C6_14  and  N4_15 
REMARK    4  A    between atoms: N5_17  and  N6_19 
REMARK    5  A    between atoms: N6_19  and  C7_21 
REMARK    6  A    between atoms: C7_21  and  N7_22 
REMARK    7  A    between atoms: C7_21  and  C8_26 
REMARK    8  A    between atoms: C11_29  and  N8_30 
REMARK    9  A    between atoms: C13_38  and  O3_39 
REMARK   10  A    between atoms: C15_45  and  O5_46 
REMARK   11  A    between atoms: C15_45  and  C16_48 
REMARK   12  A    between atoms: C16_48  and  O6_49 
ROOT
HETATM    1  C3  UNL     1      -0.329  43.801  28.140  1.00  0.00     0.229 C 
HETATM    2  N1  UNL     1      -1.428  42.916  27.979  1.00  0.00    -0.357 N 
ATOM      3  H1  UNL     1      -1.916  42.987  27.086  1.00  0.00     0.162 HD
HETATM    4  C4  UNL     1      -1.901  42.032  28.798  1.00  0.00     0.137 C 
HETATM    5  C5  UNL     1      -3.040  41.276  28.343  1.00  0.00     0.144 A 
HETATM    6  N2  UNL     1      -3.557  41.516  27.088  1.00  0.00    -0.279 N 
ATOM      7  H2  UNL     1      -3.116  42.227  26.503  1.00  0.00     0.188 HD
HETATM    8  N3  UNL     1      -4.587  40.869  26.622  1.00  0.00    -0.130 N 
ATOM      9  H3  UNL     1      -4.911  41.101  25.684  1.00  0.00     0.205 HD
HETATM   10  C6  UNL     1      -5.251  39.913  27.299  1.00  0.00     0.714 A 
HETATM   11  N10 UNL     1      -4.786  39.644  28.525  1.00  0.00    -0.165 N 
ATOM     12  H10 UNL     1      -5.245  38.928  29.088  1.00  0.00     0.186 HD
HETATM   13  C13 UNL     1      -3.697  40.315  29.043  1.00  0.00     0.187 A 
HETATM   14  N11 UNL     1      -1.224  41.926  30.027  1.00  0.00    -0.309 N 
ATOM     15  H11 UNL     1      -1.540  41.251  30.723  1.00  0.00     0.170 HD
HETATM   16  C14 UNL     1      -0.081  42.768  30.310  1.00  0.00     0.262 C 
HETATM   17  O4  UNL     1       0.788  42.361  31.094  1.00  0.00    -0.270 OA
HETATM   18  C15 UNL     1      -0.063  44.073  29.610  1.00  0.00     0.189 C 
ENDROOT
BRANCH  10  19
HETATM   19  N4  UNL     1      -6.342  39.259  26.703  1.00  0.00    -0.116 N 
HETATM   20  N5  UNL     1      -7.470  39.577  26.427  1.00  0.00    -0.231 N 
ATOM     21  H5  UNL     1      -8.018  38.837  25.988  1.00  0.00     0.208 HD
ATOM     22  H4  UNL     1      -6.130  38.295  26.445  1.00  0.00     0.207 HD
BRANCH  20  23
HETATM   23  N6  UNL     1      -8.144  40.744  26.597  1.00  0.00    -0.287 N 
ATOM     24  H6  UNL     1      -8.878  40.729  27.305  1.00  0.00     0.184 HD
BRANCH  23  25
HETATM   25  C7  UNL     1      -7.964  41.998  25.914  1.00  0.00     0.332 C 
BRANCH  25  26
HETATM   26  N7  UNL     1      -7.693  41.730  24.507  1.00  0.00    -0.053 N 
ATOM     27  H73 UNL     1      -7.310  40.797  24.354  1.00  0.00     0.277 HD
ATOM     28  H72 UNL     1      -8.547  41.623  23.959  1.00  0.00     0.277 HD
ATOM     29  H71 UNL     1      -7.086  42.465  24.145  1.00  0.00     0.277 HD
ENDBRANCH  25  26
BRANCH  25  30
HETATM   30  C8  UNL     1      -9.150  42.856  26.089  1.00  0.00     0.008 A 
HETATM   31  C9  UNL     1      -9.609  43.620  25.047  1.00  0.00     0.016 A 
HETATM   32  C10 UNL     1     -10.739  44.439  25.198  1.00  0.00     0.049 A 
HETATM   33  C11 UNL     1     -11.364  44.437  26.450  1.00  0.00     0.098 A 
HETATM   34  N9  UNL     1     -10.911  43.687  27.471  1.00  0.00    -0.352 N 
HETATM   35  C12 UNL     1      -9.806  42.897  27.291  1.00  0.00     0.100 A 
ATOM     36  H9  UNL     1     -11.388  43.705  28.373  1.00  0.00     0.166 HD
BRANCH  33  37
HETATM   37  N8  UNL     1     -12.396  45.199  26.565  1.00  0.00    -0.385 N 
ATOM     38  H82 UNL     1     -12.369  46.189  26.321  1.00  0.00     0.157 HD
ATOM     39  H81 UNL     1     -13.244  44.752  26.915  1.00  0.00     0.157 HD
ENDBRANCH  33  37
ENDBRANCH  25  30
ENDBRANCH  23  25
ENDBRANCH  20  23
ENDBRANCH  10  19
BRANCH  13  40
HETATM   40  O3  UNL     1      -3.272  39.982  30.323  1.00  0.00    -0.344 OA
ATOM     41  H3  UNL     1      -3.368  39.090  30.635  1.00  0.00     0.219 HD
ENDBRANCH  13  40
BRANCH   1  42
HETATM   42  C2  UNL     1       0.849  43.414  27.358  1.00  0.00     0.285 C 
HETATM   43  O2  UNL     1       1.311  42.247  27.563  1.00  0.00    -0.263 OA
BRANCH  42  44
HETATM   44  O1  UNL     1       1.399  44.283  26.463  1.00  0.00    -0.325 OA
HETATM   45  C1  UNL     1       0.702  45.401  26.010  1.00  0.00     0.213 C 
ENDBRANCH  42  44
ENDBRANCH   1  42
BRANCH  18  46
HETATM   46  O5  UNL     1      -1.194  44.794  30.042  1.00  0.00    -0.376 OA
ATOM     47  H5  UNL     1      -1.752  44.138  30.441  1.00  0.00     0.211 HD
ENDBRANCH  18  46
BRANCH  18  48
HETATM   48  C16 UNL     1       1.178  44.855  29.874  1.00  0.00     0.214 C 
BRANCH  48  49
HETATM   49  O6  UNL     1       0.964  45.531  31.101  1.00  0.00    -0.397 OA
ATOM     50  H6  UNL     1       1.823  45.788  31.414  1.00  0.00     0.209 HD
ENDBRANCH  48  49
ENDBRANCH  18  48
TORSDOF 12
ENDMDL
MODEL 5
REMARK VINA RESULT: -7.026580463      3.033      4.572
REMARK  12 active torsions:
REMARK  status: ('A' for Active; 'I' for Inactive)
REMARK    1  A    between atoms: O1_2  and  C2_3 
REMARK    2  A    between atoms: C2_3  and  C3_5 
REMARK    3  A    between atoms: C6_14  and  N4_15 
REMARK    4  A    between atoms: N5_17  and  N6_19 
REMARK    5  A    between atoms: N6_19  and  C7_21 
REMARK    6  A    between atoms: C7_21  and  N7_22 
REMARK    7  A    between atoms: C7_21  and  C8_26 
REMARK    8  A    between atoms: C11_29  and  N8_30 
REMARK    9  A    between atoms: C13_38  and  O3_39 
REMARK   10  A    between atoms: C15_45  and  O5_46 
REMARK   11  A    between atoms: C15_45  and  C16_48 
REMARK   12  A    between atoms: C16_48  and  O6_49 
ROOT
HETATM    1  C3  UNL     1      -4.662  41.516  25.411  1.00  0.00     0.229 C 
HETATM    2  N1  UNL     1      -3.670  41.600  26.424  1.00  0.00    -0.357 N 
ATOM      3  H1  UNL     1      -2.836  42.131  26.173  1.00  0.00     0.162 HD
HETATM    4  C4  UNL     1      -3.668  41.101  27.619  1.00  0.00     0.137 C 
HETATM    5  C5  UNL     1      -2.503  41.361  28.424  1.00  0.00     0.144 A 
HETATM    6  N2  UNL     1      -1.472  42.115  27.904  1.00  0.00    -0.279 N 
ATOM      7  H2  UNL     1      -1.560  42.477  26.954  1.00  0.00     0.188 HD
HETATM    8  N3  UNL     1      -0.392  42.381  28.581  1.00  0.00    -0.130 N 
ATOM      9  H3  UNL     1       0.327  42.946  28.129  1.00  0.00     0.205 HD
HETATM   10  C6  UNL     1      -0.162  41.959  29.838  1.00  0.00     0.714 A 
HETATM   11  N10 UNL     1      -1.135  41.222  30.388  1.00  0.00    -0.165 N 
ATOM     12  H10 UNL     1      -1.022  40.874  31.340  1.00  0.00     0.186 HD
HETATM   13  C13 UNL     1      -2.290  40.925  29.693  1.00  0.00     0.187 A 
HETATM   14  N11 UNL     1      -4.822  40.375  27.970  1.00  0.00    -0.309 N 
ATOM     15  H11 UNL     1      -4.892  39.953  28.895  1.00  0.00     0.170 HD
HETATM   16  C14 UNL     1      -5.909  40.224  27.026  1.00  0.00     0.262 C 
HETATM   17  O4  UNL     1      -7.060  40.062  27.455  1.00  0.00    -0.270 OA
HETATM   18  C15 UNL     1      -5.525  40.281  25.598  1.00  0.00     0.189 C 
ENDROOT
BRANCH  10  19
HETATM   19  N4  UNL     1       1.030  42.313  30.492  1.00  0.00    -0.116 N 
HETATM   20  N5  UNL     1       1.325  43.125  31.331  1.00  0.00    -0.231 N 
ATOM     21  H5  UNL     1       2.311  43.119  31.591  1.00  0.00     0.208 HD
ATOM     22  H4  UNL     1       1.827  41.755  30.187  1.00  0.00     0.207 HD
BRANCH  20  23
HETATM   23  N6  UNL     1       0.579  44.047  31.993  1.00  0.00    -0.287 N 
ATOM     24  H6  UNL     1       0.319  43.798  32.948  1.00  0.00     0.184 HD
BRANCH  23  25
HETATM   25  C7  UNL     1       0.107  45.326  31.533  1.00  0.00     0.332 C 
BRANCH  25  26
HETATM   26  N7  UNL     1       0.440  45.467  30.121  1.00  0.00    -0.053 N 
ATOM     27  H73 UNL     1       1.350  45.067  29.893  1.00  0.00     0.277 HD
ATOM     28  H72 UNL     1      -0.131  44.868  29.524  1.00  0.00     0.277 HD
ATOM     29  H71 UNL     1       0.372  46.452  29.866  1.00  0.00     0.277 HD
ENDBRANCH  25  26
BRANCH  25  30
HETATM   30  C8  UNL     1      -1.342  45.457  31.769  1.00  0.00     0.008 A 
HETATM   31  C9  UNL     1      -1.819  46.423  32.619  1.00  0.00     0.016 A 
HETATM   32  C10 UNL     1      -3.197  46.562  32.850  1.00  0.00     0.049 A 
HETATM   33  C11 UNL     1      -4.047  45.675  32.181  1.00  0.00     0.098 A 
HETATM   34  N9  UNL     1      -3.577  44.729  31.349  1.00  0.00    -0.352 N 
HETATM   35  C12 UNL     1      -2.226  44.619  31.143  1.00  0.00     0.100 A 
ATOM     36  H9  UNL     1      -4.222  44.096  30.874  1.00  0.00     0.166 HD
BRANCH  33  37
HETATM   37  N8  UNL     1      -5.306  45.820  32.413  1.00  0.00    -0.385 N 
ATOM     38  H82 UNL     1      -5.669  46.589  32.977  1.00  0.00     0.157 HD
ATOM     39  H81 UNL     1      -5.919  45.119  31.996  1.00  0.00     0.157 HD
ENDBRANCH  33  37
ENDBRANCH  25  30
ENDBRANCH  23  25
ENDBRANCH  20  23
ENDBRANCH  10  19
BRANCH  13  40
HETATM   40  O3  UNL     1      -3.255  40.154  30.328  1.00  0.00    -0.344 OA
ATOM     41  H3  UNL     1      -2.998  39.540  31.006  1.00  0.00     0.219 HD
ENDBRANCH  13  40
BRANCH   1  42
HETATM   42  C2  UNL     1      -5.402  42.766  25.217  1.00  0.00     0.285 C 
HETATM   43  O2  UNL     1      -5.864  43.324  26.263  1.00  0.00    -0.263 OA
BRANCH  42  44
HETATM   44  O1  UNL     1      -5.570  43.282  23.967  1.00  0.00    -0.325 OA
HETATM   45  C1  UNL     1      -6.651  44.104  23.657  1.00  0.00     0.213 C 
ENDBRANCH  42  44
ENDBRANCH   1  42
BRANCH  18  46
HETATM   46  O5  UNL     1      -4.650  39.204  25.358  1.00  0.00    -0.376 OA
ATOM     47  H5  UNL     1      -4.988  38.500  25.899  1.00  0.00     0.211 HD
ENDBRANCH  18  46
BRANCH  18  48
HETATM   48  C16 UNL     1      -6.697  40.208  24.680  1.00  0.00     0.214 C 
BRANCH  48  49
HETATM   49  O6  UNL     1      -7.215  38.894  24.807  1.00  0.00    -0.397 OA
ATOM     50  H6  UNL     1      -8.004  38.870  24.279  1.00  0.00     0.209 HD
ENDBRANCH  48  49
ENDBRANCH  18  48
TORSDOF 12
ENDMDL
