MODEL 1
REMARK VINA RESULT: -6.003451428      0.000      0.000
REMARK  10 active torsions:
REMARK  status: ('A' for Active; 'I' for Inactive)
REMARK    1  A    between atoms: O1_2  and  N1_3 
REMARK    2  A    between atoms: C2_5  and  O2_6 
REMARK    3  A    between atoms: C2_5  and  C3_8 
REMARK    4  A    between atoms: N2_9  and  O3_10 
REMARK    5  A    between atoms: C12_34  and  C13_35 
REMARK    6  A    between atoms: C13_35  and  C14_36 
REMARK    7  A    between atoms: C14_36  and  N9_37 
REMARK    8  A    between atoms: N9_37  and  C15_40 
REMARK    9  A    between atoms: C15_40  and  N10_41 
REMARK   10  A    between atoms: C15_40  and  O4_45 
ROOT
HETATM    1  C3  UNL     1      -7.515  42.956  24.881  1.00  0.00     0.155 C 
HETATM    2  N2  UNL     1      -6.375  43.557  24.938  1.00  0.00    -0.160 N 
HETATM    3  N3  UNL     1      -5.796  44.411  23.998  1.00  0.00    -0.278 N 
ATOM      4  H3  UNL     1      -5.370  45.280  24.320  1.00  0.00     0.185 HD
HETATM    5  C4  UNL     1      -5.777  44.121  22.650  1.00  0.00     0.311 C 
HETATM    6  C5  UNL     1      -4.581  44.384  21.772  1.00  0.00     0.132 C 
HETATM    7  S1  UNL     1      -5.472  43.650  20.283  1.00  0.00    -0.129 SA
HETATM    8  C6  UNL     1      -7.149  44.039  20.859  1.00  0.00     0.286 C 
HETATM    9  N4  UNL     1      -6.756  44.925  21.950  1.00  0.00    -0.036 N 
ATOM     10  H41 UNL     1      -6.431  45.848  21.661  1.00  0.00     0.281 HD
ATOM     11  H42 UNL     1      -7.524  45.270  22.526  1.00  0.00     0.281 HD
HETATM   12  C7  UNL     1      -8.064  42.974  21.258  1.00  0.00     0.148 C 
HETATM   13  C8  UNL     1      -9.460  43.489  20.782  1.00  0.00     0.273 C 
HETATM   14  N5  UNL     1      -9.660  43.171  19.383  1.00  0.00    -0.071 N 
ATOM     15  H51 UNL     1      -8.780  42.918  18.933  1.00  0.00     0.277 HD
ATOM     16  H52 UNL     1      -9.883  44.006  18.843  1.00  0.00     0.277 HD
HETATM   17  C9  UNL     1     -10.659  42.142  19.194  1.00  0.00     0.252 C 
HETATM   18  C10 UNL     1     -10.223  40.965  20.042  1.00  0.00     0.148 C 
HETATM   19  N6  UNL     1      -8.763  40.939  19.954  1.00  0.00    -0.378 N 
ATOM     20  H6  UNL     1      -8.384  40.157  19.421  1.00  0.00     0.160 HD
HETATM   21  C11 UNL     1      -7.874  41.742  20.439  1.00  0.00     0.122 C 
HETATM   22  N7  UNL     1      -6.580  41.286  20.092  1.00  0.00    -0.085 NA
HETATM   23  N8  UNL     1      -8.227  42.574  22.556  1.00  0.00    -0.371 N 
ATOM     24  H8  UNL     1      -8.089  41.567  22.646  1.00  0.00     0.160 HD
HETATM   25  C12 UNL     1      -8.521  43.130  23.757  1.00  0.00     0.043 C 
ENDROOT
BRANCH  25  26
HETATM   26  C13 UNL     1      -9.330  44.373  23.924  1.00  0.00     0.087 C 
BRANCH  26  27
HETATM   27  C14 UNL     1     -10.790  44.123  24.356  1.00  0.00     0.243 C 
BRANCH  27  28
HETATM   28  N9  UNL     1     -11.106  45.326  25.153  1.00  0.00    -0.023 N 
ATOM     29  H92 UNL     1     -10.405  46.057  25.034  1.00  0.00     0.282 HD
ATOM     30  H91 UNL     1     -11.911  45.830  24.781  1.00  0.00     0.282 HD
BRANCH  28  31
HETATM   31  C15 UNL     1     -11.285  44.968  26.548  1.00  0.00     0.519 C 
BRANCH  31  32
HETATM   32  N10 UNL     1     -11.148  43.507  26.608  1.00  0.00    -0.027 N 
ATOM     33 3H10 UNL     1     -11.014  43.149  27.553  1.00  0.00     0.279 HD
ATOM     34 2H10 UNL     1     -12.016  43.008  26.410  1.00  0.00     0.279 HD
ATOM     35 1H10 UNL     1     -10.387  43.272  25.971  1.00  0.00     0.279 HD
ENDBRANCH  31  32
BRANCH  31  36
HETATM   36  O4  UNL     1     -12.587  45.243  26.956  1.00  0.00    -0.349 OA
ATOM     37  H4  UNL     1     -12.664  46.150  27.227  1.00  0.00     0.213 HD
ENDBRANCH  31  36
ENDBRANCH  28  31
ENDBRANCH  27  28
ENDBRANCH  26  27
ENDBRANCH  25  26
BRANCH   1  38
HETATM   38  C2  UNL     1      -7.837  42.087  26.028  1.00  0.00     0.193 C 
HETATM   39  N1  UNL     1      -7.412  40.875  25.980  1.00  0.00    -0.243 N 
ATOM     40  H1  UNL     1      -6.883  40.587  25.157  1.00  0.00     0.196 HD
BRANCH  39  41
HETATM   41  O1  UNL     1      -7.623  39.950  26.954  1.00  0.00    -0.283 OA
HETATM   42  C1  UNL     1      -6.739  38.842  27.040  1.00  0.00     0.237 C 
ENDBRANCH  39  41
BRANCH  38  43
HETATM   43  O2  UNL     1      -8.558  42.548  27.103  1.00  0.00    -0.343 OA
ATOM     44  H2  UNL     1      -9.508  42.538  27.100  1.00  0.00     0.219 HD
ENDBRANCH  38  43
ENDBRANCH   1  38
BRANCH   2  45
HETATM   45  O3  UNL     1      -5.553  43.338  26.081  1.00  0.00    -0.268 OA
ATOM     46  H3  UNL     1      -5.130  42.493  26.175  1.00  0.00     0.247 HD
ENDBRANCH   2  45
TORSDOF 10
ENDMDL
MODEL 2
REMARK VINA RESULT: -5.584881819      1.666      1.779
REMARK  10 active torsions:
REMARK  status: ('A' for Active; 'I' for Inactive)
REMARK    1  A    between atoms: O1_2  and  N1_3 
REMARK    2  A    between atoms: C2_5  and  O2_6 
REMARK    3  A    between atoms: C2_5  and  C3_8 
REMARK    4  A    between atoms: N2_9  and  O3_10 
REMARK    5  A    between atoms: C12_34  and  C13_35 
REMARK    6  A    between atoms: C13_35  and  C14_36 
REMARK    7  A    between atoms: C14_36  and  N9_37 
REMARK    8  A    between atoms: N9_37  and  C15_40 
REMARK    9  A    between atoms: C15_40  and  N10_41 
REMARK   10  A    between atoms: C15_40  and  O4_45 
ROOT
HETATM    1  C3  UNL     1      -7.422  43.333  23.981  1.00  0.00     0.155 C 
HETATM    2  N2  UNL     1      -6.369  43.971  24.368  1.00  0.00    -0.160 N 
HETATM    3  N3  UNL     1      -5.882  45.197  23.912  1.00  0.00    -0.278 N 
ATOM      4  H3  UNL     1      -5.578  45.890  24.597  1.00  0.00     0.185 HD
HETATM    5  C4  UNL     1      -5.795  45.505  22.571  1.00  0.00     0.311 C 
HETATM    6  C5  UNL     1      -4.622  46.238  21.973  1.00  0.00     0.132 C 
HETATM    7  S1  UNL     1      -5.377  46.109  20.252  1.00  0.00    -0.129 SA
HETATM    8  C6  UNL     1      -7.103  46.040  20.811  1.00  0.00     0.286 C 
HETATM    9  N4  UNL     1      -6.851  46.421  22.196  1.00  0.00    -0.036 N 
ATOM     10  H41 UNL     1      -6.640  47.408  22.342  1.00  0.00     0.281 HD
ATOM     11  H42 UNL     1      -7.670  46.408  22.805  1.00  0.00     0.281 HD
HETATM   12  C7  UNL     1      -7.884  44.815  20.663  1.00  0.00     0.148 C 
HETATM   13  C8  UNL     1      -9.322  45.332  20.340  1.00  0.00     0.273 C 
HETATM   14  N5  UNL     1      -9.447  45.612  18.924  1.00  0.00    -0.071 N 
ATOM     15  H51 UNL     1      -8.532  45.667  18.477  1.00  0.00     0.277 HD
ATOM     16  H52 UNL     1      -9.762  46.569  18.764  1.00  0.00     0.277 HD
HETATM   17  C9  UNL     1     -10.302  44.659  18.251  1.00  0.00     0.252 C 
HETATM   18  C10 UNL     1      -9.740  43.288  18.565  1.00  0.00     0.148 C 
HETATM   19  N6  UNL     1      -8.287  43.456  18.584  1.00  0.00    -0.378 N 
ATOM     20  H6  UNL     1      -7.798  43.016  17.805  1.00  0.00     0.160 HD
HETATM   21  C11 UNL     1      -7.519  44.069  19.423  1.00  0.00     0.122 C 
HETATM   22  N7  UNL     1      -6.169  43.942  19.016  1.00  0.00    -0.085 NA
HETATM   23  N8  UNL     1      -8.025  43.891  21.661  1.00  0.00    -0.371 N 
ATOM     24  H8  UNL     1      -7.761  42.961  21.335  1.00  0.00     0.160 HD
HETATM   25  C12 UNL     1      -8.415  43.856  22.959  1.00  0.00     0.043 C 
ENDROOT
BRANCH  25  26
HETATM   26  C13 UNL     1      -9.380  44.820  23.565  1.00  0.00     0.087 C 
BRANCH  26  27
HETATM   27  C14 UNL     1     -10.733  44.194  23.961  1.00  0.00     0.243 C 
BRANCH  27  28
HETATM   28  N9  UNL     1     -11.374  45.270  24.746  1.00  0.00    -0.023 N 
ATOM     29  H92 UNL     1     -11.070  46.195  24.444  1.00  0.00     0.282 HD
ATOM     30  H91 UNL     1     -12.367  45.360  24.529  1.00  0.00     0.282 HD
BRANCH  28  31
HETATM   31  C15 UNL     1     -11.144  45.057  26.163  1.00  0.00     0.519 C 
BRANCH  31  32
HETATM   32  N10 UNL     1     -10.847  43.627  26.312  1.00  0.00    -0.027 N 
ATOM     33 3H10 UNL     1     -10.624  43.354  27.269  1.00  0.00     0.279 HD
ATOM     34 2H10 UNL     1     -11.665  43.027  26.201  1.00  0.00     0.279 HD
ATOM     35 1H10 UNL     1     -10.101  43.427  25.647  1.00  0.00     0.279 HD
ENDBRANCH  31  32
BRANCH  31  36
HETATM   36  O4  UNL     1     -12.315  45.278  26.883  1.00  0.00    -0.349 OA
ATOM     37  H4  UNL     1     -12.768  44.458  27.038  1.00  0.00     0.213 HD
ENDBRANCH  31  36
ENDBRANCH  28  31
ENDBRANCH  27  28
ENDBRANCH  26  27
ENDBRANCH  25  26
BRANCH   1  38
HETATM   38  C2  UNL     1      -7.657  42.033  24.637  1.00  0.00     0.193 C 
HETATM   39  N1  UNL     1      -7.171  40.992  24.062  1.00  0.00    -0.243 N 
ATOM     40  H1  UNL     1      -6.656  41.125  23.191  1.00  0.00     0.196 HD
BRANCH  39  41
HETATM   41  O1  UNL     1      -7.298  39.724  24.537  1.00  0.00    -0.283 OA
HETATM   42  C1  UNL     1      -6.205  39.150  25.239  1.00  0.00     0.237 C 
ENDBRANCH  39  41
BRANCH  38  43
HETATM   43  O2  UNL     1      -8.364  41.934  25.811  1.00  0.00    -0.343 OA
ATOM     44  H2  UNL     1      -9.222  42.331  25.905  1.00  0.00     0.219 HD
ENDBRANCH  38  43
ENDBRANCH   1  38
BRANCH   2  45
HETATM   45  O3  UNL     1      -5.553  43.380  25.374  1.00  0.00    -0.268 OA
ATOM     46  H3  UNL     1      -5.218  43.936  26.067  1.00  0.00     0.247 HD
ENDBRANCH   2  45
TORSDOF 10
ENDMDL
MODEL 3
REMARK VINA RESULT: -5.532948205      8.178     11.162
REMARK  10 active torsions:
REMARK  status: ('A' for Active; 'I' for Inactive)
REMARK    1  A    between atoms: O1_2  and  N1_3 
REMARK    2  A    between atoms: C2_5  and  O2_6 
REMARK    3  A    between atoms: C2_5  and  C3_8 
REMARK    4  A    between atoms: N2_9  and  O3_10 
REMARK    5  A    between atoms: C12_34  and  C13_35 
REMARK    6  A    between atoms: C13_35  and  C14_36 
REMARK    7  A    between atoms: C14_36  and  N9_37 
REMARK    8  A    between atoms: N9_37  and  C15_40 
REMARK    9  A    between atoms: C15_40  and  N10_41 
REMARK   10  A    between atoms: C15_40  and  O4_45 
ROOT
HETATM    1  C3  UNL     1      -1.286  37.074  31.868  1.00  0.00     0.155 C 
HETATM    2  N2  UNL     1      -0.382  36.237  31.483  1.00  0.00    -0.160 N 
HETATM    3  N3  UNL     1      -0.119  35.776  30.192  1.00  0.00    -0.278 N 
ATOM      4  H3  UNL     1       0.848  35.742  29.870  1.00  0.00     0.185 HD
HETATM    5  C4  UNL     1      -1.119  35.364  29.337  1.00  0.00     0.311 C 
HETATM    6  C5  UNL     1      -0.989  34.156  28.445  1.00  0.00     0.132 C 
HETATM    7  S1  UNL     1      -2.742  34.402  27.801  1.00  0.00    -0.129 SA
HETATM    8  C6  UNL     1      -2.787  36.198  28.066  1.00  0.00     0.286 C 
HETATM    9  N4  UNL     1      -1.362  36.370  28.326  1.00  0.00    -0.036 N 
ATOM     10  H41 UNL     1      -0.762  36.310  27.503  1.00  0.00     0.281 HD
ATOM     11  H42 UNL     1      -1.080  37.316  28.581  1.00  0.00     0.281 HD
HETATM   12  C7  UNL     1      -3.653  36.777  29.088  1.00  0.00     0.148 C 
HETATM   13  C8  UNL     1      -4.129  38.121  28.449  1.00  0.00     0.273 C 
HETATM   14  N5  UNL     1      -5.266  37.888  27.583  1.00  0.00    -0.071 N 
ATOM     15  H51 UNL     1      -5.365  36.897  27.361  1.00  0.00     0.277 HD
ATOM     16  H52 UNL     1      -5.094  38.247  26.644  1.00  0.00     0.277 HD
HETATM   17  C9  UNL     1      -6.492  38.426  28.132  1.00  0.00     0.252 C 
HETATM   18  C10 UNL     1      -6.634  37.829  29.517  1.00  0.00     0.148 C 
HETATM   19  N6  UNL     1      -6.129  36.460  29.407  1.00  0.00    -0.378 N 
ATOM     20  H6  UNL     1      -6.844  35.737  29.478  1.00  0.00     0.160 HD
HETATM   21  C11 UNL     1      -4.929  36.015  29.233  1.00  0.00     0.122 C 
HETATM   22  N7  UNL     1      -4.943  34.601  29.203  1.00  0.00    -0.085 NA
HETATM   23  N8  UNL     1      -3.222  37.084  30.349  1.00  0.00    -0.371 N 
ATOM     24  H8  UNL     1      -3.817  36.647  31.053  1.00  0.00     0.160 HD
HETATM   25  C12 UNL     1      -2.232  37.804  30.932  1.00  0.00     0.043 C 
ENDROOT
BRANCH  25  26
HETATM   26  C13 UNL     1      -1.584  38.991  30.302  1.00  0.00     0.087 C 
BRANCH  26  27
HETATM   27  C14 UNL     1      -2.290  40.330  30.603  1.00  0.00     0.243 C 
BRANCH  27  28
HETATM   28  N9  UNL     1      -1.179  41.303  30.559  1.00  0.00    -0.023 N 
ATOM     29  H92 UNL     1      -0.535  41.182  31.340  1.00  0.00     0.282 HD
ATOM     30  H91 UNL     1      -0.530  41.107  29.797  1.00  0.00     0.282 HD
BRANCH  28  31
HETATM   31  C15 UNL     1      -1.703  42.654  30.492  1.00  0.00     0.519 C 
BRANCH  31  32
HETATM   32  N10 UNL     1      -2.906  42.661  31.335  1.00  0.00    -0.027 N 
ATOM     33 3H10 UNL     1      -3.565  41.916  31.111  1.00  0.00     0.279 HD
ATOM     34 2H10 UNL     1      -2.729  42.383  32.300  1.00  0.00     0.279 HD
ATOM     35 1H10 UNL     1      -3.303  43.596  31.246  1.00  0.00     0.279 HD
ENDBRANCH  31  32
BRANCH  31  36
HETATM   36  O4  UNL     1      -2.143  42.941  29.203  1.00  0.00    -0.349 OA
ATOM     37  H4  UNL     1      -1.874  43.815  28.948  1.00  0.00     0.213 HD
ENDBRANCH  31  36
ENDBRANCH  28  31
ENDBRANCH  27  28
ENDBRANCH  26  27
ENDBRANCH  25  26
BRANCH   1  38
HETATM   38  C2  UNL     1      -1.333  37.339  33.318  1.00  0.00     0.193 C 
HETATM   39  N1  UNL     1      -2.216  36.700  34.000  1.00  0.00    -0.243 N 
ATOM     40  H1  UNL     1      -2.827  36.053  33.502  1.00  0.00     0.196 HD
BRANCH  39  41
HETATM   41  O1  UNL     1      -2.389  36.831  35.342  1.00  0.00    -0.283 OA
HETATM   42  C1  UNL     1      -2.460  35.654  36.134  1.00  0.00     0.237 C 
ENDBRANCH  39  41
BRANCH  38  43
HETATM   43  O2  UNL     1      -0.475  38.229  33.917  1.00  0.00    -0.343 OA
ATOM     44  H2  UNL     1       0.176  38.702  33.413  1.00  0.00     0.219 HD
ENDBRANCH  38  43
ENDBRANCH   1  38
BRANCH   2  45
HETATM   45  O3  UNL     1       0.472  35.665  32.470  1.00  0.00    -0.268 OA
ATOM     46  H3  UNL     1       0.088  35.082  33.114  1.00  0.00     0.247 HD
ENDBRANCH   2  45
TORSDOF 10
ENDMDL
MODEL 4
REMARK VINA RESULT: -5.408105139      4.602      8.165
REMARK  10 active torsions:
REMARK  status: ('A' for Active; 'I' for Inactive)
REMARK    1  A    between atoms: O1_2  and  N1_3 
REMARK    2  A    between atoms: C2_5  and  O2_6 
REMARK    3  A    between atoms: C2_5  and  C3_8 
REMARK    4  A    between atoms: N2_9  and  O3_10 
REMARK    5  A    between atoms: C12_34  and  C13_35 
REMARK    6  A    between atoms: C13_35  and  C14_36 
REMARK    7  A    between atoms: C14_36  and  N9_37 
REMARK    8  A    between atoms: N9_37  and  C15_40 
REMARK    9  A    between atoms: C15_40  and  N10_41 
REMARK   10  A    between atoms: C15_40  and  O4_45 
ROOT
HETATM    1  C3  UNL     1      -6.116  39.799  26.067  1.00  0.00     0.155 C 
HETATM    2  N2  UNL     1      -5.975  39.651  24.793  1.00  0.00    -0.160 N 
HETATM    3  N3  UNL     1      -4.824  39.309  24.081  1.00  0.00    -0.278 N 
ATOM      4  H3  UNL     1      -4.891  38.600  23.350  1.00  0.00     0.185 HD
HETATM    5  C4  UNL     1      -3.601  39.895  24.328  1.00  0.00     0.311 C 
HETATM    6  C5  UNL     1      -2.646  40.294  23.232  1.00  0.00     0.132 C 
HETATM    7  S1  UNL     1      -1.435  40.989  24.496  1.00  0.00    -0.129 SA
HETATM    8  C6  UNL     1      -1.941  39.901  25.858  1.00  0.00     0.286 C 
HETATM    9  N4  UNL     1      -2.745  38.984  25.057  1.00  0.00    -0.036 N 
ATOM     10  H41 UNL     1      -2.212  38.335  24.478  1.00  0.00     0.281 HD
ATOM     11  H42 UNL     1      -3.234  38.262  25.585  1.00  0.00     0.281 HD
HETATM   12  C7  UNL     1      -2.637  40.441  27.021  1.00  0.00     0.148 C 
HETATM   13  C8  UNL     1      -2.087  39.589  28.209  1.00  0.00     0.273 C 
HETATM   14  N5  UNL     1      -0.829  40.135  28.677  1.00  0.00    -0.071 N 
ATOM     15  H51 UNL     1      -0.434  40.785  27.997  1.00  0.00     0.277 HD
ATOM     16  H52 UNL     1      -0.095  39.428  28.670  1.00  0.00     0.277 HD
HETATM   17  C9  UNL     1      -0.951  40.751  29.980  1.00  0.00     0.252 C 
HETATM   18  C10 UNL     1      -2.067  41.770  29.865  1.00  0.00     0.148 C 
HETATM   19  N6  UNL     1      -1.942  42.337  28.522  1.00  0.00    -0.378 N 
ATOM     20  H6  UNL     1      -1.623  43.305  28.498  1.00  0.00     0.160 HD
HETATM   21  C11 UNL     1      -2.168  41.816  27.362  1.00  0.00     0.122 C 
HETATM   22  N7  UNL     1      -1.912  42.773  26.351  1.00  0.00    -0.085 NA
HETATM   23  N8  UNL     1      -3.999  40.438  27.148  1.00  0.00    -0.371 N 
ATOM     24  H8  UNL     1      -4.347  41.376  27.348  1.00  0.00     0.160 HD
HETATM   25  C12 UNL     1      -5.019  39.547  27.086  1.00  0.00     0.043 C 
ENDROOT
BRANCH  25  26
HETATM   26  C13 UNL     1      -4.877  38.095  27.400  1.00  0.00     0.087 C 
BRANCH  26  27
HETATM   27  C14 UNL     1      -5.132  37.742  28.881  1.00  0.00     0.243 C 
BRANCH  27  28
HETATM   28  N9  UNL     1      -6.596  37.546  28.923  1.00  0.00    -0.023 N 
ATOM     29  H92 UNL     1      -7.100  38.433  28.926  1.00  0.00     0.282 HD
ATOM     30  H91 UNL     1      -6.956  37.172  28.045  1.00  0.00     0.282 HD
BRANCH  28  31
HETATM   31  C15 UNL     1      -6.955  36.714  30.056  1.00  0.00     0.519 C 
BRANCH  31  32
HETATM   32  N10 UNL     1      -5.980  35.616  30.072  1.00  0.00    -0.027 N 
ATOM     33 3H10 UNL     1      -5.485  35.497  29.188  1.00  0.00     0.279 HD
ATOM     34 2H10 UNL     1      -5.160  35.806  30.648  1.00  0.00     0.279 HD
ATOM     35 1H10 UNL     1      -6.499  34.787  30.362  1.00  0.00     0.279 HD
ENDBRANCH  31  32
BRANCH  31  36
HETATM   36  O4  UNL     1      -8.194  36.117  29.847  1.00  0.00    -0.349 OA
ATOM     37  H4  UNL     1      -8.367  35.467  30.517  1.00  0.00     0.213 HD
ENDBRANCH  31  36
ENDBRANCH  28  31
ENDBRANCH  27  28
ENDBRANCH  26  27
ENDBRANCH  25  26
BRANCH   1  38
HETATM   38  C2  UNL     1      -7.462  40.198  26.518  1.00  0.00     0.193 C 
HETATM   39  N1  UNL     1      -7.672  41.455  26.690  1.00  0.00    -0.243 N 
ATOM     40  H1  UNL     1      -6.901  42.097  26.506  1.00  0.00     0.196 HD
BRANCH  39  41
HETATM   41  O1  UNL     1      -8.855  41.985  27.100  1.00  0.00    -0.283 OA
HETATM   42  C1  UNL     1      -9.482  42.960  26.281  1.00  0.00     0.237 C 
ENDBRANCH  39  41
BRANCH  38  43
HETATM   43  O2  UNL     1      -8.451  39.272  26.746  1.00  0.00    -0.343 OA
ATOM     44  H2  UNL     1      -8.540  38.843  27.589  1.00  0.00     0.219 HD
ENDBRANCH  38  43
ENDBRANCH   1  38
BRANCH   2  45
HETATM   45  O3  UNL     1      -7.108  39.874  23.958  1.00  0.00    -0.268 OA
ATOM     46  H3  UNL     1      -7.198  39.349  23.171  1.00  0.00     0.247 HD
ENDBRANCH   2  45
TORSDOF 10
ENDMDL
MODEL 5
REMARK VINA RESULT: -5.364152090      7.368     10.183
REMARK  10 active torsions:
REMARK  status: ('A' for Active; 'I' for Inactive)
REMARK    1  A    between atoms: O1_2  and  N1_3 
REMARK    2  A    between atoms: C2_5  and  O2_6 
REMARK    3  A    between atoms: C2_5  and  C3_8 
REMARK    4  A    between atoms: N2_9  and  O3_10 
REMARK    5  A    between atoms: C12_34  and  C13_35 
REMARK    6  A    between atoms: C13_35  and  C14_36 
REMARK    7  A    between atoms: C14_36  and  N9_37 
REMARK    8  A    between atoms: N9_37  and  C15_40 
REMARK    9  A    between atoms: C15_40  and  N10_41 
REMARK   10  A    between atoms: C15_40  and  O4_45 
ROOT
HETATM    1  C3  UNL     1      -0.158  43.603  29.889  1.00  0.00     0.155 C 
HETATM    2  N2  UNL     1       0.635  42.848  30.572  1.00  0.00    -0.160 N 
HETATM    3  N3  UNL     1       1.079  41.560  30.271  1.00  0.00    -0.278 N 
ATOM      4  H3  UNL     1       2.070  41.342  30.385  1.00  0.00     0.185 HD
HETATM    5  C4  UNL     1       0.229  40.569  29.827  1.00  0.00     0.311 C 
HETATM    6  C5  UNL     1       0.321  39.140  30.294  1.00  0.00     0.132 C 
HETATM    7  S1  UNL     1      -1.174  38.668  29.250  1.00  0.00    -0.129 SA
HETATM    8  C6  UNL     1      -0.939  39.959  27.995  1.00  0.00     0.286 C 
HETATM    9  N4  UNL     1       0.403  40.357  28.406  1.00  0.00    -0.036 N 
ATOM     10  H41 UNL     1       1.144  39.704  28.154  1.00  0.00     0.281 HD
ATOM     11  H42 UNL     1       0.795  41.149  27.896  1.00  0.00     0.281 HD
HETATM   12  C7  UNL     1      -1.882  41.068  27.883  1.00  0.00     0.148 C 
HETATM   13  C8  UNL     1      -1.948  41.341  26.347  1.00  0.00     0.273 C 
HETATM   14  N5  UNL     1      -2.894  40.442  25.719  1.00  0.00    -0.071 N 
ATOM     15  H51 UNL     1      -3.126  39.662  26.334  1.00  0.00     0.277 HD
ATOM     16  H52 UNL     1      -2.459  39.923  24.956  1.00  0.00     0.277 HD
HETATM   17  C9  UNL     1      -4.087  41.128  25.271  1.00  0.00     0.252 C 
HETATM   18  C10 UNL     1      -4.634  41.860  26.479  1.00  0.00     0.148 C 
HETATM   19  N6  UNL     1      -4.382  40.977  27.619  1.00  0.00    -0.378 N 
ATOM     20  H6  UNL     1      -5.218  40.554  28.021  1.00  0.00     0.160 HD
HETATM   21  C11 UNL     1      -3.277  40.645  28.200  1.00  0.00     0.122 C 
HETATM   22  N7  UNL     1      -3.549  39.767  29.276  1.00  0.00    -0.085 NA
HETATM   23  N8  UNL     1      -1.684  42.282  28.480  1.00  0.00    -0.371 N 
ATOM     24  H8  UNL     1      -2.487  42.542  29.052  1.00  0.00     0.160 HD
HETATM   25  C12 UNL     1      -0.726  43.241  28.529  1.00  0.00     0.043 C 
ENDROOT
BRANCH  25  26
HETATM   26  C13 UNL     1       0.253  43.497  27.432  1.00  0.00     0.087 C 
BRANCH  26  27
HETATM   27  C14 UNL     1       0.006  44.809  26.659  1.00  0.00     0.243 C 
BRANCH  27  28
HETATM   28  N9  UNL     1       1.371  45.221  26.269  1.00  0.00    -0.023 N 
ATOM     29  H92 UNL     1       2.085  44.750  26.824  1.00  0.00     0.282 HD
ATOM     30  H91 UNL     1       1.631  44.858  25.351  1.00  0.00     0.282 HD
BRANCH  28  31
HETATM   31  C15 UNL     1       1.494  46.665  26.338  1.00  0.00     0.519 C 
BRANCH  31  32
HETATM   32  N10 UNL     1       1.553  46.995  27.768  1.00  0.00    -0.027 N 
ATOM     33 3H10 UNL     1       0.779  47.580  28.083  1.00  0.00     0.279 HD
ATOM     34 2H10 UNL     1       1.362  46.200  28.378  1.00  0.00     0.279 HD
ATOM     35 1H10 UNL     1       2.469  47.415  27.919  1.00  0.00     0.279 HD
ENDBRANCH  31  32
BRANCH  31  36
HETATM   36  O4  UNL     1       0.340  47.274  25.856  1.00  0.00    -0.349 OA
ATOM     37  H4  UNL     1      -0.228  46.632  25.448  1.00  0.00     0.213 HD
ENDBRANCH  31  36
ENDBRANCH  28  31
ENDBRANCH  27  28
ENDBRANCH  26  27
ENDBRANCH  25  26
BRANCH   1  38
HETATM   38  C2  UNL     1      -0.468  44.913  30.491  1.00  0.00     0.193 C 
HETATM   39  N1  UNL     1      -1.576  45.013  31.135  1.00  0.00    -0.243 N 
ATOM     40  H1  UNL     1      -2.171  44.187  31.190  1.00  0.00     0.196 HD
BRANCH  39  41
HETATM   41  O1  UNL     1      -2.006  46.148  31.747  1.00  0.00    -0.283 OA
HETATM   42  C1  UNL     1      -2.076  46.169  33.165  1.00  0.00     0.237 C 
ENDBRANCH  39  41
BRANCH  38  43
HETATM   43  O2  UNL     1       0.387  45.982  30.373  1.00  0.00    -0.343 OA
ATOM     44  H2  UNL     1       1.329  45.869  30.424  1.00  0.00     0.219 HD
ENDBRANCH  38  43
ENDBRANCH   1  38
BRANCH   2  45
HETATM   45  O3  UNL     1       1.133  43.340  31.813  1.00  0.00    -0.268 OA
ATOM     46  H3  UNL     1       2.074  43.402  31.927  1.00  0.00     0.247 HD
ENDBRANCH   2  45
TORSDOF 10
ENDMDL
