MODEL 1
REMARK VINA RESULT: -9.728702201      0.000      0.000
REMARK  9 active torsions:
REMARK  status: ('A' for Active; 'I' for Inactive)
REMARK    1  A    between atoms: N1_2  and  C3_4 
REMARK    2  A    between atoms: C6_11  and  C7_12 
REMARK    3  A    between atoms: C7_12  and  O2_13 
REMARK    4  A    between atoms: O2_13  and  C8_14 
REMARK       I    between atoms: C8_14  and  N4_16 
REMARK    5  A    between atoms: C9_21  and  C10_22 
REMARK    6  A    between atoms: C11_23  and  N7_24 
REMARK    7  A    between atoms: N7_24  and  O4_26 
REMARK    8  A    between atoms: C12_30  and  N9_31 
REMARK    9  A    between atoms: N11_37  and  O5_39 
ROOT
HETATM    1  C8  UNL     1      52.303  20.339  47.023  1.00  0.00     0.403 C 
HETATM    2  O3  UNL     1      51.156  19.831  46.927  1.00  0.00    -0.234 OA
HETATM    3  N4  UNL     1      53.478  19.569  46.708  1.00  0.00    -0.119 N 
HETATM    4  N5  UNL     1      54.731  19.979  46.767  1.00  0.00    -0.215 N 
ATOM      5  H5  UNL     1      55.027  20.913  47.050  1.00  0.00     0.210 HD
HETATM    6  N6  UNL     1      55.544  19.006  46.410  1.00  0.00    -0.267 N 
ATOM      7  H6  UNL     1      56.561  19.066  46.370  1.00  0.00     0.190 HD
HETATM    8  C9  UNL     1      54.801  17.906  46.100  1.00  0.00     0.155 A 
HETATM    9  N12 UNL     1      53.519  18.314  46.306  1.00  0.00    -0.256 N 
ATOM     10  H12 UNL     1      52.697  17.726  46.167  1.00  0.00     0.191 HD
ENDROOT
BRANCH   8  11
HETATM   11  C10 UNL     1      55.293  16.619  45.650  1.00  0.00     0.103 A 
HETATM   12  C11 UNL     1      55.749  15.752  46.609  1.00  0.00     0.158 A 
HETATM   13  N8  UNL     1      56.218  14.546  46.267  1.00  0.00    -0.174 N 
HETATM   14  C12 UNL     1      56.241  14.188  44.969  1.00  0.00     0.679 A 
ATOM     15  H8  UNL     1      56.556  13.903  46.984  1.00  0.00     0.186 HD
HETATM   16  N10 UNL     1      55.796  15.029  44.024  1.00  0.00    -0.174 N 
HETATM   17  C13 UNL     1      55.310  16.270  44.343  1.00  0.00     0.158 A 
ATOM     18  H10 UNL     1      55.821  14.739  43.046  1.00  0.00     0.186 HD
HETATM   19  N11 UNL     1      54.900  17.038  43.412  1.00  0.00    -0.252 N 
ATOM     20  H11 UNL     1      54.948  16.695  42.452  1.00  0.00     0.196 HD
BRANCH  12  21
HETATM   21  N7  UNL     1      55.745  16.088  47.995  1.00  0.00    -0.252 N 
ATOM     22  H7  UNL     1      56.161  16.977  48.272  1.00  0.00     0.196 HD
BRANCH  21  23
HETATM   23  O4  UNL     1      55.230  15.312  48.955  1.00  0.00    -0.288 OA
ATOM     24  H4  UNL     1      55.385  15.438  49.884  1.00  0.00     0.244 HD
ENDBRANCH  21  23
ENDBRANCH  12  21
BRANCH  14  25
HETATM   25  N9  UNL     1      56.702  13.005  44.651  1.00  0.00    -0.234 N 
ATOM     26  H92 UNL     1      56.084  12.291  44.265  1.00  0.00     0.174 HD
ATOM     27  H91 UNL     1      57.692  12.809  44.796  1.00  0.00     0.174 HD
ENDBRANCH  14  25
BRANCH  19  28
HETATM   28  O5  UNL     1      54.404  18.278  43.617  1.00  0.00    -0.288 OA
ATOM     29  H5  UNL     1      53.654  18.634  43.156  1.00  0.00     0.244 HD
ENDBRANCH  19  28
ENDBRANCH   8  11
BRANCH   1  30
HETATM   30  O2  UNL     1      52.394  21.642  47.434  1.00  0.00    -0.295 OA
BRANCH  30  31
HETATM   31  C7  UNL     1      52.420  22.701  46.504  1.00  0.00     0.240 C 
BRANCH  31  32
HETATM   32  C6  UNL     1      51.243  23.577  46.628  1.00  0.00     0.080 A 
HETATM   33  C5  UNL     1      51.225  24.571  47.563  1.00  0.00     0.140 A 
HETATM   34  C4  UNL     1      50.124  25.380  47.669  1.00  0.00     0.285 A 
HETATM   35  N3  UNL     1      52.328  24.779  48.423  1.00  0.00    -0.094 NA
HETATM   36  N2  UNL     1      49.100  25.156  46.839  1.00  0.00    -0.154 N 
HETATM   37  O1  UNL     1      50.038  26.324  48.514  1.00  0.00    -0.266 OA
HETATM   38  C3  UNL     1      49.123  24.177  45.923  1.00  0.00     0.682 A 
ATOM     39  H2  UNL     1      48.274  25.750  46.906  1.00  0.00     0.187 HD
HETATM   40  N13 UNL     1      50.194  23.397  45.826  1.00  0.00    -0.191 N 
ATOM     41  H13 UNL     1      50.213  22.651  45.131  1.00  0.00     0.184 HD
BRANCH  38  42
HETATM   42  N1  UNL     1      47.971  24.028  45.088  1.00  0.00    -0.226 N 
HETATM   43  C1  UNL     1      46.659  23.773  45.638  1.00  0.00     0.168 C 
HETATM   44  C2  UNL     1      48.163  24.142  43.662  1.00  0.00     0.168 C 
ENDBRANCH  38  42
ENDBRANCH  31  32
ENDBRANCH  30  31
ENDBRANCH   1  30
TORSDOF 9
ENDMDL
MODEL 2
REMARK VINA RESULT: -9.438089672      0.426      2.093
REMARK  9 active torsions:
REMARK  status: ('A' for Active; 'I' for Inactive)
REMARK    1  A    between atoms: N1_2  and  C3_4 
REMARK    2  A    between atoms: C6_11  and  C7_12 
REMARK    3  A    between atoms: C7_12  and  O2_13 
REMARK    4  A    between atoms: O2_13  and  C8_14 
REMARK       I    between atoms: C8_14  and  N4_16 
REMARK    5  A    between atoms: C9_21  and  C10_22 
REMARK    6  A    between atoms: C11_23  and  N7_24 
REMARK    7  A    between atoms: N7_24  and  O4_26 
REMARK    8  A    between atoms: C12_30  and  N9_31 
REMARK    9  A    between atoms: N11_37  and  O5_39 
ROOT
HETATM    1  C8  UNL     1      52.517  20.349  47.120  1.00  0.00     0.403 C 
HETATM    2  O3  UNL     1      51.356  19.883  46.986  1.00  0.00    -0.234 OA
HETATM    3  N4  UNL     1      53.673  19.551  46.803  1.00  0.00    -0.119 N 
HETATM    4  N5  UNL     1      54.937  19.918  46.899  1.00  0.00    -0.215 N 
ATOM      5  H5  UNL     1      55.257  20.832  47.218  1.00  0.00     0.210 HD
HETATM    6  N6  UNL     1      55.725  18.931  46.525  1.00  0.00    -0.267 N 
ATOM      7  H6  UNL     1      56.744  18.959  46.507  1.00  0.00     0.190 HD
HETATM    8  C9  UNL     1      54.954  17.866  46.166  1.00  0.00     0.155 A 
HETATM    9  N12 UNL     1      53.681  18.310  46.361  1.00  0.00    -0.256 N 
ATOM     10  H12 UNL     1      52.844  17.754  46.187  1.00  0.00     0.191 HD
ENDROOT
BRANCH   8  11
HETATM   11  C10 UNL     1      55.413  16.580  45.683  1.00  0.00     0.103 A 
HETATM   12  C11 UNL     1      55.498  16.415  44.324  1.00  0.00     0.158 A 
HETATM   13  N8  UNL     1      55.914  15.254  43.805  1.00  0.00    -0.174 N 
HETATM   14  C12 UNL     1      56.250  14.243  44.629  1.00  0.00     0.679 A 
ATOM     15  H8  UNL     1      55.977  15.135  42.793  1.00  0.00     0.186 HD
HETATM   16  N10 UNL     1      56.171  14.394  45.959  1.00  0.00    -0.174 N 
HETATM   17  C13 UNL     1      55.749  15.572  46.519  1.00  0.00     0.158 A 
ATOM     18  H10 UNL     1      56.431  13.617  46.567  1.00  0.00     0.186 HD
HETATM   19  N11 UNL     1      55.687  15.671  47.789  1.00  0.00    -0.252 N 
ATOM     20  H11 UNL     1      55.959  14.861  48.347  1.00  0.00     0.196 HD
BRANCH  12  21
HETATM   21  N7  UNL     1      55.152  17.457  43.413  1.00  0.00    -0.252 N 
ATOM     22  H7  UNL     1      55.873  17.792  42.774  1.00  0.00     0.196 HD
BRANCH  21  23
HETATM   23  O4  UNL     1      53.942  18.023  43.344  1.00  0.00    -0.288 OA
ATOM     24  H4  UNL     1      53.663  18.754  43.884  1.00  0.00     0.244 HD
ENDBRANCH  21  23
ENDBRANCH  12  21
BRANCH  14  25
HETATM   25  N9  UNL     1      56.656  13.114  44.106  1.00  0.00    -0.234 N 
ATOM     26  H92 UNL     1      56.300  12.798  43.204  1.00  0.00     0.174 HD
ATOM     27  H91 UNL     1      57.336  12.552  44.619  1.00  0.00     0.174 HD
ENDBRANCH  14  25
BRANCH  19  28
HETATM   28  O5  UNL     1      55.284  16.783  48.442  1.00  0.00    -0.288 OA
ATOM     29  H5  UNL     1      54.421  16.892  48.825  1.00  0.00     0.244 HD
ENDBRANCH  19  28
ENDBRANCH   8  11
BRANCH   1  30
HETATM   30  O2  UNL     1      52.641  21.634  47.576  1.00  0.00    -0.295 OA
BRANCH  30  31
HETATM   31  C7  UNL     1      52.672  22.725  46.683  1.00  0.00     0.240 C 
BRANCH  31  32
HETATM   32  C6  UNL     1      51.448  23.540  46.761  1.00  0.00     0.080 A 
HETATM   33  C5  UNL     1      51.312  24.477  47.744  1.00  0.00     0.140 A 
HETATM   34  C4  UNL     1      50.168  25.230  47.807  1.00  0.00     0.285 A 
HETATM   35  N3  UNL     1      52.335  24.684  48.698  1.00  0.00    -0.094 NA
HETATM   36  N2  UNL     1      49.222  25.009  46.889  1.00  0.00    -0.154 N 
HETATM   37  O1  UNL     1      49.972  26.120  48.693  1.00  0.00    -0.266 OA
HETATM   38  C3  UNL     1      49.361  24.086  45.926  1.00  0.00     0.682 A 
ATOM     39  H2  UNL     1      48.365  25.561  46.923  1.00  0.00     0.187 HD
HETATM   40  N13 UNL     1      50.472  23.360  45.872  1.00  0.00    -0.191 N 
ATOM     41  H13 UNL     1      50.580  22.657  45.141  1.00  0.00     0.184 HD
BRANCH  38  42
HETATM   42  N1  UNL     1      48.284  23.935  44.997  1.00  0.00    -0.226 N 
HETATM   43  C1  UNL     1      47.005  23.391  45.394  1.00  0.00     0.168 C 
HETATM   44  C2  UNL     1      48.518  24.348  43.634  1.00  0.00     0.168 C 
ENDBRANCH  38  42
ENDBRANCH  31  32
ENDBRANCH  30  31
ENDBRANCH   1  30
TORSDOF 9
ENDMDL
MODEL 3
REMARK VINA RESULT: -9.267939482      2.794      3.629
REMARK  9 active torsions:
REMARK  status: ('A' for Active; 'I' for Inactive)
REMARK    1  A    between atoms: N1_2  and  C3_4 
REMARK    2  A    between atoms: C6_11  and  C7_12 
REMARK    3  A    between atoms: C7_12  and  O2_13 
REMARK    4  A    between atoms: O2_13  and  C8_14 
REMARK       I    between atoms: C8_14  and  N4_16 
REMARK    5  A    between atoms: C9_21  and  C10_22 
REMARK    6  A    between atoms: C11_23  and  N7_24 
REMARK    7  A    between atoms: N7_24  and  O4_26 
REMARK    8  A    between atoms: C12_30  and  N9_31 
REMARK    9  A    between atoms: N11_37  and  O5_39 
ROOT
HETATM    1  C8  UNL     1      52.306  20.346  47.001  1.00  0.00     0.403 C 
HETATM    2  O3  UNL     1      51.163  19.826  46.919  1.00  0.00    -0.234 OA
HETATM    3  N4  UNL     1      53.487  19.580  46.695  1.00  0.00    -0.119 N 
HETATM    4  N5  UNL     1      54.736  20.002  46.741  1.00  0.00    -0.215 N 
ATOM      5  H5  UNL     1      55.026  20.943  47.006  1.00  0.00     0.210 HD
HETATM    6  N6  UNL     1      55.556  19.030  46.397  1.00  0.00    -0.267 N 
ATOM      7  H6  UNL     1      56.573  19.098  46.352  1.00  0.00     0.190 HD
HETATM    8  C9  UNL     1      54.822  17.918  46.110  1.00  0.00     0.155 A 
HETATM    9  N12 UNL     1      53.537  18.319  46.314  1.00  0.00    -0.256 N 
ATOM     10  H12 UNL     1      52.720  17.722  46.190  1.00  0.00     0.191 HD
ENDROOT
BRANCH   8  11
HETATM   11  C10 UNL     1      55.323  16.628  45.680  1.00  0.00     0.103 A 
HETATM   12  C11 UNL     1      55.776  15.775  46.653  1.00  0.00     0.158 A 
HETATM   13  N8  UNL     1      56.253  14.568  46.331  1.00  0.00    -0.174 N 
HETATM   14  C12 UNL     1      56.287  14.193  45.038  1.00  0.00     0.679 A 
ATOM     15  H8  UNL     1      56.589  13.936  47.059  1.00  0.00     0.186 HD
HETATM   16  N10 UNL     1      55.846  15.019  44.078  1.00  0.00    -0.174 N 
HETATM   17  C13 UNL     1      55.352  16.262  44.379  1.00  0.00     0.158 A 
ATOM     18  H10 UNL     1      55.879  14.717  43.105  1.00  0.00     0.186 HD
HETATM   19  N11 UNL     1      54.945  17.016  43.434  1.00  0.00    -0.252 N 
ATOM     20  H11 UNL     1      55.002  16.661  42.479  1.00  0.00     0.196 HD
BRANCH  12  21
HETATM   21  N7  UNL     1      55.760  16.130  48.035  1.00  0.00    -0.252 N 
ATOM     22  H7  UNL     1      56.144  17.037  48.300  1.00  0.00     0.196 HD
BRANCH  21  23
HETATM   23  O4  UNL     1      55.273  15.349  49.006  1.00  0.00    -0.288 OA
ATOM     24  H4  UNL     1      55.676  15.244  49.860  1.00  0.00     0.244 HD
ENDBRANCH  21  23
ENDBRANCH  12  21
BRANCH  14  25
HETATM   25  N9  UNL     1      56.756  13.008  44.738  1.00  0.00    -0.234 N 
ATOM     26  H92 UNL     1      57.433  12.547  45.346  1.00  0.00     0.174 HD
ATOM     27  H91 UNL     1      56.433  12.555  43.884  1.00  0.00     0.174 HD
ENDBRANCH  14  25
BRANCH  19  28
HETATM   28  O5  UNL     1      54.442  18.256  43.620  1.00  0.00    -0.288 OA
ATOM     29  H5  UNL     1      53.655  18.580  43.197  1.00  0.00     0.244 HD
ENDBRANCH  19  28
ENDBRANCH   8  11
BRANCH   1  30
HETATM   30  O2  UNL     1      52.387  21.656  47.389  1.00  0.00    -0.295 OA
BRANCH  30  31
HETATM   31  C7  UNL     1      52.292  22.023  48.747  1.00  0.00     0.240 C 
BRANCH  31  32
HETATM   32  C6  UNL     1      53.180  23.150  49.080  1.00  0.00     0.080 A 
HETATM   33  C5  UNL     1      54.470  22.915  49.458  1.00  0.00     0.140 A 
HETATM   34  C4  UNL     1      55.288  23.971  49.766  1.00  0.00     0.285 A 
HETATM   35  N3  UNL     1      54.976  21.597  49.537  1.00  0.00    -0.094 NA
HETATM   36  N2  UNL     1      54.778  25.204  49.680  1.00  0.00    -0.154 N 
HETATM   37  O1  UNL     1      56.498  23.828  50.125  1.00  0.00    -0.266 OA
HETATM   38  C3  UNL     1      53.509  25.428  49.307  1.00  0.00     0.682 A 
ATOM     39  H2  UNL     1      55.373  26.000  49.905  1.00  0.00     0.187 HD
HETATM   40  N13 UNL     1      52.722  24.399  49.012  1.00  0.00    -0.191 N 
ATOM     41  H13 UNL     1      51.757  24.568  48.729  1.00  0.00     0.184 HD
BRANCH  38  42
HETATM   42  N1  UNL     1      53.069  26.788  49.251  1.00  0.00    -0.226 N 
HETATM   43  C1  UNL     1      51.939  27.191  48.443  1.00  0.00     0.168 C 
HETATM   44  C2  UNL     1      53.797  27.756  50.035  1.00  0.00     0.168 C 
ENDBRANCH  38  42
ENDBRANCH  31  32
ENDBRANCH  30  31
ENDBRANCH   1  30
TORSDOF 9
ENDMDL
MODEL 4
REMARK VINA RESULT: -9.244055910      1.210      2.653
REMARK  9 active torsions:
REMARK  status: ('A' for Active; 'I' for Inactive)
REMARK    1  A    between atoms: N1_2  and  C3_4 
REMARK    2  A    between atoms: C6_11  and  C7_12 
REMARK    3  A    between atoms: C7_12  and  O2_13 
REMARK    4  A    between atoms: O2_13  and  C8_14 
REMARK       I    between atoms: C8_14  and  N4_16 
REMARK    5  A    between atoms: C9_21  and  C10_22 
REMARK    6  A    between atoms: C11_23  and  N7_24 
REMARK    7  A    between atoms: N7_24  and  O4_26 
REMARK    8  A    between atoms: C12_30  and  N9_31 
REMARK    9  A    between atoms: N11_37  and  O5_39 
ROOT
HETATM    1  C8  UNL     1      52.336  20.272  46.922  1.00  0.00     0.403 C 
HETATM    2  O3  UNL     1      51.197  19.740  46.867  1.00  0.00    -0.234 OA
HETATM    3  N4  UNL     1      53.520  19.510  46.620  1.00  0.00    -0.119 N 
HETATM    4  N5  UNL     1      54.766  19.944  46.640  1.00  0.00    -0.215 N 
ATOM      5  H5  UNL     1      55.049  20.895  46.877  1.00  0.00     0.210 HD
HETATM    6  N6  UNL     1      55.591  18.972  46.309  1.00  0.00    -0.267 N 
ATOM      7  H6  UNL     1      56.606  19.048  46.249  1.00  0.00     0.190 HD
HETATM    8  C9  UNL     1      54.863  17.846  46.060  1.00  0.00     0.155 A 
HETATM    9  N12 UNL     1      53.577  18.241  46.270  1.00  0.00    -0.256 N 
ATOM     10  H12 UNL     1      52.764  17.632  46.171  1.00  0.00     0.191 HD
ENDROOT
BRANCH   8  11
HETATM   11  C10 UNL     1      55.372  16.551  45.655  1.00  0.00     0.103 A 
HETATM   12  C11 UNL     1      55.800  15.708  46.648  1.00  0.00     0.158 A 
HETATM   13  N8  UNL     1      56.282  14.496  46.350  1.00  0.00    -0.174 N 
HETATM   14  C12 UNL     1      56.345  14.107  45.063  1.00  0.00     0.679 A 
ATOM     15  H8  UNL     1      56.599  13.871  47.092  1.00  0.00     0.186 HD
HETATM   16  N10 UNL     1      55.928  14.923  44.084  1.00  0.00    -0.174 N 
HETATM   17  C13 UNL     1      55.429  16.170  44.359  1.00  0.00     0.158 A 
ATOM     18  H10 UNL     1      55.982  14.610  43.115  1.00  0.00     0.186 HD
HETATM   19  N11 UNL     1      55.046  16.915  43.397  1.00  0.00    -0.252 N 
ATOM     20  H11 UNL     1      55.124  16.549  42.448  1.00  0.00     0.196 HD
BRANCH  12  21
HETATM   21  N7  UNL     1      55.753  16.078  48.026  1.00  0.00    -0.252 N 
ATOM     22  H7  UNL     1      56.089  17.006  48.283  1.00  0.00     0.196 HD
BRANCH  21  23
HETATM   23  O4  UNL     1      55.297  15.285  49.001  1.00  0.00    -0.288 OA
ATOM     24  H4  UNL     1      54.623  14.625  48.882  1.00  0.00     0.244 HD
ENDBRANCH  21  23
ENDBRANCH  12  21
BRANCH  14  25
HETATM   25  N9  UNL     1      56.818  12.918  44.787  1.00  0.00    -0.234 N 
ATOM     26  H92 UNL     1      56.981  12.237  45.528  1.00  0.00     0.174 HD
ATOM     27  H91 UNL     1      57.023  12.685  43.815  1.00  0.00     0.174 HD
ENDBRANCH  14  25
BRANCH  19  28
HETATM   28  O5  UNL     1      54.541  18.158  43.558  1.00  0.00    -0.288 OA
ATOM     29  H5  UNL     1      54.277  18.721  42.840  1.00  0.00     0.244 HD
ENDBRANCH  19  28
ENDBRANCH   8  11
BRANCH   1  30
HETATM   30  O2  UNL     1      52.410  21.592  47.276  1.00  0.00    -0.295 OA
BRANCH  30  31
HETATM   31  C7  UNL     1      52.121  22.614  46.349  1.00  0.00     0.240 C 
BRANCH  31  32
HETATM   32  C6  UNL     1      51.433  23.755  46.977  1.00  0.00     0.080 A 
HETATM   33  C5  UNL     1      50.208  24.148  46.522  1.00  0.00     0.140 A 
HETATM   34  C4  UNL     1      49.576  25.211  47.115  1.00  0.00     0.285 A 
HETATM   35  N3  UNL     1      49.579  23.475  45.449  1.00  0.00    -0.094 NA
HETATM   36  N2  UNL     1      50.198  25.824  48.127  1.00  0.00    -0.154 N 
HETATM   37  O1  UNL     1      48.436  25.633  46.745  1.00  0.00    -0.266 OA
HETATM   38  C3  UNL     1      51.402  25.432  48.569  1.00  0.00     0.682 A 
ATOM     39  H2  UNL     1      49.741  26.616  48.578  1.00  0.00     0.187 HD
HETATM   40  N13 UNL     1      52.008  24.402  47.990  1.00  0.00    -0.191 N 
ATOM     41  H13 UNL     1      52.925  24.103  48.323  1.00  0.00     0.184 HD
BRANCH  38  42
HETATM   42  N1  UNL     1      51.974  26.162  49.658  1.00  0.00    -0.226 N 
HETATM   43  C1  UNL     1      51.782  25.755  51.033  1.00  0.00     0.168 C 
HETATM   44  C2  UNL     1      52.759  27.330  49.338  1.00  0.00     0.168 C 
ENDBRANCH  38  42
ENDBRANCH  31  32
ENDBRANCH  30  31
ENDBRANCH   1  30
TORSDOF 9
ENDMDL
MODEL 5
REMARK VINA RESULT: -9.198420431      1.865      3.515
REMARK  9 active torsions:
REMARK  status: ('A' for Active; 'I' for Inactive)
REMARK    1  A    between atoms: N1_2  and  C3_4 
REMARK    2  A    between atoms: C6_11  and  C7_12 
REMARK    3  A    between atoms: C7_12  and  O2_13 
REMARK    4  A    between atoms: O2_13  and  C8_14 
REMARK       I    between atoms: C8_14  and  N4_16 
REMARK    5  A    between atoms: C9_21  and  C10_22 
REMARK    6  A    between atoms: C11_23  and  N7_24 
REMARK    7  A    between atoms: N7_24  and  O4_26 
REMARK    8  A    between atoms: C12_30  and  N9_31 
REMARK    9  A    between atoms: N11_37  and  O5_39 
ROOT
HETATM    1  C8  UNL     1      52.312  20.273  47.056  1.00  0.00     0.403 C 
HETATM    2  O3  UNL     1      51.165  19.776  46.914  1.00  0.00    -0.234 OA
HETATM    3  N4  UNL     1      53.491  19.507  46.745  1.00  0.00    -0.119 N 
HETATM    4  N5  UNL     1      54.744  19.907  46.849  1.00  0.00    -0.215 N 
ATOM      5  H5  UNL     1      55.038  20.829  47.170  1.00  0.00     0.210 HD
HETATM    6  N6  UNL     1      55.561  18.942  46.478  1.00  0.00    -0.267 N 
ATOM      7  H6  UNL     1      56.579  18.997  46.466  1.00  0.00     0.190 HD
HETATM    8  C9  UNL     1      54.820  17.857  46.113  1.00  0.00     0.155 A 
HETATM    9  N12 UNL     1      53.535  18.267  46.301  1.00  0.00    -0.256 N 
ATOM     10  H12 UNL     1      52.714  17.689  46.122  1.00  0.00     0.191 HD
ENDROOT
BRANCH   8  11
HETATM   11  C10 UNL     1      55.316  16.584  45.631  1.00  0.00     0.103 A 
HETATM   12  C11 UNL     1      55.783  15.698  46.568  1.00  0.00     0.158 A 
HETATM   13  N8  UNL     1      56.256  14.503  46.197  1.00  0.00    -0.174 N 
HETATM   14  C12 UNL     1      56.273  14.174  44.892  1.00  0.00     0.679 A 
ATOM     15  H8  UNL     1      56.603  13.846  46.897  1.00  0.00     0.186 HD
HETATM   16  N10 UNL     1      55.818  15.032  43.967  1.00  0.00    -0.174 N 
HETATM   17  C13 UNL     1      55.327  16.263  44.318  1.00  0.00     0.158 A 
ATOM     18  H10 UNL     1      55.837  14.764  42.983  1.00  0.00     0.186 HD
HETATM   19  N11 UNL     1      54.906  17.049  43.406  1.00  0.00    -0.252 N 
ATOM     20  H11 UNL     1      54.950  16.728  42.438  1.00  0.00     0.196 HD
BRANCH  12  21
HETATM   21  N7  UNL     1      55.786  16.004  47.962  1.00  0.00    -0.252 N 
ATOM     22  H7  UNL     1      56.299  16.831  48.268  1.00  0.00     0.196 HD
BRANCH  21  23
HETATM   23  O4  UNL     1      55.158  15.276  48.892  1.00  0.00    -0.288 OA
ATOM     24  H4  UNL     1      55.408  15.252  49.809  1.00  0.00     0.244 HD
ENDBRANCH  21  23
ENDBRANCH  12  21
BRANCH  14  25
HETATM   25  N9  UNL     1      56.738  13.001  44.544  1.00  0.00    -0.234 N 
ATOM     26  H92 UNL     1      57.688  12.723  44.790  1.00  0.00     0.174 HD
ATOM     27  H91 UNL     1      56.133  12.368  44.021  1.00  0.00     0.174 HD
ENDBRANCH  14  25
BRANCH  19  28
HETATM   28  O5  UNL     1      54.405  18.281  43.642  1.00  0.00    -0.288 OA
ATOM     29  H5  UNL     1      54.936  19.065  43.721  1.00  0.00     0.244 HD
ENDBRANCH  19  28
ENDBRANCH   8  11
BRANCH   1  30
HETATM   30  O2  UNL     1      52.400  21.560  47.514  1.00  0.00    -0.295 OA
BRANCH  30  31
HETATM   31  C7  UNL     1      52.639  22.635  46.632  1.00  0.00     0.240 C 
BRANCH  31  32
HETATM   32  C6  UNL     1      52.865  23.901  47.349  1.00  0.00     0.080 A 
HETATM   33  C5  UNL     1      52.115  25.001  47.047  1.00  0.00     0.140 A 
HETATM   34  C4  UNL     1      52.334  26.174  47.721  1.00  0.00     0.285 A 
HETATM   35  N3  UNL     1      51.115  24.947  46.048  1.00  0.00    -0.094 NA
HETATM   36  N2  UNL     1      53.286  26.189  48.658  1.00  0.00    -0.154 N 
HETATM   37  O1  UNL     1      51.676  27.236  47.493  1.00  0.00    -0.266 OA
HETATM   38  C3  UNL     1      54.020  25.105  48.951  1.00  0.00     0.682 A 
ATOM     39  H2  UNL     1      53.461  27.055  49.169  1.00  0.00     0.187 HD
HETATM   40  N13 UNL     1      53.802  23.971  48.293  1.00  0.00    -0.191 N 
ATOM     41  H13 UNL     1      54.359  23.146  48.513  1.00  0.00     0.184 HD
BRANCH  38  42
HETATM   42  N1  UNL     1      55.012  25.236  49.973  1.00  0.00    -0.226 N 
HETATM   43  C1  UNL     1      56.003  24.210  50.208  1.00  0.00     0.168 C 
HETATM   44  C2  UNL     1      54.992  26.439  50.770  1.00  0.00     0.168 C 
ENDBRANCH  38  42
ENDBRANCH  31  32
ENDBRANCH  30  31
ENDBRANCH   1  30
TORSDOF 9
ENDMDL
