MODEL 1
REMARK VINA RESULT: -7.847646748      0.000      0.000
REMARK  11 active torsions:
REMARK  status: ('A' for Active; 'I' for Inactive)
REMARK    1  A    between atoms: O1_2  and  C2_3 
REMARK    2  A    between atoms: C2_3  and  O2_4 
REMARK    3  A    between atoms: C2_3  and  C3_6 
REMARK    4  A    between atoms: C4_7  and  C5_8 
REMARK    5  A    between atoms: N1_10  and  N2_12 
REMARK    6  A    between atoms: N2_12  and  C7_14 
REMARK    7  A    between atoms: C11_21  and  O4_22 
REMARK    8  A    between atoms: C11_21  and  C12_24 
REMARK    9  A    between atoms: C12_24  and  O5_25 
REMARK   10  A    between atoms: C14_31  and  N6_32 
REMARK   11  A    between atoms: N7_35  and  N8_36 
ROOT
HETATM    1  C5  UNL     1      -8.215  32.003  -6.579  1.00  0.00     0.050 C 
HETATM    2  C6  UNL     1      -9.458  31.257  -6.683  1.00  0.00     0.072 C 
HETATM    3  N1  UNL     1      -7.134  31.303  -6.671  1.00  0.00    -0.301 N 
ATOM      4  H1  UNL     1      -6.309  31.901  -6.707  1.00  0.00     0.186 HD
ENDROOT
BRANCH   1   5
HETATM    5  C4  UNL     1      -8.095  33.448  -6.541  1.00  0.00     0.087 A 
HETATM    6  C3  UNL     1      -8.344  34.341  -7.517  1.00  0.00     0.069 A 
HETATM    7  C15 UNL     1      -7.941  35.706  -7.356  1.00  0.00     0.169 A 
HETATM    8  N7  UNL     1      -7.324  36.109  -6.239  1.00  0.00    -0.078 N 
HETATM    9  N9  UNL     1      -8.176  36.624  -8.407  1.00  0.00    -0.079 NA
HETATM   10  C14 UNL     1      -7.091  35.210  -5.275  1.00  0.00     0.698 A 
HETATM   11  N5  UNL     1      -7.452  33.932  -5.404  1.00  0.00    -0.188 N 
ATOM     12  H5  UNL     1      -7.251  33.286  -4.641  1.00  0.00     0.184 HD
BRANCH   6  13
HETATM   13  C2  UNL     1      -9.167  34.026  -8.672  1.00  0.00     0.296 C 
BRANCH  13  14
HETATM   14  O1  UNL     1     -10.378  34.692  -8.691  1.00  0.00    -0.362 OA
HETATM   15  C1  UNL     1     -11.486  33.898  -8.382  1.00  0.00     0.205 C 
ENDBRANCH  13  14
BRANCH  13  16
HETATM   16  O2  UNL     1      -8.515  34.829  -9.784  1.00  0.00    -0.367 OA
ATOM     17  H2  UNL     1      -8.287  35.582  -9.252  1.00  0.00     0.213 HD
ENDBRANCH  13  16
ENDBRANCH   6  13
BRANCH   8  18
HETATM   18  N8  UNL     1      -6.945  37.446  -6.103  1.00  0.00    -0.323 N 
ATOM     19  H82 UNL     1      -6.944  37.878  -5.180  1.00  0.00     0.178 HD
ATOM     20  H81 UNL     1      -6.664  38.007  -6.907  1.00  0.00     0.178 HD
ENDBRANCH   8  18
BRANCH  10  21
HETATM   21  N6  UNL     1      -6.490  35.635  -4.195  1.00  0.00    -0.233 N 
ATOM     22  H62 UNL     1      -6.118  34.929  -3.561  1.00  0.00     0.174 HD
ATOM     23  H61 UNL     1      -6.402  36.632  -4.001  1.00  0.00     0.174 HD
ENDBRANCH  10  21
ENDBRANCH   1   5
BRANCH   3  24
HETATM   24  N2  UNL     1      -6.802  30.029  -6.731  1.00  0.00    -0.284 N 
ATOM     25  H2  UNL     1      -6.554  29.624  -5.828  1.00  0.00     0.188 HD
BRANCH  24  26
HETATM   26  C7  UNL     1      -6.724  29.101  -7.825  1.00  0.00     0.147 A 
HETATM   27  C8  UNL     1      -6.444  27.765  -7.659  1.00  0.00     0.128 A 
HETATM   28  C9  UNL     1      -6.486  27.203  -8.920  1.00  0.00     0.276 A 
HETATM   29  O3  UNL     1      -6.276  25.974  -9.179  1.00  0.00    -0.266 OA
HETATM   30  N3  UNL     1      -6.778  28.197  -9.755  1.00  0.00    -0.184 N 
HETATM   31  N4  UNL     1      -6.926  29.339  -9.130  1.00  0.00    -0.235 N 
HETATM   32  S1  UNL     1      -6.995  28.148 -11.504  1.00  0.00    -0.023 SA
HETATM   33  C10 UNL     1      -7.257  30.592  -9.730  1.00  0.00     0.133 C 
HETATM   34  C11 UNL     1      -7.749  30.649 -11.087  1.00  0.00     0.123 C 
HETATM   35  C13 UNL     1      -8.284  29.442 -11.764  1.00  0.00     0.145 C 
BRANCH  34  36
HETATM   36  O4  UNL     1      -6.733  31.160 -11.941  1.00  0.00    -0.381 OA
ATOM     37  H4  UNL     1      -6.751  30.696 -12.770  1.00  0.00     0.211 HD
ENDBRANCH  34  36
BRANCH  34  38
HETATM   38  C12 UNL     1      -8.870  31.704 -11.209  1.00  0.00     0.208 C 
BRANCH  38  39
HETATM   39  O5  UNL     1      -8.459  32.837 -11.864  1.00  0.00    -0.397 OA
ATOM     40  H5  UNL     1      -9.185  33.356 -12.188  1.00  0.00     0.209 HD
ENDBRANCH  38  39
ENDBRANCH  34  38
ENDBRANCH  24  26
ENDBRANCH   3  24
TORSDOF 11
ENDMDL
MODEL 2
REMARK VINA RESULT: -7.815740991      3.544      5.215
REMARK  11 active torsions:
REMARK  status: ('A' for Active; 'I' for Inactive)
REMARK    1  A    between atoms: O1_2  and  C2_3 
REMARK    2  A    between atoms: C2_3  and  O2_4 
REMARK    3  A    between atoms: C2_3  and  C3_6 
REMARK    4  A    between atoms: C4_7  and  C5_8 
REMARK    5  A    between atoms: N1_10  and  N2_12 
REMARK    6  A    between atoms: N2_12  and  C7_14 
REMARK    7  A    between atoms: C11_21  and  O4_22 
REMARK    8  A    between atoms: C11_21  and  C12_24 
REMARK    9  A    between atoms: C12_24  and  O5_25 
REMARK   10  A    between atoms: C14_31  and  N6_32 
REMARK   11  A    between atoms: N7_35  and  N8_36 
ROOT
HETATM    1  C5  UNL     1     -10.292  33.698  -8.846  1.00  0.00     0.050 C 
HETATM    2  C6  UNL     1     -11.705  33.646  -8.506  1.00  0.00     0.072 C 
HETATM    3  N1  UNL     1      -9.977  33.217 -10.002  1.00  0.00    -0.301 N 
ATOM      4  H1  UNL     1      -8.996  33.392 -10.219  1.00  0.00     0.186 HD
ENDROOT
BRANCH   1   5
HETATM    5  C4  UNL     1      -9.261  34.372  -8.080  1.00  0.00     0.087 A 
HETATM    6  C3  UNL     1      -8.692  33.997  -6.919  1.00  0.00     0.069 A 
HETATM    7  C15 UNL     1      -7.858  34.916  -6.203  1.00  0.00     0.169 A 
HETATM    8  N7  UNL     1      -7.630  36.146  -6.680  1.00  0.00    -0.078 N 
HETATM    9  N9  UNL     1      -7.298  34.520  -4.965  1.00  0.00    -0.079 NA
HETATM   10  C14 UNL     1      -8.198  36.500  -7.839  1.00  0.00     0.698 A 
HETATM   11  N5  UNL     1      -8.981  35.663  -8.522  1.00  0.00    -0.188 N 
ATOM     12  H5  UNL     1      -9.392  35.981  -9.400  1.00  0.00     0.184 HD
BRANCH   6  13
HETATM   13  C2  UNL     1      -8.739  32.629  -6.431  1.00  0.00     0.296 C 
BRANCH  13  14
HETATM   14  O1  UNL     1      -9.109  31.708  -7.392  1.00  0.00    -0.362 OA
HETATM   15  C1  UNL     1      -9.568  30.488  -6.886  1.00  0.00     0.205 C 
ENDBRANCH  13  14
BRANCH  13  16
HETATM   16  O2  UNL     1      -7.273  32.237  -6.376  1.00  0.00    -0.367 OA
ATOM     17  H2  UNL     1      -6.981  32.986  -5.869  1.00  0.00     0.213 HD
ENDBRANCH  13  16
ENDBRANCH   6  13
BRANCH   8  18
HETATM   18  N8  UNL     1      -6.811  37.022  -5.966  1.00  0.00    -0.323 N 
ATOM     19  H82 UNL     1      -6.960  38.028  -6.042  1.00  0.00     0.178 HD
ATOM     20  H81 UNL     1      -6.062  36.683  -5.362  1.00  0.00     0.178 HD
ENDBRANCH   8  18
BRANCH  10  21
HETATM   21  N6  UNL     1      -7.954  37.705  -8.280  1.00  0.00    -0.233 N 
ATOM     22  H62 UNL     1      -7.682  37.798  -9.258  1.00  0.00     0.174 HD
ATOM     23  H61 UNL     1      -8.033  38.515  -7.665  1.00  0.00     0.174 HD
ENDBRANCH  10  21
ENDBRANCH   1   5
BRANCH   3  24
HETATM   24  N2  UNL     1     -10.574  32.562 -10.978  1.00  0.00    -0.284 N 
ATOM     25  H2  UNL     1     -11.266  31.885 -10.658  1.00  0.00     0.188 HD
BRANCH  24  26
HETATM   26  C7  UNL     1     -10.435  32.620 -12.407  1.00  0.00     0.147 A 
HETATM   27  C8  UNL     1     -11.225  31.897 -13.269  1.00  0.00     0.128 A 
HETATM   28  C9  UNL     1     -10.815  32.236 -14.543  1.00  0.00     0.276 A 
HETATM   29  O3  UNL     1     -11.312  31.768 -15.619  1.00  0.00    -0.266 OA
HETATM   30  N3  UNL     1      -9.830  33.119 -14.390  1.00  0.00    -0.184 N 
HETATM   31  N4  UNL     1      -9.583  33.366 -13.127  1.00  0.00    -0.235 N 
HETATM   32  S1  UNL     1      -8.889  33.956 -15.623  1.00  0.00    -0.023 SA
HETATM   33  C10 UNL     1      -8.602  34.273 -12.623  1.00  0.00     0.133 C 
HETATM   34  C11 UNL     1      -7.972  35.235 -13.497  1.00  0.00     0.123 C 
HETATM   35  C13 UNL     1      -8.562  35.581 -14.814  1.00  0.00     0.145 C 
BRANCH  34  36
HETATM   36  O4  UNL     1      -6.633  34.834 -13.761  1.00  0.00    -0.381 OA
ATOM     37  H4  UNL     1      -6.610  34.296 -14.544  1.00  0.00     0.211 HD
ENDBRANCH  34  36
BRANCH  34  38
HETATM   38  C12 UNL     1      -7.794  36.586 -12.772  1.00  0.00     0.208 C 
BRANCH  38  39
HETATM   39  O5  UNL     1      -8.051  36.501 -11.428  1.00  0.00    -0.397 OA
ATOM     40  H5  UNL     1      -8.948  36.727 -11.212  1.00  0.00     0.209 HD
ENDBRANCH  38  39
ENDBRANCH  34  38
ENDBRANCH  24  26
ENDBRANCH   3  24
TORSDOF 11
ENDMDL
MODEL 3
REMARK VINA RESULT: -7.752980717      2.662      3.868
REMARK  11 active torsions:
REMARK  status: ('A' for Active; 'I' for Inactive)
REMARK    1  A    between atoms: O1_2  and  C2_3 
REMARK    2  A    between atoms: C2_3  and  O2_4 
REMARK    3  A    between atoms: C2_3  and  C3_6 
REMARK    4  A    between atoms: C4_7  and  C5_8 
REMARK    5  A    between atoms: N1_10  and  N2_12 
REMARK    6  A    between atoms: N2_12  and  C7_14 
REMARK    7  A    between atoms: C11_21  and  O4_22 
REMARK    8  A    between atoms: C11_21  and  C12_24 
REMARK    9  A    between atoms: C12_24  and  O5_25 
REMARK   10  A    between atoms: C14_31  and  N6_32 
REMARK   11  A    between atoms: N7_35  and  N8_36 
ROOT
HETATM    1  C5  UNL     1     -10.549  33.622  -8.610  1.00  0.00     0.050 C 
HETATM    2  C6  UNL     1     -11.960  33.847  -8.336  1.00  0.00     0.072 C 
HETATM    3  N1  UNL     1     -10.292  32.840  -9.604  1.00  0.00    -0.301 N 
ATOM      4  H1  UNL     1      -9.293  32.821  -9.809  1.00  0.00     0.186 HD
ENDROOT
BRANCH   1   5
HETATM    5  C4  UNL     1      -9.442  34.310  -7.974  1.00  0.00     0.087 A 
HETATM    6  C3  UNL     1      -8.734  33.946  -6.890  1.00  0.00     0.069 A 
HETATM    7  C15 UNL     1      -7.831  34.878  -6.280  1.00  0.00     0.169 A 
HETATM    8  N7  UNL     1      -7.678  36.108  -6.783  1.00  0.00    -0.078 N 
HETATM    9  N9  UNL     1      -7.122  34.492  -5.118  1.00  0.00    -0.079 NA
HETATM   10  C14 UNL     1      -8.384  36.452  -7.866  1.00  0.00     0.698 A 
HETATM   11  N5  UNL     1      -9.234  35.603  -8.449  1.00  0.00    -0.188 N 
ATOM     12  H5  UNL     1      -9.750  35.913  -9.272  1.00  0.00     0.184 HD
BRANCH   6  13
HETATM   13  C2  UNL     1      -8.705  32.579  -6.397  1.00  0.00     0.296 C 
BRANCH  13  14
HETATM   14  O1  UNL     1      -9.695  31.776  -6.929  1.00  0.00    -0.362 OA
HETATM   15  C1  UNL     1      -9.477  30.403  -6.777  1.00  0.00     0.205 C 
ENDBRANCH  13  14
BRANCH  13  16
HETATM   16  O2  UNL     1      -7.553  31.963  -7.170  1.00  0.00    -0.367 OA
ATOM     17  H2  UNL     1      -7.876  31.070  -7.148  1.00  0.00     0.213 HD
ENDBRANCH  13  16
ENDBRANCH   6  13
BRANCH   8  18
HETATM   18  N8  UNL     1      -6.789  36.996  -6.174  1.00  0.00    -0.323 N 
ATOM     19  H82 UNL     1      -6.392  37.764  -6.717  1.00  0.00     0.178 HD
ATOM     20  H81 UNL     1      -6.525  36.902  -5.195  1.00  0.00     0.178 HD
ENDBRANCH   8  18
BRANCH  10  21
HETATM   21  N6  UNL     1      -8.210  37.658  -8.336  1.00  0.00    -0.233 N 
ATOM     22  H62 UNL     1      -8.510  38.435  -7.748  1.00  0.00     0.174 HD
ATOM     23  H61 UNL     1      -7.790  37.810  -9.253  1.00  0.00     0.174 HD
ENDBRANCH  10  21
ENDBRANCH   1   5
BRANCH   3  24
HETATM   24  N2  UNL     1     -10.963  32.059 -10.428  1.00  0.00    -0.284 N 
ATOM     25  H2  UNL     1     -11.619  32.559 -11.028  1.00  0.00     0.188 HD
BRANCH  24  26
HETATM   26  C7  UNL     1     -10.947  30.639 -10.642  1.00  0.00     0.147 A 
HETATM   27  C8  UNL     1     -12.030  29.937 -11.116  1.00  0.00     0.128 A 
HETATM   28  C9  UNL     1     -11.623  28.621 -11.215  1.00  0.00     0.276 A 
HETATM   29  O3  UNL     1     -12.354  27.659 -11.619  1.00  0.00    -0.266 OA
HETATM   30  N3  UNL     1     -10.356  28.596 -10.808  1.00  0.00    -0.184 N 
HETATM   31  N4  UNL     1      -9.927  29.785 -10.461  1.00  0.00    -0.235 N 
HETATM   32  S1  UNL     1      -9.250  27.227 -10.707  1.00  0.00    -0.023 SA
HETATM   33  C10 UNL     1      -8.615  30.104  -9.995  1.00  0.00     0.133 C 
HETATM   34  C11 UNL     1      -7.533  29.159 -10.142  1.00  0.00     0.123 C 
HETATM   35  C13 UNL     1      -7.628  28.019 -11.089  1.00  0.00     0.145 C 
BRANCH  34  36
HETATM   36  O4  UNL     1      -7.222  28.591  -8.875  1.00  0.00    -0.381 OA
ATOM     37  H4  UNL     1      -6.291  28.403  -8.831  1.00  0.00     0.211 HD
ENDBRANCH  34  36
BRANCH  34  38
HETATM   38  C12 UNL     1      -6.228  29.889 -10.527  1.00  0.00     0.208 C 
BRANCH  38  39
HETATM   39  O5  UNL     1      -5.937  30.929  -9.682  1.00  0.00    -0.397 OA
ATOM     40  H5  UNL     1      -6.716  31.358  -9.348  1.00  0.00     0.209 HD
ENDBRANCH  38  39
ENDBRANCH  34  38
ENDBRANCH  24  26
ENDBRANCH   3  24
TORSDOF 11
ENDMDL
MODEL 4
REMARK VINA RESULT: -7.716422303      3.023      4.288
REMARK  11 active torsions:
REMARK  status: ('A' for Active; 'I' for Inactive)
REMARK    1  A    between atoms: O1_2  and  C2_3 
REMARK    2  A    between atoms: C2_3  and  O2_4 
REMARK    3  A    between atoms: C2_3  and  C3_6 
REMARK    4  A    between atoms: C4_7  and  C5_8 
REMARK    5  A    between atoms: N1_10  and  N2_12 
REMARK    6  A    between atoms: N2_12  and  C7_14 
REMARK    7  A    between atoms: C11_21  and  O4_22 
REMARK    8  A    between atoms: C11_21  and  C12_24 
REMARK    9  A    between atoms: C12_24  and  O5_25 
REMARK   10  A    between atoms: C14_31  and  N6_32 
REMARK   11  A    between atoms: N7_35  and  N8_36 
ROOT
HETATM    1  C5  UNL     1     -10.562  33.299  -8.174  1.00  0.00     0.050 C 
HETATM    2  C6  UNL     1     -11.912  33.830  -8.282  1.00  0.00     0.072 C 
HETATM    3  N1  UNL     1     -10.381  32.126  -8.682  1.00  0.00    -0.301 N 
ATOM      4  H1  UNL     1      -9.393  31.870  -8.674  1.00  0.00     0.186 HD
ENDROOT
BRANCH   1   5
HETATM    5  C4  UNL     1      -9.402  34.027  -7.697  1.00  0.00     0.087 A 
HETATM    6  C3  UNL     1      -8.702  33.848  -6.561  1.00  0.00     0.069 A 
HETATM    7  C15 UNL     1      -7.730  34.821  -6.160  1.00  0.00     0.169 A 
HETATM    8  N7  UNL     1      -7.502  35.907  -6.907  1.00  0.00    -0.078 N 
HETATM    9  N9  UNL     1      -7.030  34.637  -4.944  1.00  0.00    -0.079 NA
HETATM   10  C14 UNL     1      -8.201  36.067  -8.037  1.00  0.00     0.698 A 
HETATM   11  N5  UNL     1      -9.115  35.177  -8.430  1.00  0.00    -0.188 N 
ATOM     12  H5  UNL     1      -9.622  35.344  -9.299  1.00  0.00     0.184 HD
BRANCH   6  13
HETATM   13  C2  UNL     1      -8.757  32.614  -5.796  1.00  0.00     0.296 C 
BRANCH  13  14
HETATM   14  O1  UNL     1      -7.546  31.953  -5.718  1.00  0.00    -0.362 OA
HETATM   15  C1  UNL     1      -7.297  31.065  -6.769  1.00  0.00     0.205 C 
ENDBRANCH  13  14
BRANCH  13  16
HETATM   16  O2  UNL     1      -8.775  33.104  -4.359  1.00  0.00    -0.367 OA
ATOM     17  H2  UNL     1      -8.252  32.398  -3.999  1.00  0.00     0.213 HD
ENDBRANCH  13  16
ENDBRANCH   6  13
BRANCH   8  18
HETATM   18  N8  UNL     1      -6.547  36.839  -6.498  1.00  0.00    -0.323 N 
ATOM     19  H82 UNL     1      -5.557  36.650  -6.656  1.00  0.00     0.178 HD
ATOM     20  H81 UNL     1      -6.811  37.713  -6.043  1.00  0.00     0.178 HD
ENDBRANCH   8  18
BRANCH  10  21
HETATM   21  N6  UNL     1      -7.954  37.135  -8.747  1.00  0.00    -0.233 N 
ATOM     22  H62 UNL     1      -7.599  36.995  -9.693  1.00  0.00     0.174 HD
ATOM     23  H61 UNL     1      -8.111  38.068  -8.365  1.00  0.00     0.174 HD
ENDBRANCH  10  21
ENDBRANCH   1   5
BRANCH   3  24
HETATM   24  N2  UNL     1     -11.118  31.169  -9.208  1.00  0.00    -0.284 N 
ATOM     25  H2  UNL     1     -11.706  30.682  -8.531  1.00  0.00     0.188 HD
BRANCH  24  26
HETATM   26  C7  UNL     1     -11.254  30.681 -10.552  1.00  0.00     0.147 A 
HETATM   27  C8  UNL     1     -12.225  29.784 -10.932  1.00  0.00     0.128 A 
HETATM   28  C9  UNL     1     -12.053  29.582 -12.287  1.00  0.00     0.276 A 
HETATM   29  O3  UNL     1     -12.767  28.810 -13.007  1.00  0.00    -0.266 OA
HETATM   30  N3  UNL     1     -11.021  30.343 -12.645  1.00  0.00    -0.184 N 
HETATM   31  N4  UNL     1     -10.526  31.009 -11.630  1.00  0.00    -0.235 N 
HETATM   32  S1  UNL     1     -10.300  30.557 -14.239  1.00  0.00    -0.023 SA
HETATM   33  C10 UNL     1      -9.429  31.922 -11.677  1.00  0.00     0.133 C 
HETATM   34  C11 UNL     1      -8.939  32.418 -12.942  1.00  0.00     0.123 C 
HETATM   35  C13 UNL     1      -9.756  32.319 -14.178  1.00  0.00     0.145 C 
BRANCH  34  36
HETATM   36  O4  UNL     1      -7.693  31.801 -13.245  1.00  0.00    -0.381 OA
ATOM     37  H4  UNL     1      -7.674  31.558 -14.164  1.00  0.00     0.211 HD
ENDBRANCH  34  36
BRANCH  34  38
HETATM   38  C12 UNL     1      -8.569  33.912 -12.829  1.00  0.00     0.208 C 
BRANCH  38  39
HETATM   39  O5  UNL     1      -8.573  34.360 -11.532  1.00  0.00    -0.397 OA
ATOM     40  H5  UNL     1      -7.716  34.312 -11.125  1.00  0.00     0.209 HD
ENDBRANCH  38  39
ENDBRANCH  34  38
ENDBRANCH  24  26
ENDBRANCH   3  24
TORSDOF 11
ENDMDL
MODEL 5
REMARK VINA RESULT: -7.703742613      1.897      2.106
REMARK  11 active torsions:
REMARK  status: ('A' for Active; 'I' for Inactive)
REMARK    1  A    between atoms: O1_2  and  C2_3 
REMARK    2  A    between atoms: C2_3  and  O2_4 
REMARK    3  A    between atoms: C2_3  and  C3_6 
REMARK    4  A    between atoms: C4_7  and  C5_8 
REMARK    5  A    between atoms: N1_10  and  N2_12 
REMARK    6  A    between atoms: N2_12  and  C7_14 
REMARK    7  A    between atoms: C11_21  and  O4_22 
REMARK    8  A    between atoms: C11_21  and  C12_24 
REMARK    9  A    between atoms: C12_24  and  O5_25 
REMARK   10  A    between atoms: C14_31  and  N6_32 
REMARK   11  A    between atoms: N7_35  and  N8_36 
ROOT
HETATM    1  C5  UNL     1      -7.401  31.999  -7.650  1.00  0.00     0.050 C 
HETATM    2  C6  UNL     1      -7.822  30.905  -6.790  1.00  0.00     0.072 C 
HETATM    3  N1  UNL     1      -6.868  31.653  -8.774  1.00  0.00    -0.301 N 
ATOM      4  H1  UNL     1      -6.706  32.465  -9.370  1.00  0.00     0.186 HD
ENDROOT
BRANCH   1   5
HETATM    5  C4  UNL     1      -7.669  33.407  -7.422  1.00  0.00     0.087 A 
HETATM    6  C3  UNL     1      -8.446  34.243  -8.135  1.00  0.00     0.069 A 
HETATM    7  C15 UNL     1      -8.396  35.653  -7.884  1.00  0.00     0.169 A 
HETATM    8  N7  UNL     1      -7.588  36.150  -6.940  1.00  0.00    -0.078 N 
HETATM    9  N9  UNL     1      -9.191  36.522  -8.668  1.00  0.00    -0.079 NA
HETATM   10  C14 UNL     1      -6.828  35.304  -6.235  1.00  0.00     0.698 A 
HETATM   11  N5  UNL     1      -6.853  33.988  -6.454  1.00  0.00    -0.188 N 
ATOM     12  H5  UNL     1      -6.254  33.384  -5.891  1.00  0.00     0.184 HD
BRANCH   6  13
HETATM   13  C2  UNL     1      -9.477  33.770  -9.043  1.00  0.00     0.296 C 
BRANCH  13  14
HETATM   14  O1  UNL     1     -10.671  34.457  -8.935  1.00  0.00    -0.362 OA
HETATM   15  C1  UNL     1     -11.643  33.821  -8.156  1.00  0.00     0.205 C 
ENDBRANCH  13  14
BRANCH  13  16
HETATM   16  O2  UNL     1      -9.058  34.365 -10.375  1.00  0.00    -0.367 OA
ATOM     17  H2  UNL     1      -8.901  33.538 -10.816  1.00  0.00     0.213 HD
ENDBRANCH  13  16
ENDBRANCH   6  13
BRANCH   8  18
HETATM   18  N8  UNL     1      -7.560  37.527  -6.710  1.00  0.00    -0.323 N 
ATOM     19  H82 UNL     1      -6.973  38.123  -7.293  1.00  0.00     0.178 HD
ATOM     20  H81 UNL     1      -8.116  37.959  -5.973  1.00  0.00     0.178 HD
ENDBRANCH   8  18
BRANCH  10  21
HETATM   21  N6  UNL     1      -6.052  35.819  -5.318  1.00  0.00    -0.233 N 
ATOM     22  H62 UNL     1      -6.205  35.519  -4.356  1.00  0.00     0.174 HD
ATOM     23  H61 UNL     1      -5.327  36.493  -5.562  1.00  0.00     0.174 HD
ENDBRANCH  10  21
ENDBRANCH   1   5
BRANCH   3  24
HETATM   24  N2  UNL     1      -6.476  30.541  -9.364  1.00  0.00    -0.284 N 
ATOM     25  H2  UNL     1      -5.491  30.540  -9.628  1.00  0.00     0.188 HD
BRANCH  24  26
HETATM   26  C7  UNL     1      -7.171  29.331  -9.704  1.00  0.00     0.147 A 
HETATM   27  C8  UNL     1      -6.668  28.078  -9.446  1.00  0.00     0.128 A 
HETATM   28  C9  UNL     1      -7.624  27.182  -9.885  1.00  0.00     0.276 A 
HETATM   29  O3  UNL     1      -7.521  25.914  -9.818  1.00  0.00    -0.266 OA
HETATM   30  N3  UNL     1      -8.622  27.917 -10.370  1.00  0.00    -0.184 N 
HETATM   31  N4  UNL     1      -8.378  29.201 -10.275  1.00  0.00    -0.235 N 
HETATM   32  S1  UNL     1     -10.151  27.388 -11.069  1.00  0.00    -0.023 SA
HETATM   33  C10 UNL     1      -9.249  30.256 -10.687  1.00  0.00     0.133 C 
HETATM   34  C11 UNL     1     -10.634  29.988 -10.995  1.00  0.00     0.123 C 
HETATM   35  C13 UNL     1     -11.296  28.737 -10.546  1.00  0.00     0.145 C 
BRANCH  34  36
HETATM   36  O4  UNL     1     -10.830  30.050 -12.403  1.00  0.00    -0.381 OA
ATOM     37  H4  UNL     1     -10.020  29.827 -12.847  1.00  0.00     0.211 HD
ENDBRANCH  34  36
BRANCH  34  38
HETATM   38  C12 UNL     1     -11.534  31.126 -10.468  1.00  0.00     0.208 C 
BRANCH  38  39
HETATM   39  O5  UNL     1     -12.630  30.660  -9.787  1.00  0.00    -0.397 OA
ATOM     40  H5  UNL     1     -12.395  30.147  -9.023  1.00  0.00     0.209 HD
ENDBRANCH  38  39
ENDBRANCH  34  38
ENDBRANCH  24  26
ENDBRANCH   3  24
TORSDOF 11
ENDMDL
