MODEL 1
REMARK VINA RESULT: -6.262374684      0.000      0.000
REMARK  4 active torsions:
REMARK  status: ('A' for Active; 'I' for Inactive)
REMARK    1  A    between atoms: C4_9  and  N4_10 
REMARK    2  A    between atoms: N4_10  and  C5_12 
REMARK    3  A    between atoms: C5_12  and  S1_13 
REMARK    4  A    between atoms: S1_13  and  C6_14 
ROOT
HETATM    1  N4  UNL     1      15.882  12.773  36.487  1.00  0.00    -0.215 N 
ATOM      2  H4  UNL     1      16.523  13.295  37.083  1.00  0.00     0.178 HD
ENDROOT
BRANCH   1   3
HETATM    3  C4  UNL     1      16.344  12.032  35.539  1.00  0.00     0.708 A 
HETATM    4  N3  UNL     1      16.570  10.707  35.556  1.00  0.00    -0.019 N 
HETATM    5  C3  UNL     1      17.060  10.341  34.341  1.00  0.00     0.720 A 
ATOM      6  H3  UNL     1      16.402  10.083  36.344  1.00  0.00     0.203 HD
HETATM    7  N2  UNL     1      17.508   9.358  33.558  1.00  0.00    -0.196 N 
HETATM    8  N8  UNL     1      17.113  11.474  33.628  1.00  0.00    -0.056 N 
HETATM    9  C2  UNL     1      17.843   9.857  32.356  1.00  0.00     0.153 A 
ATOM     10  H2  UNL     1      17.583   8.378  33.830  1.00  0.00     0.183 HD
HETATM   11  C1  UNL     1      17.597  11.213  32.380  1.00  0.00     0.172 A 
HETATM   12  N1  UNL     1      17.804  12.134  31.332  1.00  0.00    -0.079 NA
HETATM   13  N7  UNL     1      16.687  12.507  34.327  1.00  0.00    -0.109 N 
ATOM     14  H7  UNL     1      16.628  13.475  34.011  1.00  0.00     0.207 HD
ENDBRANCH   1   3
BRANCH   1  15
HETATM   15  C5  UNL     1      14.450  12.866  36.708  1.00  0.00     0.219 C 
BRANCH  15  16
HETATM   16  S1  UNL     1      13.994  14.621  36.644  1.00  0.00    -0.090 SA
BRANCH  16  17
HETATM   17  C6  UNL     1      12.255  14.704  36.198  1.00  0.00     0.093 A 
HETATM   18  N5  UNL     1      11.853  15.083  34.979  1.00  0.00    -0.291 N 
HETATM   19  N6  UNL     1      10.579  15.143  34.652  1.00  0.00    -0.265 N 
ATOM     20  H5  UNL     1      12.555  15.332  34.282  1.00  0.00     0.187 HD
HETATM   21  C7  UNL     1       9.637  14.821  35.548  1.00  0.00     0.266 A 
ATOM     22  H6  UNL     1      10.309  15.437  33.713  1.00  0.00     0.190 HD
HETATM   23  O1  UNL     1       8.404  14.862  35.288  1.00  0.00    -0.266 OA
HETATM   24  C8  UNL     1       9.987  14.427  36.806  1.00  0.00     0.020 A 
HETATM   25  C9  UNL     1      11.319  14.365  37.141  1.00  0.00    -0.011 A 
HETATM   26  C12 UNL     1       9.207  14.006  38.028  1.00  0.00     0.045 C 
HETATM   27  C10 UNL     1      11.475  13.909  38.569  1.00  0.00     0.042 C 
HETATM   28  C11 UNL     1      10.198  13.067  38.687  1.00  0.00     0.009 C 
ENDBRANCH  16  17
ENDBRANCH  15  16
ENDBRANCH   1  15
TORSDOF 4
ENDMDL
MODEL 2
REMARK VINA RESULT: -6.248146242      0.787      1.516
REMARK  4 active torsions:
REMARK  status: ('A' for Active; 'I' for Inactive)
REMARK    1  A    between atoms: C4_9  and  N4_10 
REMARK    2  A    between atoms: N4_10  and  C5_12 
REMARK    3  A    between atoms: C5_12  and  S1_13 
REMARK    4  A    between atoms: S1_13  and  C6_14 
ROOT
HETATM    1  N4  UNL     1      16.071  12.920  36.162  1.00  0.00    -0.215 N 
ATOM      2  H4  UNL     1      16.524  13.348  36.969  1.00  0.00     0.178 HD
ENDROOT
BRANCH   1   3
HETATM    3  C4  UNL     1      16.785  12.366  35.243  1.00  0.00     0.708 A 
HETATM    4  N3  UNL     1      17.465  12.961  34.248  1.00  0.00    -0.019 N 
HETATM    5  C3  UNL     1      18.078  11.996  33.512  1.00  0.00     0.720 A 
ATOM      6  H3  UNL     1      17.513  13.965  34.075  1.00  0.00     0.203 HD
HETATM    7  N2  UNL     1      18.861  11.700  32.472  1.00  0.00    -0.196 N 
HETATM    8  N8  UNL     1      17.741  10.839  34.098  1.00  0.00    -0.056 N 
HETATM    9  C2  UNL     1      19.022  10.368  32.394  1.00  0.00     0.153 A 
ATOM     10  H2  UNL     1      19.273  12.381  31.835  1.00  0.00     0.183 HD
HETATM   11  C1  UNL     1      18.312   9.797  33.428  1.00  0.00     0.172 A 
HETATM   12  N1  UNL     1      18.201   8.424  33.728  1.00  0.00    -0.079 NA
HETATM   13  N7  UNL     1      16.962  11.035  35.143  1.00  0.00    -0.109 N 
ATOM     14  H7  UNL     1      16.572  10.320  35.756  1.00  0.00     0.207 HD
ENDBRANCH   1   3
BRANCH   1  15
HETATM   15  C5  UNL     1      14.623  12.938  36.051  1.00  0.00     0.219 C 
BRANCH  15  16
HETATM   16  S1  UNL     1      14.057  14.607  36.481  1.00  0.00    -0.090 SA
BRANCH  16  17
HETATM   17  C6  UNL     1      12.300  14.686  36.108  1.00  0.00     0.093 A 
HETATM   18  N5  UNL     1      11.847  15.074  34.911  1.00  0.00    -0.291 N 
HETATM   19  N6  UNL     1      10.559  15.132  34.637  1.00  0.00    -0.265 N 
ATOM     20  H5  UNL     1      12.518  15.334  34.187  1.00  0.00     0.187 HD
HETATM   21  C7  UNL     1       9.657  14.797  35.568  1.00  0.00     0.266 A 
ATOM     22  H6  UNL     1      10.249  15.433  33.713  1.00  0.00     0.190 HD
HETATM   23  O1  UNL     1       8.414  14.834  35.360  1.00  0.00    -0.266 OA
HETATM   24  C8  UNL     1      10.061  14.393  36.806  1.00  0.00     0.020 A 
HETATM   25  C9  UNL     1      11.405  14.334  37.086  1.00  0.00    -0.011 A 
HETATM   26  C12 UNL     1       9.334  13.957  38.056  1.00  0.00     0.045 C 
HETATM   27  C10 UNL     1      11.622  13.866  38.501  1.00  0.00     0.042 C 
HETATM   28  C11 UNL     1      10.354  13.016  38.665  1.00  0.00     0.009 C 
ENDBRANCH  16  17
ENDBRANCH  15  16
ENDBRANCH   1  15
TORSDOF 4
ENDMDL
MODEL 3
REMARK VINA RESULT: -5.815606447      2.237      3.255
REMARK  4 active torsions:
REMARK  status: ('A' for Active; 'I' for Inactive)
REMARK    1  A    between atoms: C4_9  and  N4_10 
REMARK    2  A    between atoms: N4_10  and  C5_12 
REMARK    3  A    between atoms: C5_12  and  S1_13 
REMARK    4  A    between atoms: S1_13  and  C6_14 
ROOT
HETATM    1  N4  UNL     1      15.082  12.335  35.741  1.00  0.00    -0.215 N 
ATOM      2  H4  UNL     1      14.364  11.673  36.034  1.00  0.00     0.178 HD
ENDROOT
BRANCH   1   3
HETATM    3  C4  UNL     1      16.078  11.929  35.031  1.00  0.00     0.708 A 
HETATM    4  N3  UNL     1      16.941  12.669  34.314  1.00  0.00    -0.019 N 
HETATM    5  C3  UNL     1      17.833  11.830  33.721  1.00  0.00     0.720 A 
ATOM      6  H3  UNL     1      16.930  13.685  34.229  1.00  0.00     0.203 HD
HETATM    7  N2  UNL     1      18.901  11.699  32.931  1.00  0.00    -0.196 N 
HETATM    8  N8  UNL     1      17.470  10.600  34.108  1.00  0.00    -0.056 N 
HETATM    9  C2  UNL     1      19.216  10.398  32.814  1.00  0.00     0.153 A 
ATOM     10  H2  UNL     1      19.400  12.468  32.485  1.00  0.00     0.183 HD
HETATM   11  C1  UNL     1      18.311   9.676  33.561  1.00  0.00     0.172 A 
HETATM   12  N1  UNL     1      18.266   8.276  33.724  1.00  0.00    -0.079 NA
HETATM   13  N7  UNL     1      16.415  10.633  34.897  1.00  0.00    -0.109 N 
ATOM     14  H7  UNL     1      15.947   9.833  35.324  1.00  0.00     0.207 HD
ENDBRANCH   1   3
BRANCH   1  15
HETATM   15  C5  UNL     1      14.980  13.731  36.128  1.00  0.00     0.219 C 
BRANCH  15  16
HETATM   16  S1  UNL     1      13.299  14.011  36.747  1.00  0.00    -0.090 SA
BRANCH  16  17
HETATM   17  C6  UNL     1      12.547  15.261  35.698  1.00  0.00     0.093 A 
HETATM   18  N5  UNL     1      11.486  14.995  34.926  1.00  0.00    -0.291 N 
HETATM   19  N6  UNL     1      10.935  15.911  34.157  1.00  0.00    -0.265 N 
ATOM     20  H5  UNL     1      11.092  14.053  34.934  1.00  0.00     0.187 HD
HETATM   21  C7  UNL     1      11.433  17.154  34.127  1.00  0.00     0.266 A 
ATOM     22  H6  UNL     1      10.127  15.672  33.582  1.00  0.00     0.190 HD
HETATM   23  O1  UNL     1      10.945  18.068  33.410  1.00  0.00    -0.266 OA
HETATM   24  C8  UNL     1      12.512  17.484  34.892  1.00  0.00     0.020 A 
HETATM   25  C9  UNL     1      13.082  16.524  35.694  1.00  0.00    -0.011 A 
HETATM   26  C12 UNL     1      13.306  18.752  35.095  1.00  0.00     0.045 C 
HETATM   27  C10 UNL     1      14.253  17.103  36.446  1.00  0.00     0.042 C 
HETATM   28  C11 UNL     1      13.785  18.563  36.520  1.00  0.00     0.009 C 
ENDBRANCH  16  17
ENDBRANCH  15  16
ENDBRANCH   1  15
TORSDOF 4
ENDMDL
MODEL 4
REMARK VINA RESULT: -5.778976536      1.777      2.600
REMARK  4 active torsions:
REMARK  status: ('A' for Active; 'I' for Inactive)
REMARK    1  A    between atoms: C4_9  and  N4_10 
REMARK    2  A    between atoms: N4_10  and  C5_12 
REMARK    3  A    between atoms: C5_12  and  S1_13 
REMARK    4  A    between atoms: S1_13  and  C6_14 
ROOT
HETATM    1  N4  UNL     1      15.584  12.778  36.283  1.00  0.00    -0.215 N 
ATOM      2  H4  UNL     1      16.137  13.121  37.068  1.00  0.00     0.178 HD
ENDROOT
BRANCH   1   3
HETATM    3  C4  UNL     1      16.139  12.048  35.378  1.00  0.00     0.708 A 
HETATM    4  N3  UNL     1      16.403  10.731  35.420  1.00  0.00    -0.019 N 
HETATM    5  C3  UNL     1      16.995  10.376  34.248  1.00  0.00     0.720 A 
ATOM      6  H3  UNL     1      16.197  10.105  36.198  1.00  0.00     0.203 HD
HETATM    7  N2  UNL     1      17.530   9.403  33.507  1.00  0.00    -0.196 N 
HETATM    8  N8  UNL     1      17.065  11.506  33.532  1.00  0.00    -0.056 N 
HETATM    9  C2  UNL     1      17.938   9.908  32.329  1.00  0.00     0.153 A 
ATOM     10  H2  UNL     1      17.615   8.428  33.790  1.00  0.00     0.183 HD
HETATM   11  C1  UNL     1      17.649  11.255  32.326  1.00  0.00     0.172 A 
HETATM   12  N1  UNL     1      17.905  12.178  31.290  1.00  0.00    -0.079 NA
HETATM   13  N7  UNL     1      16.556  12.528  34.191  1.00  0.00    -0.109 N 
ATOM     14  H7  UNL     1      16.490  13.493  33.866  1.00  0.00     0.207 HD
ENDBRANCH   1   3
BRANCH   1  15
HETATM   15  C5  UNL     1      14.174  13.113  36.189  1.00  0.00     0.219 C 
BRANCH  15  16
HETATM   16  S1  UNL     1      14.038  14.921  36.135  1.00  0.00    -0.090 SA
BRANCH  16  17
HETATM   17  C6  UNL     1      12.399  15.313  35.511  1.00  0.00     0.093 A 
HETATM   18  N5  UNL     1      11.414  14.408  35.488  1.00  0.00    -0.291 N 
HETATM   19  N6  UNL     1      10.213  14.696  35.030  1.00  0.00    -0.265 N 
ATOM     20  H5  UNL     1      11.599  13.467  35.835  1.00  0.00     0.187 HD
HETATM   21  C7  UNL     1       9.944  15.924  34.568  1.00  0.00     0.266 A 
ATOM     22  H6  UNL     1       9.485  13.980  35.028  1.00  0.00     0.190 HD
HETATM   23  O1  UNL     1       8.813  16.252  34.119  1.00  0.00    -0.266 OA
HETATM   24  C8  UNL     1      10.909  16.887  34.567  1.00  0.00     0.020 A 
HETATM   25  C9  UNL     1      12.160  16.582  35.046  1.00  0.00    -0.011 A 
HETATM   26  C12 UNL     1      10.947  18.333  34.131  1.00  0.00     0.045 C 
HETATM   27  C10 UNL     1      13.061  17.785  34.952  1.00  0.00     0.042 C 
HETATM   28  C11 UNL     1      11.998  18.885  35.073  1.00  0.00     0.009 C 
ENDBRANCH  16  17
ENDBRANCH  15  16
ENDBRANCH   1  15
TORSDOF 4
ENDMDL
MODEL 5
REMARK VINA RESULT: -5.770169213      2.094      2.909
REMARK  4 active torsions:
REMARK  status: ('A' for Active; 'I' for Inactive)
REMARK    1  A    between atoms: C4_9  and  N4_10 
REMARK    2  A    between atoms: N4_10  and  C5_12 
REMARK    3  A    between atoms: C5_12  and  S1_13 
REMARK    4  A    between atoms: S1_13  and  C6_14 
ROOT
HETATM    1  N4  UNL     1      15.261  12.358  36.343  1.00  0.00    -0.215 N 
ATOM      2  H4  UNL     1      14.911  11.879  37.172  1.00  0.00     0.178 HD
ENDROOT
BRANCH   1   3
HETATM    3  C4  UNL     1      15.935  11.705  35.460  1.00  0.00     0.708 A 
HETATM    4  N3  UNL     1      16.282  10.407  35.474  1.00  0.00    -0.019 N 
HETATM    5  C3  UNL     1      16.990  10.141  34.343  1.00  0.00     0.720 A 
ATOM      6  H3  UNL     1      16.055   9.736  36.207  1.00  0.00     0.203 HD
HETATM    7  N2  UNL     1      17.646   9.237  33.613  1.00  0.00    -0.196 N 
HETATM    8  N8  UNL     1      17.043  11.304  33.680  1.00  0.00    -0.056 N 
HETATM    9  C2  UNL     1      18.115   9.817  32.494  1.00  0.00     0.153 A 
ATOM     10  H2  UNL     1      17.773   8.258  33.865  1.00  0.00     0.183 HD
HETATM   11  C1  UNL     1      17.738  11.142  32.518  1.00  0.00     0.172 A 
HETATM   12  N1  UNL     1      18.016  12.124  31.543  1.00  0.00    -0.079 NA
HETATM   13  N7  UNL     1      16.415  12.262  34.331  1.00  0.00    -0.109 N 
ATOM     14  H7  UNL     1      16.313  13.233  34.039  1.00  0.00     0.207 HD
ENDBRANCH   1   3
BRANCH   1  15
HETATM   15  C5  UNL     1      14.999  13.775  36.161  1.00  0.00     0.219 C 
BRANCH  15  16
HETATM   16  S1  UNL     1      13.361  14.128  36.857  1.00  0.00    -0.090 SA
BRANCH  16  17
HETATM   17  C6  UNL     1      12.563  15.311  35.766  1.00  0.00     0.093 A 
HETATM   18  N5  UNL     1      11.481  14.994  35.045  1.00  0.00    -0.291 N 
HETATM   19  N6  UNL     1      10.896  15.861  34.245  1.00  0.00    -0.265 N 
ATOM     20  H5  UNL     1      11.098  14.050  35.117  1.00  0.00     0.187 HD
HETATM   21  C7  UNL     1      11.378  17.106  34.133  1.00  0.00     0.266 A 
ATOM     22  H6  UNL     1      10.073  15.584  33.710  1.00  0.00     0.190 HD
HETATM   23  O1  UNL     1      10.858  17.975  33.383  1.00  0.00    -0.266 OA
HETATM   24  C8  UNL     1      12.478  17.486  34.844  1.00  0.00     0.020 A 
HETATM   25  C9  UNL     1      13.084  16.577  35.677  1.00  0.00    -0.011 A 
HETATM   26  C12 UNL     1      13.264  18.772  34.952  1.00  0.00     0.045 C 
HETATM   27  C10 UNL     1      14.271  17.207  36.359  1.00  0.00     0.042 C 
HETATM   28  C11 UNL     1      13.790  18.665  36.369  1.00  0.00     0.009 C 
ENDBRANCH  16  17
ENDBRANCH  15  16
ENDBRANCH   1  15
TORSDOF 4
ENDMDL
