MODEL 1
REMARK VINA RESULT: -5.274473798      0.000      0.000
REMARK  5 active torsions:
REMARK  status: ('A' for Active; 'I' for Inactive)
REMARK    1  A    between atoms: N1_1  and  C1_4 
REMARK    2  A    between atoms: C2_7  and  C3_8 
REMARK    3  A    between atoms: C4_17  and  N7_18 
REMARK    4  A    between atoms: C8_22  and  N8_23 
REMARK    5  A    between atoms: N8_23  and  C9_25 
ROOT
HETATM    1  C1  UNL     1      22.487  12.101  32.715  1.00  0.00     0.678 A 
HETATM    2  N2  UNL     1      21.273  11.767  32.307  1.00  0.00    -0.186 N 
ATOM      3  H2  UNL     1      20.959  12.068  31.384  1.00  0.00     0.184 HD
HETATM    4  C2  UNL     1      20.421  11.020  33.098  1.00  0.00     0.126 A 
HETATM    5  C4  UNL     1      20.876  10.633  34.326  1.00  0.00     0.110 A 
HETATM    6  C8  UNL     1      22.180  11.010  34.727  1.00  0.00     0.146 A 
HETATM    7  N9  UNL     1      22.953  11.735  33.909  1.00  0.00    -0.175 N 
ATOM      8  H9  UNL     1      23.893  12.004  34.198  1.00  0.00     0.186 HD
ENDROOT
BRANCH   4   9
HETATM    9  C3  UNL     1      19.116  10.714  32.525  1.00  0.00     0.167 A 
HETATM   10  N3  UNL     1      18.298  11.697  32.001  1.00  0.00    -0.267 N 
HETATM   11  N4  UNL     1      17.214  11.129  31.564  1.00  0.00    -0.227 N 
ATOM     12  H3  UNL     1      18.508  12.695  31.965  1.00  0.00     0.190 HD
HETATM   13  N5  UNL     1      17.271   9.810  31.772  1.00  0.00    -0.227 N 
ATOM     14  H4  UNL     1      16.434  11.618  31.125  1.00  0.00     0.210 HD
HETATM   15  N6  UNL     1      18.424   9.642  32.344  1.00  0.00    -0.267 N 
ATOM     16  H5  UNL     1      16.574   9.104  31.538  1.00  0.00     0.210 HD
ATOM     17  H6  UNL     1      18.760   8.723  32.630  1.00  0.00     0.190 HD
ENDBRANCH   4   9
BRANCH   5  18
HETATM   18  N7  UNL     1      20.072   9.867  35.250  1.00  0.00    -0.355 N 
HETATM   19  C5  UNL     1      19.681   8.626  35.753  1.00  0.00     0.066 A 
HETATM   20  C6  UNL     1      18.735   9.194  36.788  1.00  0.00     0.065 A 
HETATM   21  C7  UNL     1      19.156  10.481  36.242  1.00  0.00     0.133 A 
ENDBRANCH   5  18
BRANCH   1  22
HETATM   22  N1  UNL     1      23.263  12.812  31.932  1.00  0.00    -0.234 N 
ATOM     23  H12 UNL     1      22.831  13.381  31.205  1.00  0.00     0.174 HD
ATOM     24  H11 UNL     1      24.275  12.785  32.063  1.00  0.00     0.174 HD
ENDBRANCH   1  22
BRANCH   6  25
HETATM   25  N8  UNL     1      22.658  10.690  35.845  1.00  0.00    -0.369 N 
ATOM     26  H8  UNL     1      22.257  11.160  36.656  1.00  0.00     0.161 HD
BRANCH  25  27
HETATM   27  C9  UNL     1      23.693   9.747  36.114  1.00  0.00     0.087 C 
HETATM   28  C10 UNL     1      23.587   9.341  37.564  1.00  0.00     0.051 C 
HETATM   29  C11 UNL     1      22.799   8.065  37.746  1.00  0.00     0.169 C 
HETATM   30  O1  UNL     1      23.454   7.078  37.010  1.00  0.00    -0.391 OA
HETATM   31  C12 UNL     1      23.146   7.333  35.672  1.00  0.00     0.169 C 
HETATM   32  C13 UNL     1      23.767   8.610  35.166  1.00  0.00     0.051 C 
ENDBRANCH  25  27
ENDBRANCH   6  25
TORSDOF 5
ENDMDL
MODEL 2
REMARK VINA RESULT: -5.212810500      9.942     11.749
REMARK  5 active torsions:
REMARK  status: ('A' for Active; 'I' for Inactive)
REMARK    1  A    between atoms: N1_1  and  C1_4 
REMARK    2  A    between atoms: C2_7  and  C3_8 
REMARK    3  A    between atoms: C4_17  and  N7_18 
REMARK    4  A    between atoms: C8_22  and  N8_23 
REMARK    5  A    between atoms: N8_23  and  C9_25 
ROOT
HETATM    1  C1  UNL     1      12.340  19.010  34.290  1.00  0.00     0.678 A 
HETATM    2  N2  UNL     1      11.093  18.842  33.880  1.00  0.00    -0.186 N 
ATOM      3  H2  UNL     1      10.685  19.523  33.238  1.00  0.00     0.184 HD
HETATM    4  C2  UNL     1      10.330  17.769  34.297  1.00  0.00     0.126 A 
HETATM    5  C4  UNL     1      10.909  16.877  35.155  1.00  0.00     0.110 A 
HETATM    6  C8  UNL     1      12.244  17.091  35.571  1.00  0.00     0.146 A 
HETATM    7  N9  UNL     1      12.926  18.154  35.126  1.00  0.00    -0.175 N 
ATOM      8  H9  UNL     1      13.890  18.306  35.425  1.00  0.00     0.186 HD
ENDROOT
BRANCH   4   9
HETATM    9  C3  UNL     1       8.975  17.698  33.763  1.00  0.00     0.167 A 
HETATM   10  N3  UNL     1       7.866  17.972  34.542  1.00  0.00    -0.267 N 
HETATM   11  N4  UNL     1       6.809  17.833  33.800  1.00  0.00    -0.227 N 
ATOM     12  H3  UNL     1       7.877  18.237  35.527  1.00  0.00     0.190 HD
HETATM   13  N5  UNL     1       7.161  17.478  32.560  1.00  0.00    -0.227 N 
ATOM     14  H4  UNL     1       5.849  17.974  34.117  1.00  0.00     0.210 HD
HETATM   15  N6  UNL     1       8.456  17.418  32.618  1.00  0.00    -0.267 N 
ATOM     16  H5  UNL     1       6.555  17.296  31.760  1.00  0.00     0.210 HD
ATOM     17  H6  UNL     1       9.025  17.167  31.809  1.00  0.00     0.190 HD
ENDBRANCH   4   9
BRANCH   5  18
HETATM   18  N7  UNL     1      10.207  15.728  35.676  1.00  0.00    -0.355 N 
HETATM   19  C5  UNL     1       9.781  14.409  35.513  1.00  0.00     0.066 A 
HETATM   20  C6  UNL     1       9.105  14.319  36.862  1.00  0.00     0.065 A 
HETATM   21  C7  UNL     1       9.557  15.700  37.008  1.00  0.00     0.133 A 
ENDBRANCH   5  18
BRANCH   1  22
HETATM   22  N1  UNL     1      13.029  20.044  33.869  1.00  0.00    -0.234 N 
ATOM     23  H12 UNL     1      12.524  20.841  33.483  1.00  0.00     0.174 HD
ATOM     24  H11 UNL     1      14.047  20.034  33.935  1.00  0.00     0.174 HD
ENDBRANCH   1  22
BRANCH   6  25
HETATM   25  N8  UNL     1      12.835  16.312  36.360  1.00  0.00    -0.369 N 
ATOM     26  H8  UNL     1      12.525  16.337  37.332  1.00  0.00     0.161 HD
BRANCH  25  27
HETATM   27  C9  UNL     1      13.886  15.396  36.061  1.00  0.00     0.087 C 
HETATM   28  C10 UNL     1      15.015  15.650  37.031  1.00  0.00     0.051 C 
HETATM   29  C11 UNL     1      14.965  14.726  38.225  1.00  0.00     0.169 C 
HETATM   30  O1  UNL     1      15.030  13.424  37.731  1.00  0.00    -0.391 OA
HETATM   31  C12 UNL     1      13.768  13.155  37.196  1.00  0.00     0.169 C 
HETATM   32  C13 UNL     1      13.471  13.976  35.967  1.00  0.00     0.051 C 
ENDBRANCH  25  27
ENDBRANCH   6  25
TORSDOF 5
ENDMDL
MODEL 3
REMARK VINA RESULT: -5.048688819      3.694      5.726
REMARK  5 active torsions:
REMARK  status: ('A' for Active; 'I' for Inactive)
REMARK    1  A    between atoms: N1_1  and  C1_4 
REMARK    2  A    between atoms: C2_7  and  C3_8 
REMARK    3  A    between atoms: C4_17  and  N7_18 
REMARK    4  A    between atoms: C8_22  and  N8_23 
REMARK    5  A    between atoms: N8_23  and  C9_25 
ROOT
HETATM    1  C1  UNL     1      19.378   8.402  35.216  1.00  0.00     0.678 A 
HETATM    2  N2  UNL     1      19.219   9.127  34.120  1.00  0.00    -0.186 N 
ATOM      3  H2  UNL     1      19.687   8.837  33.260  1.00  0.00     0.184 HD
HETATM    4  C2  UNL     1      18.438  10.267  34.110  1.00  0.00     0.126 A 
HETATM    5  C4  UNL     1      17.827  10.624  35.278  1.00  0.00     0.110 A 
HETATM    6  C8  UNL     1      18.020   9.823  36.428  1.00  0.00     0.146 A 
HETATM    7  N9  UNL     1      18.791   8.730  36.366  1.00  0.00    -0.175 N 
ATOM      8  H9  UNL     1      18.928   8.153  37.196  1.00  0.00     0.186 HD
ENDROOT
BRANCH   4   9
HETATM    9  C3  UNL     1      18.342  10.968  32.835  1.00  0.00     0.167 A 
HETATM   10  N3  UNL     1      19.246  11.946  32.468  1.00  0.00    -0.267 N 
HETATM   11  N4  UNL     1      18.912  12.382  31.290  1.00  0.00    -0.227 N 
ATOM     12  H3  UNL     1      20.038  12.270  33.024  1.00  0.00     0.190 HD
HETATM   13  N5  UNL     1      17.824  11.739  30.854  1.00  0.00    -0.227 N 
ATOM     14  H4  UNL     1      19.407  13.109  30.774  1.00  0.00     0.210 HD
HETATM   15  N6  UNL     1      17.547  10.920  31.822  1.00  0.00    -0.267 N 
ATOM     16  H5  UNL     1      17.329  11.863  29.971  1.00  0.00     0.210 HD
ATOM     17  H6  UNL     1      16.753  10.281  31.783  1.00  0.00     0.190 HD
ENDBRANCH   4   9
BRANCH   5  18
HETATM   18  N7  UNL     1      17.003  11.804  35.398  1.00  0.00    -0.355 N 
HETATM   19  C5  UNL     1      15.741  12.395  35.328  1.00  0.00     0.066 A 
HETATM   20  C6  UNL     1      16.219  13.776  35.715  1.00  0.00     0.065 A 
HETATM   21  C7  UNL     1      17.531  13.137  35.775  1.00  0.00     0.133 A 
ENDBRANCH   5  18
BRANCH   1  22
HETATM   22  N1  UNL     1      20.129   7.327  35.181  1.00  0.00    -0.234 N 
ATOM     23  H12 UNL     1      20.701   7.160  34.354  1.00  0.00     0.174 HD
ATOM     24  H11 UNL     1      20.128   6.684  35.973  1.00  0.00     0.174 HD
ENDBRANCH   1  22
BRANCH   6  25
HETATM   25  N8  UNL     1      17.490  10.098  37.534  1.00  0.00    -0.369 N 
ATOM     26  H8  UNL     1      17.847  10.927  38.010  1.00  0.00     0.161 HD
BRANCH  25  27
HETATM   27  C9  UNL     1      16.450   9.389  38.204  1.00  0.00     0.087 C 
HETATM   28  C10 UNL     1      16.263  10.014  39.566  1.00  0.00     0.051 C 
HETATM   29  C11 UNL     1      15.154  11.040  39.579  1.00  0.00     0.169 C 
HETATM   30  O1  UNL     1      13.991  10.382  39.181  1.00  0.00    -0.391 OA
HETATM   31  C12 UNL     1      14.107  10.206  37.801  1.00  0.00     0.169 C 
HETATM   32  C13 UNL     1      15.197   9.235  37.427  1.00  0.00     0.051 C 
ENDBRANCH  25  27
ENDBRANCH   6  25
TORSDOF 5
ENDMDL
MODEL 4
REMARK VINA RESULT: -5.043623852     11.062     13.325
REMARK  5 active torsions:
REMARK  status: ('A' for Active; 'I' for Inactive)
REMARK    1  A    between atoms: N1_1  and  C1_4 
REMARK    2  A    between atoms: C2_7  and  C3_8 
REMARK    3  A    between atoms: C4_17  and  N7_18 
REMARK    4  A    between atoms: C8_22  and  N8_23 
REMARK    5  A    between atoms: N8_23  and  C9_25 
ROOT
HETATM    1  C1  UNL     1       8.505  17.088  33.304  1.00  0.00     0.678 A 
HETATM    2  N2  UNL     1       9.432  18.033  33.300  1.00  0.00    -0.186 N 
ATOM      3  H2  UNL     1       9.332  18.825  32.665  1.00  0.00     0.184 HD
HETATM    4  C2  UNL     1      10.533  17.973  34.133  1.00  0.00     0.126 A 
HETATM    5  C4  UNL     1      10.634  16.899  34.971  1.00  0.00     0.110 A 
HETATM    6  C8  UNL     1       9.621  15.910  34.947  1.00  0.00     0.146 A 
HETATM    7  N9  UNL     1       8.581  16.032  34.113  1.00  0.00    -0.175 N 
ATOM      8  H9  UNL     1       7.851  15.319  34.097  1.00  0.00     0.186 HD
ENDROOT
BRANCH   4   9
HETATM    9  C3  UNL     1      11.474  19.082  34.035  1.00  0.00     0.167 A 
HETATM   10  N3  UNL     1      11.066  20.399  34.130  1.00  0.00    -0.267 N 
HETATM   11  N4  UNL     1      12.116  21.156  34.012  1.00  0.00    -0.227 N 
ATOM     12  H3  UNL     1      10.108  20.721  34.269  1.00  0.00     0.190 HD
HETATM   13  N5  UNL     1      13.207  20.403  33.841  1.00  0.00    -0.227 N 
ATOM     14  H4  UNL     1      12.108  22.175  34.044  1.00  0.00     0.210 HD
HETATM   15  N6  UNL     1      12.747  19.191  33.866  1.00  0.00    -0.267 N 
ATOM     16  H5  UNL     1      14.172  20.710  33.719  1.00  0.00     0.210 HD
ATOM     17  H6  UNL     1      13.353  18.377  33.759  1.00  0.00     0.190 HD
ENDBRANCH   4   9
BRANCH   5  18
HETATM   18  N7  UNL     1      11.746  16.715  35.874  1.00  0.00    -0.355 N 
HETATM   19  C5  UNL     1      12.380  17.037  37.074  1.00  0.00     0.066 A 
HETATM   20  C6  UNL     1      13.544  16.094  36.867  1.00  0.00     0.065 A 
HETATM   21  C7  UNL     1      12.865  15.778  35.614  1.00  0.00     0.133 A 
ENDBRANCH   5  18
BRANCH   1  22
HETATM   22  N1  UNL     1       7.476  17.184  32.496  1.00  0.00    -0.234 N 
ATOM     23  H12 UNL     1       7.651  17.283  31.496  1.00  0.00     0.174 HD
ATOM     24  H11 UNL     1       6.530  17.157  32.876  1.00  0.00     0.174 HD
ENDBRANCH   1  22
BRANCH   6  25
HETATM   25  N8  UNL     1       9.655  14.896  35.688  1.00  0.00    -0.369 N 
ATOM     26  H8  UNL     1      10.298  14.156  35.407  1.00  0.00     0.161 HD
BRANCH  25  27
HETATM   27  C9  UNL     1       8.903  14.657  36.875  1.00  0.00     0.087 C 
HETATM   28  C10 UNL     1       9.700  13.720  37.751  1.00  0.00     0.051 C 
HETATM   29  C11 UNL     1      10.519  14.457  38.785  1.00  0.00     0.169 C 
HETATM   30  O1  UNL     1       9.624  15.199  39.554  1.00  0.00    -0.391 OA
HETATM   31  C12 UNL     1       9.248  16.285  38.760  1.00  0.00     0.169 C 
HETATM   32  C13 UNL     1       8.422  15.876  37.568  1.00  0.00     0.051 C 
ENDBRANCH  25  27
ENDBRANCH   6  25
TORSDOF 5
ENDMDL
MODEL 5
REMARK VINA RESULT: -5.038933540      2.751      5.506
REMARK  5 active torsions:
REMARK  status: ('A' for Active; 'I' for Inactive)
REMARK    1  A    between atoms: N1_1  and  C1_4 
REMARK    2  A    between atoms: C2_7  and  C3_8 
REMARK    3  A    between atoms: C4_17  and  N7_18 
REMARK    4  A    between atoms: C8_22  and  N8_23 
REMARK    5  A    between atoms: N8_23  and  C9_25 
ROOT
HETATM    1  C1  UNL     1      18.458  11.640  31.718  1.00  0.00     0.678 A 
HETATM    2  N2  UNL     1      19.704  11.726  32.158  1.00  0.00    -0.186 N 
ATOM      3  H2  UNL     1      20.408  12.176  31.572  1.00  0.00     0.184 HD
HETATM    4  C2  UNL     1      20.075  11.222  33.389  1.00  0.00     0.126 A 
HETATM    5  C4  UNL     1      19.107  10.627  34.147  1.00  0.00     0.110 A 
HETATM    6  C8  UNL     1      17.786  10.555  33.642  1.00  0.00     0.146 A 
HETATM    7  N9  UNL     1      17.497  11.065  32.439  1.00  0.00    -0.175 N 
ATOM      8  H9  UNL     1      16.544  11.013  32.077  1.00  0.00     0.186 HD
ENDROOT
BRANCH   4   9
HETATM    9  C3  UNL     1      21.476  11.390  33.757  1.00  0.00     0.167 A 
HETATM   10  N3  UNL     1      22.179  12.541  33.453  1.00  0.00    -0.267 N 
HETATM   11  N4  UNL     1      23.389  12.404  33.905  1.00  0.00    -0.227 N 
ATOM     12  H3  UNL     1      21.811  13.355  32.959  1.00  0.00     0.190 HD
HETATM   13  N5  UNL     1      23.527  11.214  34.497  1.00  0.00    -0.227 N 
ATOM     14  H4  UNL     1      24.127  13.104  33.821  1.00  0.00     0.210 HD
HETATM   15  N6  UNL     1      22.355  10.673  34.369  1.00  0.00    -0.267 N 
ATOM     16  H5  UNL     1      24.357  10.824  34.943  1.00  0.00     0.210 HD
ATOM     17  H6  UNL     1      22.143   9.743  34.729  1.00  0.00     0.190 HD
ENDBRANCH   4   9
BRANCH   5  18
HETATM   18  N7  UNL     1      19.375  10.046  35.442  1.00  0.00    -0.355 N 
HETATM   19  C5  UNL     1      19.563  10.214  36.814  1.00  0.00     0.066 A 
HETATM   20  C6  UNL     1      19.764   8.743  37.102  1.00  0.00     0.065 A 
HETATM   21  C7  UNL     1      19.570   8.593  35.663  1.00  0.00     0.133 A 
ENDBRANCH   5  18
BRANCH   1  22
HETATM   22  N1  UNL     1      18.149  12.131  30.541  1.00  0.00    -0.234 N 
ATOM     23  H12 UNL     1      18.509  13.051  30.289  1.00  0.00     0.174 HD
ATOM     24  H11 UNL     1      17.561  11.591  29.907  1.00  0.00     0.174 HD
ENDBRANCH   1  22
BRANCH   6  25
HETATM   25  N8  UNL     1      16.850  10.018  34.286  1.00  0.00    -0.369 N 
ATOM     26  H8  UNL     1      16.851   8.998  34.314  1.00  0.00     0.161 HD
BRANCH  25  27
HETATM   27  C9  UNL     1      15.787  10.664  34.983  1.00  0.00     0.087 C 
HETATM   28  C10 UNL     1      15.407   9.798  36.160  1.00  0.00     0.051 C 
HETATM   29  C11 UNL     1      16.094  10.229  37.434  1.00  0.00     0.169 C 
HETATM   30  O1  UNL     1      15.724  11.553  37.665  1.00  0.00    -0.391 OA
HETATM   31  C12 UNL     1      16.458  12.318  36.754  1.00  0.00     0.169 C 
HETATM   32  C13 UNL     1      16.035  12.085  35.326  1.00  0.00     0.051 C 
ENDBRANCH  25  27
ENDBRANCH   6  25
TORSDOF 5
ENDMDL
