MODEL 1
REMARK VINA RESULT: -5.184588675      0.000      0.000
REMARK  5 active torsions:
REMARK  status: ('A' for Active; 'I' for Inactive)
REMARK    1  A    between atoms: C2_2  and  N1_3 
REMARK    2  A    between atoms: N1_3  and  C3_5 
REMARK    3  A    between atoms: C5_10  and  N4_11 
REMARK    4  A    between atoms: C7_17  and  S1_18 
REMARK    5  A    between atoms: S1_18  and  N6_19 
ROOT
HETATM    1  C3  UNL     1      19.271  10.961  31.904  1.00  0.00     0.132 A 
HETATM    2  N2  UNL     1      18.528   9.972  32.458  1.00  0.00    -0.327 N 
ATOM      3  H2  UNL     1      17.680   9.671  31.977  1.00  0.00     0.168 HD
HETATM    4  C4  UNL     1      18.861   9.371  33.613  1.00  0.00     0.153 A 
HETATM    5  N3  UNL     1      18.052   8.330  34.169  1.00  0.00    -0.080 NA
HETATM    6  C5  UNL     1      20.005   9.787  34.250  1.00  0.00     0.172 A 
HETATM    7  C6  UNL     1      20.814  10.793  33.743  1.00  0.00     0.102 A 
HETATM    8  N5  UNL     1      21.955  11.377  34.149  1.00  0.00    -0.327 N 
ATOM      9  H5  UNL     1      22.473  11.148  34.998  1.00  0.00     0.168 HD
HETATM   10  C7  UNL     1      22.297  12.312  33.249  1.00  0.00     0.225 A 
HETATM   11  N7  UNL     1      21.367  12.307  32.283  1.00  0.00    -0.326 N 
ATOM     12  H7  UNL     1      21.369  12.916  31.465  1.00  0.00     0.168 HD
HETATM   13  C8  UNL     1      20.424  11.373  32.555  1.00  0.00     0.108 A 
ENDROOT
BRANCH  10  14
HETATM   14  S1  UNL     1      23.724  13.346  33.353  1.00  0.00     0.288 S 
HETATM   15  O3  UNL     1      23.258  14.700  33.736  1.00  0.00    -0.198 OA
HETATM   16  O4  UNL     1      24.652  12.814  34.396  1.00  0.00    -0.198 OA
BRANCH  14  17
HETATM   17  N6  UNL     1      24.486  13.336  31.780  1.00  0.00    -0.322 N 
ATOM     18  H62 UNL     1      24.596  14.144  31.167  1.00  0.00     0.169 HD
ATOM     19  H61 UNL     1      24.794  12.380  31.600  1.00  0.00     0.169 HD
ENDBRANCH  14  17
ENDBRANCH  10  14
BRANCH   6  20
HETATM   20  N4  UNL     1      20.436   9.202  35.485  1.00  0.00    -0.110 N 
HETATM   21  O1  UNL     1      20.183   9.770  36.569  1.00  0.00    -0.532 OA
HETATM   22  O2  UNL     1      21.129   8.011  35.476  1.00  0.00    -0.532 OA
ENDBRANCH   6  20
BRANCH   1  23
HETATM   23  N1  UNL     1      18.901  11.489  30.810  1.00  0.00    -0.375 N 
ATOM     24  H1  UNL     1      19.316  11.118  29.955  1.00  0.00     0.161 HD
BRANCH  23  25
HETATM   25  C2  UNL     1      17.955  12.556  30.664  1.00  0.00     0.116 C 
HETATM   26  C1  UNL     1      18.510  13.621  29.720  1.00  0.00     0.026 C 
ENDBRANCH  23  25
ENDBRANCH   1  23
TORSDOF 5
ENDMDL
MODEL 2
REMARK VINA RESULT: -5.079846879      4.721      6.005
REMARK  5 active torsions:
REMARK  status: ('A' for Active; 'I' for Inactive)
REMARK    1  A    between atoms: C2_2  and  N1_3 
REMARK    2  A    between atoms: N1_3  and  C3_5 
REMARK    3  A    between atoms: C5_10  and  N4_11 
REMARK    4  A    between atoms: C7_17  and  S1_18 
REMARK    5  A    between atoms: S1_18  and  N6_19 
ROOT
HETATM    1  C3  UNL     1      16.899  10.344  35.682  1.00  0.00     0.132 A 
HETATM    2  N2  UNL     1      17.232   9.485  34.688  1.00  0.00    -0.327 N 
ATOM      3  H2  UNL     1      17.102   8.485  34.844  1.00  0.00     0.168 HD
HETATM    4  C4  UNL     1      17.726   9.893  33.508  1.00  0.00     0.153 A 
HETATM    5  N3  UNL     1      18.068   8.958  32.481  1.00  0.00    -0.080 NA
HETATM    6  C5  UNL     1      17.897  11.243  33.312  1.00  0.00     0.172 A 
HETATM    7  C6  UNL     1      17.578  12.181  34.283  1.00  0.00     0.102 A 
HETATM    8  N5  UNL     1      17.644  13.522  34.353  1.00  0.00    -0.327 N 
ATOM      9  H5  UNL     1      17.978  14.143  33.615  1.00  0.00     0.168 HD
HETATM   10  C7  UNL     1      17.195  13.907  35.558  1.00  0.00     0.225 A 
HETATM   11  N7  UNL     1      16.850  12.802  36.236  1.00  0.00    -0.326 N 
ATOM     12  H7  UNL     1      16.475  12.790  37.184  1.00  0.00     0.168 HD
HETATM   13  C8  UNL     1      17.074  11.704  35.474  1.00  0.00     0.108 A 
ENDROOT
BRANCH  10  14
HETATM   14  S1  UNL     1      17.092  15.578  36.115  1.00  0.00     0.288 S 
HETATM   15  O3  UNL     1      17.714  15.632  37.460  1.00  0.00    -0.198 OA
HETATM   16  O4  UNL     1      17.839  16.467  35.175  1.00  0.00    -0.198 OA
BRANCH  14  17
HETATM   17  N6  UNL     1      15.397  16.006  36.160  1.00  0.00    -0.322 N 
ATOM     18  H62 UNL     1      14.619  15.369  35.988  1.00  0.00     0.169 HD
ATOM     19  H61 UNL     1      15.342  16.998  36.386  1.00  0.00     0.169 HD
ENDBRANCH  14  17
ENDBRANCH  10  14
BRANCH   6  20
HETATM   20  N4  UNL     1      18.417  11.768  32.084  1.00  0.00    -0.110 N 
HETATM   21  O1  UNL     1      17.670  12.394  31.304  1.00  0.00    -0.532 OA
HETATM   22  O2  UNL     1      19.745  11.582  31.767  1.00  0.00    -0.532 OA
ENDBRANCH   6  20
BRANCH   1  23
HETATM   23  N1  UNL     1      16.437   9.894  36.775  1.00  0.00    -0.375 N 
ATOM     24  H1  UNL     1      17.081   9.849  37.565  1.00  0.00     0.161 HD
BRANCH  23  25
HETATM   25  C2  UNL     1      15.095   9.443  37.004  1.00  0.00     0.116 C 
HETATM   26  C1  UNL     1      14.281  10.545  37.679  1.00  0.00     0.026 C 
ENDBRANCH  23  25
ENDBRANCH   1  23
TORSDOF 5
ENDMDL
MODEL 3
REMARK VINA RESULT: -4.999494924      5.172      6.622
REMARK  5 active torsions:
REMARK  status: ('A' for Active; 'I' for Inactive)
REMARK    1  A    between atoms: C2_2  and  N1_3 
REMARK    2  A    between atoms: N1_3  and  C3_5 
REMARK    3  A    between atoms: C5_10  and  N4_11 
REMARK    4  A    between atoms: C7_17  and  S1_18 
REMARK    5  A    between atoms: S1_18  and  N6_19 
ROOT
HETATM    1  C3  UNL     1      15.320  11.906  36.224  1.00  0.00     0.132 A 
HETATM    2  N2  UNL     1      15.133  13.027  36.963  1.00  0.00    -0.327 N 
ATOM      3  H2  UNL     1      14.398  13.028  37.670  1.00  0.00     0.168 HD
HETATM    4  C4  UNL     1      15.875  14.136  36.804  1.00  0.00     0.153 A 
HETATM    5  N3  UNL     1      15.649  15.302  37.602  1.00  0.00    -0.080 NA
HETATM    6  C5  UNL     1      16.862  14.121  35.847  1.00  0.00     0.172 A 
HETATM    7  C6  UNL     1      17.110  13.011  35.054  1.00  0.00     0.102 A 
HETATM    8  N5  UNL     1      17.986  12.733  34.072  1.00  0.00    -0.327 N 
ATOM      9  H5  UNL     1      18.695  13.369  33.708  1.00  0.00     0.168 HD
HETATM   10  C7  UNL     1      17.769  11.476  33.653  1.00  0.00     0.225 A 
HETATM   11  N7  UNL     1      16.757  10.974  34.376  1.00  0.00    -0.326 N 
ATOM     12  H7  UNL     1      16.375  10.034  34.275  1.00  0.00     0.168 HD
HETATM   13  C8  UNL     1      16.319  11.901  35.262  1.00  0.00     0.108 A 
ENDROOT
BRANCH  10  14
HETATM   14  S1  UNL     1      18.675  10.664  32.374  1.00  0.00     0.288 S 
HETATM   15  O3  UNL     1      20.110  10.739  32.737  1.00  0.00    -0.198 OA
HETATM   16  O4  UNL     1      18.247   9.235  32.288  1.00  0.00    -0.198 OA
BRANCH  14  17
HETATM   17  N6  UNL     1      18.331  11.506  30.881  1.00  0.00    -0.322 N 
ATOM     18  H62 UNL     1      17.793  12.368  30.795  1.00  0.00     0.169 HD
ATOM     19  H61 UNL     1      18.767  10.974  30.128  1.00  0.00     0.169 HD
ENDBRANCH  14  17
ENDBRANCH  10  14
BRANCH   6  20
HETATM   20  N4  UNL     1      17.700  15.258  35.609  1.00  0.00    -0.110 N 
HETATM   21  O1  UNL     1      18.863  15.286  36.065  1.00  0.00    -0.532 OA
HETATM   22  O2  UNL     1      17.222  16.321  34.875  1.00  0.00    -0.532 OA
ENDBRANCH   6  20
BRANCH   1  23
HETATM   23  N1  UNL     1      14.585  10.891  36.423  1.00  0.00    -0.375 N 
ATOM     24  H1  UNL     1      13.843  10.717  35.744  1.00  0.00     0.161 HD
BRANCH  23  25
HETATM   25  C2  UNL     1      14.698   9.966  37.513  1.00  0.00     0.116 C 
HETATM   26  C1  UNL     1      13.463  10.058  38.408  1.00  0.00     0.026 C 
ENDBRANCH  23  25
ENDBRANCH   1  23
TORSDOF 5
ENDMDL
MODEL 4
REMARK VINA RESULT: -4.995381775      4.496      5.604
REMARK  5 active torsions:
REMARK  status: ('A' for Active; 'I' for Inactive)
REMARK    1  A    between atoms: C2_2  and  N1_3 
REMARK    2  A    between atoms: N1_3  and  C3_5 
REMARK    3  A    between atoms: C5_10  and  N4_11 
REMARK    4  A    between atoms: C7_17  and  S1_18 
REMARK    5  A    between atoms: S1_18  and  N6_19 
ROOT
HETATM    1  C3  UNL     1      15.983  10.570  35.353  1.00  0.00     0.132 A 
HETATM    2  N2  UNL     1      16.522   9.465  34.785  1.00  0.00    -0.327 N 
ATOM      3  H2  UNL     1      16.000   8.589  34.829  1.00  0.00     0.168 HD
HETATM    4  C4  UNL     1      17.714   9.472  34.165  1.00  0.00     0.153 A 
HETATM    5  N3  UNL     1      18.253   8.285  33.576  1.00  0.00    -0.080 NA
HETATM    6  C5  UNL     1      18.407  10.658  34.113  1.00  0.00     0.172 A 
HETATM    7  C6  UNL     1      17.918  11.829  34.673  1.00  0.00     0.102 A 
HETATM    8  N5  UNL     1      18.375  13.091  34.764  1.00  0.00    -0.327 N 
ATOM      9  H5  UNL     1      19.261  13.433  34.391  1.00  0.00     0.168 HD
HETATM   10  C7  UNL     1      17.467  13.824  35.428  1.00  0.00     0.225 A 
HETATM   11  N7  UNL     1      16.446  13.015  35.749  1.00  0.00    -0.326 N 
ATOM     12  H7  UNL     1      15.611  13.301  36.259  1.00  0.00     0.168 HD
HETATM   13  C8  UNL     1      16.690  11.762  35.295  1.00  0.00     0.108 A 
ENDROOT
BRANCH  10  14
HETATM   14  S1  UNL     1      17.625  15.543  35.795  1.00  0.00     0.288 S 
HETATM   15  O3  UNL     1      18.975  15.746  36.374  1.00  0.00    -0.198 OA
HETATM   16  O4  UNL     1      17.486  16.339  34.538  1.00  0.00    -0.198 OA
BRANCH  14  17
HETATM   17  N6  UNL     1      16.359  15.949  36.930  1.00  0.00    -0.322 N 
ATOM     18  H62 UNL     1      15.659  16.681  36.803  1.00  0.00     0.169 HD
ATOM     19  H61 UNL     1      16.456  15.321  37.728  1.00  0.00     0.169 HD
ENDBRANCH  14  17
ENDBRANCH  10  14
BRANCH   6  20
HETATM   20  N4  UNL     1      19.685  10.759  33.473  1.00  0.00    -0.110 N 
HETATM   21  O1  UNL     1      20.705  11.014  34.147  1.00  0.00    -0.532 OA
HETATM   22  O2  UNL     1      19.787  10.571  32.111  1.00  0.00    -0.532 OA
ENDBRANCH   6  20
BRANCH   1  23
HETATM   23  N1  UNL     1      14.852  10.496  35.925  1.00  0.00    -0.375 N 
ATOM     24  H1  UNL     1      14.040  10.799  35.385  1.00  0.00     0.161 HD
BRANCH  23  25
HETATM   25  C2  UNL     1      14.608  10.028  37.258  1.00  0.00     0.116 C 
HETATM   26  C1  UNL     1      13.706  11.012  38.001  1.00  0.00     0.026 C 
ENDBRANCH  23  25
ENDBRANCH   1  23
TORSDOF 5
ENDMDL
MODEL 5
REMARK VINA RESULT: -4.984027861      5.409      6.770
REMARK  5 active torsions:
REMARK  status: ('A' for Active; 'I' for Inactive)
REMARK    1  A    between atoms: C2_2  and  N1_3 
REMARK    2  A    between atoms: N1_3  and  C3_5 
REMARK    3  A    between atoms: C5_10  and  N4_11 
REMARK    4  A    between atoms: C7_17  and  S1_18 
REMARK    5  A    between atoms: S1_18  and  N6_19 
ROOT
HETATM    1  C3  UNL     1      15.402  12.380  36.520  1.00  0.00     0.132 A 
HETATM    2  N2  UNL     1      15.514  13.381  37.427  1.00  0.00    -0.327 N 
ATOM      3  H2  UNL     1      14.876  13.392  38.223  1.00  0.00     0.168 HD
HETATM    4  C4  UNL     1      16.429  14.359  37.322  1.00  0.00     0.153 A 
HETATM    5  N3  UNL     1      16.518  15.401  38.299  1.00  0.00    -0.080 NA
HETATM    6  C5  UNL     1      17.281  14.332  36.245  1.00  0.00     0.172 A 
HETATM    7  C6  UNL     1      17.225  13.340  35.277  1.00  0.00     0.102 A 
HETATM    8  N5  UNL     1      17.917  13.081  34.153  1.00  0.00    -0.327 N 
ATOM      9  H5  UNL     1      18.689  13.639  33.786  1.00  0.00     0.168 HD
HETATM   10  C7  UNL     1      17.421  11.965  33.598  1.00  0.00     0.225 A 
HETATM   11  N7  UNL     1      16.421  11.531  34.378  1.00  0.00    -0.326 N 
ATOM     12  H7  UNL     1      15.859  10.698  34.201  1.00  0.00     0.168 HD
HETATM   13  C8  UNL     1      16.267  12.362  35.437  1.00  0.00     0.108 A 
ENDROOT
BRANCH  10  14
HETATM   14  S1  UNL     1      18.008  11.229  32.105  1.00  0.00     0.288 S 
HETATM   15  O3  UNL     1      17.667  12.153  30.996  1.00  0.00    -0.198 OA
HETATM   16  O4  UNL     1      19.490  11.053  32.181  1.00  0.00    -0.198 OA
BRANCH  14  17
HETATM   17  N6  UNL     1      17.207   9.684  31.939  1.00  0.00    -0.322 N 
ATOM     18  H62 UNL     1      16.864   9.107  32.707  1.00  0.00     0.169 HD
ATOM     19  H61 UNL     1      17.152   9.478  30.942  1.00  0.00     0.169 HD
ENDBRANCH  14  17
ENDBRANCH  10  14
BRANCH   6  20
HETATM   20  N4  UNL     1      18.288  15.335  36.053  1.00  0.00    -0.110 N 
HETATM   21  O1  UNL     1      19.468  15.111  36.396  1.00  0.00    -0.532 OA
HETATM   22  O2  UNL     1      17.951  16.546  35.488  1.00  0.00    -0.532 OA
ENDBRANCH   6  20
BRANCH   1  23
HETATM   23  N1  UNL     1      14.515  11.486  36.677  1.00  0.00    -0.375 N 
ATOM     24  H1  UNL     1      13.593  11.675  36.282  1.00  0.00     0.161 HD
BRANCH  23  25
HETATM   25  C2  UNL     1      14.686  10.235  37.356  1.00  0.00     0.116 C 
HETATM   26  C1  UNL     1      13.515   9.990  38.305  1.00  0.00     0.026 C 
ENDBRANCH  23  25
ENDBRANCH   1  23
TORSDOF 5
ENDMDL
