MODEL 1
REMARK VINA RESULT: -6.501794578      0.000      0.000
REMARK  5 active torsions:
REMARK  status: ('A' for Active; 'I' for Inactive)
REMARK    1  A    between atoms: C3_5  and  C4_6 
REMARK    2  A    between atoms: C5_14  and  C6_15 
REMARK    3  A    between atoms: C7_18  and  C8_19 
REMARK    4  A    between atoms: C13_27  and  N8_28 
REMARK    5  A    between atoms: C14_33  and  N10_34 
ROOT
HETATM    1  C6  UNL     1      20.260  11.562  34.806  1.00  0.00     0.093 A 
HETATM    2  N6  UNL     1      20.326  10.262  35.044  1.00  0.00    -0.336 N 
ATOM      3  H6  UNL     1      20.963   9.680  34.499  1.00  0.00     0.168 HD
HETATM    4  C7  UNL     1      19.550   9.693  36.008  1.00  0.00     0.141 A 
HETATM    5  N7  UNL     1      18.710  10.458  36.725  1.00  0.00    -0.335 N 
ATOM      6  H7  UNL     1      18.130  10.031  37.446  1.00  0.00     0.168 HD
HETATM    7  C12 UNL     1      18.627  11.776  36.502  1.00  0.00     0.108 A 
HETATM    8  C13 UNL     1      17.772  12.587  37.235  1.00  0.00     0.144 A 
HETATM    9  N9  UNL     1      17.721  13.917  36.984  1.00  0.00    -0.175 N 
ATOM     10  H9  UNL     1      17.090  14.507  37.527  1.00  0.00     0.186 HD
HETATM   11  C14 UNL     1      18.493  14.475  36.028  1.00  0.00     0.678 A 
HETATM   12  N11 UNL     1      19.338  13.712  35.297  1.00  0.00    -0.187 N 
ATOM     13  H11 UNL     1      19.918  14.141  34.577  1.00  0.00     0.184 HD
HETATM   14  C15 UNL     1      19.411  12.378  35.523  1.00  0.00     0.108 A 
ENDROOT
BRANCH   1  15
HETATM   15  C5  UNL     1      21.085  12.208  33.756  1.00  0.00     0.094 A 
HETATM   16  C3  UNL     1      20.612  12.636  32.543  1.00  0.00     0.110 A 
HETATM   17  N1  UNL     1      21.664  13.171  31.899  1.00  0.00    -0.341 N 
HETATM   18  C2  UNL     1      22.743  13.077  32.686  1.00  0.00     0.078 A 
ATOM     19  H1  UNL     1      21.643  13.581  30.965  1.00  0.00     0.167 HD
HETATM   20  C1  UNL     1      24.137  13.556  32.361  1.00  0.00     0.089 C 
HETATM   21  N12 UNL     1      22.386  12.481  33.831  1.00  0.00    -0.342 N 
ATOM     22  H12 UNL     1      22.999  12.275  34.618  1.00  0.00     0.167 HD
BRANCH  16  23
HETATM   23  C4  UNL     1      19.225  12.541  32.026  1.00  0.00     0.163 A 
HETATM   24  N2  UNL     1      18.462  11.474  31.901  1.00  0.00    -0.270 N 
HETATM   25  N3  UNL     1      17.278  11.735  31.396  1.00  0.00    -0.225 N 
ATOM     26  H2  UNL     1      18.762  10.537  32.171  1.00  0.00     0.190 HD
HETATM   27  N4  UNL     1      17.306  13.065  31.192  1.00  0.00    -0.005 NA
ATOM     28  H3  UNL     1      16.517  11.084  31.205  1.00  0.00     0.205 HD
HETATM   29  N5  UNL     1      18.466  13.576  31.562  1.00  0.00    -0.265 N 
ATOM     30  H5  UNL     1      18.742  14.557  31.511  1.00  0.00     0.186 HD
ENDBRANCH  16  23
ENDBRANCH   1  15
BRANCH   4  31
HETATM   31  C8  UNL     1      19.625   8.266  36.289  1.00  0.00     0.118 A 
HETATM   32  C9  UNL     1      20.078   7.321  35.414  1.00  0.00     0.043 A 
HETATM   33  C10 UNL     1      20.004   6.063  36.027  1.00  0.00     0.027 A 
HETATM   34  C11 UNL     1      19.493   6.336  37.281  1.00  0.00     0.142 A 
HETATM   35  O1  UNL     1      19.288   7.636  37.389  1.00  0.00    -0.319 OA
ENDBRANCH   4  31
BRANCH   8  36
HETATM   36  N8  UNL     1      17.017  12.101  38.155  1.00  0.00    -0.383 N 
ATOM     37  H82 UNL     1      16.788  11.107  38.129  1.00  0.00     0.157 HD
ATOM     38  H81 UNL     1      16.649  12.689  38.902  1.00  0.00     0.157 HD
ENDBRANCH   8  36
BRANCH  11  39
HETATM   39  N10 UNL     1      18.484  15.722  35.754  1.00  0.00    -0.234 N 
ATOM     40 2H10 UNL     1      18.527  16.356  36.552  1.00  0.00     0.174 HD
ATOM     41 1H10 UNL     1      18.435  16.088  34.804  1.00  0.00     0.174 HD
ENDBRANCH  11  39
TORSDOF 5
ENDMDL
MODEL 2
REMARK VINA RESULT: -6.205917357      1.988      4.226
REMARK  5 active torsions:
REMARK  status: ('A' for Active; 'I' for Inactive)
REMARK    1  A    between atoms: C3_5  and  C4_6 
REMARK    2  A    between atoms: C5_14  and  C6_15 
REMARK    3  A    between atoms: C7_18  and  C8_19 
REMARK    4  A    between atoms: C13_27  and  N8_28 
REMARK    5  A    between atoms: C14_33  and  N10_34 
ROOT
HETATM    1  C6  UNL     1      18.675  10.733  35.721  1.00  0.00     0.093 A 
HETATM    2  N6  UNL     1      18.991   9.453  35.616  1.00  0.00    -0.336 N 
ATOM      3  H6  UNL     1      18.255   8.747  35.642  1.00  0.00     0.168 HD
HETATM    4  C7  UNL     1      20.290   9.068  35.473  1.00  0.00     0.141 A 
HETATM    5  N7  UNL     1      21.259   9.996  35.438  1.00  0.00    -0.335 N 
ATOM      6  H7  UNL     1      22.231   9.708  35.331  1.00  0.00     0.168 HD
HETATM    7  C12 UNL     1      20.963  11.299  35.543  1.00  0.00     0.108 A 
HETATM    8  C13 UNL     1      21.948  12.276  35.502  1.00  0.00     0.144 A 
HETATM    9  N9  UNL     1      21.607  13.583  35.604  1.00  0.00    -0.175 N 
ATOM     10  H9  UNL     1      22.337  14.296  35.574  1.00  0.00     0.186 HD
HETATM   11  C14 UNL     1      20.318  13.958  35.746  1.00  0.00     0.678 A 
HETATM   12  N11 UNL     1      19.335  13.030  35.787  1.00  0.00    -0.187 N 
ATOM     13  H11 UNL     1      18.363  13.320  35.893  1.00  0.00     0.184 HD
HETATM   14  C15 UNL     1      19.643  11.714  35.688  1.00  0.00     0.108 A 
ENDROOT
BRANCH   1  15
HETATM   15  C5  UNL     1      17.270  11.181  35.888  1.00  0.00     0.094 A 
HETATM   16  C3  UNL     1      16.521  11.784  34.912  1.00  0.00     0.110 A 
HETATM   17  N1  UNL     1      15.313  12.015  35.456  1.00  0.00    -0.341 N 
HETATM   18  C2  UNL     1      15.320  11.570  36.720  1.00  0.00     0.078 A 
ATOM     19  H1  UNL     1      14.523  12.456  34.985  1.00  0.00     0.167 HD
HETATM   20  C1  UNL     1      14.171  11.624  37.698  1.00  0.00     0.089 C 
HETATM   21  N12 UNL     1      16.528  11.057  36.985  1.00  0.00    -0.342 N 
ATOM     22  H12 UNL     1      16.825  10.646  37.869  1.00  0.00     0.167 HD
BRANCH  16  23
HETATM   23  C4  UNL     1      16.935  12.120  33.528  1.00  0.00     0.163 A 
HETATM   24  N2  UNL     1      17.157  11.309  32.513  1.00  0.00    -0.270 N 
HETATM   25  N3  UNL     1      17.522  11.933  31.416  1.00  0.00    -0.225 N 
ATOM     26  H2  UNL     1      17.055  10.295  32.574  1.00  0.00     0.190 HD
HETATM   27  N4  UNL     1      17.526  13.230  31.776  1.00  0.00    -0.005 NA
ATOM     28  H3  UNL     1      17.748  11.529  30.507  1.00  0.00     0.205 HD
HETATM   29  N5  UNL     1      17.177  13.372  33.041  1.00  0.00    -0.265 N 
ATOM     30  H5  UNL     1      17.102  14.249  33.555  1.00  0.00     0.186 HD
ENDBRANCH  16  23
ENDBRANCH   1  15
BRANCH   4  31
HETATM   31  C8  UNL     1      20.648   7.662  35.340  1.00  0.00     0.118 A 
HETATM   32  C9  UNL     1      21.923   7.175  35.384  1.00  0.00     0.043 A 
HETATM   33  C10 UNL     1      21.881   5.784  35.220  1.00  0.00     0.027 A 
HETATM   34  C11 UNL     1      20.534   5.507  35.083  1.00  0.00     0.142 A 
HETATM   35  O1  UNL     1      19.853   6.635  35.160  1.00  0.00    -0.319 OA
ENDBRANCH   4  31
BRANCH   8  36
HETATM   36  N8  UNL     1      23.188  11.968  35.371  1.00  0.00    -0.383 N 
ATOM     37  H82 UNL     1      23.812  12.086  36.170  1.00  0.00     0.157 HD
ATOM     38  H81 UNL     1      23.554  11.610  34.489  1.00  0.00     0.157 HD
ENDBRANCH   8  36
BRANCH  11  39
HETATM   39  N10 UNL     1      19.946  15.174  35.844  1.00  0.00    -0.234 N 
ATOM     40 2H10 UNL     1      20.688  15.862  35.974  1.00  0.00     0.174 HD
ATOM     41 1H10 UNL     1      18.970  15.469  35.801  1.00  0.00     0.174 HD
ENDBRANCH  11  39
TORSDOF 5
ENDMDL
MODEL 3
REMARK VINA RESULT: -6.103951113      1.990      3.781
REMARK  5 active torsions:
REMARK  status: ('A' for Active; 'I' for Inactive)
REMARK    1  A    between atoms: C3_5  and  C4_6 
REMARK    2  A    between atoms: C5_14  and  C6_15 
REMARK    3  A    between atoms: C7_18  and  C8_19 
REMARK    4  A    between atoms: C13_27  and  N8_28 
REMARK    5  A    between atoms: C14_33  and  N10_34 
ROOT
HETATM    1  C6  UNL     1      19.782  11.451  34.077  1.00  0.00     0.093 A 
HETATM    2  N6  UNL     1      19.549  10.202  34.442  1.00  0.00    -0.336 N 
ATOM      3  H6  UNL     1      18.750   9.702  34.051  1.00  0.00     0.168 HD
HETATM    4  C7  UNL     1      20.365   9.576  35.336  1.00  0.00     0.141 A 
HETATM    5  N7  UNL     1      21.416  10.234  35.852  1.00  0.00    -0.335 N 
ATOM      6  H7  UNL     1      22.026   9.765  36.521  1.00  0.00     0.168 HD
HETATM    7  C12 UNL     1      21.671  11.500  35.497  1.00  0.00     0.108 A 
HETATM    8  C13 UNL     1      22.756  12.196  36.011  1.00  0.00     0.144 A 
HETATM    9  N9  UNL     1      22.985  13.474  35.622  1.00  0.00    -0.175 N 
ATOM     10  H9  UNL     1      23.785  13.979  36.005  1.00  0.00     0.186 HD
HETATM   11  C14 UNL     1      22.173  14.088  34.736  1.00  0.00     0.678 A 
HETATM   12  N11 UNL     1      21.109  13.436  34.215  1.00  0.00    -0.187 N 
ATOM     13  H11 UNL     1      20.500  13.906  33.546  1.00  0.00     0.184 HD
HETATM   14  C15 UNL     1      20.852  12.157  34.585  1.00  0.00     0.108 A 
ENDROOT
BRANCH   1  15
HETATM   15  C5  UNL     1      18.905  12.162  33.114  1.00  0.00     0.094 A 
HETATM   16  C3  UNL     1      17.577  12.432  33.319  1.00  0.00     0.110 A 
HETATM   17  N1  UNL     1      17.158  13.096  32.226  1.00  0.00    -0.341 N 
HETATM   18  C2  UNL     1      18.189  13.229  31.382  1.00  0.00     0.078 A 
ATOM     19  H1  UNL     1      16.211  13.441  32.067  1.00  0.00     0.167 HD
HETATM   20  C1  UNL     1      18.168  13.912  30.037  1.00  0.00     0.089 C 
HETATM   21  N12 UNL     1      19.266  12.651  31.930  1.00  0.00    -0.342 N 
ATOM     22  H12 UNL     1      20.196  12.596  31.515  1.00  0.00     0.167 HD
BRANCH  16  23
HETATM   23  C4  UNL     1      16.750  12.078  34.498  1.00  0.00     0.163 A 
HETATM   24  N2  UNL     1      16.513  12.789  35.582  1.00  0.00    -0.270 N 
HETATM   25  N3  UNL     1      15.739  12.176  36.448  1.00  0.00    -0.225 N 
ATOM     26  H2  UNL     1      16.894  13.723  35.734  1.00  0.00     0.190 HD
HETATM   27  N4  UNL     1      15.473  10.996  35.858  1.00  0.00    -0.005 NA
ATOM     28  H3  UNL     1      15.414  12.515  37.354  1.00  0.00     0.205 HD
HETATM   29  N5  UNL     1      16.069  10.910  34.683  1.00  0.00    -0.265 N 
ATOM     30  H5  UNL     1      16.028  10.121  34.037  1.00  0.00     0.186 HD
ENDBRANCH  16  23
ENDBRANCH   1  15
BRANCH   4  31
HETATM   31  C8  UNL     1      20.127   8.195  35.733  1.00  0.00     0.118 A 
HETATM   32  C9  UNL     1      19.841   7.787  37.005  1.00  0.00     0.043 A 
HETATM   33  C10 UNL     1      19.677   6.396  37.007  1.00  0.00     0.027 A 
HETATM   34  C11 UNL     1      19.881   6.036  35.689  1.00  0.00     0.142 A 
HETATM   35  O1  UNL     1      20.141   7.120  34.982  1.00  0.00    -0.319 OA
ENDBRANCH   4  31
BRANCH   8  36
HETATM   36  N8  UNL     1      23.556  11.655  36.859  1.00  0.00    -0.383 N 
ATOM     37  H82 UNL     1      24.300  11.047  36.513  1.00  0.00     0.157 HD
ATOM     38  H81 UNL     1      23.461  11.823  37.860  1.00  0.00     0.157 HD
ENDBRANCH   8  36
BRANCH  11  39
HETATM   39  N10 UNL     1      22.347  15.287  34.337  1.00  0.00    -0.234 N 
ATOM     40 2H10 UNL     1      23.103  15.433  33.669  1.00  0.00     0.174 HD
ATOM     41 1H10 UNL     1      21.777  16.073  34.653  1.00  0.00     0.174 HD
ENDBRANCH  11  39
TORSDOF 5
ENDMDL
MODEL 4
REMARK VINA RESULT: -6.070552659      2.844      4.786
REMARK  5 active torsions:
REMARK  status: ('A' for Active; 'I' for Inactive)
REMARK    1  A    between atoms: C3_5  and  C4_6 
REMARK    2  A    between atoms: C5_14  and  C6_15 
REMARK    3  A    between atoms: C7_18  and  C8_19 
REMARK    4  A    between atoms: C13_27  and  N8_28 
REMARK    5  A    between atoms: C14_33  and  N10_34 
ROOT
HETATM    1  C6  UNL     1      17.646  12.965  35.128  1.00  0.00     0.093 A 
HETATM    2  N6  UNL     1      16.550  12.492  35.698  1.00  0.00    -0.336 N 
ATOM      3  H6  UNL     1      15.903  11.922  35.153  1.00  0.00     0.168 HD
HETATM    4  C7  UNL     1      16.276  12.761  37.005  1.00  0.00     0.141 A 
HETATM    5  N7  UNL     1      17.127  13.512  37.723  1.00  0.00    -0.335 N 
ATOM      6  H7  UNL     1      16.921  13.712  38.702  1.00  0.00     0.168 HD
HETATM    7  C12 UNL     1      18.243  14.002  37.167  1.00  0.00     0.108 A 
HETATM    8  C13 UNL     1      19.140  14.775  37.892  1.00  0.00     0.144 A 
HETATM    9  N9  UNL     1      20.261  15.246  37.296  1.00  0.00    -0.175 N 
ATOM     10  H9  UNL     1      20.916  15.814  37.835  1.00  0.00     0.186 HD
HETATM   11  C14 UNL     1      20.527  14.976  36.000  1.00  0.00     0.678 A 
HETATM   12  N11 UNL     1      19.674  14.225  35.267  1.00  0.00    -0.187 N 
ATOM     13  H11 UNL     1      19.881  14.025  34.289  1.00  0.00     0.184 HD
HETATM   14  C15 UNL     1      18.543  13.739  35.834  1.00  0.00     0.108 A 
ENDROOT
BRANCH   1  15
HETATM   15  C5  UNL     1      17.965  12.699  33.704  1.00  0.00     0.094 A 
HETATM   16  C3  UNL     1      18.588  11.569  33.241  1.00  0.00     0.110 A 
HETATM   17  N1  UNL     1      18.675  11.710  31.906  1.00  0.00    -0.341 N 
HETATM   18  C2  UNL     1      18.126  12.882  31.562  1.00  0.00     0.078 A 
ATOM     19  H1  UNL     1      19.090  11.036  31.262  1.00  0.00     0.167 HD
HETATM   20  C1  UNL     1      18.005  13.443  30.165  1.00  0.00     0.089 C 
HETATM   21  N12 UNL     1      17.690  13.492  32.672  1.00  0.00    -0.342 N 
ATOM     22  H12 UNL     1      17.230  14.400  32.717  1.00  0.00     0.167 HD
BRANCH  16  23
HETATM   23  C4  UNL     1      19.073  10.411  34.031  1.00  0.00     0.163 A 
HETATM   24  N2  UNL     1      20.083  10.354  34.875  1.00  0.00    -0.270 N 
HETATM   25  N3  UNL     1      20.252   9.165  35.407  1.00  0.00    -0.225 N 
ATOM     26  H2  UNL     1      20.676  11.155  35.094  1.00  0.00     0.190 HD
HETATM   27  N4  UNL     1      19.273   8.427  34.851  1.00  0.00    -0.005 NA
ATOM     28  H3  UNL     1      20.959   8.870  36.081  1.00  0.00     0.205 HD
HETATM   29  N5  UNL     1      18.547   9.151  34.020  1.00  0.00    -0.265 N 
ATOM     30  H5  UNL     1      17.748   8.831  33.474  1.00  0.00     0.186 HD
ENDBRANCH  16  23
ENDBRANCH   1  15
BRANCH   4  31
HETATM   31  C8  UNL     1      15.081  12.232  37.647  1.00  0.00     0.118 A 
HETATM   32  C9  UNL     1      13.987  12.973  37.990  1.00  0.00     0.043 A 
HETATM   33  C10 UNL     1      13.038  12.131  38.585  1.00  0.00     0.027 A 
HETATM   34  C11 UNL     1      13.640  10.888  38.565  1.00  0.00     0.142 A 
HETATM   35  O1  UNL     1      14.832  10.996  38.007  1.00  0.00    -0.319 OA
ENDBRANCH   4  31
BRANCH   8  36
HETATM   36  N8  UNL     1      18.930  15.059  39.127  1.00  0.00    -0.383 N 
ATOM     37  H82 UNL     1      17.977  15.270  39.428  1.00  0.00     0.157 HD
ATOM     38  H81 UNL     1      19.692  15.075  39.804  1.00  0.00     0.157 HD
ENDBRANCH   8  36
BRANCH  11  39
HETATM   39  N10 UNL     1      21.569  15.395  35.393  1.00  0.00    -0.234 N 
ATOM     40 2H10 UNL     1      21.908  14.812  34.629  1.00  0.00     0.174 HD
ATOM     41 1H10 UNL     1      22.054  16.258  35.640  1.00  0.00     0.174 HD
ENDBRANCH  11  39
TORSDOF 5
ENDMDL
MODEL 5
REMARK VINA RESULT: -6.048277458      2.154      3.374
REMARK  5 active torsions:
REMARK  status: ('A' for Active; 'I' for Inactive)
REMARK    1  A    between atoms: C3_5  and  C4_6 
REMARK    2  A    between atoms: C5_14  and  C6_15 
REMARK    3  A    between atoms: C7_18  and  C8_19 
REMARK    4  A    between atoms: C13_27  and  N8_28 
REMARK    5  A    between atoms: C14_33  and  N10_34 
ROOT
HETATM    1  C6  UNL     1      19.540  11.692  34.259  1.00  0.00     0.093 A 
HETATM    2  N6  UNL     1      19.660  10.376  34.315  1.00  0.00    -0.336 N 
ATOM      3  H6  UNL     1      19.206   9.796  33.609  1.00  0.00     0.168 HD
HETATM    4  C7  UNL     1      20.385   9.787  35.307  1.00  0.00     0.141 A 
HETATM    5  N7  UNL     1      20.982  10.549  36.238  1.00  0.00    -0.335 N 
ATOM      6  H7  UNL     1      21.525  10.107  36.980  1.00  0.00     0.168 HD
HETATM    7  C12 UNL     1      20.874  11.883  36.201  1.00  0.00     0.108 A 
HETATM    8  C13 UNL     1      21.489  12.691  37.148  1.00  0.00     0.144 A 
HETATM    9  N9  UNL     1      21.361  14.038  37.073  1.00  0.00    -0.175 N 
ATOM     10  H9  UNL     1      21.816  14.625  37.772  1.00  0.00     0.186 HD
HETATM   11  C14 UNL     1      20.642  14.615  36.087  1.00  0.00     0.678 A 
HETATM   12  N11 UNL     1      20.032  13.856  35.149  1.00  0.00    -0.187 N 
ATOM     13  H11 UNL     1      19.492  14.299  34.406  1.00  0.00     0.184 HD
HETATM   14  C15 UNL     1      20.140  12.506  35.196  1.00  0.00     0.108 A 
ENDROOT
BRANCH   1  15
HETATM   15  C5  UNL     1      18.749  12.360  33.197  1.00  0.00     0.094 A 
HETATM   16  C3  UNL     1      17.406  12.622  33.270  1.00  0.00     0.110 A 
HETATM   17  N1  UNL     1      17.083  13.245  32.122  1.00  0.00    -0.341 N 
HETATM   18  C2  UNL     1      18.186  13.363  31.372  1.00  0.00     0.078 A 
ATOM     19  H1  UNL     1      16.152  13.574  31.866  1.00  0.00     0.167 HD
HETATM   20  C1  UNL     1      18.282  14.003  30.008  1.00  0.00     0.089 C 
HETATM   21  N12 UNL     1      19.213  12.816  32.036  1.00  0.00    -0.342 N 
ATOM     22  H12 UNL     1      20.177  12.758  31.709  1.00  0.00     0.167 HD
BRANCH  16  23
HETATM   23  C4  UNL     1      16.477  12.297  34.379  1.00  0.00     0.163 A 
HETATM   24  N2  UNL     1      15.893  13.114  35.233  1.00  0.00    -0.270 N 
HETATM   25  N3  UNL     1      15.130  12.497  36.106  1.00  0.00    -0.225 N 
ATOM     26  H2  UNL     1      16.021  14.125  35.217  1.00  0.00     0.190 HD
HETATM   27  N4  UNL     1      15.247  11.199  35.770  1.00  0.00    -0.005 NA
ATOM     28  H3  UNL     1      14.578  12.906  36.860  1.00  0.00     0.205 HD
HETATM   29  N5  UNL     1      16.052  11.049  34.734  1.00  0.00    -0.265 N 
ATOM     30  H5  UNL     1      16.307  10.169  34.286  1.00  0.00     0.186 HD
ENDBRANCH  16  23
ENDBRANCH   1  15
BRANCH   4  31
HETATM   31  C8  UNL     1      20.538   8.340  35.369  1.00  0.00     0.118 A 
HETATM   32  C9  UNL     1      21.718   7.689  35.589  1.00  0.00     0.043 A 
HETATM   33  C10 UNL     1      21.482   6.308  35.581  1.00  0.00     0.027 A 
HETATM   34  C11 UNL     1      20.123   6.206  35.350  1.00  0.00     0.142 A 
HETATM   35  O1  UNL     1      19.615   7.419  35.233  1.00  0.00    -0.319 OA
ENDBRANCH   4  31
BRANCH   8  36
HETATM   36  N8  UNL     1      22.182  12.188  38.105  1.00  0.00    -0.383 N 
ATOM     37  H82 UNL     1      22.015  11.218  38.376  1.00  0.00     0.157 HD
ATOM     38  H81 UNL     1      22.891  12.736  38.592  1.00  0.00     0.157 HD
ENDBRANCH   8  36
BRANCH  11  39
HETATM   39  N10 UNL     1      20.493  15.877  35.972  1.00  0.00    -0.234 N 
ATOM     40 2H10 UNL     1      19.933  16.331  36.693  1.00  0.00     0.174 HD
ATOM     41 1H10 UNL     1      20.899  16.424  35.212  1.00  0.00     0.174 HD
ENDBRANCH  11  39
TORSDOF 5
ENDMDL
