MODEL 1
REMARK VINA RESULT: -5.357449779      0.000      0.000
REMARK  5 active torsions:
REMARK  status: ('A' for Active; 'I' for Inactive)
REMARK    1  A    between atoms: O1_2  and  C2_3 
REMARK    2  A    between atoms: N1_9  and  C7_11 
REMARK    3  A    between atoms: C9_14  and  O2_15 
REMARK    4  A    between atoms: C11_20  and  C12_21 
REMARK    5  A    between atoms: C15_29  and  O5_30 
ROOT
HETATM    1  C7  UNL     1      17.783  11.809  35.791  1.00  0.00     0.094 A 
HETATM    2  C8  UNL     1      17.698  11.476  34.460  1.00  0.00     0.111 A 
HETATM    3  N2  UNL     1      17.088  12.309  33.486  1.00  0.00    -0.097 NA
HETATM    4  C9  UNL     1      18.257  10.242  34.091  1.00  0.00     0.120 A 
HETATM    5  C10 UNL     1      18.859   9.406  35.004  1.00  0.00     0.088 A 
HETATM    6  N3  UNL     1      19.399   8.222  34.671  1.00  0.00    -0.335 N 
ATOM      7  H3  UNL     1      19.355   7.941  33.691  1.00  0.00     0.168 HD
HETATM    8  C11 UNL     1      19.995   7.376  35.536  1.00  0.00     0.175 A 
HETATM    9  N5  UNL     1      20.051   7.751  36.827  1.00  0.00    -0.304 N 
ATOM     10  H5  UNL     1      20.495   7.139  37.512  1.00  0.00     0.171 HD
HETATM   11  C13 UNL     1      19.529   8.922  37.223  1.00  0.00     0.262 A 
HETATM   12  O4  UNL     1      19.588   9.257  38.422  1.00  0.00    -0.267 OA
HETATM   13  C14 UNL     1      18.909   9.804  36.332  1.00  0.00     0.097 A 
HETATM   14  C15 UNL     1      18.383  10.994  36.752  1.00  0.00     0.112 A 
ENDROOT
BRANCH   1  15
HETATM   15  N1  UNL     1      17.215  13.063  36.177  1.00  0.00    -0.354 N 
HETATM   16  C6  UNL     1      15.967  13.186  36.474  1.00  0.00     0.029 C 
HETATM   17  C3  UNL     1      15.323  14.421  36.873  1.00  0.00     0.045 C 
HETATM   18  C5  UNL     1      14.938  12.090  36.475  1.00  0.00     0.069 C 
HETATM   19  C2  UNL     1      15.420  15.646  36.490  1.00  0.00     0.154 C 
HETATM   20  S1  UNL     1      14.213  13.845  38.210  1.00  0.00    -0.126 SA
HETATM   21  C4  UNL     1      14.365  12.056  37.876  1.00  0.00     0.085 C 
ATOM     22  H1  UNL     1      17.817  13.886  36.218  1.00  0.00     0.166 HD
BRANCH  19  23
HETATM   23  O1  UNL     1      16.142  16.226  35.570  1.00  0.00    -0.366 OA
HETATM   24  C1  UNL     1      17.241  16.980  35.479  1.00  0.00     0.209 C 
ENDBRANCH  19  23
ENDBRANCH   1  15
BRANCH  14  25
HETATM   25  O5  UNL     1      18.440  11.373  38.062  1.00  0.00    -0.357 OA
ATOM     26  H5  UNL     1      19.226  11.238  38.578  1.00  0.00     0.217 HD
ENDBRANCH  14  25
BRANCH   4  27
HETATM   27  O2  UNL     1      18.185   9.887  32.762  1.00  0.00    -0.357 OA
ATOM     28  H2  UNL     1      18.273   8.965  32.551  1.00  0.00     0.218 HD
ENDBRANCH   4  27
BRANCH   8  29
HETATM   29  C12 UNL     1      20.564   6.107  35.124  1.00  0.00     0.298 C 
HETATM   30  N4  UNL     1      19.715   5.031  34.815  1.00  0.00    -0.054 NA
HETATM   31  O3  UNL     1      21.796   5.976  35.045  1.00  0.00    -0.268 OA
ENDBRANCH   8  29
TORSDOF 5
ENDMDL
MODEL 2
REMARK VINA RESULT: -5.341316882      4.436      7.717
REMARK  5 active torsions:
REMARK  status: ('A' for Active; 'I' for Inactive)
REMARK    1  A    between atoms: O1_2  and  C2_3 
REMARK    2  A    between atoms: N1_9  and  C7_11 
REMARK    3  A    between atoms: C9_14  and  O2_15 
REMARK    4  A    between atoms: C11_20  and  C12_21 
REMARK    5  A    between atoms: C15_29  and  O5_30 
ROOT
HETATM    1  C7  UNL     1      20.956   9.892  35.645  1.00  0.00     0.094 A 
HETATM    2  C8  UNL     1      19.735   9.304  35.410  1.00  0.00     0.111 A 
HETATM    3  N2  UNL     1      19.276   8.157  36.110  1.00  0.00    -0.097 NA
HETATM    4  C9  UNL     1      18.936   9.902  34.423  1.00  0.00     0.120 A 
HETATM    5  C10 UNL     1      19.345  11.015  33.723  1.00  0.00     0.088 A 
HETATM    6  N3  UNL     1      18.595  11.601  32.774  1.00  0.00    -0.335 N 
ATOM      7  H3  UNL     1      17.682  11.193  32.574  1.00  0.00     0.168 HD
HETATM    8  C11 UNL     1      18.960  12.690  32.067  1.00  0.00     0.175 A 
HETATM    9  N5  UNL     1      20.165  13.226  32.336  1.00  0.00    -0.304 N 
ATOM     10  H5  UNL     1      20.477  14.051  31.823  1.00  0.00     0.171 HD
HETATM   11  C13 UNL     1      20.961  12.686  33.272  1.00  0.00     0.262 A 
HETATM   12  O4  UNL     1      22.075  13.192  33.511  1.00  0.00    -0.267 OA
HETATM   13  C14 UNL     1      20.589  11.556  34.009  1.00  0.00     0.097 A 
HETATM   14  C15 UNL     1      21.412  11.019  34.959  1.00  0.00     0.112 A 
ENDROOT
BRANCH   1  15
HETATM   15  N1  UNL     1      21.777   9.289  36.647  1.00  0.00    -0.354 N 
HETATM   16  C6  UNL     1      22.589   8.324  36.378  1.00  0.00     0.029 C 
HETATM   17  C3  UNL     1      23.450   7.667  37.339  1.00  0.00     0.045 C 
HETATM   18  C5  UNL     1      22.812   7.696  35.030  1.00  0.00     0.069 C 
HETATM   19  C2  UNL     1      23.305   7.290  38.561  1.00  0.00     0.154 C 
HETATM   20  S1  UNL     1      24.993   7.459  36.374  1.00  0.00    -0.126 SA
HETATM   21  C4  UNL     1      24.289   7.853  34.735  1.00  0.00     0.085 C 
ATOM     22  H1  UNL     1      21.719   9.632  37.607  1.00  0.00     0.166 HD
BRANCH  19  23
HETATM   23  O1  UNL     1      22.297   7.353  39.388  1.00  0.00    -0.366 OA
HETATM   24  C1  UNL     1      21.044   6.899  39.485  1.00  0.00     0.209 C 
ENDBRANCH  19  23
ENDBRANCH   1  15
BRANCH  14  25
HETATM   25  O5  UNL     1      22.634  11.563  35.231  1.00  0.00    -0.357 OA
ATOM     26  H5  UNL     1      22.838  12.457  34.985  1.00  0.00     0.217 HD
ENDBRANCH  14  25
BRANCH   4  27
HETATM   27  O2  UNL     1      17.709   9.331  34.172  1.00  0.00    -0.357 OA
ATOM     28  H2  UNL     1      17.524   9.069  33.277  1.00  0.00     0.218 HD
ENDBRANCH   4  27
BRANCH   8  29
HETATM   29  C12 UNL     1      18.112  13.285  31.053  1.00  0.00     0.298 C 
HETATM   30  N4  UNL     1      18.692  13.997  29.989  1.00  0.00    -0.054 NA
HETATM   31  O3  UNL     1      16.878  13.163  31.126  1.00  0.00    -0.268 OA
ENDBRANCH   8  29
TORSDOF 5
ENDMDL
MODEL 3
REMARK VINA RESULT: -5.136459180      3.533      7.327
REMARK  5 active torsions:
REMARK  status: ('A' for Active; 'I' for Inactive)
REMARK    1  A    between atoms: O1_2  and  C2_3 
REMARK    2  A    between atoms: N1_9  and  C7_11 
REMARK    3  A    between atoms: C9_14  and  O2_15 
REMARK    4  A    between atoms: C11_20  and  C12_21 
REMARK    5  A    between atoms: C15_29  and  O5_30 
ROOT
HETATM    1  C7  UNL     1      18.749  12.276  34.852  1.00  0.00     0.094 A 
HETATM    2  C8  UNL     1      17.712  11.378  34.749  1.00  0.00     0.111 A 
HETATM    3  N2  UNL     1      17.900  10.003  34.449  1.00  0.00    -0.097 NA
HETATM    4  C9  UNL     1      16.422  11.891  34.960  1.00  0.00     0.120 A 
HETATM    5  C10 UNL     1      16.198  13.217  35.254  1.00  0.00     0.088 A 
HETATM    6  N3  UNL     1      14.972  13.727  35.458  1.00  0.00    -0.335 N 
ATOM      7  H3  UNL     1      14.178  13.089  35.391  1.00  0.00     0.168 HD
HETATM    8  C11 UNL     1      14.713  15.018  35.747  1.00  0.00     0.175 A 
HETATM    9  N5  UNL     1      15.763  15.854  35.836  1.00  0.00    -0.304 N 
ATOM     10  H5  UNL     1      15.608  16.839  36.054  1.00  0.00     0.171 HD
HETATM   11  C13 UNL     1      17.013  15.407  35.642  1.00  0.00     0.262 A 
HETATM   12  O4  UNL     1      17.977  16.192  35.727  1.00  0.00    -0.267 OA
HETATM   13  C14 UNL     1      17.290  14.069  35.342  1.00  0.00     0.097 A 
HETATM   14  C15 UNL     1      18.570  13.629  35.147  1.00  0.00     0.112 A 
ENDROOT
BRANCH   1  15
HETATM   15  N1  UNL     1      20.066  11.764  34.637  1.00  0.00    -0.354 N 
HETATM   16  C6  UNL     1      20.755  11.228  35.587  1.00  0.00     0.029 C 
HETATM   17  C3  UNL     1      22.091  10.688  35.443  1.00  0.00     0.045 C 
HETATM   18  C5  UNL     1      20.319  11.050  37.014  1.00  0.00     0.069 C 
HETATM   19  C2  UNL     1      23.143  11.058  34.801  1.00  0.00     0.154 C 
HETATM   20  S1  UNL     1      21.990   9.173  36.467  1.00  0.00    -0.126 SA
HETATM   21  C4  UNL     1      20.411   9.565  37.297  1.00  0.00     0.085 C 
ATOM     22  H1  UNL     1      20.474  11.824  33.704  1.00  0.00     0.166 HD
BRANCH  19  23
HETATM   23  O1  UNL     1      23.392  12.089  34.040  1.00  0.00    -0.366 OA
HETATM   24  C1  UNL     1      23.119  12.518  32.804  1.00  0.00     0.209 C 
ENDBRANCH  19  23
ENDBRANCH   1  15
BRANCH  14  25
HETATM   25  O5  UNL     1      19.634  14.478  35.238  1.00  0.00    -0.357 OA
ATOM     26  H5  UNL     1      19.617  15.332  34.823  1.00  0.00     0.217 HD
ENDBRANCH  14  25
BRANCH   4  27
HETATM   27  O2  UNL     1      15.369  11.010  34.863  1.00  0.00    -0.357 OA
ATOM     28  H2  UNL     1      14.510  11.327  35.119  1.00  0.00     0.218 HD
ENDBRANCH   4  27
BRANCH   8  29
HETATM   29  C12 UNL     1      13.368  15.517  35.960  1.00  0.00     0.298 C 
HETATM   30  N4  UNL     1      12.604  15.950  34.863  1.00  0.00    -0.054 NA
HETATM   31  O3  UNL     1      12.896  15.561  37.108  1.00  0.00    -0.268 OA
ENDBRANCH   8  29
TORSDOF 5
ENDMDL
MODEL 4
REMARK VINA RESULT: -5.116521914      3.096      5.314
REMARK  5 active torsions:
REMARK  status: ('A' for Active; 'I' for Inactive)
REMARK    1  A    between atoms: O1_2  and  C2_3 
REMARK    2  A    between atoms: N1_9  and  C7_11 
REMARK    3  A    between atoms: C9_14  and  O2_15 
REMARK    4  A    between atoms: C11_20  and  C12_21 
REMARK    5  A    between atoms: C15_29  and  O5_30 
ROOT
HETATM    1  C7  UNL     1      14.087  13.482  37.250  1.00  0.00     0.094 A 
HETATM    2  C8  UNL     1      14.037  12.188  37.714  1.00  0.00     0.111 A 
HETATM    3  N2  UNL     1      13.217  11.782  38.800  1.00  0.00    -0.097 NA
HETATM    4  C9  UNL     1      14.852  11.258  37.052  1.00  0.00     0.120 A 
HETATM    5  C10 UNL     1      15.661  11.611  35.995  1.00  0.00     0.088 A 
HETATM    6  N3  UNL     1      16.448  10.736  35.348  1.00  0.00    -0.335 N 
ATOM      7  H3  UNL     1      16.437   9.766  35.665  1.00  0.00     0.168 HD
HETATM    8  C11 UNL     1      17.253  11.044  34.311  1.00  0.00     0.175 A 
HETATM    9  N5  UNL     1      17.264  12.324  33.897  1.00  0.00    -0.304 N 
ATOM     10  H5  UNL     1      17.859  12.596  33.114  1.00  0.00     0.171 HD
HETATM   11  C13 UNL     1      16.501  13.246  34.502  1.00  0.00     0.262 A 
HETATM   12  O4  UNL     1      16.521  14.429  34.108  1.00  0.00    -0.267 OA
HETATM   13  C14 UNL     1      15.664  12.935  35.579  1.00  0.00     0.097 A 
HETATM   14  C15 UNL     1      14.891  13.887  36.184  1.00  0.00     0.112 A 
ENDROOT
BRANCH   1  15
HETATM   15  N1  UNL     1      13.261  14.437  37.920  1.00  0.00    -0.354 N 
HETATM   16  C6  UNL     1      13.702  15.163  38.890  1.00  0.00     0.029 C 
HETATM   17  C3  UNL     1      12.926  16.149  39.613  1.00  0.00     0.045 C 
HETATM   18  C5  UNL     1      15.095  15.141  39.458  1.00  0.00     0.069 C 
HETATM   19  C2  UNL     1      11.715  16.195  40.045  1.00  0.00     0.154 C 
HETATM   20  S1  UNL     1      14.141  17.504  39.812  1.00  0.00    -0.126 SA
HETATM   21  C4  UNL     1      15.623  16.554  39.323  1.00  0.00     0.085 C 
ATOM     22  H1  UNL     1      12.291  14.548  37.622  1.00  0.00     0.166 HD
BRANCH  19  23
HETATM   23  O1  UNL     1      10.730  15.339  39.996  1.00  0.00    -0.366 OA
HETATM   24  C1  UNL     1       9.857  14.858  39.106  1.00  0.00     0.209 C 
ENDBRANCH  19  23
ENDBRANCH   1  15
BRANCH  14  25
HETATM   25  O5  UNL     1      14.903  15.185  35.763  1.00  0.00    -0.357 OA
ATOM     26  H5  UNL     1      14.661  15.414  34.873  1.00  0.00     0.217 HD
ENDBRANCH  14  25
BRANCH   4  27
HETATM   27  O2  UNL     1      14.818   9.956  37.499  1.00  0.00    -0.357 OA
ATOM     28  H2  UNL     1      13.988   9.628  37.825  1.00  0.00     0.218 HD
ENDBRANCH   4  27
BRANCH   8  29
HETATM   29  C12 UNL     1      18.085  10.059  33.647  1.00  0.00     0.298 C 
HETATM   30  N4  UNL     1      18.859   9.171  34.412  1.00  0.00    -0.054 NA
HETATM   31  O3  UNL     1      18.110  10.004  32.406  1.00  0.00    -0.268 OA
ENDBRANCH   8  29
TORSDOF 5
ENDMDL
MODEL 5
REMARK VINA RESULT: -5.069500258      7.002     12.282
REMARK  5 active torsions:
REMARK  status: ('A' for Active; 'I' for Inactive)
REMARK    1  A    between atoms: O1_2  and  C2_3 
REMARK    2  A    between atoms: N1_9  and  C7_11 
REMARK    3  A    between atoms: C9_14  and  O2_15 
REMARK    4  A    between atoms: C11_20  and  C12_21 
REMARK    5  A    between atoms: C15_29  and  O5_30 
ROOT
HETATM    1  C7  UNL     1      11.953  17.980  34.731  1.00  0.00     0.094 A 
HETATM    2  C8  UNL     1      10.623  17.930  34.384  1.00  0.00     0.111 A 
HETATM    3  N2  UNL     1       9.849  16.741  34.433  1.00  0.00    -0.097 NA
HETATM    4  C9  UNL     1      10.043  19.139  33.967  1.00  0.00     0.120 A 
HETATM    5  C10 UNL     1      10.758  20.314  33.906  1.00  0.00     0.088 A 
HETATM    6  N3  UNL     1      10.222  21.480  33.510  1.00  0.00    -0.335 N 
ATOM      7  H3  UNL     1       9.236  21.481  33.246  1.00  0.00     0.168 HD
HETATM    8  C11 UNL     1      10.889  22.650  33.437  1.00  0.00     0.175 A 
HETATM    9  N5  UNL     1      12.188  22.643  33.788  1.00  0.00    -0.304 N 
ATOM     10  H5  UNL     1      12.727  23.508  33.746  1.00  0.00     0.171 HD
HETATM   11  C13 UNL     1      12.782  21.510  34.191  1.00  0.00     0.262 A 
HETATM   12  O4  UNL     1      13.986  21.518  34.513  1.00  0.00    -0.267 OA
HETATM   13  C14 UNL     1      12.097  20.293  34.270  1.00  0.00     0.097 A 
HETATM   14  C15 UNL     1      12.717  19.147  34.684  1.00  0.00     0.112 A 
ENDROOT
BRANCH   1  15
HETATM   15  N1  UNL     1      12.552  16.754  35.154  1.00  0.00    -0.354 N 
HETATM   16  C6  UNL     1      12.678  16.448  36.401  1.00  0.00     0.029 C 
HETATM   17  C3  UNL     1      13.272  15.226  36.903  1.00  0.00     0.045 C 
HETATM   18  C5  UNL     1      12.234  17.280  37.572  1.00  0.00     0.069 C 
HETATM   19  C2  UNL     1      14.290  14.519  36.560  1.00  0.00     0.154 C 
HETATM   20  S1  UNL     1      12.149  14.811  38.289  1.00  0.00    -0.126 SA
HETATM   21  C4  UNL     1      11.275  16.413  38.361  1.00  0.00     0.085 C 
ATOM     22  H1  UNL     1      12.891  16.099  34.448  1.00  0.00     0.166 HD
BRANCH  19  23
HETATM   23  O1  UNL     1      15.185  14.661  35.620  1.00  0.00    -0.366 OA
HETATM   24  C1  UNL     1      16.030  13.907  34.912  1.00  0.00     0.209 C 
ENDBRANCH  19  23
ENDBRANCH   1  15
BRANCH  14  25
HETATM   25  O5  UNL     1      14.035  19.141  35.039  1.00  0.00    -0.357 OA
ATOM     26  H5  UNL     1      14.554  19.937  35.013  1.00  0.00     0.217 HD
ENDBRANCH  14  25
BRANCH   4  27
HETATM   27  O2  UNL     1       8.712  19.114  33.616  1.00  0.00    -0.357 OA
ATOM     28  H2  UNL     1       8.479  18.647  32.821  1.00  0.00     0.218 HD
ENDBRANCH   4  27
BRANCH   8  29
HETATM   29  C12 UNL     1      10.262  23.883  33.002  1.00  0.00     0.298 C 
HETATM   30  N4  UNL     1       9.205  24.429  33.751  1.00  0.00    -0.054 NA
HETATM   31  O3  UNL     1      10.659  24.452  31.971  1.00  0.00    -0.268 OA
ENDBRANCH   8  29
TORSDOF 5
ENDMDL
