MODEL 1
REMARK VINA RESULT: -7.065413095      0.000      0.000
REMARK  6 active torsions:
REMARK  status: ('A' for Active; 'I' for Inactive)
REMARK    1  A    between atoms: C4_6  and  C5_7 
REMARK       I    between atoms: C5_7  and  N2_9 
REMARK    2  A    between atoms: C7_11  and  S1_12 
REMARK    3  A    between atoms: S1_12  and  C8_13 
REMARK    4  A    between atoms: C10_19  and  N5_20 
REMARK    5  A    between atoms: C11_25  and  N7_26 
REMARK    6  A    between atoms: C13_32  and  N9_33 
ROOT
HETATM    1  C8  UNL     1      15.841  12.929  35.568  1.00  0.00     0.120 A 
HETATM    2  N3  UNL     1      16.327  13.685  34.585  1.00  0.00    -0.331 N 
ATOM      3  H3  UNL     1      16.249  14.702  34.613  1.00  0.00     0.168 HD
HETATM    4  C9  UNL     1      16.928  13.057  33.549  1.00  0.00     0.152 A 
HETATM    5  N4  UNL     1      17.426  13.805  32.546  1.00  0.00    -0.174 N 
ATOM      6  H4  UNL     1      17.338  14.820  32.594  1.00  0.00     0.186 HD
HETATM    7  C10 UNL     1      18.029  13.256  31.496  1.00  0.00     0.679 A 
HETATM    8  N6  UNL     1      18.137  11.935  31.444  1.00  0.00    -0.175 N 
ATOM      9  H6  UNL     1      18.602  11.525  30.633  1.00  0.00     0.186 HD
HETATM   10  C11 UNL     1      17.664  11.085  32.411  1.00  0.00     0.145 A 
HETATM   11  C12 UNL     1      17.044  11.685  33.487  1.00  0.00     0.123 A 
HETATM   12  N8  UNL     1      16.542  10.958  34.494  1.00  0.00    -0.334 N 
ATOM     13  H8  UNL     1      16.618   9.941  34.467  1.00  0.00     0.168 HD
HETATM   14  C13 UNL     1      15.931  11.556  35.553  1.00  0.00     0.134 A 
ENDROOT
BRANCH   1  15
HETATM   15  S1  UNL     1      15.038  13.767  36.950  1.00  0.00    -0.066 SA
BRANCH  15  16
HETATM   16  C7  UNL     1      14.759  15.462  36.482  1.00  0.00     0.041 A 
HETATM   17  C6  UNL     1      13.559  15.939  35.968  1.00  0.00     0.140 A 
HETATM   18  N2  UNL     1      13.703  17.232  35.733  1.00  0.00    -0.227 N 
HETATM   19  C5  UNL     1      12.776  18.136  35.212  1.00  0.00     0.317 C 
HETATM   20  N10 UNL     1      14.949  17.629  36.069  1.00  0.00    -0.301 N 
HETATM   21  O1  UNL     1      13.068  19.354  35.050  1.00  0.00    -0.261 OA
HETATM   22  C14 UNL     1      15.588  16.559  36.522  1.00  0.00     0.128 A 
ATOM     23  H10 UNL     1      15.328  18.573  35.990  1.00  0.00     0.186 HD
BRANCH  19  24
HETATM   24  C4  UNL     1      11.434  17.728  34.831  1.00  0.00     0.219 A 
HETATM   25  N1  UNL     1      10.881  16.508  34.925  1.00  0.00    -0.340 N 
HETATM   26  C3  UNL     1       9.624  16.554  34.466  1.00  0.00     0.122 A 
ATOM     27  H1  UNL     1      11.346  15.675  35.289  1.00  0.00     0.167 HD
HETATM   28  C2  UNL     1       9.391  17.864  34.072  1.00  0.00     0.067 A 
HETATM   29  C1  UNL     1       8.119  18.412  33.488  1.00  0.00     0.078 C 
HETATM   30  O2  UNL     1      10.495  18.517  34.310  1.00  0.00    -0.292 OA
ENDBRANCH  19  24
ENDBRANCH  15  16
ENDBRANCH   1  15
BRANCH  14  31
HETATM   31  N9  UNL     1      15.439  10.895  36.535  1.00  0.00    -0.383 N 
ATOM     32  H92 UNL     1      14.650  10.256  36.431  1.00  0.00     0.157 HD
ATOM     33  H91 UNL     1      15.852  11.011  37.461  1.00  0.00     0.157 HD
ENDBRANCH  14  31
BRANCH   7  34
HETATM   34  N5  UNL     1      18.493  14.026  30.555  1.00  0.00    -0.234 N 
ATOM     35  H52 UNL     1      18.062  14.074  29.632  1.00  0.00     0.174 HD
ATOM     36  H51 UNL     1      19.315  14.601  30.740  1.00  0.00     0.174 HD
ENDBRANCH   7  34
BRANCH  10  37
HETATM   37  N7  UNL     1      17.810   9.820  32.284  1.00  0.00    -0.383 N 
ATOM     38  H72 UNL     1      17.036   9.167  32.159  1.00  0.00     0.157 HD
ATOM     39  H71 UNL     1      18.742   9.406  32.305  1.00  0.00     0.157 HD
ENDBRANCH  10  37
TORSDOF 6
ENDMDL
MODEL 2
REMARK VINA RESULT: -6.829396828      0.957      1.144
REMARK  6 active torsions:
REMARK  status: ('A' for Active; 'I' for Inactive)
REMARK    1  A    between atoms: C4_6  and  C5_7 
REMARK       I    between atoms: C5_7  and  N2_9 
REMARK    2  A    between atoms: C7_11  and  S1_12 
REMARK    3  A    between atoms: S1_12  and  C8_13 
REMARK    4  A    between atoms: C10_19  and  N5_20 
REMARK    5  A    between atoms: C11_25  and  N7_26 
REMARK    6  A    between atoms: C13_32  and  N9_33 
ROOT
HETATM    1  C8  UNL     1      15.777  12.980  35.556  1.00  0.00     0.120 A 
HETATM    2  N3  UNL     1      16.282  13.736  34.582  1.00  0.00    -0.331 N 
ATOM      3  H3  UNL     1      16.206  14.753  34.609  1.00  0.00     0.168 HD
HETATM    4  C9  UNL     1      16.898  13.107  33.556  1.00  0.00     0.152 A 
HETATM    5  N4  UNL     1      17.414  13.854  32.562  1.00  0.00    -0.174 N 
ATOM      6  H4  UNL     1      17.328  14.869  32.608  1.00  0.00     0.186 HD
HETATM    7  C10 UNL     1      18.034  13.305  31.521  1.00  0.00     0.679 A 
HETATM    8  N6  UNL     1      18.140  11.984  31.470  1.00  0.00    -0.175 N 
ATOM      9  H6  UNL     1      18.617  11.573  30.668  1.00  0.00     0.186 HD
HETATM   10  C11 UNL     1      17.649  11.135  32.429  1.00  0.00     0.145 A 
HETATM   11  C12 UNL     1      17.013  11.735  33.495  1.00  0.00     0.123 A 
HETATM   12  N8  UNL     1      16.492  11.009  34.494  1.00  0.00    -0.334 N 
ATOM     13  H8  UNL     1      16.567   9.992  34.467  1.00  0.00     0.168 HD
HETATM   14  C13 UNL     1      15.866  11.607  35.543  1.00  0.00     0.134 A 
ENDROOT
BRANCH   1  15
HETATM   15  S1  UNL     1      14.954  13.820  36.926  1.00  0.00    -0.066 SA
BRANCH  15  16
HETATM   16  C7  UNL     1      15.072  15.574  36.650  1.00  0.00     0.041 A 
HETATM   17  C6  UNL     1      14.091  16.329  36.017  1.00  0.00     0.140 A 
HETATM   18  N2  UNL     1      14.504  17.585  35.983  1.00  0.00    -0.227 N 
HETATM   19  C5  UNL     1      13.865  18.703  35.445  1.00  0.00     0.317 C 
HETATM   20  N10 UNL     1      15.717  17.690  36.566  1.00  0.00    -0.301 N 
HETATM   21  O1  UNL     1      14.393  19.849  35.497  1.00  0.00    -0.261 OA
HETATM   22  C14 UNL     1      16.061  16.475  36.969  1.00  0.00     0.128 A 
ATOM     23  H10 UNL     1      16.266  18.544  36.677  1.00  0.00     0.186 HD
BRANCH  19  24
HETATM   24  C4  UNL     1      12.564  18.610  34.801  1.00  0.00     0.219 A 
HETATM   25  N1  UNL     1      12.078  19.365  33.803  1.00  0.00    -0.340 N 
HETATM   26  C3  UNL     1      10.840  18.955  33.499  1.00  0.00     0.122 A 
ATOM     27  H1  UNL     1      12.574  20.132  33.347  1.00  0.00     0.167 HD
HETATM   28  C2  UNL     1      10.550  17.898  34.350  1.00  0.00     0.067 A 
HETATM   29  C1  UNL     1       9.274  17.106  34.392  1.00  0.00     0.078 C 
HETATM   30  O2  UNL     1      11.605  17.735  35.100  1.00  0.00    -0.292 OA
ENDBRANCH  19  24
ENDBRANCH  15  16
ENDBRANCH   1  15
BRANCH  14  31
HETATM   31  N9  UNL     1      15.356  10.947  36.516  1.00  0.00    -0.383 N 
ATOM     32  H92 UNL     1      15.199   9.940  36.479  1.00  0.00     0.157 HD
ATOM     33  H91 UNL     1      15.094  11.448  37.365  1.00  0.00     0.157 HD
ENDBRANCH  14  31
BRANCH   7  34
HETATM   34  N5  UNL     1      18.515  14.074  30.588  1.00  0.00    -0.234 N 
ATOM     35  H52 UNL     1      19.485  14.388  30.591  1.00  0.00     0.174 HD
ATOM     36  H51 UNL     1      17.907  14.375  29.827  1.00  0.00     0.174 HD
ENDBRANCH   7  34
BRANCH  10  37
HETATM   37  N7  UNL     1      17.794   9.869  32.304  1.00  0.00    -0.383 N 
ATOM     38  H72 UNL     1      18.687   9.385  32.402  1.00  0.00     0.157 HD
ATOM     39  H71 UNL     1      16.990   9.278  32.094  1.00  0.00     0.157 HD
ENDBRANCH  10  37
TORSDOF 6
ENDMDL
MODEL 3
REMARK VINA RESULT: -6.790022824      3.524      8.561
REMARK  6 active torsions:
REMARK  status: ('A' for Active; 'I' for Inactive)
REMARK    1  A    between atoms: C4_6  and  C5_7 
REMARK       I    between atoms: C5_7  and  N2_9 
REMARK    2  A    between atoms: C7_11  and  S1_12 
REMARK    3  A    between atoms: S1_12  and  C8_13 
REMARK    4  A    between atoms: C10_19  and  N5_20 
REMARK    5  A    between atoms: C11_25  and  N7_26 
REMARK    6  A    between atoms: C13_32  and  N9_33 
ROOT
HETATM    1  C8  UNL     1      15.111  15.215  36.684  1.00  0.00     0.120 A 
HETATM    2  N3  UNL     1      13.910  15.062  36.127  1.00  0.00    -0.331 N 
ATOM      3  H3  UNL     1      13.471  14.143  36.063  1.00  0.00     0.168 HD
HETATM    4  C9  UNL     1      13.295  16.167  35.649  1.00  0.00     0.152 A 
HETATM    5  N4  UNL     1      12.081  16.032  35.082  1.00  0.00    -0.174 N 
ATOM      6  H4  UNL     1      11.660  15.105  35.029  1.00  0.00     0.186 HD
HETATM    7  C10 UNL     1      11.418  17.074  34.590  1.00  0.00     0.679 A 
HETATM    8  N6  UNL     1      11.976  18.275  34.665  1.00  0.00    -0.175 N 
ATOM      9  H6  UNL     1      11.458  19.067  34.284  1.00  0.00     0.186 HD
HETATM   10  C11 UNL     1      13.206  18.519  35.221  1.00  0.00     0.145 A 
HETATM   11  C12 UNL     1      13.869  17.418  35.722  1.00  0.00     0.123 A 
HETATM   12  N8  UNL     1      15.077  17.532  36.289  1.00  0.00    -0.334 N 
ATOM     13  H8  UNL     1      15.517  18.450  36.353  1.00  0.00     0.168 HD
HETATM   14  C13 UNL     1      15.725  16.442  36.782  1.00  0.00     0.134 A 
ENDROOT
BRANCH   1  15
HETATM   15  S1  UNL     1      15.932  13.739  37.322  1.00  0.00    -0.066 SA
BRANCH  15  16
HETATM   16  C7  UNL     1      16.234  12.640  35.954  1.00  0.00     0.041 A 
HETATM   17  C6  UNL     1      17.468  12.499  35.329  1.00  0.00     0.140 A 
HETATM   18  N2  UNL     1      17.333  11.607  34.362  1.00  0.00    -0.227 N 
HETATM   19  C5  UNL     1      18.291  11.141  33.460  1.00  0.00     0.317 C 
HETATM   20  N10 UNL     1      16.061  11.155  34.322  1.00  0.00    -0.301 N 
HETATM   21  O1  UNL     1      18.004  10.274  32.589  1.00  0.00    -0.261 OA
HETATM   22  C14 UNL     1      15.397  11.780  35.284  1.00  0.00     0.128 A 
ATOM     23  H10 UNL     1      15.683  10.464  33.674  1.00  0.00     0.186 HD
BRANCH  19  24
HETATM   24  C4  UNL     1      19.662  11.624  33.478  1.00  0.00     0.219 A 
HETATM   25  N1  UNL     1      20.618  11.370  34.386  1.00  0.00    -0.340 N 
HETATM   26  C3  UNL     1      21.743  12.007  34.035  1.00  0.00     0.122 A 
ATOM     27  H1  UNL     1      20.506  10.784  35.214  1.00  0.00     0.167 HD
HETATM   28  C2  UNL     1      21.467  12.684  32.856  1.00  0.00     0.067 A 
HETATM   29  C1  UNL     1      22.419  13.544  32.072  1.00  0.00     0.078 C 
HETATM   30  O2  UNL     1      20.222  12.423  32.569  1.00  0.00    -0.292 OA
ENDBRANCH  19  24
ENDBRANCH  15  16
ENDBRANCH   1  15
BRANCH  14  31
HETATM   31  N9  UNL     1      16.881  16.511  37.331  1.00  0.00    -0.383 N 
ATOM     32  H92 UNL     1      17.024  16.405  38.335  1.00  0.00     0.157 HD
ATOM     33  H91 UNL     1      17.696  16.678  36.739  1.00  0.00     0.157 HD
ENDBRANCH  14  31
BRANCH   7  34
HETATM   34  N5  UNL     1      10.247  16.887  34.054  1.00  0.00    -0.234 N 
ATOM     35  H52 UNL     1       9.382  17.030  34.576  1.00  0.00     0.174 HD
ATOM     36  H51 UNL     1      10.186  16.589  33.081  1.00  0.00     0.174 HD
ENDBRANCH   7  34
BRANCH  10  37
HETATM   37  N7  UNL     1      13.674  19.711  35.253  1.00  0.00    -0.383 N 
ATOM     38  H72 UNL     1      14.244  20.119  34.512  1.00  0.00     0.157 HD
ATOM     39  H71 UNL     1      13.484  20.315  36.052  1.00  0.00     0.157 HD
ENDBRANCH  10  37
TORSDOF 6
ENDMDL
MODEL 4
REMARK VINA RESULT: -6.777302783      3.695      8.745
REMARK  6 active torsions:
REMARK  status: ('A' for Active; 'I' for Inactive)
REMARK    1  A    between atoms: C4_6  and  C5_7 
REMARK       I    between atoms: C5_7  and  N2_9 
REMARK    2  A    between atoms: C7_11  and  S1_12 
REMARK    3  A    between atoms: S1_12  and  C8_13 
REMARK    4  A    between atoms: C10_19  and  N5_20 
REMARK    5  A    between atoms: C11_25  and  N7_26 
REMARK    6  A    between atoms: C13_32  and  N9_33 
ROOT
HETATM    1  C8  UNL     1      13.956  15.357  36.601  1.00  0.00     0.120 A 
HETATM    2  N3  UNL     1      13.322  15.916  35.572  1.00  0.00    -0.331 N 
ATOM      3  H3  UNL     1      13.824  16.190  34.728  1.00  0.00     0.168 HD
HETATM    4  C9  UNL     1      11.988  16.107  35.687  1.00  0.00     0.152 A 
HETATM    5  N4  UNL     1      11.329  16.671  34.656  1.00  0.00    -0.174 N 
ATOM      6  H4  UNL     1      11.851  16.938  33.821  1.00  0.00     0.186 HD
HETATM    7  C10 UNL     1      10.018  16.890  34.698  1.00  0.00     0.679 A 
HETATM    8  N6  UNL     1       9.351  16.540  35.789  1.00  0.00    -0.175 N 
ATOM      9  H6  UNL     1       8.346  16.712  35.810  1.00  0.00     0.186 HD
HETATM   10  C11 UNL     1       9.927  15.960  36.891  1.00  0.00     0.145 A 
HETATM   11  C12 UNL     1      11.287  15.746  36.817  1.00  0.00     0.123 A 
HETATM   12  N8  UNL     1      11.960  15.187  37.831  1.00  0.00    -0.334 N 
ATOM     13  H8  UNL     1      11.458  14.913  38.676  1.00  0.00     0.168 HD
HETATM   14  C13 UNL     1      13.302  14.979  37.752  1.00  0.00     0.134 A 
ENDROOT
BRANCH   1  15
HETATM   15  S1  UNL     1      15.737  15.103  36.449  1.00  0.00    -0.066 SA
BRANCH  15  16
HETATM   16  C7  UNL     1      16.007  13.492  35.742  1.00  0.00     0.041 A 
HETATM   17  C6  UNL     1      17.240  13.040  35.285  1.00  0.00     0.140 A 
HETATM   18  N2  UNL     1      17.078  11.810  34.828  1.00  0.00    -0.227 N 
HETATM   19  C5  UNL     1      18.025  10.953  34.265  1.00  0.00     0.317 C 
HETATM   20  N10 UNL     1      15.789  11.431  34.962  1.00  0.00    -0.301 N 
HETATM   21  O1  UNL     1      17.711   9.793  33.877  1.00  0.00    -0.261 OA
HETATM   22  C14 UNL     1      15.141  12.448  35.514  1.00  0.00     0.128 A 
ATOM     23  H10 UNL     1      15.389  10.533  34.690  1.00  0.00     0.186 HD
BRANCH  19  24
HETATM   24  C4  UNL     1      19.415  11.345  34.100  1.00  0.00     0.219 A 
HETATM   25  N1  UNL     1      20.465  11.022  34.873  1.00  0.00    -0.340 N 
HETATM   26  C3  UNL     1      21.572  11.587  34.375  1.00  0.00     0.122 A 
ATOM     27  H1  UNL     1      20.425  10.437  35.708  1.00  0.00     0.167 HD
HETATM   28  C2  UNL     1      21.187  12.292  33.243  1.00  0.00     0.067 A 
HETATM   29  C1  UNL     1      22.080  13.095  32.340  1.00  0.00     0.078 C 
HETATM   30  O2  UNL     1      19.900  12.115  33.126  1.00  0.00    -0.292 OA
ENDBRANCH  19  24
ENDBRANCH  15  16
ENDBRANCH   1  15
BRANCH  14  31
HETATM   31  N9  UNL     1      13.980  14.447  38.700  1.00  0.00    -0.383 N 
ATOM     32  H92 UNL     1      14.529  13.596  38.578  1.00  0.00     0.157 HD
ATOM     33  H91 UNL     1      13.972  14.892  39.619  1.00  0.00     0.157 HD
ENDBRANCH  14  31
BRANCH   7  34
HETATM   34  N5  UNL     1       9.432  17.437  33.674  1.00  0.00    -0.234 N 
ATOM     35  H52 UNL     1       9.585  18.413  33.419  1.00  0.00     0.174 HD
ATOM     36  H51 UNL     1       8.797  16.878  33.104  1.00  0.00     0.174 HD
ENDBRANCH   7  34
BRANCH  10  37
HETATM   37  N7  UNL     1       9.209  15.652  37.906  1.00  0.00    -0.383 N 
ATOM     38  H72 UNL     1       8.478  16.252  38.290  1.00  0.00     0.157 HD
ATOM     39  H71 UNL     1       9.350  14.762  38.383  1.00  0.00     0.157 HD
ENDBRANCH  10  37
TORSDOF 6
ENDMDL
MODEL 5
REMARK VINA RESULT: -6.765712972      3.493      8.472
REMARK  6 active torsions:
REMARK  status: ('A' for Active; 'I' for Inactive)
REMARK    1  A    between atoms: C4_6  and  C5_7 
REMARK       I    between atoms: C5_7  and  N2_9 
REMARK    2  A    between atoms: C7_11  and  S1_12 
REMARK    3  A    between atoms: S1_12  and  C8_13 
REMARK    4  A    between atoms: C10_19  and  N5_20 
REMARK    5  A    between atoms: C11_25  and  N7_26 
REMARK    6  A    between atoms: C13_32  and  N9_33 
ROOT
HETATM    1  C8  UNL     1      14.074  15.240  36.980  1.00  0.00     0.120 A 
HETATM    2  N3  UNL     1      13.516  15.756  35.886  1.00  0.00    -0.331 N 
ATOM      3  H3  UNL     1      14.076  15.980  35.063  1.00  0.00     0.168 HD
HETATM    4  C9  UNL     1      12.181  15.973  35.905  1.00  0.00     0.152 A 
HETATM    5  N4  UNL     1      11.599  16.494  34.808  1.00  0.00    -0.174 N 
ATOM      6  H4  UNL     1      12.177  16.710  33.996  1.00  0.00     0.186 HD
HETATM    7  C10 UNL     1      10.292  16.734  34.755  1.00  0.00     0.679 A 
HETATM    8  N6  UNL     1       9.551  16.449  35.817  1.00  0.00    -0.175 N 
ATOM      9  H6  UNL     1       8.550  16.637  35.765  1.00  0.00     0.186 HD
HETATM   10  C11 UNL     1      10.045  15.917  36.981  1.00  0.00     0.145 A 
HETATM   11  C12 UNL     1      11.403  15.679  37.004  1.00  0.00     0.123 A 
HETATM   12  N8  UNL     1      12.001  15.162  38.086  1.00  0.00    -0.334 N 
ATOM     13  H8  UNL     1      11.442  14.938  38.909  1.00  0.00     0.168 HD
HETATM   14  C13 UNL     1      13.341  14.930  38.103  1.00  0.00     0.134 A 
ENDROOT
BRANCH   1  15
HETATM   15  S1  UNL     1      15.855  14.952  36.955  1.00  0.00    -0.066 SA
BRANCH  15  16
HETATM   16  C7  UNL     1      16.140  13.292  36.378  1.00  0.00     0.041 A 
HETATM   17  C6  UNL     1      17.023  12.965  35.356  1.00  0.00     0.140 A 
HETATM   18  N2  UNL     1      16.984  11.654  35.191  1.00  0.00    -0.227 N 
HETATM   19  C5  UNL     1      17.690  10.864  34.281  1.00  0.00     0.317 C 
HETATM   20  N10 UNL     1      16.110  11.102  36.059  1.00  0.00    -0.301 N 
HETATM   21  O1  UNL     1      17.545   9.610  34.250  1.00  0.00    -0.261 OA
HETATM   22  C14 UNL     1      15.599  12.092  36.777  1.00  0.00     0.128 A 
ATOM     23  H10 UNL     1      15.886  10.110  36.147  1.00  0.00     0.186 HD
BRANCH  19  24
HETATM   24  C4  UNL     1      18.626  11.439  33.329  1.00  0.00     0.219 A 
HETATM   25  N1  UNL     1      18.509  11.511  31.993  1.00  0.00    -0.340 N 
HETATM   26  C3  UNL     1      19.590  12.116  31.485  1.00  0.00     0.122 A 
ATOM     27  H1  UNL     1      17.720  11.159  31.449  1.00  0.00     0.167 HD
HETATM   28  C2  UNL     1      20.412  12.432  32.558  1.00  0.00     0.067 A 
HETATM   29  C1  UNL     1      21.745  13.123  32.493  1.00  0.00     0.078 C 
HETATM   30  O2  UNL     1      19.793  12.010  33.626  1.00  0.00    -0.292 OA
ENDBRANCH  19  24
ENDBRANCH  15  16
ENDBRANCH   1  15
BRANCH  14  31
HETATM   31  N9  UNL     1      13.948  14.436  39.118  1.00  0.00    -0.383 N 
ATOM     32  H92 UNL     1      14.918  14.124  39.084  1.00  0.00     0.157 HD
ATOM     33  H91 UNL     1      13.441  14.352  40.000  1.00  0.00     0.157 HD
ENDBRANCH  14  31
BRANCH   7  34
HETATM   34  N5  UNL     1       9.782  17.238  33.669  1.00  0.00    -0.234 N 
ATOM     35  H52 UNL     1      10.049  16.911  32.741  1.00  0.00     0.174 HD
ATOM     36  H51 UNL     1       9.091  17.984  33.743  1.00  0.00     0.174 HD
ENDBRANCH   7  34
BRANCH  10  37
HETATM   37  N7  UNL     1       9.259  15.670  37.961  1.00  0.00    -0.383 N 
ATOM     38  H72 UNL     1       8.693  16.379  38.429  1.00  0.00     0.157 HD
ATOM     39  H71 UNL     1       9.170  14.720  38.321  1.00  0.00     0.157 HD
ENDBRANCH  10  37
TORSDOF 6
ENDMDL
