MODEL 1
REMARK VINA RESULT: -6.274647432      0.000      0.000
REMARK  4 active torsions:
REMARK  status: ('A' for Active; 'I' for Inactive)
REMARK    1  A    between atoms: N1_1  and  C1_4 
REMARK    2  A    between atoms: C7_18  and  C8_19 
REMARK    3  A    between atoms: C8_19  and  S1_20 
REMARK    4  A    between atoms: S1_20  and  C9_21 
ROOT
HETATM    1  C1  UNL     1      17.325  13.859  34.454  1.00  0.00     0.129 A 
HETATM    2  N2  UNL     1      18.223  13.368  33.573  1.00  0.00    -0.328 N 
ATOM      3  H2  UNL     1      18.793  14.025  33.040  1.00  0.00     0.168 HD
HETATM    4  C2  UNL     1      18.399  12.052  33.367  1.00  0.00     0.143 A 
HETATM    5  N3  UNL     1      19.338  11.532  32.445  1.00  0.00    -0.081 NA
HETATM    6  C3  UNL     1      17.623  11.176  34.097  1.00  0.00     0.101 A 
HETATM    7  N4  UNL     1      17.746   9.767  33.942  1.00  0.00    -0.098 NA
HETATM    8  C4  UNL     1      16.691  11.611  35.011  1.00  0.00     0.039 A 
HETATM    9  C5  UNL     1      15.907  10.769  35.748  1.00  0.00     0.122 A 
HETATM   10  N5  UNL     1      15.016  11.242  36.623  1.00  0.00    -0.200 N 
ATOM     11  H5  UNL     1      14.436  10.604  37.168  1.00  0.00     0.183 HD
HETATM   12  C6  UNL     1      14.898  12.569  36.771  1.00  0.00     0.689 A 
HETATM   13  N6  UNL     1      14.088  13.301  37.574  1.00  0.00    -0.193 N 
ATOM     14  H6  UNL     1      13.404  12.913  38.225  1.00  0.00     0.184 HD
HETATM   15  C7  UNL     1      14.314  14.605  37.388  1.00  0.00     0.052 A 
HETATM   16  C12 UNL     1      15.312  14.695  36.424  1.00  0.00     0.142 A 
HETATM   17  N10 UNL     1      15.638  13.473  36.077  1.00  0.00    -0.151 N 
HETATM   18  C13 UNL     1      16.550  12.986  35.182  1.00  0.00     0.113 A 
ENDROOT
BRANCH  15  19
HETATM   19  C8  UNL     1      13.621  15.742  38.088  1.00  0.00     0.141 C 
BRANCH  19  20
HETATM   20  S1  UNL     1      13.824  17.215  37.014  1.00  0.00    -0.088 SA
BRANCH  20  21
HETATM   21  C9  UNL     1      12.437  17.282  35.865  1.00  0.00     0.150 A 
HETATM   22  N7  UNL     1      12.328  18.265  34.953  1.00  0.00    -0.313 N 
HETATM   23  C10 UNL     1      11.297  18.333  34.083  1.00  0.00     0.181 A 
ATOM     24  H7  UNL     1      13.049  18.985  34.918  1.00  0.00     0.170 HD
HETATM   25  S2  UNL     1      11.188  19.538  32.986  1.00  0.00    -0.040 SA
HETATM   26  N8  UNL     1      10.335  17.392  34.114  1.00  0.00    -0.285 N 
HETATM   27  C11 UNL     1      10.416  16.395  35.014  1.00  0.00     0.328 A 
ATOM     28  H8  UNL     1       9.552  17.435  33.461  1.00  0.00     0.173 HD
HETATM   29  O1  UNL     1       9.540  15.488  35.084  1.00  0.00    -0.247 OA
HETATM   30  N9  UNL     1      11.464  16.347  35.881  1.00  0.00    -0.289 N 
ATOM     31  H9  UNL     1      11.515  15.586  36.559  1.00  0.00     0.172 HD
ENDBRANCH  20  21
ENDBRANCH  19  20
ENDBRANCH  15  19
BRANCH   1  32
HETATM   32  N1  UNL     1      17.281  15.136  34.530  1.00  0.00    -0.384 N 
ATOM     33  H12 UNL     1      17.183  15.774  33.740  1.00  0.00     0.157 HD
ATOM     34  H11 UNL     1      17.352  15.516  35.473  1.00  0.00     0.157 HD
ENDBRANCH   1  32
TORSDOF 4
ENDMDL
MODEL 2
REMARK VINA RESULT: -6.069262728      1.435      1.601
REMARK  4 active torsions:
REMARK  status: ('A' for Active; 'I' for Inactive)
REMARK    1  A    between atoms: N1_1  and  C1_4 
REMARK    2  A    between atoms: C7_18  and  C8_19 
REMARK    3  A    between atoms: C8_19  and  S1_20 
REMARK    4  A    between atoms: S1_20  and  C9_21 
ROOT
HETATM    1  C1  UNL     1      17.331  13.885  34.437  1.00  0.00     0.129 A 
HETATM    2  N2  UNL     1      18.228  13.377  33.564  1.00  0.00    -0.328 N 
ATOM      3  H2  UNL     1      18.809  14.023  33.031  1.00  0.00     0.168 HD
HETATM    4  C2  UNL     1      18.387  12.057  33.366  1.00  0.00     0.143 A 
HETATM    5  N3  UNL     1      19.325  11.520  32.452  1.00  0.00    -0.081 NA
HETATM    6  C3  UNL     1      17.595  11.195  34.096  1.00  0.00     0.101 A 
HETATM    7  N4  UNL     1      17.700   9.785  33.949  1.00  0.00    -0.098 NA
HETATM    8  C4  UNL     1      16.663  11.648  35.002  1.00  0.00     0.039 A 
HETATM    9  C5  UNL     1      15.864  10.820  35.738  1.00  0.00     0.122 A 
HETATM   10  N5  UNL     1      14.974  11.309  36.605  1.00  0.00    -0.200 N 
ATOM     11  H5  UNL     1      14.382  10.683  37.151  1.00  0.00     0.183 HD
HETATM   12  C6  UNL     1      14.873  12.639  36.746  1.00  0.00     0.689 A 
HETATM   13  N6  UNL     1      14.068  13.386  37.540  1.00  0.00    -0.193 N 
ATOM     14  H6  UNL     1      13.375  13.011  38.189  1.00  0.00     0.184 HD
HETATM   15  C7  UNL     1      14.313  14.686  37.349  1.00  0.00     0.052 A 
HETATM   16  C12 UNL     1      15.317  14.757  36.391  1.00  0.00     0.142 A 
HETATM   17  N10 UNL     1      15.629  13.529  36.052  1.00  0.00    -0.151 N 
HETATM   18  C13 UNL     1      16.539  13.026  35.165  1.00  0.00     0.113 A 
ENDROOT
BRANCH  15  19
HETATM   19  C8  UNL     1      13.631  15.836  38.039  1.00  0.00     0.141 C 
BRANCH  19  20
HETATM   20  S1  UNL     1      11.847  15.700  37.635  1.00  0.00    -0.088 SA
BRANCH  20  21
HETATM   21  C9  UNL     1      11.488  16.792  36.247  1.00  0.00     0.150 A 
HETATM   22  N7  UNL     1      10.247  16.894  35.737  1.00  0.00    -0.313 N 
HETATM   23  C10 UNL     1       9.957  17.706  34.698  1.00  0.00     0.181 A 
ATOM     24  H7  UNL     1       9.499  16.338  36.150  1.00  0.00     0.170 HD
HETATM   25  S2  UNL     1       8.442  17.812  34.097  1.00  0.00    -0.040 SA
HETATM   26  N8  UNL     1      10.932  18.447  34.138  1.00  0.00    -0.285 N 
HETATM   27  C11 UNL     1      12.184  18.367  34.626  1.00  0.00     0.328 A 
ATOM     28  H8  UNL     1      10.724  19.063  33.352  1.00  0.00     0.173 HD
HETATM   29  O1  UNL     1      13.133  19.042  34.138  1.00  0.00    -0.247 OA
HETATM   30  N9  UNL     1      12.452  17.543  35.674  1.00  0.00    -0.289 N 
ATOM     31  H9  UNL     1      13.405  17.491  36.035  1.00  0.00     0.172 HD
ENDBRANCH  20  21
ENDBRANCH  19  20
ENDBRANCH  15  19
BRANCH   1  32
HETATM   32  N1  UNL     1      17.304  15.162  34.506  1.00  0.00    -0.384 N 
ATOM     33  H12 UNL     1      18.118  15.775  34.488  1.00  0.00     0.157 HD
ATOM     34  H11 UNL     1      16.373  15.572  34.585  1.00  0.00     0.157 HD
ENDBRANCH   1  32
TORSDOF 4
ENDMDL
MODEL 3
REMARK VINA RESULT: -6.022499281      6.156      9.201
REMARK  4 active torsions:
REMARK  status: ('A' for Active; 'I' for Inactive)
REMARK    1  A    between atoms: N1_1  and  C1_4 
REMARK    2  A    between atoms: C7_18  and  C8_19 
REMARK    3  A    between atoms: C8_19  and  S1_20 
REMARK    4  A    between atoms: S1_20  and  C9_21 
ROOT
HETATM    1  C1  UNL     1      10.501  20.196  33.772  1.00  0.00     0.129 A 
HETATM    2  N2  UNL     1       9.368  19.465  33.693  1.00  0.00    -0.328 N 
ATOM      3  H2  UNL     1       8.527  19.909  33.327  1.00  0.00     0.168 HD
HETATM    4  C2  UNL     1       9.302  18.178  34.074  1.00  0.00     0.143 A 
HETATM    5  N3  UNL     1       8.118  17.408  33.993  1.00  0.00    -0.081 NA
HETATM    6  C3  UNL     1      10.450  17.591  34.564  1.00  0.00     0.101 A 
HETATM    7  N4  UNL     1      10.468  16.234  34.988  1.00  0.00    -0.098 NA
HETATM    8  C4  UNL     1      11.637  18.280  34.671  1.00  0.00     0.039 A 
HETATM    9  C5  UNL     1      12.789  17.727  35.152  1.00  0.00     0.122 A 
HETATM   10  N5  UNL     1      13.916  18.439  35.236  1.00  0.00    -0.200 N 
ATOM     11  H5  UNL     1      14.771  18.017  35.597  1.00  0.00     0.183 HD
HETATM   12  C6  UNL     1      13.902  19.719  34.837  1.00  0.00     0.689 A 
HETATM   13  N6  UNL     1      14.887  20.650  34.815  1.00  0.00    -0.193 N 
ATOM     14  H6  UNL     1      15.847  20.492  35.123  1.00  0.00     0.184 HD
HETATM   15  C7  UNL     1      14.417  21.804  34.331  1.00  0.00     0.052 A 
HETATM   16  C12 UNL     1      13.076  21.587  34.037  1.00  0.00     0.142 A 
HETATM   17  N10 UNL     1      12.799  20.343  34.347  1.00  0.00    -0.151 N 
HETATM   18  C13 UNL     1      11.647  19.612  34.262  1.00  0.00     0.113 A 
ENDROOT
BRANCH  15  19
HETATM   19  C8  UNL     1      15.194  23.079  34.147  1.00  0.00     0.141 C 
BRANCH  19  20
HETATM   20  S1  UNL     1      14.183  24.150  33.054  1.00  0.00    -0.088 SA
BRANCH  20  21
HETATM   21  C9  UNL     1      14.912  24.140  31.407  1.00  0.00     0.150 A 
HETATM   22  N7  UNL     1      16.191  24.505  31.203  1.00  0.00    -0.313 N 
HETATM   23  C10 UNL     1      16.757  24.504  29.977  1.00  0.00     0.181 A 
ATOM     24  H7  UNL     1      16.754  24.792  32.004  1.00  0.00     0.170 HD
HETATM   25  S2  UNL     1      18.312  24.951  29.757  1.00  0.00    -0.040 SA
HETATM   26  N8  UNL     1      16.031  24.128  28.907  1.00  0.00    -0.285 N 
HETATM   27  C11 UNL     1      14.748  23.758  29.078  1.00  0.00     0.328 A 
ATOM     28  H8  UNL     1      16.448  24.125  27.977  1.00  0.00     0.173 HD
HETATM   29  O1  UNL     1      14.024  23.397  28.109  1.00  0.00    -0.247 OA
HETATM   30  N9  UNL     1      14.200  23.767  30.323  1.00  0.00    -0.289 N 
ATOM     31  H9  UNL     1      13.227  23.483  30.440  1.00  0.00     0.172 HD
ENDBRANCH  20  21
ENDBRANCH  19  20
ENDBRANCH  15  19
BRANCH   1  32
HETATM   32  N1  UNL     1      10.396  21.407  33.370  1.00  0.00    -0.384 N 
ATOM     33  H12 UNL     1       9.535  21.953  33.352  1.00  0.00     0.157 HD
ATOM     34  H11 UNL     1      11.264  21.832  33.046  1.00  0.00     0.157 HD
ENDBRANCH   1  32
TORSDOF 4
ENDMDL
MODEL 4
REMARK VINA RESULT: -5.995350960      6.364      9.295
REMARK  4 active torsions:
REMARK  status: ('A' for Active; 'I' for Inactive)
REMARK    1  A    between atoms: N1_1  and  C1_4 
REMARK    2  A    between atoms: C7_18  and  C8_19 
REMARK    3  A    between atoms: C8_19  and  S1_20 
REMARK    4  A    between atoms: S1_20  and  C9_21 
ROOT
HETATM    1  C1  UNL     1      10.535  20.263  33.727  1.00  0.00     0.129 A 
HETATM    2  N2  UNL     1       9.397  19.544  33.625  1.00  0.00    -0.328 N 
ATOM      3  H2  UNL     1       8.566  19.999  33.248  1.00  0.00     0.168 HD
HETATM    4  C2  UNL     1       9.311  18.255  33.996  1.00  0.00     0.143 A 
HETATM    5  N3  UNL     1       8.120  17.498  33.891  1.00  0.00    -0.081 NA
HETATM    6  C3  UNL     1      10.445  17.653  34.501  1.00  0.00     0.101 A 
HETATM    7  N4  UNL     1      10.442  16.293  34.917  1.00  0.00    -0.098 NA
HETATM    8  C4  UNL     1      11.636  18.329  34.631  1.00  0.00     0.039 A 
HETATM    9  C5  UNL     1      12.775  17.760  35.128  1.00  0.00     0.122 A 
HETATM   10  N5  UNL     1      13.907  18.460  35.234  1.00  0.00    -0.200 N 
ATOM     11  H5  UNL     1      14.753  18.027  35.606  1.00  0.00     0.183 HD
HETATM   12  C6  UNL     1      13.913  19.743  34.843  1.00  0.00     0.689 A 
HETATM   13  N6  UNL     1      14.908  20.663  34.843  1.00  0.00    -0.193 N 
ATOM     14  H6  UNL     1      15.862  20.494  35.165  1.00  0.00     0.184 HD
HETATM   15  C7  UNL     1      14.458  21.825  34.359  1.00  0.00     0.052 A 
HETATM   16  C12 UNL     1      13.120  21.625  34.042  1.00  0.00     0.142 A 
HETATM   17  N10 UNL     1      12.825  20.381  34.339  1.00  0.00    -0.151 N 
HETATM   18  C13 UNL     1      11.667  19.663  34.231  1.00  0.00     0.113 A 
ENDROOT
BRANCH  15  19
HETATM   19  C8  UNL     1      15.251  23.093  34.195  1.00  0.00     0.141 C 
BRANCH  19  20
HETATM   20  S1  UNL     1      14.267  24.184  33.097  1.00  0.00    -0.088 SA
BRANCH  20  21
HETATM   21  C9  UNL     1      15.037  24.202  31.468  1.00  0.00     0.150 A 
HETATM   22  N7  UNL     1      14.364  23.816  30.369  1.00  0.00    -0.313 N 
HETATM   23  C10 UNL     1      14.922  23.823  29.139  1.00  0.00     0.181 A 
ATOM     24  H7  UNL     1      13.397  23.506  30.468  1.00  0.00     0.170 HD
HETATM   25  S2  UNL     1      14.083  23.348  27.821  1.00  0.00    -0.040 SA
HETATM   26  N8  UNL     1      16.198  24.226  28.988  1.00  0.00    -0.285 N 
HETATM   27  C11 UNL     1      16.898  24.619  30.068  1.00  0.00     0.328 A 
ATOM     28  H8  UNL     1      16.629  24.235  28.064  1.00  0.00     0.173 HD
HETATM   29  O1  UNL     1      18.096  25.008  29.980  1.00  0.00    -0.247 OA
HETATM   30  N9  UNL     1      16.315  24.604  31.297  1.00  0.00    -0.289 N 
ATOM     31  H9  UNL     1      16.855  24.905  32.108  1.00  0.00     0.172 HD
ENDBRANCH  20  21
ENDBRANCH  19  20
ENDBRANCH  15  19
BRANCH   1  32
HETATM   32  N1  UNL     1      10.449  21.476  33.331  1.00  0.00    -0.384 N 
ATOM     33  H12 UNL     1      10.730  21.822  32.413  1.00  0.00     0.157 HD
ATOM     34  H11 UNL     1      10.064  22.129  34.014  1.00  0.00     0.157 HD
ENDBRANCH   1  32
TORSDOF 4
ENDMDL
MODEL 5
REMARK VINA RESULT: -5.947490240      1.494      1.747
REMARK  4 active torsions:
REMARK  status: ('A' for Active; 'I' for Inactive)
REMARK    1  A    between atoms: N1_1  and  C1_4 
REMARK    2  A    between atoms: C7_18  and  C8_19 
REMARK    3  A    between atoms: C8_19  and  S1_20 
REMARK    4  A    between atoms: S1_20  and  C9_21 
ROOT
HETATM    1  C1  UNL     1      17.371  13.886  34.429  1.00  0.00     0.129 A 
HETATM    2  N2  UNL     1      18.264  13.358  33.565  1.00  0.00    -0.328 N 
ATOM      3  H2  UNL     1      18.858  13.991  33.030  1.00  0.00     0.168 HD
HETATM    4  C2  UNL     1      18.406  12.035  33.378  1.00  0.00     0.143 A 
HETATM    5  N3  UNL     1      19.339  11.476  32.474  1.00  0.00    -0.081 NA
HETATM    6  C3  UNL     1      17.597  11.190  34.111  1.00  0.00     0.101 A 
HETATM    7  N4  UNL     1      17.681   9.777  33.976  1.00  0.00    -0.098 NA
HETATM    8  C4  UNL     1      16.667  11.664  35.008  1.00  0.00     0.039 A 
HETATM    9  C5  UNL     1      15.852  10.854  35.747  1.00  0.00     0.122 A 
HETATM   10  N5  UNL     1      14.965  11.364  36.606  1.00  0.00    -0.200 N 
ATOM     11  H5  UNL     1      14.361  10.751  37.153  1.00  0.00     0.183 HD
HETATM   12  C6  UNL     1      14.883  12.696  36.735  1.00  0.00     0.689 A 
HETATM   13  N6  UNL     1      14.085  13.462  37.519  1.00  0.00    -0.193 N 
ATOM     14  H6  UNL     1      13.384  13.102  38.167  1.00  0.00     0.184 HD
HETATM   15  C7  UNL     1      14.351  14.756  37.318  1.00  0.00     0.052 A 
HETATM   16  C12 UNL     1      15.361  14.805  36.365  1.00  0.00     0.142 A 
HETATM   17  N10 UNL     1      15.656  13.569  36.038  1.00  0.00    -0.151 N 
HETATM   18  C13 UNL     1      16.563  13.045  35.160  1.00  0.00     0.113 A 
ENDROOT
BRANCH  15  19
HETATM   19  C8  UNL     1      13.683  15.922  37.995  1.00  0.00     0.141 C 
BRANCH  19  20
HETATM   20  S1  UNL     1      14.286  17.432  37.147  1.00  0.00    -0.088 SA
BRANCH  20  21
HETATM   21  C9  UNL     1      13.089  17.897  35.883  1.00  0.00     0.150 A 
HETATM   22  N7  UNL     1      11.930  17.231  35.736  1.00  0.00    -0.313 N 
HETATM   23  C10 UNL     1      11.019  17.564  34.795  1.00  0.00     0.181 A 
ATOM     24  H7  UNL     1      11.731  16.446  36.356  1.00  0.00     0.170 HD
HETATM   25  S2  UNL     1       9.619  16.738  34.636  1.00  0.00    -0.040 SA
HETATM   26  N8  UNL     1      11.264  18.596  33.966  1.00  0.00    -0.285 N 
HETATM   27  C11 UNL     1      12.415  19.282  34.089  1.00  0.00     0.328 A 
ATOM     28  H8  UNL     1      10.583  18.855  33.252  1.00  0.00     0.173 HD
HETATM   29  O1  UNL     1      12.691  20.258  33.337  1.00  0.00    -0.247 OA
HETATM   30  N9  UNL     1      13.317  18.929  35.043  1.00  0.00    -0.289 N 
ATOM     31  H9  UNL     1      14.186  19.457  35.127  1.00  0.00     0.172 HD
ENDBRANCH  20  21
ENDBRANCH  19  20
ENDBRANCH  15  19
BRANCH   1  32
HETATM   32  N1  UNL     1      17.362  15.164  34.487  1.00  0.00    -0.384 N 
ATOM     33  H12 UNL     1      17.094  15.791  33.729  1.00  0.00     0.157 HD
ATOM     34  H11 UNL     1      17.654  15.559  35.381  1.00  0.00     0.157 HD
ENDBRANCH   1  32
TORSDOF 4
ENDMDL
