MODEL 1
REMARK VINA RESULT: -5.459219803      0.000      0.000
REMARK  7 active torsions:
REMARK  status: ('A' for Active; 'I' for Inactive)
REMARK    1  A    between atoms: N1_1  and  S1_4 
REMARK    2  A    between atoms: S1_4  and  N2_5 
REMARK    3  A    between atoms: S1_4  and  C1_9 
REMARK    4  A    between atoms: C3_13  and  O2_14 
REMARK    5  A    between atoms: O2_14  and  N4_15 
REMARK    6  A    between atoms: C5_21  and  S2_22 
REMARK    7  A    between atoms: S2_22  and  N6_23 
ROOT
HETATM    1  C1  UNL     1      17.661  12.294  34.133  1.00  0.00     0.203 A 
HETATM    2  N3  UNL     1      17.975  13.570  34.394  1.00  0.00    -0.327 N 
ATOM      3  H3  UNL     1      18.884  13.988  34.199  1.00  0.00     0.168 HD
HETATM    4  C2  UNL     1      16.948  14.225  34.942  1.00  0.00     0.117 A 
HETATM    5  C3  UNL     1      16.743  15.505  35.386  1.00  0.00     0.159 A 
HETATM    6  C4  UNL     1      15.500  15.835  35.915  1.00  0.00     0.117 A 
HETATM    7  N5  UNL     1      15.015  16.984  36.418  1.00  0.00    -0.330 N 
ATOM      8  H5  UNL     1      15.528  17.861  36.496  1.00  0.00     0.168 HD
HETATM    9  C5  UNL     1      13.742  16.783  36.802  1.00  0.00     0.162 A 
HETATM   10  N7  UNL     1      13.453  15.510  36.532  1.00  0.00    -0.320 N 
ATOM     11  H7  UNL     1      12.553  15.065  36.716  1.00  0.00     0.169 HD
HETATM   12  C11 UNL     1      14.512  14.895  35.985  1.00  0.00     0.139 A 
HETATM   13  N8  UNL     1      14.751  13.652  35.540  1.00  0.00    -0.325 N 
ATOM     14  H8  UNL     1      14.005  12.959  35.599  1.00  0.00     0.169 HD
HETATM   15  C12 UNL     1      15.935  13.283  35.021  1.00  0.00     0.139 A 
HETATM   16  N9  UNL     1      16.390  12.112  34.522  1.00  0.00    -0.317 N 
ATOM     17  H9  UNL     1      15.861  11.242  34.453  1.00  0.00     0.169 HD
ENDROOT
BRANCH   1  18
HETATM   18  S1  UNL     1      18.680  11.065  33.420  1.00  0.00     0.163 S 
HETATM   19  O1  UNL     1      18.042   9.729  33.540  1.00  0.00    -0.221 OA
BRANCH  18  20
HETATM   20  N1  UNL     1      18.839  11.392  31.906  1.00  0.00    -0.339 N 
ATOM     21  H12 UNL     1      19.721  11.400  31.394  1.00  0.00     0.167 HD
ATOM     22  H11 UNL     1      17.912  11.594  31.531  1.00  0.00     0.167 HD
ENDBRANCH  18  20
BRANCH  18  23
HETATM   23  N2  UNL     1      20.240  11.018  34.112  1.00  0.00    -0.339 N 
ATOM     24  H22 UNL     1      21.096  10.766  33.618  1.00  0.00     0.167 HD
ATOM     25  H21 UNL     1      20.156  11.283  35.093  1.00  0.00     0.167 HD
ENDBRANCH  18  23
ENDBRANCH   1  18
BRANCH   5  26
HETATM   26  O2  UNL     1      17.715  16.468  35.328  1.00  0.00    -0.240 OA
BRANCH  26  27
HETATM   27  N4  UNL     1      18.588  16.633  36.363  1.00  0.00    -0.305 N 
ATOM     28  H42 UNL     1      18.302  16.342  37.297  1.00  0.00     0.184 HD
ATOM     29  H41 UNL     1      19.509  17.040  36.202  1.00  0.00     0.184 HD
ENDBRANCH  26  27
ENDBRANCH   5  26
BRANCH   9  30
HETATM   30  S2  UNL     1      12.645  18.010  37.541  1.00  0.00    -0.005 SA
BRANCH  30  31
HETATM   31  N6  UNL     1      11.306  18.275  36.461  1.00  0.00    -0.252 NA
HETATM   32  C6  UNL     1      11.650  18.215  35.075  1.00  0.00     0.103 C 
HETATM   33  C7  UNL     1      10.397  18.059  34.253  1.00  0.00     0.015 C 
HETATM   34  C8  UNL     1       9.869  16.655  34.488  1.00  0.00     0.002 C 
HETATM   35  C9  UNL     1       9.993  16.268  35.943  1.00  0.00     0.015 C 
HETATM   36  C10 UNL     1      10.132  17.504  36.800  1.00  0.00     0.103 C 
ENDBRANCH  30  31
ENDBRANCH   9  30
TORSDOF 7
ENDMDL
MODEL 2
REMARK VINA RESULT: -5.337334461      3.270      5.484
REMARK  7 active torsions:
REMARK  status: ('A' for Active; 'I' for Inactive)
REMARK    1  A    between atoms: N1_1  and  S1_4 
REMARK    2  A    between atoms: S1_4  and  N2_5 
REMARK    3  A    between atoms: S1_4  and  C1_9 
REMARK    4  A    between atoms: C3_13  and  O2_14 
REMARK    5  A    between atoms: O2_14  and  N4_15 
REMARK    6  A    between atoms: C5_21  and  S2_22 
REMARK    7  A    between atoms: S2_22  and  N6_23 
ROOT
HETATM    1  C1  UNL     1      19.920   7.521  35.468  1.00  0.00     0.203 A 
HETATM    2  N3  UNL     1      19.343   8.137  34.428  1.00  0.00    -0.327 N 
ATOM      3  H3  UNL     1      19.198   7.706  33.515  1.00  0.00     0.168 HD
HETATM    4  C2  UNL     1      18.982   9.386  34.736  1.00  0.00     0.117 A 
HETATM    5  C3  UNL     1      18.377  10.412  34.060  1.00  0.00     0.159 A 
HETATM    6  C4  UNL     1      18.156  11.611  34.730  1.00  0.00     0.117 A 
HETATM    7  N5  UNL     1      17.595  12.768  34.338  1.00  0.00    -0.330 N 
ATOM      8  H5  UNL     1      17.215  12.960  33.411  1.00  0.00     0.168 HD
HETATM    9  C5  UNL     1      17.619  13.630  35.369  1.00  0.00     0.162 A 
HETATM   10  N7  UNL     1      18.195  12.996  36.390  1.00  0.00    -0.320 N 
ATOM     11  H7  UNL     1      18.353  13.402  37.313  1.00  0.00     0.169 HD
HETATM   12  C11 UNL     1      18.539  11.749  36.033  1.00  0.00     0.139 A 
HETATM   13  N8  UNL     1      19.130  10.722  36.661  1.00  0.00    -0.325 N 
ATOM     14  H8  UNL     1      19.412  10.839  37.634  1.00  0.00     0.169 HD
HETATM   15  C12 UNL     1      19.366   9.543  36.059  1.00  0.00     0.139 A 
HETATM   16  N9  UNL     1      19.935   8.394  36.486  1.00  0.00    -0.317 N 
ATOM     17  H9  UNL     1      20.311   8.222  37.419  1.00  0.00     0.169 HD
ENDROOT
BRANCH   1  18
HETATM   18  S1  UNL     1      20.546   5.890  35.534  1.00  0.00     0.163 S 
HETATM   19  O1  UNL     1      19.708   4.979  34.714  1.00  0.00    -0.221 OA
BRANCH  18  20
HETATM   20  N1  UNL     1      21.982   5.903  34.930  1.00  0.00    -0.339 N 
ATOM     21  H12 UNL     1      22.792   5.426  35.326  1.00  0.00     0.167 HD
ATOM     22  H11 UNL     1      21.959   6.468  34.081  1.00  0.00     0.167 HD
ENDBRANCH  18  20
BRANCH  18  23
HETATM   23  N2  UNL     1      20.654   5.287  37.128  1.00  0.00    -0.339 N 
ATOM     24  H22 UNL     1      20.353   4.360  37.429  1.00  0.00     0.167 HD
ATOM     25  H21 UNL     1      21.068   6.014  37.711  1.00  0.00     0.167 HD
ENDBRANCH  18  23
ENDBRANCH   1  18
BRANCH   5  26
HETATM   26  O2  UNL     1      17.981  10.300  32.754  1.00  0.00    -0.240 OA
BRANCH  26  27
HETATM   27  N4  UNL     1      18.600  11.027  31.780  1.00  0.00    -0.305 N 
ATOM     28  H42 UNL     1      19.376  10.605  31.271  1.00  0.00     0.184 HD
ATOM     29  H41 UNL     1      18.290  11.975  31.567  1.00  0.00     0.184 HD
ENDBRANCH  26  27
ENDBRANCH   5  26
BRANCH   9  30
HETATM   30  S2  UNL     1      16.989  15.321  35.360  1.00  0.00    -0.005 SA
BRANCH  30  31
HETATM   31  N6  UNL     1      15.719  15.443  36.544  1.00  0.00    -0.252 NA
HETATM   32  C6  UNL     1      15.425  16.781  36.954  1.00  0.00     0.103 C 
HETATM   33  C7  UNL     1      14.089  16.813  37.648  1.00  0.00     0.015 C 
HETATM   34  C8  UNL     1      13.021  16.585  36.595  1.00  0.00     0.002 C 
HETATM   35  C9  UNL     1      13.450  15.522  35.610  1.00  0.00     0.015 C 
HETATM   36  C10 UNL     1      14.545  14.670  36.210  1.00  0.00     0.103 C 
ENDBRANCH  30  31
ENDBRANCH   9  30
TORSDOF 7
ENDMDL
MODEL 3
REMARK VINA RESULT: -5.248133345      1.912      2.568
REMARK  7 active torsions:
REMARK  status: ('A' for Active; 'I' for Inactive)
REMARK    1  A    between atoms: N1_1  and  S1_4 
REMARK    2  A    between atoms: S1_4  and  N2_5 
REMARK    3  A    between atoms: S1_4  and  C1_9 
REMARK    4  A    between atoms: C3_13  and  O2_14 
REMARK    5  A    between atoms: O2_14  and  N4_15 
REMARK    6  A    between atoms: C5_21  and  S2_22 
REMARK    7  A    between atoms: S2_22  and  N6_23 
ROOT
HETATM    1  C1  UNL     1      16.980  11.783  34.287  1.00  0.00     0.203 A 
HETATM    2  N3  UNL     1      16.168  11.425  35.289  1.00  0.00    -0.327 N 
ATOM      3  H3  UNL     1      16.069  10.470  35.634  1.00  0.00     0.168 HD
HETATM    4  C2  UNL     1      15.504  12.474  35.782  1.00  0.00     0.117 A 
HETATM    5  C3  UNL     1      14.581  12.654  36.777  1.00  0.00     0.159 A 
HETATM    6  C4  UNL     1      14.095  13.937  37.011  1.00  0.00     0.117 A 
HETATM    7  N5  UNL     1      13.204  14.411  37.899  1.00  0.00    -0.330 N 
ATOM      8  H5  UNL     1      12.706  13.857  38.594  1.00  0.00     0.168 HD
HETATM    9  C5  UNL     1      13.079  15.738  37.718  1.00  0.00     0.162 A 
HETATM   10  N7  UNL     1      13.896  16.070  36.718  1.00  0.00    -0.320 N 
ATOM     11  H7  UNL     1      14.015  17.016  36.353  1.00  0.00     0.169 HD
HETATM   12  C11 UNL     1      14.538  14.986  36.258  1.00  0.00     0.139 A 
HETATM   13  N8  UNL     1      15.443  14.770  35.291  1.00  0.00    -0.325 N 
ATOM     14  H8  UNL     1      15.765  15.562  34.735  1.00  0.00     0.169 HD
HETATM   15  C12 UNL     1      15.943  13.550  35.026  1.00  0.00     0.139 A 
HETATM   16  N9  UNL     1      16.843  13.107  34.120  1.00  0.00    -0.317 N 
ATOM     17  H9  UNL     1      17.331  13.679  33.430  1.00  0.00     0.169 HD
ENDROOT
BRANCH   1  18
HETATM   18  S1  UNL     1      18.037  10.756  33.346  1.00  0.00     0.163 S 
HETATM   19  O1  UNL     1      18.095   9.394  33.934  1.00  0.00    -0.221 OA
BRANCH  18  20
HETATM   20  N1  UNL     1      17.443  10.641  31.911  1.00  0.00    -0.339 N 
ATOM     21  H12 UNL     1      17.763   9.994  31.191  1.00  0.00     0.167 HD
ATOM     22  H11 UNL     1      16.687  11.322  31.831  1.00  0.00     0.167 HD
ENDBRANCH  18  20
BRANCH  18  23
HETATM   23  N2  UNL     1      19.619  11.386  33.208  1.00  0.00    -0.339 N 
ATOM     24  H22 UNL     1      19.867  12.259  32.743  1.00  0.00     0.167 HD
ATOM     25  H21 UNL     1      20.256  10.737  33.670  1.00  0.00     0.167 HD
ENDBRANCH  18  23
ENDBRANCH   1  18
BRANCH   5  26
HETATM   26  O2  UNL     1      14.119  11.621  37.549  1.00  0.00    -0.240 OA
BRANCH  26  27
HETATM   27  N4  UNL     1      14.846  11.175  38.612  1.00  0.00    -0.305 N 
ATOM     28  H42 UNL     1      15.837  11.412  38.664  1.00  0.00     0.184 HD
ATOM     29  H41 UNL     1      14.405  10.614  39.341  1.00  0.00     0.184 HD
ENDBRANCH  26  27
ENDBRANCH   5  26
BRANCH   9  30
HETATM   30  S2  UNL     1      12.007  16.846  38.655  1.00  0.00    -0.005 SA
BRANCH  30  31
HETATM   31  N6  UNL     1      10.639  17.261  37.662  1.00  0.00    -0.252 NA
HETATM   32  C6  UNL     1      10.864  18.368  36.786  1.00  0.00     0.103 C 
HETATM   33  C7  UNL     1       9.801  18.390  35.720  1.00  0.00     0.015 C 
HETATM   34  C8  UNL     1      10.061  17.220  34.789  1.00  0.00     0.002 C 
HETATM   35  C9  UNL     1      10.469  15.991  35.568  1.00  0.00     0.015 C 
HETATM   36  C10 UNL     1      10.035  16.122  37.010  1.00  0.00     0.103 C 
ENDBRANCH  30  31
ENDBRANCH   9  30
TORSDOF 7
ENDMDL
MODEL 4
REMARK VINA RESULT: -5.227747435      3.351      4.036
REMARK  7 active torsions:
REMARK  status: ('A' for Active; 'I' for Inactive)
REMARK    1  A    between atoms: N1_1  and  S1_4 
REMARK    2  A    between atoms: S1_4  and  N2_5 
REMARK    3  A    between atoms: S1_4  and  C1_9 
REMARK    4  A    between atoms: C3_13  and  O2_14 
REMARK    5  A    between atoms: O2_14  and  N4_15 
REMARK    6  A    between atoms: C5_21  and  S2_22 
REMARK    7  A    between atoms: S2_22  and  N6_23 
ROOT
HETATM    1  C1  UNL     1      16.819  12.463  33.855  1.00  0.00     0.203 A 
HETATM    2  N3  UNL     1      16.431  13.572  34.497  1.00  0.00    -0.327 N 
ATOM      3  H3  UNL     1      16.682  14.518  34.210  1.00  0.00     0.168 HD
HETATM    4  C2  UNL     1      15.674  13.285  35.559  1.00  0.00     0.117 A 
HETATM    5  C3  UNL     1      15.041  14.023  36.524  1.00  0.00     0.159 A 
HETATM    6  C4  UNL     1      14.318  13.355  37.507  1.00  0.00     0.117 A 
HETATM    7  N5  UNL     1      13.609  13.800  38.558  1.00  0.00    -0.330 N 
ATOM      8  H5  UNL     1      13.481  14.778  38.818  1.00  0.00     0.168 HD
HETATM    9  C5  UNL     1      13.095  12.743  39.211  1.00  0.00     0.162 A 
HETATM   10  N7  UNL     1      13.494  11.652  38.555  1.00  0.00    -0.320 N 
ATOM     11  H7  UNL     1      13.257  10.695  38.818  1.00  0.00     0.169 HD
HETATM   12  C11 UNL     1      14.249  11.991  37.499  1.00  0.00     0.139 A 
HETATM   13  N8  UNL     1      14.883  11.303  36.538  1.00  0.00    -0.325 N 
ATOM     14  H8  UNL     1      14.824  10.284  36.544  1.00  0.00     0.169 HD
HETATM   15  C12 UNL     1      15.593  11.901  35.566  1.00  0.00     0.139 A 
HETATM   16  N9  UNL     1      16.299  11.420  34.519  1.00  0.00    -0.317 N 
ATOM     17  H9  UNL     1      16.415  10.435  34.276  1.00  0.00     0.169 HD
ENDROOT
BRANCH   1  18
HETATM   18  S1  UNL     1      17.813  12.347  32.422  1.00  0.00     0.163 S 
HETATM   19  O1  UNL     1      17.226  13.147  31.317  1.00  0.00    -0.221 OA
BRANCH  18  20
HETATM   20  N1  UNL     1      19.213  12.941  32.759  1.00  0.00    -0.339 N 
ATOM     21  H12 UNL     1      19.706  12.821  33.643  1.00  0.00     0.167 HD
ATOM     22  H11 UNL     1      19.536  13.463  31.944  1.00  0.00     0.167 HD
ENDBRANCH  18  20
BRANCH  18  23
HETATM   23  N2  UNL     1      18.039  10.736  31.903  1.00  0.00    -0.339 N 
ATOM     24  H22 UNL     1      17.405   9.960  32.095  1.00  0.00     0.167 HD
ATOM     25  H21 UNL     1      18.911  10.697  31.374  1.00  0.00     0.167 HD
ENDBRANCH  18  23
ENDBRANCH   1  18
BRANCH   5  26
HETATM   26  O2  UNL     1      15.093  15.392  36.556  1.00  0.00    -0.240 OA
BRANCH  26  27
HETATM   27  N4  UNL     1      14.111  16.134  35.968  1.00  0.00    -0.305 N 
ATOM     28  H42 UNL     1      13.625  16.835  36.527  1.00  0.00     0.184 HD
ATOM     29  H41 UNL     1      13.871  15.989  34.987  1.00  0.00     0.184 HD
ENDBRANCH  26  27
ENDBRANCH   5  26
BRANCH   9  30
HETATM   30  S2  UNL     1      12.065  12.800  40.691  1.00  0.00    -0.005 SA
BRANCH  30  31
HETATM   31  N6  UNL     1      10.693  13.823  40.370  1.00  0.00    -0.252 NA
HETATM   32  C6  UNL     1      10.480  14.101  38.984  1.00  0.00     0.103 C 
HETATM   33  C7  UNL     1       9.087  14.638  38.788  1.00  0.00     0.015 C 
HETATM   34  C8  UNL     1       8.119  13.490  39.012  1.00  0.00     0.002 C 
HETATM   35  C9  UNL     1       8.552  12.639  40.182  1.00  0.00     0.015 C 
HETATM   36  C10 UNL     1       9.497  13.417  41.070  1.00  0.00     0.103 C 
ENDBRANCH  30  31
ENDBRANCH   9  30
TORSDOF 7
ENDMDL
MODEL 5
REMARK VINA RESULT: -5.163117099      3.976      5.046
REMARK  7 active torsions:
REMARK  status: ('A' for Active; 'I' for Inactive)
REMARK    1  A    between atoms: N1_1  and  S1_4 
REMARK    2  A    between atoms: S1_4  and  N2_5 
REMARK    3  A    between atoms: S1_4  and  C1_9 
REMARK    4  A    between atoms: C3_13  and  O2_14 
REMARK    5  A    between atoms: O2_14  and  N4_15 
REMARK    6  A    between atoms: C5_21  and  S2_22 
REMARK    7  A    between atoms: S2_22  and  N6_23 
ROOT
HETATM    1  C1  UNL     1      16.922  11.859  33.947  1.00  0.00     0.203 A 
HETATM    2  N3  UNL     1      16.467  11.052  34.914  1.00  0.00    -0.327 N 
ATOM      3  H3  UNL     1      16.703  10.063  34.993  1.00  0.00     0.168 HD
HETATM    4  C2  UNL     1      15.667  11.704  35.762  1.00  0.00     0.117 A 
HETATM    5  C3  UNL     1      14.962  11.361  36.885  1.00  0.00     0.159 A 
HETATM    6  C4  UNL     1      14.212  12.342  37.526  1.00  0.00     0.117 A 
HETATM    7  N5  UNL     1      13.437  12.304  38.623  1.00  0.00    -0.330 N 
ATOM      8  H5  UNL     1      13.264  11.482  39.201  1.00  0.00     0.168 HD
HETATM    9  C5  UNL     1      12.925  13.530  38.832  1.00  0.00     0.162 A 
HETATM   10  N7  UNL     1      13.391  14.314  37.860  1.00  0.00    -0.320 N 
ATOM     11  H7  UNL     1      13.173  15.306  37.756  1.00  0.00     0.169 HD
HETATM   12  C11 UNL     1      14.188  13.616  37.036  1.00  0.00     0.139 A 
HETATM   13  N8  UNL     1      14.891  13.914  35.933  1.00  0.00    -0.325 N 
ATOM     14  H8  UNL     1      14.863  14.869  35.577  1.00  0.00     0.169 HD
HETATM   15  C12 UNL     1      15.630  13.003  35.277  1.00  0.00     0.139 A 
HETATM   16  N9  UNL     1      16.403  13.075  34.170  1.00  0.00    -0.317 N 
ATOM     17  H9  UNL     1      16.562  13.909  33.604  1.00  0.00     0.169 HD
ENDROOT
BRANCH   1  18
HETATM   18  S1  UNL     1      17.991  11.450  32.625  1.00  0.00     0.163 S 
HETATM   19  O1  UNL     1      17.970   9.987  32.375  1.00  0.00    -0.221 OA
BRANCH  18  20
HETATM   20  N1  UNL     1      17.468  12.168  31.346  1.00  0.00    -0.339 N 
ATOM     21  H12 UNL     1      17.893  12.990  30.917  1.00  0.00     0.167 HD
ATOM     22  H11 UNL     1      16.638  11.670  31.025  1.00  0.00     0.167 HD
ENDBRANCH  18  20
BRANCH  18  23
HETATM   23  N2  UNL     1      19.598  11.961  32.893  1.00  0.00    -0.339 N 
ATOM     24  H22 UNL     1      19.980  12.868  32.626  1.00  0.00     0.167 HD
ATOM     25  H21 UNL     1      20.093  11.202  33.361  1.00  0.00     0.167 HD
ENDBRANCH  18  23
ENDBRANCH   1  18
BRANCH   5  26
HETATM   26  O2  UNL     1      14.969  10.091  37.398  1.00  0.00    -0.240 OA
BRANCH  26  27
HETATM   27  N4  UNL     1      15.769   9.779  38.458  1.00  0.00    -0.305 N 
ATOM     28  H42 UNL     1      16.157  10.536  39.020  1.00  0.00     0.184 HD
ATOM     29  H41 UNL     1      15.974   8.805  38.681  1.00  0.00     0.184 HD
ENDBRANCH  26  27
ENDBRANCH   5  26
BRANCH   9  30
HETATM   30  S2  UNL     1      11.820  14.010  40.175  1.00  0.00    -0.005 SA
BRANCH  30  31
HETATM   31  N6  UNL     1      10.862  12.627  40.623  1.00  0.00    -0.252 NA
HETATM   32  C6  UNL     1      10.618  12.512  42.027  1.00  0.00     0.103 C 
HETATM   33  C7  UNL     1       9.485  11.549  42.262  1.00  0.00     0.015 C 
HETATM   34  C8  UNL     1       8.207  12.223  41.794  1.00  0.00     0.002 C 
HETATM   35  C9  UNL     1       8.436  12.979  40.506  1.00  0.00     0.015 C 
HETATM   36  C10 UNL     1       9.677  12.463  39.814  1.00  0.00     0.103 C 
ENDBRANCH  30  31
ENDBRANCH   9  30
TORSDOF 7
ENDMDL
