MODEL 1
REMARK VINA RESULT: -5.612694367      0.000      0.000
REMARK  5 active torsions:
REMARK  status: ('A' for Active; 'I' for Inactive)
REMARK    1  A    between atoms: N1_1  and  C1_4 
REMARK    2  A    between atoms: C3_8  and  C4_9 
REMARK    3  A    between atoms: C4_9  and  S1_10 
REMARK    4  A    between atoms: S1_10  and  C5_11 
REMARK    5  A    between atoms: C11_21  and  N5_22 
ROOT
HETATM    1  C1  UNL     1      22.833  13.654  33.302  1.00  0.00     0.692 A 
HETATM    2  N2  UNL     1      22.552  12.595  34.111  1.00  0.00    -0.173 N 
ATOM      3  H2  UNL     1      23.177  12.216  34.822  1.00  0.00     0.186 HD
HETATM    4  C2  UNL     1      21.334  12.132  33.828  1.00  0.00     0.153 A 
HETATM    5  C3  UNL     1      20.362  11.168  34.175  1.00  0.00     0.016 A 
HETATM    6  C10 UNL     1      19.310  11.418  33.349  1.00  0.00     0.064 A 
HETATM    7  C11 UNL     1      18.067  10.821  33.183  1.00  0.00     0.114 A 
HETATM    8  N6  UNL     1      17.196  11.301  32.229  1.00  0.00    -0.338 N 
ATOM      9  H6  UNL     1      16.287  10.854  32.119  1.00  0.00     0.168 HD
HETATM   10  C12 UNL     1      17.506  12.320  31.458  1.00  0.00     0.183 A 
HETATM   11  N7  UNL     1      18.698  12.896  31.614  1.00  0.00    -0.336 N 
ATOM     12  H7  UNL     1      18.935  13.686  31.014  1.00  0.00     0.168 HD
HETATM   13  C13 UNL     1      19.601  12.492  32.515  1.00  0.00     0.145 A 
HETATM   14  N8  UNL     1      20.842  12.886  32.849  1.00  0.00    -0.207 N 
HETATM   15  N9  UNL     1      21.750  13.820  32.519  1.00  0.00    -0.122 N 
ATOM     16  H9  UNL     1      21.638  14.533  31.798  1.00  0.00     0.206 HD
ENDROOT
BRANCH   5  17
HETATM   17  C4  UNL     1      20.620  10.176  35.201  1.00  0.00     0.123 C 
BRANCH  17  18
HETATM   18  S1  UNL     1      20.357  11.056  36.821  1.00  0.00    -0.121 SA
BRANCH  18  19
HETATM   19  C5  UNL     1      18.762  11.860  36.853  1.00  0.00     0.059 A 
HETATM   20  C6  UNL     1      18.724  13.236  36.724  1.00  0.00     0.074 A 
HETATM   21  S2  UNL     1      17.159  13.926  36.745  1.00  0.00    -0.084 SA
HETATM   22  C7  UNL     1      15.916  12.779  36.922  1.00  0.00     0.115 A 
HETATM   23  N3  UNL     1      14.526  13.094  36.964  1.00  0.00    -0.092 NA
HETATM   24  C8  UNL     1      16.357  11.461  37.021  1.00  0.00     0.128 A 
HETATM   25  N4  UNL     1      15.317  10.473  37.178  1.00  0.00    -0.096 NA
HETATM   26  C9  UNL     1      17.652  11.057  36.988  1.00  0.00     0.215 A 
HETATM   27  O1  UNL     1      17.841   9.794  37.092  1.00  0.00    -0.285 OA
ENDBRANCH  18  19
ENDBRANCH  17  18
ENDBRANCH   5  17
BRANCH   7  28
HETATM   28  N5  UNL     1      17.733   9.846  33.877  1.00  0.00    -0.385 N 
ATOM     29  H52 UNL     1      17.717   9.939  34.892  1.00  0.00     0.157 HD
ATOM     30  H51 UNL     1      17.466   8.963  33.441  1.00  0.00     0.157 HD
ENDBRANCH   7  28
BRANCH   1  31
HETATM   31  N1  UNL     1      23.946  14.309  33.347  1.00  0.00    -0.233 N 
ATOM     32  H12 UNL     1      24.889  13.998  33.578  1.00  0.00     0.174 HD
ATOM     33  H11 UNL     1      24.020  15.305  33.137  1.00  0.00     0.174 HD
ENDBRANCH   1  31
TORSDOF 5
ENDMDL
MODEL 2
REMARK VINA RESULT: -5.463610437      2.823      4.219
REMARK  5 active torsions:
REMARK  status: ('A' for Active; 'I' for Inactive)
REMARK    1  A    between atoms: N1_1  and  C1_4 
REMARK    2  A    between atoms: C3_8  and  C4_9 
REMARK    3  A    between atoms: C4_9  and  S1_10 
REMARK    4  A    between atoms: S1_10  and  C5_11 
REMARK    5  A    between atoms: C11_21  and  N5_22 
ROOT
HETATM    1  C1  UNL     1      18.306  12.606  31.509  1.00  0.00     0.692 A 
HETATM    2  N2  UNL     1      17.777  13.251  32.586  1.00  0.00    -0.173 N 
ATOM      3  H2  UNL     1      17.258  14.128  32.551  1.00  0.00     0.186 HD
HETATM    4  C2  UNL     1      18.045  12.557  33.693  1.00  0.00     0.153 A 
HETATM    5  C3  UNL     1      17.865  12.512  35.093  1.00  0.00     0.016 A 
HETATM    6  C10 UNL     1      18.485  11.368  35.490  1.00  0.00     0.064 A 
HETATM    7  C11 UNL     1      18.673  10.767  36.728  1.00  0.00     0.114 A 
HETATM    8  N6  UNL     1      19.373   9.584  36.818  1.00  0.00    -0.338 N 
ATOM      9  H6  UNL     1      19.503   9.154  37.733  1.00  0.00     0.168 HD
HETATM   10  C12 UNL     1      19.879   8.995  35.756  1.00  0.00     0.183 A 
HETATM   11  N7  UNL     1      19.700   9.568  34.566  1.00  0.00    -0.336 N 
ATOM     12  H7  UNL     1      20.093   9.109  33.745  1.00  0.00     0.168 HD
HETATM   13  C13 UNL     1      19.033  10.715  34.392  1.00  0.00     0.145 A 
HETATM   14  N8  UNL     1      18.737  11.481  33.328  1.00  0.00    -0.207 N 
HETATM   15  N9  UNL     1      18.902  11.501  31.994  1.00  0.00    -0.122 N 
ATOM     16  H9  UNL     1      19.396  10.799  31.443  1.00  0.00     0.206 HD
ENDROOT
BRANCH   5  17
HETATM   17  C4  UNL     1      17.167  13.573  35.795  1.00  0.00     0.123 C 
BRANCH  17  18
HETATM   18  S1  UNL     1      15.355  13.226  35.542  1.00  0.00    -0.121 SA
BRANCH  18  19
HETATM   19  C5  UNL     1      14.631  12.532  37.020  1.00  0.00     0.059 A 
HETATM   20  C6  UNL     1      13.943  13.380  37.868  1.00  0.00     0.074 A 
HETATM   21  S2  UNL     1      13.264  12.636  39.250  1.00  0.00    -0.084 SA
HETATM   22  C7  UNL     1      13.561  10.963  39.332  1.00  0.00     0.115 A 
HETATM   23  N3  UNL     1      13.101  10.111  40.379  1.00  0.00    -0.092 NA
HETATM   24  C8  UNL     1      14.306  10.457  38.269  1.00  0.00     0.128 A 
HETATM   25  N4  UNL     1      14.574   9.039  38.324  1.00  0.00    -0.096 NA
HETATM   26  C9  UNL     1      14.786  11.179  37.226  1.00  0.00     0.215 A 
HETATM   27  O1  UNL     1      15.446  10.516  36.349  1.00  0.00    -0.285 OA
ENDBRANCH  18  19
ENDBRANCH  17  18
ENDBRANCH   5  17
BRANCH   7  28
HETATM   28  N5  UNL     1      18.228  11.291  37.762  1.00  0.00    -0.385 N 
ATOM     29  H52 UNL     1      17.283  11.674  37.761  1.00  0.00     0.157 HD
ATOM     30  H51 UNL     1      18.793  11.332  38.611  1.00  0.00     0.157 HD
ENDBRANCH   7  28
BRANCH   1  31
HETATM   31  N1  UNL     1      18.205  13.044  30.297  1.00  0.00    -0.233 N 
ATOM     32  H12 UNL     1      17.949  12.559  29.437  1.00  0.00     0.174 HD
ATOM     33  H11 UNL     1      18.385  14.012  30.033  1.00  0.00     0.174 HD
ENDBRANCH   1  31
TORSDOF 5
ENDMDL
MODEL 3
REMARK VINA RESULT: -5.429851615      1.643      2.009
REMARK  5 active torsions:
REMARK  status: ('A' for Active; 'I' for Inactive)
REMARK    1  A    between atoms: N1_1  and  C1_4 
REMARK    2  A    between atoms: C3_8  and  C4_9 
REMARK    3  A    between atoms: C4_9  and  S1_10 
REMARK    4  A    between atoms: S1_10  and  C5_11 
REMARK    5  A    between atoms: C11_21  and  N5_22 
ROOT
HETATM    1  C1  UNL     1      22.929  13.295  33.356  1.00  0.00     0.692 A 
HETATM    2  N2  UNL     1      22.327  12.325  34.099  1.00  0.00    -0.173 N 
ATOM      3  H2  UNL     1      22.756  11.829  34.879  1.00  0.00     0.186 HD
HETATM    4  C2  UNL     1      21.088  12.125  33.645  1.00  0.00     0.153 A 
HETATM    5  C3  UNL     1      19.899  11.388  33.838  1.00  0.00     0.016 A 
HETATM    6  C10 UNL     1      19.044  11.846  32.883  1.00  0.00     0.064 A 
HETATM    7  C11 UNL     1      17.739  11.520  32.539  1.00  0.00     0.114 A 
HETATM    8  N6  UNL     1      17.125  12.164  31.488  1.00  0.00    -0.338 N 
ATOM      9  H6  UNL     1      16.166  11.916  31.247  1.00  0.00     0.168 HD
HETATM   10  C12 UNL     1      17.742  13.089  30.785  1.00  0.00     0.183 A 
HETATM   11  N7  UNL     1      18.995  13.404  31.112  1.00  0.00    -0.336 N 
ATOM     12  H7  UNL     1      19.471  14.122  30.566  1.00  0.00     0.168 HD
HETATM   13  C13 UNL     1      19.663  12.828  32.119  1.00  0.00     0.145 A 
HETATM   14  N8  UNL     1      20.902  12.957  32.624  1.00  0.00    -0.207 N 
HETATM   15  N9  UNL     1      22.021  13.678  32.438  1.00  0.00    -0.122 N 
ATOM     16  H9  UNL     1      22.159  14.392  31.724  1.00  0.00     0.206 HD
ENDROOT
BRANCH   5  17
HETATM   17  C4  UNL     1      19.803  10.372  34.870  1.00  0.00     0.123 C 
BRANCH  17  18
HETATM   18  S1  UNL     1      19.388  11.292  36.435  1.00  0.00    -0.121 SA
BRANCH  18  19
HETATM   19  C5  UNL     1      17.803  12.101  36.292  1.00  0.00     0.059 A 
HETATM   20  C6  UNL     1      16.666  11.357  36.546  1.00  0.00     0.074 A 
HETATM   21  S2  UNL     1      15.190  12.208  36.407  1.00  0.00    -0.084 SA
HETATM   22  C7  UNL     1      15.390  13.842  35.976  1.00  0.00     0.115 A 
HETATM   23  N3  UNL     1      14.320  14.768  35.800  1.00  0.00    -0.092 NA
HETATM   24  C8  UNL     1      16.716  14.235  35.804  1.00  0.00     0.128 A 
HETATM   25  N4  UNL     1      16.906  15.617  35.432  1.00  0.00    -0.096 NA
HETATM   26  C9  UNL     1      17.802  13.435  35.950  1.00  0.00     0.215 A 
HETATM   27  O1  UNL     1      18.935  13.998  35.750  1.00  0.00    -0.285 OA
ENDBRANCH  18  19
ENDBRANCH  17  18
ENDBRANCH   5  17
BRANCH   7  28
HETATM   28  N5  UNL     1      17.118  10.643  33.162  1.00  0.00    -0.385 N 
ATOM     29  H52 UNL     1      17.103   9.690  32.800  1.00  0.00     0.157 HD
ATOM     30  H51 UNL     1      16.634  10.865  34.033  1.00  0.00     0.157 HD
ENDBRANCH   7  28
BRANCH   1  31
HETATM   31  N1  UNL     1      24.137  13.704  33.564  1.00  0.00    -0.233 N 
ATOM     32  H12 UNL     1      24.959  13.677  32.960  1.00  0.00     0.174 HD
ATOM     33  H11 UNL     1      24.441  14.141  34.434  1.00  0.00     0.174 HD
ENDBRANCH   1  31
TORSDOF 5
ENDMDL
MODEL 4
REMARK VINA RESULT: -5.358034691      2.271      4.633
REMARK  5 active torsions:
REMARK  status: ('A' for Active; 'I' for Inactive)
REMARK    1  A    between atoms: N1_1  and  C1_4 
REMARK    2  A    between atoms: C3_8  and  C4_9 
REMARK    3  A    between atoms: C4_9  and  S1_10 
REMARK    4  A    between atoms: S1_10  and  C5_11 
REMARK    5  A    between atoms: C11_21  and  N5_22 
ROOT
HETATM    1  C1  UNL     1      16.479  15.538  35.849  1.00  0.00     0.692 A 
HETATM    2  N2  UNL     1      16.222  14.297  36.347  1.00  0.00    -0.173 N 
ATOM      3  H2  UNL     1      15.745  14.102  37.227  1.00  0.00     0.186 HD
HETATM    4  C2  UNL     1      16.692  13.376  35.504  1.00  0.00     0.153 A 
HETATM    5  C3  UNL     1      16.815  11.988  35.271  1.00  0.00     0.016 A 
HETATM    6  C10 UNL     1      17.458  11.890  34.075  1.00  0.00     0.064 A 
HETATM    7  C11 UNL     1      17.882  10.813  33.309  1.00  0.00     0.114 A 
HETATM    8  N6  UNL     1      18.535  11.034  32.116  1.00  0.00    -0.338 N 
ATOM      9  H6  UNL     1      18.840  10.233  31.562  1.00  0.00     0.168 HD
HETATM   10  C12 UNL     1      18.775  12.248  31.671  1.00  0.00     0.183 A 
HETATM   11  N7  UNL     1      18.369  13.285  32.404  1.00  0.00    -0.336 N 
ATOM     12  H7  UNL     1      18.557  14.225  32.057  1.00  0.00     0.168 HD
HETATM   13  C13 UNL     1      17.729  13.157  33.573  1.00  0.00     0.145 A 
HETATM   14  N8  UNL     1      17.243  14.021  34.481  1.00  0.00    -0.207 N 
HETATM   15  N9  UNL     1      17.119  15.344  34.680  1.00  0.00    -0.122 N 
ATOM     16  H9  UNL     1      17.453  16.077  34.054  1.00  0.00     0.206 HD
ENDROOT
BRANCH   5  17
HETATM   17  C4  UNL     1      16.329  11.018  36.233  1.00  0.00     0.123 C 
BRANCH  17  18
HETATM   18  S1  UNL     1      17.588  11.006  37.605  1.00  0.00    -0.121 SA
BRANCH  18  19
HETATM   19  C5  UNL     1      19.247  11.015  36.942  1.00  0.00     0.059 A 
HETATM   20  C6  UNL     1      19.954  12.203  36.973  1.00  0.00     0.074 A 
HETATM   21  S2  UNL     1      21.539  12.125  36.337  1.00  0.00    -0.084 SA
HETATM   22  C7  UNL     1      21.966  10.578  35.774  1.00  0.00     0.115 A 
HETATM   23  N3  UNL     1      23.230  10.246  35.203  1.00  0.00    -0.092 NA
HETATM   24  C8  UNL     1      20.968   9.616  35.916  1.00  0.00     0.128 A 
HETATM   25  N4  UNL     1      21.309   8.297  35.438  1.00  0.00    -0.096 NA
HETATM   26  C9  UNL     1      19.738   9.827  36.447  1.00  0.00     0.215 A 
HETATM   27  O1  UNL     1      18.968   8.803  36.489  1.00  0.00    -0.285 OA
ENDBRANCH  18  19
ENDBRANCH  17  18
ENDBRANCH   5  17
BRANCH   7  28
HETATM   28  N5  UNL     1      17.692   9.647  33.691  1.00  0.00    -0.385 N 
ATOM     29  H52 UNL     1      17.960   8.872  33.084  1.00  0.00     0.157 HD
ATOM     30  H51 UNL     1      17.282   9.458  34.606  1.00  0.00     0.157 HD
ENDBRANCH   7  28
BRANCH   1  31
HETATM   31  N1  UNL     1      16.138  16.631  36.450  1.00  0.00    -0.233 N 
ATOM     32  H12 UNL     1      15.264  17.155  36.425  1.00  0.00     0.174 HD
ATOM     33  H11 UNL     1      16.758  17.144  37.076  1.00  0.00     0.174 HD
ENDBRANCH   1  31
TORSDOF 5
ENDMDL
MODEL 5
REMARK VINA RESULT: -5.306536171      2.107      2.759
REMARK  5 active torsions:
REMARK  status: ('A' for Active; 'I' for Inactive)
REMARK    1  A    between atoms: N1_1  and  C1_4 
REMARK    2  A    between atoms: C3_8  and  C4_9 
REMARK    3  A    between atoms: C4_9  and  S1_10 
REMARK    4  A    between atoms: S1_10  and  C5_11 
REMARK    5  A    between atoms: C11_21  and  N5_22 
ROOT
HETATM    1  C1  UNL     1      22.968  12.587  33.674  1.00  0.00     0.692 A 
HETATM    2  N2  UNL     1      22.173  11.774  34.423  1.00  0.00    -0.173 N 
ATOM      3  H2  UNL     1      22.474  11.251  35.244  1.00  0.00     0.186 HD
HETATM    4  C2  UNL     1      20.940  11.769  33.914  1.00  0.00     0.153 A 
HETATM    5  C3  UNL     1      19.633  11.260  34.075  1.00  0.00     0.016 A 
HETATM    6  C10 UNL     1      18.915  11.810  33.058  1.00  0.00     0.064 A 
HETATM    7  C11 UNL     1      17.589  11.699  32.661  1.00  0.00     0.114 A 
HETATM    8  N6  UNL     1      17.144  12.386  31.553  1.00  0.00    -0.338 N 
ATOM      9  H6  UNL     1      16.168  12.296  31.273  1.00  0.00     0.168 HD
HETATM   10  C12 UNL     1      17.944  13.156  30.847  1.00  0.00     0.183 A 
HETATM   11  N7  UNL     1      19.218  13.265  31.225  1.00  0.00    -0.336 N 
ATOM     12  H7  UNL     1      19.835  13.862  30.676  1.00  0.00     0.168 HD
HETATM   13  C13 UNL     1      19.729  12.632  32.288  1.00  0.00     0.145 A 
HETATM   14  N8  UNL     1      20.947  12.570  32.852  1.00  0.00    -0.207 N 
HETATM   15  N9  UNL     1      22.183  13.076  32.695  1.00  0.00    -0.122 N 
ATOM     16  H9  UNL     1      22.475  13.720  31.960  1.00  0.00     0.206 HD
ENDROOT
BRANCH   5  17
HETATM   17  C4  UNL     1      19.315  10.327  35.140  1.00  0.00     0.123 C 
BRANCH  17  18
HETATM   18  S1  UNL     1      19.332  11.337  36.705  1.00  0.00    -0.121 SA
BRANCH  18  19
HETATM   19  C5  UNL     1      18.698  12.980  36.405  1.00  0.00     0.059 A 
HETATM   20  C6  UNL     1      17.338  13.126  36.200  1.00  0.00     0.074 A 
HETATM   21  S2  UNL     1      16.808  14.730  35.939  1.00  0.00    -0.084 SA
HETATM   22  C7  UNL     1      18.067  15.873  35.980  1.00  0.00     0.115 A 
HETATM   23  N3  UNL     1      17.891  17.276  35.795  1.00  0.00    -0.092 NA
HETATM   24  C8  UNL     1      19.329  15.333  36.218  1.00  0.00     0.128 A 
HETATM   25  N4  UNL     1      20.412  16.287  36.250  1.00  0.00    -0.096 NA
HETATM   26  C9  UNL     1      19.602  14.018  36.409  1.00  0.00     0.215 A 
HETATM   27  O1  UNL     1      20.834  13.733  36.619  1.00  0.00    -0.285 OA
ENDBRANCH  18  19
ENDBRANCH  17  18
ENDBRANCH   5  17
BRANCH   7  28
HETATM   28  N5  UNL     1      16.797  10.974  33.286  1.00  0.00    -0.385 N 
ATOM     29  H52 UNL     1      16.152  10.377  32.768  1.00  0.00     0.157 HD
ATOM     30  H51 UNL     1      16.794  10.963  34.306  1.00  0.00     0.157 HD
ENDBRANCH   7  28
BRANCH   1  31
HETATM   31  N1  UNL     1      24.219  12.791  33.927  1.00  0.00    -0.233 N 
ATOM     32  H12 UNL     1      24.665  13.352  34.653  1.00  0.00     0.174 HD
ATOM     33  H11 UNL     1      24.977  12.378  33.383  1.00  0.00     0.174 HD
ENDBRANCH   1  31
TORSDOF 5
ENDMDL
