MODEL 1
REMARK VINA RESULT: -6.767292733      0.000      0.000
REMARK  10 active torsions:
REMARK  status: ('A' for Active; 'I' for Inactive)
REMARK    1  A    between atoms: N1_1  and  C1_4 
REMARK    2  A    between atoms: N5_14  and  C4_15 
REMARK    3  A    between atoms: C4_15  and  C5_16 
REMARK    4  A    between atoms: C5_16  and  C6_17 
REMARK    5  A    between atoms: C6_17  and  C7_23 
REMARK    6  A    between atoms: N6_18  and  N7_20 
REMARK       I    between atoms: C7_23  and  N8_25 
REMARK       I    between atoms: N8_25  and  C8_27 
REMARK       I    between atoms: C8_27  and  N9_28 
REMARK       I    between atoms: C8_27  and  N10_32 
REMARK    7  A    between atoms: N10_32  and  C9_35 
REMARK    8  A    between atoms: C10_37  and  C11_38 
REMARK    9  A    between atoms: C11_38  and  O4_39 
REMARK   10  A    between atoms: C12_41  and  O5_42 
ROOT
HETATM    1  C7  UNL     1     -23.281   1.608  12.313  1.00  0.00     0.268 C 
HETATM    2  O2  UNL     1     -24.221   2.230  12.915  1.00  0.00    -0.266 OA
HETATM    3  N8  UNL     1     -22.703   2.192  11.160  1.00  0.00    -0.306 N 
ATOM      4  H8  UNL     1     -21.950   1.713  10.667  1.00  0.00     0.166 HD
HETATM    5  C8  UNL     1     -23.178   3.465  10.686  1.00  0.00     0.488 C 
HETATM    6  N9  UNL     1     -22.172   4.491  10.902  1.00  0.00    -0.032 N 
ATOM      7  H91 UNL     1     -22.510   5.392  10.566  1.00  0.00     0.278 HD
ATOM      8  H92 UNL     1     -21.277   4.240  10.484  1.00  0.00     0.278 HD
ATOM      9  H93 UNL     1     -21.876   4.534  11.877  1.00  0.00     0.278 HD
HETATM   10  N10 UNL     1     -23.614   3.417   9.310  1.00  0.00     0.006 N 
ATOM     11 1H10 UNL     1     -24.294   2.670   9.179  1.00  0.00     0.285 HD
ATOM     12 2H10 UNL     1     -22.862   3.077   8.711  1.00  0.00     0.285 HD
ENDROOT
BRANCH   1  13
HETATM   13  C6  UNL     1     -22.846   0.323  12.840  1.00  0.00     0.094 C 
HETATM   14  N6  UNL     1     -21.567   0.073  12.747  1.00  0.00    -0.306 N 
ATOM     15  H6  UNL     1     -20.975   0.778  12.307  1.00  0.00     0.186 HD
BRANCH  13  16
HETATM   16  C5  UNL     1     -23.795  -0.607  13.450  1.00  0.00     0.086 C 
BRANCH  16  17
HETATM   17  C4  UNL     1     -24.874  -1.104  12.522  1.00  0.00     0.158 C 
BRANCH  17  18
HETATM   18  N5  UNL     1     -26.200  -0.776  13.010  1.00  0.00    -0.259 N 
HETATM   19  N4  UNL     1     -26.917  -1.466  13.862  1.00  0.00    -0.238 N 
HETATM   20  N3  UNL     1     -28.097  -0.858  14.067  1.00  0.00    -0.278 N 
ATOM     21  H4  UNL     1     -26.622  -2.336  14.306  1.00  0.00     0.208 HD
HETATM   22  C3  UNL     1     -28.135   0.263  13.317  1.00  0.00     0.164 A 
ATOM     23  H3  UNL     1     -28.839  -1.189  14.684  1.00  0.00     0.189 HD
HETATM   24  C2  UNL     1     -29.079   1.255  13.135  1.00  0.00     0.291 A 
HETATM   25  C15 UNL     1     -26.929   0.296  12.659  1.00  0.00     0.172 A 
HETATM   26  N2  UNL     1     -28.799   2.268  12.295  1.00  0.00    -0.154 N 
HETATM   27  O1  UNL     1     -30.188   1.240  13.730  1.00  0.00    -0.265 OA
HETATM   28  C1  UNL     1     -27.608   2.289  11.654  1.00  0.00     0.680 A 
ATOM     29  H2  UNL     1     -29.478   3.014  12.143  1.00  0.00     0.187 HD
HETATM   30  N12 UNL     1     -26.679   1.329  11.821  1.00  0.00    -0.173 N 
ATOM     31  H12 UNL     1     -25.793   1.380  11.319  1.00  0.00     0.186 HD
BRANCH  28  32
HETATM   32  N1  UNL     1     -27.397   3.291  10.861  1.00  0.00    -0.234 N 
ATOM     33  H12 UNL     1     -27.775   4.214  11.069  1.00  0.00     0.174 HD
ATOM     34  H11 UNL     1     -26.839   3.101  10.028  1.00  0.00     0.174 HD
ENDBRANCH  28  32
ENDBRANCH  17  18
ENDBRANCH  16  17
ENDBRANCH  13  16
BRANCH  14  35
HETATM   35  N7  UNL     1     -20.962  -1.080  13.204  1.00  0.00    -0.345 N 
ATOM     36  H72 UNL     1     -20.940  -1.217  14.215  1.00  0.00     0.176 HD
ATOM     37  H71 UNL     1     -20.544  -1.789  12.601  1.00  0.00     0.176 HD
ENDBRANCH  14  35
ENDBRANCH   1  13
BRANCH  10  38
HETATM   38  C9  UNL     1     -24.127   4.648   8.810  1.00  0.00     0.419 C 
HETATM   39  O3  UNL     1     -25.376   5.000   9.311  1.00  0.00    -0.342 OA
HETATM   40  C10 UNL     1     -25.563   6.341   8.968  1.00  0.00     0.178 C 
HETATM   41  C12 UNL     1     -26.525   6.582   7.869  1.00  0.00     0.167 C 
HETATM   42  C13 UNL     1     -26.569   5.561   6.781  1.00  0.00     0.157 C 
HETATM   43  N11 UNL     1     -25.316   4.965   6.448  1.00  0.00    -0.355 N 
HETATM   44  C14 UNL     1     -24.309   4.494   7.339  1.00  0.00     0.274 C 
ATOM     45  H11 UNL     1     -25.118   4.865   5.452  1.00  0.00     0.162 HD
HETATM   46  O6  UNL     1     -23.385   3.813   6.788  1.00  0.00    -0.269 OA
BRANCH  40  47
HETATM   47  C11 UNL     1     -26.135   7.012  10.225  1.00  0.00     0.198 C 
BRANCH  47  48
HETATM   48  O4  UNL     1     -26.246   6.083  11.244  1.00  0.00    -0.398 OA
ATOM     49  H4  UNL     1     -26.024   6.487  12.075  1.00  0.00     0.209 HD
ENDBRANCH  47  48
ENDBRANCH  40  47
BRANCH  41  50
HETATM   50  O5  UNL     1     -26.250   7.859   7.330  1.00  0.00    -0.391 OA
ATOM     51  H5  UNL     1     -25.855   7.733   6.476  1.00  0.00     0.210 HD
ENDBRANCH  41  50
ENDBRANCH  10  38
TORSDOF 10
ENDMDL
MODEL 2
REMARK VINA RESULT: -6.625607994      1.496      1.692
REMARK  10 active torsions:
REMARK  status: ('A' for Active; 'I' for Inactive)
REMARK    1  A    between atoms: N1_1  and  C1_4 
REMARK    2  A    between atoms: N5_14  and  C4_15 
REMARK    3  A    between atoms: C4_15  and  C5_16 
REMARK    4  A    between atoms: C5_16  and  C6_17 
REMARK    5  A    between atoms: C6_17  and  C7_23 
REMARK    6  A    between atoms: N6_18  and  N7_20 
REMARK       I    between atoms: C7_23  and  N8_25 
REMARK       I    between atoms: N8_25  and  C8_27 
REMARK       I    between atoms: C8_27  and  N9_28 
REMARK       I    between atoms: C8_27  and  N10_32 
REMARK    7  A    between atoms: N10_32  and  C9_35 
REMARK    8  A    between atoms: C10_37  and  C11_38 
REMARK    9  A    between atoms: C11_38  and  O4_39 
REMARK   10  A    between atoms: C12_41  and  O5_42 
ROOT
HETATM    1  C7  UNL     1     -22.885   1.618  11.226  1.00  0.00     0.268 C 
HETATM    2  O2  UNL     1     -22.081   2.606  11.319  1.00  0.00    -0.266 OA
HETATM    3  N8  UNL     1     -23.930   1.673  10.272  1.00  0.00    -0.306 N 
ATOM      4  H8  UNL     1     -24.581   0.893  10.182  1.00  0.00     0.166 HD
HETATM    5  C8  UNL     1     -24.073   2.831   9.430  1.00  0.00     0.488 C 
HETATM    6  N9  UNL     1     -23.730   2.501   8.058  1.00  0.00    -0.032 N 
ATOM      7  H91 UNL     1     -23.831   3.322   7.462  1.00  0.00     0.278 HD
ATOM      8  H92 UNL     1     -24.270   1.709   7.710  1.00  0.00     0.278 HD
ATOM      9  H93 UNL     1     -22.799   2.090   7.987  1.00  0.00     0.278 HD
HETATM   10  N10 UNL     1     -25.382   3.432   9.530  1.00  0.00     0.006 N 
ATOM     11 1H10 UNL     1     -25.611   3.624  10.505  1.00  0.00     0.285 HD
ATOM     12 2H10 UNL     1     -26.105   2.747   9.312  1.00  0.00     0.285 HD
ENDROOT
BRANCH   1  13
HETATM   13  C6  UNL     1     -22.691   0.476  12.108  1.00  0.00     0.094 C 
HETATM   14  N6  UNL     1     -21.450   0.162  12.368  1.00  0.00    -0.306 N 
ATOM     15  H6  UNL     1     -20.716   0.721  11.933  1.00  0.00     0.186 HD
BRANCH  13  16
HETATM   16  C5  UNL     1     -23.830  -0.248  12.672  1.00  0.00     0.086 C 
BRANCH  16  17
HETATM   17  C4  UNL     1     -24.518   0.453  13.814  1.00  0.00     0.158 C 
BRANCH  17  18
HETATM   18  N5  UNL     1     -25.933   0.137  13.868  1.00  0.00    -0.259 N 
HETATM   19  N4  UNL     1     -26.486  -0.900  14.447  1.00  0.00    -0.238 N 
HETATM   20  N3  UNL     1     -27.818  -0.863  14.280  1.00  0.00    -0.278 N 
ATOM     21  H4  UNL     1     -25.979  -1.629  14.950  1.00  0.00     0.208 HD
HETATM   22  C3  UNL     1     -28.128   0.241  13.569  1.00  0.00     0.164 A 
ATOM     23  H3  UNL     1     -28.482  -1.552  14.632  1.00  0.00     0.189 HD
HETATM   24  C2  UNL     1     -29.317   0.777  13.113  1.00  0.00     0.291 A 
HETATM   25  C15 UNL     1     -26.925   0.858  13.319  1.00  0.00     0.172 A 
HETATM   26  N2  UNL     1     -29.283   1.926  12.414  1.00  0.00    -0.154 N 
HETATM   27  O1  UNL     1     -30.426   0.226  13.332  1.00  0.00    -0.265 OA
HETATM   28  C1  UNL     1     -28.092   2.523  12.175  1.00  0.00     0.680 A 
ATOM     29  H2  UNL     1     -30.146   2.343  12.066  1.00  0.00     0.187 HD
HETATM   30  N12 UNL     1     -26.926   2.012  12.613  1.00  0.00    -0.173 N 
ATOM     31  H12 UNL     1     -26.048   2.492  12.412  1.00  0.00     0.186 HD
BRANCH  28  32
HETATM   32  N1  UNL     1     -28.125   3.627  11.499  1.00  0.00    -0.234 N 
ATOM     33  H12 UNL     1     -28.531   4.474  11.895  1.00  0.00     0.174 HD
ATOM     34  H11 UNL     1     -27.727   3.596  10.560  1.00  0.00     0.174 HD
ENDBRANCH  28  32
ENDBRANCH  17  18
ENDBRANCH  16  17
ENDBRANCH  13  16
BRANCH  14  35
HETATM   35  N7  UNL     1     -21.064  -0.874  13.193  1.00  0.00    -0.345 N 
ATOM     36  H72 UNL     1     -21.479  -0.898  14.125  1.00  0.00     0.176 HD
ATOM     37  H71 UNL     1     -20.402  -1.604  12.931  1.00  0.00     0.176 HD
ENDBRANCH  14  35
ENDBRANCH   1  13
BRANCH  10  38
HETATM   38  C9  UNL     1     -25.555   4.604   8.739  1.00  0.00     0.419 C 
HETATM   39  O3  UNL     1     -25.940   5.733   9.456  1.00  0.00    -0.342 OA
HETATM   40  C10 UNL     1     -25.752   6.816   8.595  1.00  0.00     0.178 C 
HETATM   41  C12 UNL     1     -26.993   7.400   8.037  1.00  0.00     0.167 C 
HETATM   42  C13 UNL     1     -28.109   6.451   7.748  1.00  0.00     0.157 C 
HETATM   43  N11 UNL     1     -27.712   5.163   7.280  1.00  0.00    -0.355 N 
HETATM   44  C14 UNL     1     -26.662   4.338   7.778  1.00  0.00     0.274 C 
ATOM     45  H11 UNL     1     -28.244   4.788   6.495  1.00  0.00     0.162 HD
HETATM   46  O6  UNL     1     -26.658   3.148   7.324  1.00  0.00    -0.269 OA
BRANCH  40  47
HETATM   47  C11 UNL     1     -25.082   7.906   9.443  1.00  0.00     0.198 C 
BRANCH  47  48
HETATM   48  O4  UNL     1     -25.648   9.137   9.159  1.00  0.00    -0.398 OA
ATOM     49  H4  UNL     1     -26.155   9.438   9.904  1.00  0.00     0.209 HD
ENDBRANCH  47  48
ENDBRANCH  40  47
BRANCH  41  50
HETATM   50  O5  UNL     1     -26.644   8.115   6.869  1.00  0.00    -0.391 OA
ATOM     51  H5  UNL     1     -27.444   8.291   6.389  1.00  0.00     0.210 HD
ENDBRANCH  41  50
ENDBRANCH  10  38
TORSDOF 10
ENDMDL
MODEL 3
REMARK VINA RESULT: -6.592160195      1.990      4.818
REMARK  10 active torsions:
REMARK  status: ('A' for Active; 'I' for Inactive)
REMARK    1  A    between atoms: N1_1  and  C1_4 
REMARK    2  A    between atoms: N5_14  and  C4_15 
REMARK    3  A    between atoms: C4_15  and  C5_16 
REMARK    4  A    between atoms: C5_16  and  C6_17 
REMARK    5  A    between atoms: C6_17  and  C7_23 
REMARK    6  A    between atoms: N6_18  and  N7_20 
REMARK       I    between atoms: C7_23  and  N8_25 
REMARK       I    between atoms: N8_25  and  C8_27 
REMARK       I    between atoms: C8_27  and  N9_28 
REMARK       I    between atoms: C8_27  and  N10_32 
REMARK    7  A    between atoms: N10_32  and  C9_35 
REMARK    8  A    between atoms: C10_37  and  C11_38 
REMARK    9  A    between atoms: C11_38  and  O4_39 
REMARK   10  A    between atoms: C12_41  and  O5_42 
ROOT
HETATM    1  C7  UNL     1     -27.222   0.941  12.075  1.00  0.00     0.268 C 
HETATM    2  O2  UNL     1     -27.359   0.574  10.859  1.00  0.00    -0.266 OA
HETATM    3  N8  UNL     1     -27.478   2.292  12.414  1.00  0.00    -0.306 N 
ATOM      4  H8  UNL     1     -27.377   2.605  13.380  1.00  0.00     0.166 HD
HETATM    5  C8  UNL     1     -27.882   3.223  11.394  1.00  0.00     0.488 C 
HETATM    6  N9  UNL     1     -29.272   3.603  11.581  1.00  0.00    -0.032 N 
ATOM      7  H91 UNL     1     -29.558   4.263  10.858  1.00  0.00     0.278 HD
ATOM      8  H92 UNL     1     -29.445   3.967  12.518  1.00  0.00     0.278 HD
ATOM      9  H93 UNL     1     -29.887   2.790  11.619  1.00  0.00     0.278 HD
HETATM   10  N10 UNL     1     -27.014   4.374  11.318  1.00  0.00     0.006 N 
ATOM     11 1H10 UNL     1     -26.042   4.080  11.219  1.00  0.00     0.285 HD
ATOM     12 2H10 UNL     1     -26.964   4.843  12.222  1.00  0.00     0.285 HD
ENDROOT
BRANCH   1  13
HETATM   13  C6  UNL     1     -26.808  -0.047  13.060  1.00  0.00     0.094 C 
HETATM   14  N6  UNL     1     -27.569  -0.151  14.117  1.00  0.00    -0.306 N 
ATOM     15  H6  UNL     1     -28.379   0.467  14.183  1.00  0.00     0.186 HD
BRANCH  13  16
HETATM   16  C5  UNL     1     -25.621  -0.875  12.851  1.00  0.00     0.086 C 
BRANCH  16  17
HETATM   17  C4  UNL     1     -24.338  -0.104  12.682  1.00  0.00     0.158 C 
BRANCH  17  18
HETATM   18  N5  UNL     1     -24.230   0.484  11.360  1.00  0.00    -0.259 N 
HETATM   19  N4  UNL     1     -24.294  -0.144  10.212  1.00  0.00    -0.238 N 
HETATM   20  N3  UNL     1     -24.141   0.728   9.203  1.00  0.00    -0.278 N 
ATOM     21  H4  UNL     1     -24.438  -1.148  10.101  1.00  0.00     0.208 HD
HETATM   22  C3  UNL     1     -23.974   1.961   9.725  1.00  0.00     0.164 A 
ATOM     23  H3  UNL     1     -24.150   0.498   8.209  1.00  0.00     0.189 HD
HETATM   24  C2  UNL     1     -23.780   3.211   9.172  1.00  0.00     0.291 A 
HETATM   25  C15 UNL     1     -24.034   1.784  11.088  1.00  0.00     0.172 A 
HETATM   26  N2  UNL     1     -23.648   4.269   9.993  1.00  0.00    -0.154 N 
HETATM   27  O1  UNL     1     -23.723   3.390   7.928  1.00  0.00    -0.265 OA
HETATM   28  C1  UNL     1     -23.709   4.082  11.332  1.00  0.00     0.680 A 
ATOM     29  H2  UNL     1     -23.505   5.204   9.610  1.00  0.00     0.187 HD
HETATM   30  N12 UNL     1     -23.898   2.869  11.886  1.00  0.00    -0.173 N 
ATOM     31  H12 UNL     1     -23.938   2.769  12.900  1.00  0.00     0.186 HD
BRANCH  28  32
HETATM   32  N1  UNL     1     -23.578   5.138  12.069  1.00  0.00    -0.234 N 
ATOM     33  H12 UNL     1     -22.660   5.441  12.395  1.00  0.00     0.174 HD
ATOM     34  H11 UNL     1     -24.435   5.640  12.302  1.00  0.00     0.174 HD
ENDBRANCH  28  32
ENDBRANCH  17  18
ENDBRANCH  16  17
ENDBRANCH  13  16
BRANCH  14  35
HETATM   35  N7  UNL     1     -27.353  -1.039  15.150  1.00  0.00    -0.345 N 
ATOM     36  H72 UNL     1     -26.381  -1.212  15.410  1.00  0.00     0.176 HD
ATOM     37  H71 UNL     1     -28.092  -1.523  15.658  1.00  0.00     0.176 HD
ENDBRANCH  14  35
ENDBRANCH   1  13
BRANCH  10  38
HETATM   38  C9  UNL     1     -27.356   5.306  10.296  1.00  0.00     0.419 C 
HETATM   39  O3  UNL     1     -26.353   5.530   9.358  1.00  0.00    -0.342 OA
HETATM   40  C10 UNL     1     -26.963   6.199   8.296  1.00  0.00     0.178 C 
HETATM   41  C12 UNL     1     -26.647   7.641   8.193  1.00  0.00     0.167 C 
HETATM   42  C13 UNL     1     -26.458   8.378   9.477  1.00  0.00     0.157 C 
HETATM   43  N11 UNL     1     -27.292   7.956  10.555  1.00  0.00    -0.355 N 
HETATM   44  C14 UNL     1     -27.599   6.622  10.951  1.00  0.00     0.274 C 
ATOM     45  H11 UNL     1     -27.721   8.698  11.108  1.00  0.00     0.162 HD
HETATM   46  O6  UNL     1     -28.193   6.522  12.073  1.00  0.00    -0.269 OA
BRANCH  40  47
HETATM   47  C11 UNL     1     -26.427   5.527   7.023  1.00  0.00     0.198 C 
BRANCH  47  48
HETATM   48  O4  UNL     1     -25.059   5.718   6.933  1.00  0.00    -0.398 OA
ATOM     49  H4  UNL     1     -24.659   5.590   7.785  1.00  0.00     0.209 HD
ENDBRANCH  47  48
ENDBRANCH  40  47
BRANCH  41  50
HETATM   50  O5  UNL     1     -27.665   8.251   7.425  1.00  0.00    -0.391 OA
ATOM     51  H5  UNL     1     -27.860   7.675   6.695  1.00  0.00     0.210 HD
ENDBRANCH  41  50
ENDBRANCH  10  38
TORSDOF 10
ENDMDL
MODEL 4
REMARK VINA RESULT: -6.580993752      2.343      6.138
REMARK  10 active torsions:
REMARK  status: ('A' for Active; 'I' for Inactive)
REMARK    1  A    between atoms: N1_1  and  C1_4 
REMARK    2  A    between atoms: N5_14  and  C4_15 
REMARK    3  A    between atoms: C4_15  and  C5_16 
REMARK    4  A    between atoms: C5_16  and  C6_17 
REMARK    5  A    between atoms: C6_17  and  C7_23 
REMARK    6  A    between atoms: N6_18  and  N7_20 
REMARK       I    between atoms: C7_23  and  N8_25 
REMARK       I    between atoms: N8_25  and  C8_27 
REMARK       I    between atoms: C8_27  and  N9_28 
REMARK       I    between atoms: C8_27  and  N10_32 
REMARK    7  A    between atoms: N10_32  and  C9_35 
REMARK    8  A    between atoms: C10_37  and  C11_38 
REMARK    9  A    between atoms: C11_38  and  O4_39 
REMARK   10  A    between atoms: C12_41  and  O5_42 
ROOT
HETATM    1  C7  UNL     1     -24.176  -0.159  12.477  1.00  0.00     0.268 C 
HETATM    2  O2  UNL     1     -24.662  -1.004  11.653  1.00  0.00    -0.266 OA
HETATM    3  N8  UNL     1     -25.050   0.503  13.374  1.00  0.00    -0.306 N 
ATOM      4  H8  UNL     1     -24.681   1.180  14.041  1.00  0.00     0.166 HD
HETATM    5  C8  UNL     1     -26.460   0.218  13.342  1.00  0.00     0.488 C 
HETATM    6  N9  UNL     1     -26.853  -0.510  14.536  1.00  0.00    -0.032 N 
ATOM      7  H91 UNL     1     -27.853  -0.711  14.513  1.00  0.00     0.278 HD
ATOM      8  H92 UNL     1     -26.584  -0.018  15.388  1.00  0.00     0.278 HD
ATOM      9  H93 UNL     1     -26.297  -1.355  14.667  1.00  0.00     0.278 HD
HETATM   10  N10 UNL     1     -27.261   1.403  13.143  1.00  0.00     0.006 N 
ATOM     11 1H10 UNL     1     -26.944   1.912  12.319  1.00  0.00     0.285 HD
ATOM     12 2H10 UNL     1     -27.058   2.095  13.865  1.00  0.00     0.285 HD
ENDROOT
BRANCH   1  13
HETATM   13  C6  UNL     1     -22.741   0.089  12.459  1.00  0.00     0.094 C 
HETATM   14  N6  UNL     1     -22.009  -0.757  13.134  1.00  0.00    -0.306 N 
ATOM     15  H6  UNL     1     -22.486  -1.510  13.630  1.00  0.00     0.186 HD
BRANCH  13  16
HETATM   16  C5  UNL     1     -22.175   1.209  11.708  1.00  0.00     0.086 C 
BRANCH  16  17
HETATM   17  C4  UNL     1     -23.034   1.704  10.574  1.00  0.00     0.158 C 
BRANCH  17  18
HETATM   18  N5  UNL     1     -23.691   2.955  10.900  1.00  0.00    -0.259 N 
HETATM   19  N4  UNL     1     -23.201   3.939  11.612  1.00  0.00    -0.238 N 
HETATM   20  N3  UNL     1     -24.103   4.929  11.711  1.00  0.00    -0.278 N 
ATOM     21  H4  UNL     1     -22.270   3.952  12.030  1.00  0.00     0.208 HD
HETATM   22  C3  UNL     1     -25.213   4.563  11.037  1.00  0.00     0.164 A 
ATOM     23  H3  UNL     1     -23.972   5.807  12.212  1.00  0.00     0.189 HD
HETATM   24  C2  UNL     1     -26.430   5.174  10.804  1.00  0.00     0.291 A 
HETATM   25  C15 UNL     1     -24.932   3.316  10.532  1.00  0.00     0.172 A 
HETATM   26  N2  UNL     1     -27.349   4.524  10.067  1.00  0.00    -0.154 N 
HETATM   27  O1  UNL     1     -26.703   6.315  11.258  1.00  0.00    -0.265 OA
HETATM   28  C1  UNL     1     -27.060   3.296   9.576  1.00  0.00     0.680 A 
ATOM     29  H2  UNL     1     -28.256   4.953   9.879  1.00  0.00     0.187 HD
HETATM   30  N12 UNL     1     -25.879   2.689   9.795  1.00  0.00    -0.173 N 
ATOM     31  H12 UNL     1     -25.699   1.763   9.408  1.00  0.00     0.186 HD
BRANCH  28  32
HETATM   32  N1  UNL     1     -27.984   2.723   8.873  1.00  0.00    -0.234 N 
ATOM     33  H12 UNL     1     -28.971   2.902   9.057  1.00  0.00     0.174 HD
ATOM     34  H11 UNL     1     -27.669   2.091   8.137  1.00  0.00     0.174 HD
ENDBRANCH  28  32
ENDBRANCH  17  18
ENDBRANCH  16  17
ENDBRANCH  13  16
BRANCH  14  35
HETATM   35  N7  UNL     1     -20.633  -0.700  13.222  1.00  0.00    -0.345 N 
ATOM     36  H72 UNL     1     -20.109  -0.959  12.386  1.00  0.00     0.176 HD
ATOM     37  H71 UNL     1     -20.121  -0.419  14.058  1.00  0.00     0.176 HD
ENDBRANCH  14  35
ENDBRANCH   1  13
BRANCH  10  38
HETATM   38  C9  UNL     1     -28.663   1.162  13.069  1.00  0.00     0.419 C 
HETATM   39  O3  UNL     1     -29.019   0.040  12.327  1.00  0.00    -0.342 OA
HETATM   40  C10 UNL     1     -30.360  -0.208  12.626  1.00  0.00     0.178 C 
HETATM   41  C12 UNL     1     -31.320   0.147  11.557  1.00  0.00     0.167 C 
HETATM   42  C13 UNL     1     -30.990   1.346  10.731  1.00  0.00     0.157 C 
HETATM   43  N11 UNL     1     -30.348   2.412  11.428  1.00  0.00    -0.355 N 
HETATM   44  C14 UNL     1     -29.282   2.323  12.370  1.00  0.00     0.274 C 
ATOM     45  H11 UNL     1     -30.693   3.351  11.228  1.00  0.00     0.162 HD
HETATM   46  O6  UNL     1     -28.750   3.438  12.681  1.00  0.00    -0.269 OA
BRANCH  40  47
HETATM   47  C11 UNL     1     -30.461  -1.726  12.839  1.00  0.00     0.198 C 
BRANCH  47  48
HETATM   48  O4  UNL     1     -29.405  -2.161  13.621  1.00  0.00    -0.398 OA
ATOM     49  H4  UNL     1     -28.834  -2.722  13.108  1.00  0.00     0.209 HD
ENDBRANCH  47  48
ENDBRANCH  40  47
BRANCH  41  50
HETATM   50  O5  UNL     1     -32.592   0.301  12.156  1.00  0.00    -0.391 OA
ATOM     51  H5  UNL     1     -33.247   0.134  11.489  1.00  0.00     0.210 HD
ENDBRANCH  41  50
ENDBRANCH  10  38
TORSDOF 10
ENDMDL
MODEL 5
REMARK VINA RESULT: -6.549230386      1.950      2.950
REMARK  10 active torsions:
REMARK  status: ('A' for Active; 'I' for Inactive)
REMARK    1  A    between atoms: N1_1  and  C1_4 
REMARK    2  A    between atoms: N5_14  and  C4_15 
REMARK    3  A    between atoms: C4_15  and  C5_16 
REMARK    4  A    between atoms: C5_16  and  C6_17 
REMARK    5  A    between atoms: C6_17  and  C7_23 
REMARK    6  A    between atoms: N6_18  and  N7_20 
REMARK       I    between atoms: C7_23  and  N8_25 
REMARK       I    between atoms: N8_25  and  C8_27 
REMARK       I    between atoms: C8_27  and  N9_28 
REMARK       I    between atoms: C8_27  and  N10_32 
REMARK    7  A    between atoms: N10_32  and  C9_35 
REMARK    8  A    between atoms: C10_37  and  C11_38 
REMARK    9  A    between atoms: C11_38  and  O4_39 
REMARK   10  A    between atoms: C12_41  and  O5_42 
ROOT
HETATM    1  C7  UNL     1     -23.495   2.374  11.514  1.00  0.00     0.268 C 
HETATM    2  O2  UNL     1     -22.759   3.401  11.329  1.00  0.00    -0.266 OA
HETATM    3  N8  UNL     1     -24.841   2.408  11.076  1.00  0.00    -0.306 N 
ATOM      4  H8  UNL     1     -25.444   1.597  11.213  1.00  0.00     0.166 HD
HETATM    5  C8  UNL     1     -25.357   3.589  10.436  1.00  0.00     0.488 C 
HETATM    6  N9  UNL     1     -25.597   3.334   9.026  1.00  0.00    -0.032 N 
ATOM      7  H91 UNL     1     -25.962   4.171   8.573  1.00  0.00     0.278 HD
ATOM      8  H92 UNL     1     -26.205   2.528   8.883  1.00  0.00     0.278 HD
ATOM      9  H93 UNL     1     -24.763   2.979   8.556  1.00  0.00     0.278 HD
HETATM   10  N10 UNL     1     -26.529   4.112  11.097  1.00  0.00     0.006 N 
ATOM     11 1H10 UNL     1     -26.344   4.252  12.090  1.00  0.00     0.285 HD
ATOM     12 2H10 UNL     1     -27.254   3.397  11.153  1.00  0.00     0.285 HD
ENDROOT
BRANCH   1  13
HETATM   13  C6  UNL     1     -22.916   1.210  12.171  1.00  0.00     0.094 C 
HETATM   14  N6  UNL     1     -21.721   0.867  11.771  1.00  0.00    -0.306 N 
ATOM     15  H6  UNL     1     -21.290   1.420  11.030  1.00  0.00     0.186 HD
BRANCH  13  16
HETATM   16  C5  UNL     1     -23.638   0.497  13.224  1.00  0.00     0.086 C 
BRANCH  16  17
HETATM   17  C4  UNL     1     -24.583  -0.567  12.730  1.00  0.00     0.158 C 
BRANCH  17  18
HETATM   18  N5  UNL     1     -25.915  -0.406  13.281  1.00  0.00    -0.259 N 
HETATM   19  N4  UNL     1     -26.307  -0.713  14.492  1.00  0.00    -0.238 N 
HETATM   20  N3  UNL     1     -27.613  -0.434  14.637  1.00  0.00    -0.278 N 
ATOM     21  H4  UNL     1     -25.709  -1.107  15.219  1.00  0.00     0.208 HD
HETATM   22  C3  UNL     1     -28.073   0.071  13.473  1.00  0.00     0.164 A 
ATOM     23  H3  UNL     1     -28.164  -0.580  15.483  1.00  0.00     0.189 HD
HETATM   24  C2  UNL     1     -29.308   0.524  13.054  1.00  0.00     0.291 A 
HETATM   25  C15 UNL     1     -26.985   0.081  12.632  1.00  0.00     0.172 A 
HETATM   26  N2  UNL     1     -29.437   0.981  11.795  1.00  0.00    -0.154 N 
HETATM   27  O1  UNL     1     -30.313   0.522  13.811  1.00  0.00    -0.265 OA
HETATM   28  C1  UNL     1     -28.359   0.985  10.977  1.00  0.00     0.680 A 
ATOM     29  H2  UNL     1     -30.338   1.322  11.460  1.00  0.00     0.187 HD
HETATM   30  N12 UNL     1     -27.149   0.547  11.372  1.00  0.00    -0.173 N 
ATOM     31  H12 UNL     1     -26.360   0.566  10.725  1.00  0.00     0.186 HD
BRANCH  28  32
HETATM   32  N1  UNL     1     -28.546   1.439   9.778  1.00  0.00    -0.234 N 
ATOM     33  H12 UNL     1     -29.063   0.898   9.087  1.00  0.00     0.174 HD
ATOM     34  H11 UNL     1     -28.148   2.356   9.572  1.00  0.00     0.174 HD
ENDBRANCH  28  32
ENDBRANCH  17  18
ENDBRANCH  16  17
ENDBRANCH  13  16
BRANCH  14  35
HETATM   35  N7  UNL     1     -21.002  -0.194  12.282  1.00  0.00    -0.345 N 
ATOM     36  H72 UNL     1     -20.071  -0.346  11.895  1.00  0.00     0.176 HD
ATOM     37  H71 UNL     1     -21.341  -0.822  13.011  1.00  0.00     0.176 HD
ENDBRANCH  14  35
ENDBRANCH   1  13
BRANCH  10  38
HETATM   38  C9  UNL     1     -27.052   5.303  10.517  1.00  0.00     0.419 C 
HETATM   39  O3  UNL     1     -26.459   6.477  10.972  1.00  0.00    -0.342 OA
HETATM   40  C10 UNL     1     -26.863   7.478  10.087  1.00  0.00     0.178 C 
HETATM   41  C12 UNL     1     -27.879   8.415  10.617  1.00  0.00     0.167 C 
HETATM   42  C13 UNL     1     -28.895   7.843  11.550  1.00  0.00     0.157 C 
HETATM   43  N11 UNL     1     -29.308   6.508  11.264  1.00  0.00    -0.355 N 
HETATM   44  C14 UNL     1     -28.488   5.399  10.906  1.00  0.00     0.274 C 
ATOM     45  H11 UNL     1     -30.309   6.325  11.323  1.00  0.00     0.162 HD
HETATM   46  O6  UNL     1     -29.081   4.272  10.914  1.00  0.00    -0.269 OA
BRANCH  40  47
HETATM   47  C11 UNL     1     -25.600   8.302   9.792  1.00  0.00     0.198 C 
BRANCH  47  48
HETATM   48  O4  UNL     1     -25.851   9.193   8.763  1.00  0.00    -0.398 OA
ATOM     49  H4  UNL     1     -25.036   9.580   8.466  1.00  0.00     0.209 HD
ENDBRANCH  47  48
ENDBRANCH  40  47
BRANCH  41  50
HETATM   50  O5  UNL     1     -28.518   9.026   9.514  1.00  0.00    -0.391 OA
ATOM     51  H5  UNL     1     -28.355   8.485   8.751  1.00  0.00     0.210 HD
ENDBRANCH  41  50
ENDBRANCH  10  38
TORSDOF 10
ENDMDL
