MODEL 1
REMARK VINA RESULT: -6.095103610      0.000      0.000
REMARK  15 active torsions:
REMARK  status: ('A' for Active; 'I' for Inactive)
REMARK    1  A    between atoms: N1_1  and  C1_5 
REMARK    2  A    between atoms: C1_5  and  N2_6 
REMARK    3  A    between atoms: C1_5  and  C2_10 
REMARK       I    between atoms: C2_10  and  N3_12 
REMARK    4  A    between atoms: N3_12  and  C3_14 
REMARK    5  A    between atoms: C3_14  and  C4_15 
REMARK    6  A    between atoms: C3_14  and  C8_23 
REMARK    7  A    between atoms: C4_15  and  C5_16 
REMARK    8  A    between atoms: C8_23  and  O2_24 
REMARK    9  A    between atoms: C8_23  and  N6_26 
REMARK   10  A    between atoms: C10_31  and  N9_32 
REMARK   11  A    between atoms: N9_32  and  C11_34 
REMARK   12  A    between atoms: C13_36  and  C14_37 
REMARK   13  A    between atoms: C14_37  and  O3_38 
REMARK   14  A    between atoms: C15_40  and  O4_41 
REMARK   15  A    between atoms: C16_43  and  N10_44 
ROOT
HETATM    1  N6  UNL     1     -26.807  -0.167  13.613  1.00  0.00    -0.227 N 
HETATM    2  N7  UNL     1     -25.670   0.272  14.151  1.00  0.00    -0.015 NA
HETATM    3  N8  UNL     1     -25.154   1.221  13.381  1.00  0.00    -0.277 N 
ATOM      4  H8  UNL     1     -24.285   1.720  13.569  1.00  0.00     0.184 HD
HETATM    5  C9  UNL     1     -25.953   1.429  12.304  1.00  0.00     0.135 A 
HETATM    6  C10 UNL     1     -25.875   2.285  11.225  1.00  0.00     0.134 A 
HETATM    7  N11 UNL     1     -26.856   2.244  10.307  1.00  0.00    -0.337 N 
ATOM      8  H11 UNL     1     -26.830   2.864   9.497  1.00  0.00     0.168 HD
HETATM    9  C17 UNL     1     -27.867   1.381  10.466  1.00  0.00     0.183 A 
HETATM   10  N12 UNL     1     -27.938   0.553  11.514  1.00  0.00    -0.336 N 
ATOM     11  H12 UNL     1     -28.733  -0.083  11.585  1.00  0.00     0.168 HD
HETATM   12  C18 UNL     1     -27.003   0.527  12.480  1.00  0.00     0.156 A 
ENDROOT
BRANCH   1  13
HETATM   13  C8  UNL     1     -27.680  -1.193  14.136  1.00  0.00     0.264 C 
BRANCH  13  14
HETATM   14  C3  UNL     1     -27.431  -2.544  13.592  1.00  0.00     0.140 C 
BRANCH  14  15
HETATM   15  N3  UNL     1     -26.495  -2.542  12.507  1.00  0.00    -0.349 N 
HETATM   16  C2  UNL     1     -25.490  -3.459  12.205  1.00  0.00     0.276 C 
HETATM   17  O1  UNL     1     -25.275  -4.473  12.882  1.00  0.00    -0.269 OA
ATOM     18  H3  UNL     1     -26.575  -1.755  11.864  1.00  0.00     0.163 HD
BRANCH  16  19
HETATM   19  C1  UNL     1     -24.619  -3.239  11.023  1.00  0.00     0.468 C 
BRANCH  19  20
HETATM   20  N1  UNL     1     -23.236  -3.002  11.395  1.00  0.00    -0.042 N 
ATOM     21  H13 UNL     1     -22.872  -2.143  10.984  1.00  0.00     0.277 HD
ATOM     22  H12 UNL     1     -23.142  -2.749  12.378  1.00  0.00     0.277 HD
ATOM     23  H11 UNL     1     -22.667  -3.812  11.152  1.00  0.00     0.277 HD
ENDBRANCH  19  20
BRANCH  19  24
HETATM   24  N2  UNL     1     -25.122  -2.121  10.233  1.00  0.00    -0.042 N 
ATOM     25  H23 UNL     1     -24.770  -1.225  10.571  1.00  0.00     0.277 HD
ATOM     26  H22 UNL     1     -24.713  -2.099   9.299  1.00  0.00     0.277 HD
ATOM     27  H21 UNL     1     -26.141  -2.145  10.204  1.00  0.00     0.277 HD
ENDBRANCH  19  24
ENDBRANCH  16  19
ENDBRANCH  14  15
BRANCH  14  28
HETATM   28  C4  UNL     1     -28.660  -3.405  13.399  1.00  0.00     0.088 C 
BRANCH  28  29
HETATM   29  C5  UNL     1     -28.879  -4.344  14.540  1.00  0.00     0.027 A 
HETATM   30  C6  UNL     1     -28.703  -5.726  14.502  1.00  0.00     0.114 A 
HETATM   31  N4  UNL     1     -28.977  -6.249  15.695  1.00  0.00    -0.360 N 
HETATM   32  C7  UNL     1     -29.330  -5.233  16.515  1.00  0.00     0.180 A 
ATOM     33  H4  UNL     1     -28.928  -7.237  15.945  1.00  0.00     0.166 HD
HETATM   34  N5  UNL     1     -29.263  -4.100  15.798  1.00  0.00    -0.355 N 
ATOM     35  H5  UNL     1     -29.476  -3.173  16.165  1.00  0.00     0.166 HD
ENDBRANCH  28  29
ENDBRANCH  14  28
ENDBRANCH  13  14
BRANCH  13  36
HETATM   36  O2  UNL     1     -27.573  -1.253  15.545  1.00  0.00    -0.373 OA
ATOM     37  H2  UNL     1     -28.427  -1.470  15.901  1.00  0.00     0.212 HD
ENDBRANCH  13  36
ENDBRANCH   1  13
BRANCH   6  38
HETATM   38  N9  UNL     1     -24.887   3.102  11.102  1.00  0.00    -0.367 N 
ATOM     39  H9  UNL     1     -24.991   4.064  11.425  1.00  0.00     0.161 HD
BRANCH  38  40
HETATM   40  C11 UNL     1     -23.648   2.687  10.523  1.00  0.00     0.116 C 
HETATM   41  C12 UNL     1     -22.643   2.349  11.604  1.00  0.00     0.036 C 
HETATM   42  C13 UNL     1     -22.415   0.876  11.499  1.00  0.00     0.042 C 
HETATM   43  C15 UNL     1     -22.531   0.655   9.991  1.00  0.00     0.156 C 
HETATM   44  C16 UNL     1     -23.817   1.401   9.701  1.00  0.00     0.234 C 
BRANCH  42  45
HETATM   45  C14 UNL     1     -21.076   0.427  12.014  1.00  0.00     0.171 C 
BRANCH  45  46
HETATM   46  O3  UNL     1     -21.262  -0.880  12.518  1.00  0.00    -0.400 OA
ATOM     47  H3  UNL     1     -20.587  -1.417  12.122  1.00  0.00     0.209 HD
ENDBRANCH  45  46
ENDBRANCH  42  45
BRANCH  43  48
HETATM   48  O4  UNL     1     -22.586  -0.674   9.653  1.00  0.00    -0.393 OA
ATOM     49  H4  UNL     1     -22.884  -0.813   8.762  1.00  0.00     0.210 HD
ENDBRANCH  43  48
BRANCH  44  50
HETATM   50  N10 UNL     1     -23.987   1.676   8.309  1.00  0.00    -0.071 N 
ATOM     51 3H10 UNL     1     -24.868   2.155   8.131  1.00  0.00     0.274 HD
ATOM     52 2H10 UNL     1     -23.342   2.402   7.994  1.00  0.00     0.274 HD
ATOM     53 1H10 UNL     1     -23.902   0.833   7.741  1.00  0.00     0.274 HD
ENDBRANCH  44  50
ENDBRANCH  38  40
ENDBRANCH   6  38
TORSDOF 15
ENDMDL
MODEL 2
REMARK VINA RESULT: -6.050905855      2.143      3.804
REMARK  15 active torsions:
REMARK  status: ('A' for Active; 'I' for Inactive)
REMARK    1  A    between atoms: N1_1  and  C1_5 
REMARK    2  A    between atoms: C1_5  and  N2_6 
REMARK    3  A    between atoms: C1_5  and  C2_10 
REMARK       I    between atoms: C2_10  and  N3_12 
REMARK    4  A    between atoms: N3_12  and  C3_14 
REMARK    5  A    between atoms: C3_14  and  C4_15 
REMARK    6  A    between atoms: C3_14  and  C8_23 
REMARK    7  A    between atoms: C4_15  and  C5_16 
REMARK    8  A    between atoms: C8_23  and  O2_24 
REMARK    9  A    between atoms: C8_23  and  N6_26 
REMARK   10  A    between atoms: C10_31  and  N9_32 
REMARK   11  A    between atoms: N9_32  and  C11_34 
REMARK   12  A    between atoms: C13_36  and  C14_37 
REMARK   13  A    between atoms: C14_37  and  O3_38 
REMARK   14  A    between atoms: C15_40  and  O4_41 
REMARK   15  A    between atoms: C16_43  and  N10_44 
ROOT
HETATM    1  N6  UNL     1     -28.040  -1.974  13.523  1.00  0.00    -0.227 N 
HETATM    2  N7  UNL     1     -27.837  -1.193  14.583  1.00  0.00    -0.015 NA
HETATM    3  N8  UNL     1     -27.099  -0.149  14.227  1.00  0.00    -0.277 N 
ATOM      4  H8  UNL     1     -26.802   0.598  14.854  1.00  0.00     0.184 HD
HETATM    5  C9  UNL     1     -26.797  -0.224  12.906  1.00  0.00     0.135 A 
HETATM    6  C10 UNL     1     -26.073   0.587  12.059  1.00  0.00     0.134 A 
HETATM    7  N11 UNL     1     -25.959   0.223  10.770  1.00  0.00    -0.337 N 
ATOM      8  H11 UNL     1     -25.431   0.801  10.116  1.00  0.00     0.168 HD
HETATM    9  C17 UNL     1     -26.545  -0.906  10.353  1.00  0.00     0.183 A 
HETATM   10  N12 UNL     1     -27.247  -1.690  11.180  1.00  0.00    -0.336 N 
ATOM     11  H12 UNL     1     -27.673  -2.539  10.808  1.00  0.00     0.168 HD
HETATM   12  C18 UNL     1     -27.413  -1.402  12.482  1.00  0.00     0.156 A 
ENDROOT
BRANCH   1  13
HETATM   13  C8  UNL     1     -28.793  -3.207  13.481  1.00  0.00     0.264 C 
BRANCH  13  14
HETATM   14  C3  UNL     1     -28.202  -4.312  14.263  1.00  0.00     0.140 C 
BRANCH  14  15
HETATM   15  N3  UNL     1     -28.055  -3.993  15.652  1.00  0.00    -0.349 N 
HETATM   16  C2  UNL     1     -28.953  -4.175  16.702  1.00  0.00     0.276 C 
HETATM   17  O1  UNL     1     -30.071  -4.686  16.553  1.00  0.00    -0.269 OA
ATOM     18  H3  UNL     1     -27.163  -3.571  15.910  1.00  0.00     0.163 HD
BRANCH  16  19
HETATM   19  C1  UNL     1     -28.585  -3.746  18.074  1.00  0.00     0.468 C 
BRANCH  19  20
HETATM   20  N1  UNL     1     -29.725  -3.252  18.822  1.00  0.00    -0.042 N 
ATOM     21  H13 UNL     1     -29.629  -2.264  19.059  1.00  0.00     0.277 HD
ATOM     22  H12 UNL     1     -30.563  -3.186  18.244  1.00  0.00     0.277 HD
ATOM     23  H11 UNL     1     -29.877  -3.829  19.649  1.00  0.00     0.277 HD
ENDBRANCH  19  20
BRANCH  19  24
HETATM   24  N2  UNL     1     -27.545  -2.723  18.016  1.00  0.00    -0.042 N 
ATOM     25  H23 UNL     1     -27.636  -2.134  17.189  1.00  0.00     0.277 HD
ATOM     26  H22 UNL     1     -27.677  -2.004  18.727  1.00  0.00     0.277 HD
ATOM     27  H21 UNL     1     -26.625  -3.158  18.077  1.00  0.00     0.277 HD
ENDBRANCH  19  24
ENDBRANCH  16  19
ENDBRANCH  14  15
BRANCH  14  28
HETATM   28  C4  UNL     1     -27.023  -5.008  13.620  1.00  0.00     0.088 C 
BRANCH  28  29
HETATM   29  C5  UNL     1     -27.070  -6.490  13.803  1.00  0.00     0.027 A 
HETATM   30  C6  UNL     1     -26.187  -7.408  13.239  1.00  0.00     0.114 A 
HETATM   31  N4  UNL     1     -26.514  -8.641  13.618  1.00  0.00    -0.360 N 
HETATM   32  C7  UNL     1     -27.598  -8.547  14.422  1.00  0.00     0.180 A 
ATOM     33  H4  UNL     1     -26.035  -9.501  13.351  1.00  0.00     0.166 HD
HETATM   34  N5  UNL     1     -27.911  -7.245  14.518  1.00  0.00    -0.355 N 
ATOM     35  H5  UNL     1     -28.690  -6.880  15.065  1.00  0.00     0.166 HD
ENDBRANCH  28  29
ENDBRANCH  14  28
ENDBRANCH  13  14
BRANCH  13  36
HETATM   36  O2  UNL     1     -30.112  -2.990  13.943  1.00  0.00    -0.373 OA
ATOM     37  H2  UNL     1     -30.117  -2.201  14.474  1.00  0.00     0.212 HD
ENDBRANCH  13  36
ENDBRANCH   1  13
BRANCH   6  38
HETATM   38  N9  UNL     1     -25.520   1.667  12.493  1.00  0.00    -0.367 N 
ATOM     39  H9  UNL     1     -26.109   2.437  12.812  1.00  0.00     0.161 HD
BRANCH  38  40
HETATM   40  C11 UNL     1     -24.098   1.808  12.536  1.00  0.00     0.116 C 
HETATM   41  C12 UNL     1     -23.483   0.726  13.399  1.00  0.00     0.036 C 
HETATM   42  C13 UNL     1     -22.698  -0.139  12.468  1.00  0.00     0.042 C 
HETATM   43  C15 UNL     1     -22.191   0.886  11.454  1.00  0.00     0.156 C 
HETATM   44  C16 UNL     1     -23.475   1.627  11.144  1.00  0.00     0.234 C 
BRANCH  42  45
HETATM   45  C14 UNL     1     -21.559  -0.866  13.126  1.00  0.00     0.171 C 
BRANCH  45  46
HETATM   46  O3  UNL     1     -21.712  -2.230  12.790  1.00  0.00    -0.400 OA
ATOM     47  H3  UNL     1     -22.647  -2.398  12.774  1.00  0.00     0.209 HD
ENDBRANCH  45  46
ENDBRANCH  42  45
BRANCH  43  48
HETATM   48  O4  UNL     1     -21.622   0.301  10.351  1.00  0.00    -0.393 OA
ATOM     49  H4  UNL     1     -21.024  -0.402  10.576  1.00  0.00     0.210 HD
ENDBRANCH  43  48
BRANCH  44  50
HETATM   50  N10 UNL     1     -23.240   2.879  10.498  1.00  0.00    -0.071 N 
ATOM     51 3H10 UNL     1     -22.311   3.239  10.715  1.00  0.00     0.274 HD
ATOM     52 2H10 UNL     1     -23.135   2.763   9.490  1.00  0.00     0.274 HD
ATOM     53 1H10 UNL     1     -23.963   3.564  10.719  1.00  0.00     0.274 HD
ENDBRANCH  44  50
ENDBRANCH  38  40
ENDBRANCH   6  38
TORSDOF 15
ENDMDL
MODEL 3
REMARK VINA RESULT: -6.024217494      4.216      7.587
REMARK  15 active torsions:
REMARK  status: ('A' for Active; 'I' for Inactive)
REMARK    1  A    between atoms: N1_1  and  C1_5 
REMARK    2  A    between atoms: C1_5  and  N2_6 
REMARK    3  A    between atoms: C1_5  and  C2_10 
REMARK       I    between atoms: C2_10  and  N3_12 
REMARK    4  A    between atoms: N3_12  and  C3_14 
REMARK    5  A    between atoms: C3_14  and  C4_15 
REMARK    6  A    between atoms: C3_14  and  C8_23 
REMARK    7  A    between atoms: C4_15  and  C5_16 
REMARK    8  A    between atoms: C8_23  and  O2_24 
REMARK    9  A    between atoms: C8_23  and  N6_26 
REMARK   10  A    between atoms: C10_31  and  N9_32 
REMARK   11  A    between atoms: N9_32  and  C11_34 
REMARK   12  A    between atoms: C13_36  and  C14_37 
REMARK   13  A    between atoms: C14_37  and  O3_38 
REMARK   14  A    between atoms: C15_40  and  O4_41 
REMARK   15  A    between atoms: C16_43  and  N10_44 
ROOT
HETATM    1  N6  UNL     1     -26.668   5.021  10.168  1.00  0.00    -0.227 N 
HETATM    2  N7  UNL     1     -26.983   4.119   9.240  1.00  0.00    -0.015 NA
HETATM    3  N8  UNL     1     -25.983   3.259   9.102  1.00  0.00    -0.277 N 
ATOM      4  H8  UNL     1     -25.973   2.471   8.453  1.00  0.00     0.184 HD
HETATM    5  C9  UNL     1     -24.974   3.581   9.949  1.00  0.00     0.135 A 
HETATM    6  C10 UNL     1     -23.737   3.023  10.197  1.00  0.00     0.134 A 
HETATM    7  N11 UNL     1     -22.953   3.597  11.125  1.00  0.00    -0.337 N 
ATOM      8  H11 UNL     1     -22.033   3.208  11.334  1.00  0.00     0.168 HD
HETATM    9  C17 UNL     1     -23.391   4.684  11.773  1.00  0.00     0.183 A 
HETATM   10  N12 UNL     1     -24.592   5.222  11.529  1.00  0.00    -0.336 N 
ATOM     11  H12 UNL     1     -24.874   6.050  12.053  1.00  0.00     0.168 HD
HETATM   12  C18 UNL     1     -25.440   4.713  10.619  1.00  0.00     0.156 A 
ENDROOT
BRANCH   1  13
HETATM   13  C8  UNL     1     -27.480   6.127  10.621  1.00  0.00     0.264 C 
BRANCH  13  14
HETATM   14  C3  UNL     1     -28.468   5.775  11.662  1.00  0.00     0.140 C 
BRANCH  14  15
HETATM   15  N3  UNL     1     -28.383   4.403  12.067  1.00  0.00    -0.349 N 
HETATM   16  C2  UNL     1     -29.201   3.328  11.726  1.00  0.00     0.276 C 
HETATM   17  O1  UNL     1     -30.170   3.433  10.961  1.00  0.00    -0.269 OA
ATOM     18  H3  UNL     1     -27.612   4.181  12.696  1.00  0.00     0.163 HD
BRANCH  16  19
HETATM   19  C1  UNL     1     -28.927   1.982  12.288  1.00  0.00     0.468 C 
BRANCH  19  20
HETATM   20  N1  UNL     1     -29.883   1.608  13.313  1.00  0.00    -0.042 N 
ATOM     21  H13 UNL     1     -30.785   1.344  12.917  1.00  0.00     0.277 HD
ATOM     22  H12 UNL     1     -29.646   0.718  13.751  1.00  0.00     0.277 HD
ATOM     23  H11 UNL     1     -29.972   2.358  13.997  1.00  0.00     0.277 HD
ENDBRANCH  19  20
BRANCH  19  24
HETATM   24  N2  UNL     1     -27.572   1.932  12.827  1.00  0.00    -0.042 N 
ATOM     25  H23 UNL     1     -27.459   2.547  13.632  1.00  0.00     0.277 HD
ATOM     26  H22 UNL     1     -27.377   1.044  13.288  1.00  0.00     0.277 HD
ATOM     27  H21 UNL     1     -26.896   2.137  12.091  1.00  0.00     0.277 HD
ENDBRANCH  19  24
ENDBRANCH  16  19
ENDBRANCH  14  15
BRANCH  14  28
HETATM   28  C4  UNL     1     -29.865   6.312  11.442  1.00  0.00     0.088 C 
BRANCH  28  29
HETATM   29  C5  UNL     1     -30.115   7.572  12.204  1.00  0.00     0.027 A 
HETATM   30  C6  UNL     1     -31.234   7.839  12.990  1.00  0.00     0.114 A 
HETATM   31  N4  UNL     1     -31.127   9.051  13.531  1.00  0.00    -0.360 N 
HETATM   32  C7  UNL     1     -29.956   9.583  13.112  1.00  0.00     0.180 A 
ATOM     33  H4  UNL     1     -31.804   9.496  14.149  1.00  0.00     0.166 HD
HETATM   34  N5  UNL     1     -29.367   8.675  12.318  1.00  0.00    -0.355 N 
ATOM     35  H5  UNL     1     -28.466   8.809  11.860  1.00  0.00     0.166 HD
ENDBRANCH  28  29
ENDBRANCH  14  28
ENDBRANCH  13  14
BRANCH  13  36
HETATM   36  O2  UNL     1     -26.658   7.164  11.119  1.00  0.00    -0.373 OA
ATOM     37  H2  UNL     1     -25.773   6.829  11.206  1.00  0.00     0.212 HD
ENDBRANCH  13  36
ENDBRANCH   1  13
BRANCH   6  38
HETATM   38  N9  UNL     1     -23.346   1.977   9.555  1.00  0.00    -0.367 N 
ATOM     39  H9  UNL     1     -23.061   2.067   8.579  1.00  0.00     0.161 HD
BRANCH  38  40
HETATM   40  C11 UNL     1     -23.303   0.693  10.183  1.00  0.00     0.116 C 
HETATM   41  C12 UNL     1     -21.945   0.453  10.807  1.00  0.00     0.036 C 
HETATM   42  C13 UNL     1     -22.176   0.423  12.283  1.00  0.00     0.042 C 
HETATM   43  C15 UNL     1     -23.559  -0.224  12.363  1.00  0.00     0.156 C 
HETATM   44  C16 UNL     1     -24.310   0.602  11.339  1.00  0.00     0.234 C 
BRANCH  42  45
HETATM   45  C14 UNL     1     -21.155  -0.375  13.045  1.00  0.00     0.171 C 
BRANCH  45  46
HETATM   46  O3  UNL     1     -21.546  -1.728  12.935  1.00  0.00    -0.400 OA
ATOM     47  H3  UNL     1     -22.359  -1.811  13.420  1.00  0.00     0.209 HD
ENDBRANCH  45  46
ENDBRANCH  42  45
BRANCH  43  48
HETATM   48  O4  UNL     1     -24.103  -0.156  13.620  1.00  0.00    -0.393 OA
ATOM     49  H4  UNL     1     -23.449  -0.020  14.296  1.00  0.00     0.210 HD
ENDBRANCH  43  48
BRANCH  44  50
HETATM   50  N10 UNL     1     -25.533  -0.014  10.933  1.00  0.00    -0.071 N 
ATOM     51 3H10 UNL     1     -26.036  -0.401  11.731  1.00  0.00     0.274 HD
ATOM     52 2H10 UNL     1     -26.217   0.682  10.635  1.00  0.00     0.274 HD
ATOM     53 1H10 UNL     1     -25.384  -0.719  10.212  1.00  0.00     0.274 HD
ENDBRANCH  44  50
ENDBRANCH  38  40
ENDBRANCH   6  38
TORSDOF 15
ENDMDL
MODEL 4
REMARK VINA RESULT: -6.015670120      2.401      4.622
REMARK  15 active torsions:
REMARK  status: ('A' for Active; 'I' for Inactive)
REMARK    1  A    between atoms: N1_1  and  C1_5 
REMARK    2  A    between atoms: C1_5  and  N2_6 
REMARK    3  A    between atoms: C1_5  and  C2_10 
REMARK       I    between atoms: C2_10  and  N3_12 
REMARK    4  A    between atoms: N3_12  and  C3_14 
REMARK    5  A    between atoms: C3_14  and  C4_15 
REMARK    6  A    between atoms: C3_14  and  C8_23 
REMARK    7  A    between atoms: C4_15  and  C5_16 
REMARK    8  A    between atoms: C8_23  and  O2_24 
REMARK    9  A    between atoms: C8_23  and  N6_26 
REMARK   10  A    between atoms: C10_31  and  N9_32 
REMARK   11  A    between atoms: N9_32  and  C11_34 
REMARK   12  A    between atoms: C13_36  and  C14_37 
REMARK   13  A    between atoms: C14_37  and  O3_38 
REMARK   14  A    between atoms: C15_40  and  O4_41 
REMARK   15  A    between atoms: C16_43  and  N10_44 
ROOT
HETATM    1  N6  UNL     1     -29.018  -3.345  13.578  1.00  0.00    -0.227 N 
HETATM    2  N7  UNL     1     -27.858  -3.925  13.883  1.00  0.00    -0.015 NA
HETATM    3  N8  UNL     1     -26.922  -2.995  14.019  1.00  0.00    -0.277 N 
ATOM      4  H8  UNL     1     -25.945  -3.177  14.251  1.00  0.00     0.184 HD
HETATM    5  C9  UNL     1     -27.455  -1.766  13.805  1.00  0.00     0.135 A 
HETATM    6  C10 UNL     1     -26.925  -0.493  13.825  1.00  0.00     0.134 A 
HETATM    7  N11 UNL     1     -27.741   0.542  13.564  1.00  0.00    -0.337 N 
ATOM      8  H11 UNL     1     -27.382   1.497  13.572  1.00  0.00     0.168 HD
HETATM    9  C17 UNL     1     -29.031   0.308  13.293  1.00  0.00     0.183 A 
HETATM   10  N12 UNL     1     -29.541  -0.930  13.275  1.00  0.00    -0.336 N 
ATOM     11  H12 UNL     1     -30.532  -1.049  13.063  1.00  0.00     0.168 HD
HETATM   12  C18 UNL     1     -28.798  -2.021  13.525  1.00  0.00     0.156 A 
ENDROOT
BRANCH   1  13
HETATM   13  C8  UNL     1     -30.286  -4.000  13.348  1.00  0.00     0.264 C 
BRANCH  13  14
HETATM   14  C3  UNL     1     -30.687  -4.947  14.409  1.00  0.00     0.140 C 
BRANCH  14  15
HETATM   15  N3  UNL     1     -30.128  -4.619  15.687  1.00  0.00    -0.349 N 
HETATM   16  C2  UNL     1     -30.645  -4.839  16.961  1.00  0.00     0.276 C 
HETATM   17  O1  UNL     1     -31.731  -5.400  17.162  1.00  0.00    -0.269 OA
ATOM     18  H3  UNL     1     -29.219  -4.157  15.659  1.00  0.00     0.163 HD
BRANCH  16  19
HETATM   19  C1  UNL     1     -29.886  -4.392  18.156  1.00  0.00     0.468 C 
BRANCH  19  20
HETATM   20  N1  UNL     1     -30.569  -3.336  18.881  1.00  0.00    -0.042 N 
ATOM     21  H13 UNL     1     -30.659  -3.551  19.873  1.00  0.00     0.277 HD
ATOM     22  H12 UNL     1     -29.998  -2.496  18.961  1.00  0.00     0.277 HD
ATOM     23  H11 UNL     1     -31.472  -3.145  18.448  1.00  0.00     0.277 HD
ENDBRANCH  19  20
BRANCH  19  24
HETATM   24  N2  UNL     1     -28.553  -3.945  17.762  1.00  0.00    -0.042 N 
ATOM     25  H23 UNL     1     -28.556  -2.980  17.433  1.00  0.00     0.277 HD
ATOM     26  H22 UNL     1     -27.937  -3.826  18.566  1.00  0.00     0.277 HD
ATOM     27  H21 UNL     1     -28.162  -4.584  17.071  1.00  0.00     0.277 HD
ENDBRANCH  19  24
ENDBRANCH  16  19
ENDBRANCH  14  15
BRANCH  14  28
HETATM   28  C4  UNL     1     -30.644  -6.410  14.027  1.00  0.00     0.088 C 
BRANCH  28  29
HETATM   29  C5  UNL     1     -29.279  -6.998  14.186  1.00  0.00     0.027 A 
HETATM   30  C6  UNL     1     -28.847  -7.771  15.261  1.00  0.00     0.114 A 
HETATM   31  N4  UNL     1     -27.581  -8.136  15.074  1.00  0.00    -0.360 N 
HETATM   32  C7  UNL     1     -27.175  -7.614  13.894  1.00  0.00     0.180 A 
ATOM     33  H4  UNL     1     -27.019  -8.707  15.706  1.00  0.00     0.166 HD
HETATM   34  N5  UNL     1     -28.214  -6.936  13.381  1.00  0.00    -0.355 N 
ATOM     35  H5  UNL     1     -28.192  -6.437  12.491  1.00  0.00     0.166 HD
ENDBRANCH  28  29
ENDBRANCH  14  28
ENDBRANCH  13  14
BRANCH  13  36
HETATM   36  O2  UNL     1     -31.311  -3.038  13.198  1.00  0.00    -0.373 OA
ATOM     37  H2  UNL     1     -31.447  -2.887  12.269  1.00  0.00     0.212 HD
ENDBRANCH  13  36
ENDBRANCH   1  13
BRANCH   6  38
HETATM   38  N9  UNL     1     -25.678  -0.302  14.089  1.00  0.00    -0.367 N 
ATOM     39  H9  UNL     1     -25.296  -0.642  14.972  1.00  0.00     0.161 HD
BRANCH  38  40
HETATM   40  C11 UNL     1     -24.820   0.375  13.168  1.00  0.00     0.116 C 
HETATM   41  C12 UNL     1     -23.418   0.483  13.730  1.00  0.00     0.036 C 
HETATM   42  C13 UNL     1     -22.563  -0.378  12.857  1.00  0.00     0.042 C 
HETATM   43  C15 UNL     1     -23.224  -0.181  11.493  1.00  0.00     0.156 C 
HETATM   44  C16 UNL     1     -24.678  -0.409  11.855  1.00  0.00     0.234 C 
BRANCH  42  45
HETATM   45  C14 UNL     1     -21.117   0.030  12.827  1.00  0.00     0.171 C 
BRANCH  45  46
HETATM   46  O3  UNL     1     -20.409  -0.964  13.539  1.00  0.00    -0.400 OA
ATOM     47  H3  UNL     1     -20.983  -1.251  14.239  1.00  0.00     0.209 HD
ENDBRANCH  45  46
ENDBRANCH  42  45
BRANCH  43  48
HETATM   48  O4  UNL     1     -22.756  -1.058  10.547  1.00  0.00    -0.393 OA
ATOM     49  H4  UNL     1     -23.399  -1.715  10.306  1.00  0.00     0.210 HD
ENDBRANCH  43  48
BRANCH  44  50
HETATM   50  N10 UNL     1     -25.572   0.069  10.849  1.00  0.00    -0.071 N 
ATOM     51 3H10 UNL     1     -26.518  -0.280  10.997  1.00  0.00     0.274 HD
ATOM     52 2H10 UNL     1     -25.751   1.068  10.956  1.00  0.00     0.274 HD
ATOM     53 1H10 UNL     1     -25.240  -0.149   9.909  1.00  0.00     0.274 HD
ENDBRANCH  44  50
ENDBRANCH  38  40
ENDBRANCH   6  38
TORSDOF 15
ENDMDL
MODEL 5
REMARK VINA RESULT: -5.871648838      4.926      8.371
REMARK  15 active torsions:
REMARK  status: ('A' for Active; 'I' for Inactive)
REMARK    1  A    between atoms: N1_1  and  C1_5 
REMARK    2  A    between atoms: C1_5  and  N2_6 
REMARK    3  A    between atoms: C1_5  and  C2_10 
REMARK       I    between atoms: C2_10  and  N3_12 
REMARK    4  A    between atoms: N3_12  and  C3_14 
REMARK    5  A    between atoms: C3_14  and  C4_15 
REMARK    6  A    between atoms: C3_14  and  C8_23 
REMARK    7  A    between atoms: C4_15  and  C5_16 
REMARK    8  A    between atoms: C8_23  and  O2_24 
REMARK    9  A    between atoms: C8_23  and  N6_26 
REMARK   10  A    between atoms: C10_31  and  N9_32 
REMARK   11  A    between atoms: N9_32  and  C11_34 
REMARK   12  A    between atoms: C13_36  and  C14_37 
REMARK   13  A    between atoms: C14_37  and  O3_38 
REMARK   14  A    between atoms: C15_40  and  O4_41 
REMARK   15  A    between atoms: C16_43  and  N10_44 
ROOT
HETATM    1  N6  UNL     1     -26.338   6.393   9.995  1.00  0.00    -0.227 N 
HETATM    2  N7  UNL     1     -26.152   6.128  11.287  1.00  0.00    -0.015 NA
HETATM    3  N8  UNL     1     -25.242   5.171  11.415  1.00  0.00    -0.277 N 
ATOM      4  H8  UNL     1     -24.919   4.785  12.303  1.00  0.00     0.184 HD
HETATM    5  C9  UNL     1     -24.804   4.781  10.192  1.00  0.00     0.135 A 
HETATM    6  C10 UNL     1     -23.883   3.842   9.777  1.00  0.00     0.134 A 
HETATM    7  N11 UNL     1     -23.673   3.696   8.457  1.00  0.00    -0.337 N 
ATOM      8  H11 UNL     1     -22.998   3.011   8.116  1.00  0.00     0.168 HD
HETATM    9  C17 UNL     1     -24.358   4.457   7.595  1.00  0.00     0.183 A 
HETATM   10  N12 UNL     1     -25.251   5.366   8.003  1.00  0.00    -0.336 N 
ATOM     11  H12 UNL     1     -25.744   5.919   7.302  1.00  0.00     0.168 HD
HETATM   12  C18 UNL     1     -25.523   5.580   9.302  1.00  0.00     0.156 A 
ENDROOT
BRANCH   1  13
HETATM   13  C8  UNL     1     -27.240   7.368   9.426  1.00  0.00     0.264 C 
BRANCH  13  14
HETATM   14  C3  UNL     1     -28.665   7.144   9.747  1.00  0.00     0.140 C 
BRANCH  14  15
HETATM   15  N3  UNL     1     -29.011   7.573  11.069  1.00  0.00    -0.349 N 
HETATM   16  C2  UNL     1     -29.501   8.804  11.500  1.00  0.00     0.276 C 
HETATM   17  O1  UNL     1     -29.728   9.747  10.731  1.00  0.00    -0.269 OA
ATOM     18  H3  UNL     1     -28.879   6.876  11.802  1.00  0.00     0.163 HD
BRANCH  16  19
HETATM   19  C1  UNL     1     -29.775   9.028  12.942  1.00  0.00     0.468 C 
BRANCH  19  20
HETATM   20  N1  UNL     1     -31.099   8.578  13.328  1.00  0.00    -0.042 N 
ATOM     21  H13 UNL     1     -31.589   9.271  13.893  1.00  0.00     0.277 HD
ATOM     22  H12 UNL     1     -31.740   8.551  12.535  1.00  0.00     0.277 HD
ATOM     23  H11 UNL     1     -31.037   7.676  13.800  1.00  0.00     0.277 HD
ENDBRANCH  19  20
BRANCH  19  24
HETATM   24  N2  UNL     1     -29.614  10.441  13.267  1.00  0.00    -0.042 N 
ATOM     25  H23 UNL     1     -28.864  10.874  12.728  1.00  0.00     0.277 HD
ATOM     26  H22 UNL     1     -30.391  11.004  12.921  1.00  0.00     0.277 HD
ATOM     27  H21 UNL     1     -29.477  10.555  14.271  1.00  0.00     0.277 HD
ENDBRANCH  19  24
ENDBRANCH  16  19
ENDBRANCH  14  15
BRANCH  14  28
HETATM   28  C4  UNL     1     -29.226   5.805   9.321  1.00  0.00     0.088 C 
BRANCH  28  29
HETATM   29  C5  UNL     1     -29.496   4.907  10.484  1.00  0.00     0.027 A 
HETATM   30  C6  UNL     1     -30.755   4.581  10.984  1.00  0.00     0.114 A 
HETATM   31  N4  UNL     1     -30.628   3.752  12.018  1.00  0.00    -0.360 N 
HETATM   32  C7  UNL     1     -29.307   3.530  12.203  1.00  0.00     0.180 A 
ATOM     33  H4  UNL     1     -31.390   3.356  12.569  1.00  0.00     0.166 HD
HETATM   34  N5  UNL     1     -28.649   4.234  11.269  1.00  0.00    -0.355 N 
ATOM     35  H5  UNL     1     -27.634   4.252  11.172  1.00  0.00     0.166 HD
ENDBRANCH  28  29
ENDBRANCH  14  28
ENDBRANCH  13  14
BRANCH  13  36
HETATM   36  O2  UNL     1     -26.886   8.668   9.855  1.00  0.00    -0.373 OA
ATOM     37  H2  UNL     1     -26.853   8.672  10.805  1.00  0.00     0.212 HD
ENDBRANCH  13  36
ENDBRANCH   1  13
BRANCH   6  38
HETATM   38  N9  UNL     1     -23.241   3.125  10.633  1.00  0.00    -0.367 N 
ATOM     39  H9  UNL     1     -22.393   3.497  11.061  1.00  0.00     0.161 HD
BRANCH  38  40
HETATM   40  C11 UNL     1     -23.694   1.818  10.995  1.00  0.00     0.116 C 
HETATM   41  C12 UNL     1     -22.529   0.853  11.063  1.00  0.00     0.036 C 
HETATM   42  C13 UNL     1     -22.398   0.477  12.503  1.00  0.00     0.042 C 
HETATM   43  C15 UNL     1     -23.859   0.478  12.954  1.00  0.00     0.156 C 
HETATM   44  C16 UNL     1     -24.317   1.811  12.398  1.00  0.00     0.234 C 
BRANCH  42  45
HETATM   45  C14 UNL     1     -21.759  -0.865  12.728  1.00  0.00     0.171 C 
BRANCH  45  46
HETATM   46  O3  UNL     1     -20.549  -0.619  13.414  1.00  0.00    -0.400 OA
ATOM     47  H3  UNL     1     -20.292  -1.444  13.808  1.00  0.00     0.209 HD
ENDBRANCH  45  46
ENDBRANCH  42  45
BRANCH  43  48
HETATM   48  O4  UNL     1     -23.993   0.382  14.316  1.00  0.00    -0.393 OA
ATOM     49  H4  UNL     1     -24.630  -0.273  14.576  1.00  0.00     0.210 HD
ENDBRANCH  43  48
BRANCH  44  50
HETATM   50  N10 UNL     1     -25.741   1.920  12.349  1.00  0.00    -0.071 N 
ATOM     51 3H10 UNL     1     -26.037   2.896  12.317  1.00  0.00     0.274 HD
ATOM     52 2H10 UNL     1     -26.106   1.612  11.447  1.00  0.00     0.274 HD
ATOM     53 1H10 UNL     1     -26.188   1.423  13.119  1.00  0.00     0.274 HD
ENDBRANCH  44  50
ENDBRANCH  38  40
ENDBRANCH   6  38
TORSDOF 15
ENDMDL
