MODEL 1
REMARK VINA RESULT: -5.134934872      0.000      0.000
REMARK  15 active torsions:
REMARK  status: ('A' for Active; 'I' for Inactive)
REMARK    1  A    between atoms: N1_1  and  C1_5 
REMARK    2  A    between atoms: C1_5  and  C2_6 
REMARK    3  A    between atoms: C2_6  and  C3_7 
REMARK    4  A    between atoms: C3_7  and  O1_8 
REMARK    5  A    between atoms: O1_8  and  N2_9 
REMARK    6  A    between atoms: C5_11  and  C6_12 
REMARK    7  A    between atoms: C6_12  and  O2_13 
REMARK       I    between atoms: N4_24  and  C13_26 
REMARK    8  A    between atoms: C13_26  and  C14_28 
REMARK    9  A    between atoms: C14_28  and  O5_29 
REMARK   10  A    between atoms: C14_28  and  C15_31 
REMARK   11  A    between atoms: C15_31  and  N5_32 
REMARK   12  A    between atoms: C16_38  and  O6_39 
REMARK   13  A    between atoms: C17_41  and  O7_42 
REMARK   14  A    between atoms: N7_44  and  C18_45 
REMARK   15  A    between atoms: C18_45  and  N8_46 
ROOT
HETATM    1  N2  UNL     1     -23.785   1.534  11.268  1.00  0.00    -0.119 NA
HETATM    2  C4  UNL     1     -23.517   1.593   9.869  1.00  0.00     0.167 C 
HETATM    3  C5  UNL     1     -24.757   1.563   9.001  1.00  0.00     0.124 C 
HETATM    4  N3  UNL     1     -24.760   0.409   8.120  1.00  0.00    -0.353 N 
ATOM      5  H3  UNL     1     -23.894  -0.123   8.032  1.00  0.00     0.163 HD
HETATM    6  C7  UNL     1     -25.867  -0.027   7.384  1.00  0.00     0.217 C 
HETATM    7  O3  UNL     1     -25.692  -0.591   6.268  1.00  0.00    -0.274 OA
HETATM    8  C8  UNL     1     -27.281   0.128   7.829  1.00  0.00     0.103 C 
HETATM    9  C9  UNL     1     -27.649  -0.743   8.985  1.00  0.00     0.010 C 
HETATM   10  C10 UNL     1     -27.116  -2.128   8.860  1.00  0.00     0.008 C 
HETATM   11  C11 UNL     1     -26.210  -2.522   9.999  1.00  0.00     0.076 C 
HETATM   12  C12 UNL     1     -26.794  -2.164  11.325  1.00  0.00     0.081 C 
HETATM   13  N4  UNL     1     -27.967  -2.707  11.555  1.00  0.00    -0.315 N 
ATOM     14  H4  UNL     1     -28.362  -3.306  10.829  1.00  0.00     0.170 HD
HETATM   15  C13 UNL     1     -28.715  -2.523  12.723  1.00  0.00     0.253 C 
HETATM   16  O4  UNL     1     -29.536  -1.554  12.741  1.00  0.00    -0.270 OA
HETATM   17  N6  UNL     1     -26.193  -1.329  12.278  1.00  0.00    -0.350 N 
ATOM     18  H6  UNL     1     -26.799  -0.628  12.705  1.00  0.00     0.163 HD
HETATM   19  C16 UNL     1     -24.825  -1.342  12.725  1.00  0.00     0.264 C 
HETATM   20  C17 UNL     1     -24.284   0.049  12.955  1.00  0.00     0.259 C 
HETATM   21  N7  UNL     1     -23.333   0.420  11.931  1.00  0.00    -0.168 NA
ENDROOT
BRANCH  15  22
HETATM   22  C14 UNL     1     -28.616  -3.375  13.936  1.00  0.00     0.235 C 
BRANCH  22  23
HETATM   23  O5  UNL     1     -27.858  -2.731  14.913  1.00  0.00    -0.384 OA
ATOM     24  H5  UNL     1     -27.325  -3.363  15.381  1.00  0.00     0.210 HD
ENDBRANCH  22  23
BRANCH  22  25
HETATM   25  C15 UNL     1     -27.895  -4.660  13.595  1.00  0.00     0.271 C 
BRANCH  25  26
HETATM   26  N5  UNL     1     -26.623  -4.765  14.270  1.00  0.00    -0.076 N 
ATOM     27  H53 UNL     1     -26.745  -4.843  15.279  1.00  0.00     0.274 HD
ATOM     28  H52 UNL     1     -26.183  -5.667  14.090  1.00  0.00     0.274 HD
ATOM     29  H51 UNL     1     -25.997  -3.995  14.033  1.00  0.00     0.274 HD
ENDBRANCH  25  26
ENDBRANCH  22  25
ENDBRANCH  15  22
BRANCH  19  30
HETATM   30  O6  UNL     1     -23.983  -2.097  11.918  1.00  0.00    -0.373 OA
ATOM     31  H6  UNL     1     -23.601  -2.845  12.361  1.00  0.00     0.212 HD
ENDBRANCH  19  30
BRANCH  20  32
HETATM   32  O7  UNL     1     -23.724   0.098  14.225  1.00  0.00    -0.375 OA
ATOM     33  H7  UNL     1     -23.954   0.928  14.624  1.00  0.00     0.211 HD
ENDBRANCH  20  32
BRANCH  21  34
HETATM   34  C18 UNL     1     -21.986   0.505  12.443  1.00  0.00     0.342 C 
BRANCH  34  35
HETATM   35  N8  UNL     1     -21.358  -0.797  12.512  1.00  0.00    -0.066 N 
ATOM     36  H83 UNL     1     -20.458  -0.751  12.990  1.00  0.00     0.275 HD
ATOM     37  H82 UNL     1     -21.850  -1.413  13.159  1.00  0.00     0.275 HD
ATOM     38  H81 UNL     1     -21.269  -1.220  11.589  1.00  0.00     0.275 HD
ENDBRANCH  34  35
ENDBRANCH  21  34
BRANCH   1  39
HETATM   39  O1  UNL     1     -23.473   2.636  11.946  1.00  0.00    -0.288 OA
BRANCH  39  40
HETATM   40  C3  UNL     1     -22.820   3.597  11.214  1.00  0.00     0.197 C 
BRANCH  40  41
HETATM   41  C2  UNL     1     -23.316   4.955  11.658  1.00  0.00     0.055 C 
BRANCH  41  42
HETATM   42  C1  UNL     1     -24.595   5.287  10.932  1.00  0.00     0.231 C 
BRANCH  42  43
HETATM   43  N1  UNL     1     -25.659   4.366  11.224  1.00  0.00    -0.079 N 
ATOM     44  H13 UNL     1     -25.575   4.001  12.172  1.00  0.00     0.274 HD
ATOM     45  H12 UNL     1     -26.550   4.854  11.312  1.00  0.00     0.274 HD
ATOM     46  H11 UNL     1     -25.723   3.608  10.545  1.00  0.00     0.274 HD
ENDBRANCH  42  43
ENDBRANCH  41  42
ENDBRANCH  40  41
ENDBRANCH  39  40
ENDBRANCH   1  39
BRANCH   3  47
HETATM   47  C6  UNL     1     -24.680   2.780   8.068  1.00  0.00     0.190 C 
BRANCH  47  48
HETATM   48  O2  UNL     1     -25.913   3.450   8.230  1.00  0.00    -0.399 OA
ATOM     49  H2  UNL     1     -26.180   3.697   7.353  1.00  0.00     0.209 HD
ENDBRANCH  47  48
ENDBRANCH   3  47
TORSDOF 15
ENDMDL
MODEL 2
REMARK VINA RESULT: -5.028969128      2.643      7.188
REMARK  15 active torsions:
REMARK  status: ('A' for Active; 'I' for Inactive)
REMARK    1  A    between atoms: N1_1  and  C1_5 
REMARK    2  A    between atoms: C1_5  and  C2_6 
REMARK    3  A    between atoms: C2_6  and  C3_7 
REMARK    4  A    between atoms: C3_7  and  O1_8 
REMARK    5  A    between atoms: O1_8  and  N2_9 
REMARK    6  A    between atoms: C5_11  and  C6_12 
REMARK    7  A    between atoms: C6_12  and  O2_13 
REMARK       I    between atoms: N4_24  and  C13_26 
REMARK    8  A    between atoms: C13_26  and  C14_28 
REMARK    9  A    between atoms: C14_28  and  O5_29 
REMARK   10  A    between atoms: C14_28  and  C15_31 
REMARK   11  A    between atoms: C15_31  and  N5_32 
REMARK   12  A    between atoms: C16_38  and  O6_39 
REMARK   13  A    between atoms: C17_41  and  O7_42 
REMARK   14  A    between atoms: N7_44  and  C18_45 
REMARK   15  A    between atoms: C18_45  and  N8_46 
ROOT
HETATM    1  N2  UNL     1     -24.990  -0.665  12.332  1.00  0.00    -0.119 NA
HETATM    2  C4  UNL     1     -25.922  -0.205  13.310  1.00  0.00     0.167 C 
HETATM    3  C5  UNL     1     -27.222   0.311  12.730  1.00  0.00     0.124 C 
HETATM    4  N3  UNL     1     -27.433   1.708  13.061  1.00  0.00    -0.353 N 
ATOM      5  H3  UNL     1     -26.830   2.123  13.773  1.00  0.00     0.163 HD
HETATM    6  C7  UNL     1     -28.404   2.527  12.475  1.00  0.00     0.217 C 
HETATM    7  O3  UNL     1     -28.928   3.456  13.151  1.00  0.00    -0.274 OA
HETATM    8  C8  UNL     1     -28.882   2.384  11.071  1.00  0.00     0.103 C 
HETATM    9  C9  UNL     1     -27.868   2.773  10.046  1.00  0.00     0.010 C 
HETATM   10  C10 UNL     1     -27.137   4.022  10.398  1.00  0.00     0.008 C 
HETATM   11  C11 UNL     1     -25.646   3.827  10.505  1.00  0.00     0.076 C 
HETATM   12  C12 UNL     1     -25.100   3.054   9.350  1.00  0.00     0.081 C 
HETATM   13  N4  UNL     1     -25.339   3.603   8.182  1.00  0.00    -0.315 N 
ATOM     14  H4  UNL     1     -25.860   4.480   8.168  1.00  0.00     0.170 HD
HETATM   15  C13 UNL     1     -24.931   3.070   6.954  1.00  0.00     0.253 C 
HETATM   16  O4  UNL     1     -25.734   2.278   6.369  1.00  0.00    -0.270 OA
HETATM   17  N6  UNL     1     -24.392   1.848   9.443  1.00  0.00    -0.350 N 
ATOM     18  H6  UNL     1     -24.668   1.115   8.790  1.00  0.00     0.163 HD
HETATM   19  C16 UNL     1     -23.324   1.519  10.350  1.00  0.00     0.264 C 
HETATM   20  C17 UNL     1     -23.407   0.094  10.843  1.00  0.00     0.259 C 
HETATM   21  N7  UNL     1     -23.816   0.039  12.229  1.00  0.00    -0.168 NA
ENDROOT
BRANCH  15  22
HETATM   22  C14 UNL     1     -23.635   3.363   6.290  1.00  0.00     0.235 C 
BRANCH  22  23
HETATM   23  O5  UNL     1     -23.131   4.582   6.740  1.00  0.00    -0.384 OA
ATOM     24  H5  UNL     1     -22.267   4.460   7.114  1.00  0.00     0.210 HD
ENDBRANCH  22  23
BRANCH  22  25
HETATM   25  C15 UNL     1     -23.848   3.498   4.799  1.00  0.00     0.271 C 
BRANCH  25  26
HETATM   26  N5  UNL     1     -24.923   4.409   4.483  1.00  0.00    -0.076 N 
ATOM     27  H53 UNL     1     -24.970   5.172   5.158  1.00  0.00     0.274 HD
ATOM     28  H52 UNL     1     -24.715   4.948   3.643  1.00  0.00     0.274 HD
ATOM     29  H51 UNL     1     -25.821   3.932   4.404  1.00  0.00     0.274 HD
ENDBRANCH  25  26
ENDBRANCH  22  25
ENDBRANCH  15  22
BRANCH  19  30
HETATM   30  O6  UNL     1     -23.187   2.421  11.398  1.00  0.00    -0.373 OA
ATOM     31  H6  UNL     1     -22.405   2.284  11.919  1.00  0.00     0.212 HD
ENDBRANCH  19  30
BRANCH  20  32
HETATM   32  O7  UNL     1     -22.175  -0.514  10.641  1.00  0.00    -0.375 OA
ATOM     33  H7  UNL     1     -22.281  -1.452  10.745  1.00  0.00     0.211 HD
ENDBRANCH  20  32
BRANCH  21  34
HETATM   34  C18 UNL     1     -22.748  -0.401  13.094  1.00  0.00     0.342 C 
BRANCH  34  35
HETATM   35  N8  UNL     1     -21.686   0.578  13.172  1.00  0.00    -0.066 N 
ATOM     36  H83 UNL     1     -22.015   1.506  12.906  1.00  0.00     0.275 HD
ATOM     37  H82 UNL     1     -21.429   0.772  14.140  1.00  0.00     0.275 HD
ATOM     38  H81 UNL     1     -20.875   0.298  12.620  1.00  0.00     0.275 HD
ENDBRANCH  34  35
ENDBRANCH  21  34
BRANCH   1  39
HETATM   39  O1  UNL     1     -24.747  -1.972  12.361  1.00  0.00    -0.288 OA
BRANCH  39  40
HETATM   40  C3  UNL     1     -25.717  -2.752  11.780  1.00  0.00     0.197 C 
BRANCH  40  41
HETATM   41  C2  UNL     1     -25.413  -4.200  12.087  1.00  0.00     0.055 C 
BRANCH  41  42
HETATM   42  C1  UNL     1     -26.329  -4.687  13.182  1.00  0.00     0.231 C 
BRANCH  42  43
HETATM   43  N1  UNL     1     -26.926  -3.615  13.929  1.00  0.00    -0.079 N 
ATOM     44  H13 UNL     1     -26.252  -2.867  14.095  1.00  0.00     0.274 HD
ATOM     45  H12 UNL     1     -27.602  -3.106  13.359  1.00  0.00     0.274 HD
ATOM     46  H11 UNL     1     -27.347  -3.927  14.803  1.00  0.00     0.274 HD
ENDBRANCH  42  43
ENDBRANCH  41  42
ENDBRANCH  40  41
ENDBRANCH  39  40
ENDBRANCH   1  39
BRANCH   3  47
HETATM   47  C6  UNL     1     -28.357  -0.446  13.433  1.00  0.00     0.190 C 
BRANCH  47  48
HETATM   48  O2  UNL     1     -27.898  -0.661  14.751  1.00  0.00    -0.399 OA
ATOM     49  H2  UNL     1     -28.536  -0.234  15.310  1.00  0.00     0.209 HD
ENDBRANCH  47  48
ENDBRANCH   3  47
TORSDOF 15
ENDMDL
MODEL 3
REMARK VINA RESULT: -5.026087822      2.764      7.137
REMARK  15 active torsions:
REMARK  status: ('A' for Active; 'I' for Inactive)
REMARK    1  A    between atoms: N1_1  and  C1_5 
REMARK    2  A    between atoms: C1_5  and  C2_6 
REMARK    3  A    between atoms: C2_6  and  C3_7 
REMARK    4  A    between atoms: C3_7  and  O1_8 
REMARK    5  A    between atoms: O1_8  and  N2_9 
REMARK    6  A    between atoms: C5_11  and  C6_12 
REMARK    7  A    between atoms: C6_12  and  O2_13 
REMARK       I    between atoms: N4_24  and  C13_26 
REMARK    8  A    between atoms: C13_26  and  C14_28 
REMARK    9  A    between atoms: C14_28  and  O5_29 
REMARK   10  A    between atoms: C14_28  and  C15_31 
REMARK   11  A    between atoms: C15_31  and  N5_32 
REMARK   12  A    between atoms: C16_38  and  O6_39 
REMARK   13  A    between atoms: C17_41  and  O7_42 
REMARK   14  A    between atoms: N7_44  and  C18_45 
REMARK   15  A    between atoms: C18_45  and  N8_46 
ROOT
HETATM    1  N2  UNL     1     -24.903  -0.721  12.213  1.00  0.00    -0.119 NA
HETATM    2  C4  UNL     1     -25.815  -0.277  13.215  1.00  0.00     0.167 C 
HETATM    3  C5  UNL     1     -27.136   0.223  12.670  1.00  0.00     0.124 C 
HETATM    4  N3  UNL     1     -27.357   1.616  13.012  1.00  0.00    -0.353 N 
ATOM      5  H3  UNL     1     -26.743   2.037  13.710  1.00  0.00     0.163 HD
HETATM    6  C7  UNL     1     -28.354   2.424  12.453  1.00  0.00     0.217 C 
HETATM    7  O3  UNL     1     -28.873   3.343  13.146  1.00  0.00    -0.274 OA
HETATM    8  C8  UNL     1     -28.866   2.279  11.062  1.00  0.00     0.103 C 
HETATM    9  C9  UNL     1     -27.883   2.685  10.012  1.00  0.00     0.010 C 
HETATM   10  C10 UNL     1     -27.160   3.942  10.351  1.00  0.00     0.008 C 
HETATM   11  C11 UNL     1     -25.664   3.768  10.419  1.00  0.00     0.076 C 
HETATM   12  C12 UNL     1     -25.137   3.006   9.248  1.00  0.00     0.081 C 
HETATM   13  N4  UNL     1     -25.413   3.555   8.088  1.00  0.00    -0.315 N 
ATOM     14  H4  UNL     1     -25.946   4.426   8.090  1.00  0.00     0.170 HD
HETATM   15  C13 UNL     1     -25.029   3.032   6.848  1.00  0.00     0.253 C 
HETATM   16  O4  UNL     1     -25.836   2.231   6.281  1.00  0.00    -0.270 OA
HETATM   17  N6  UNL     1     -24.411   1.809   9.319  1.00  0.00    -0.350 N 
ATOM     18  H6  UNL     1     -24.693   1.074   8.669  1.00  0.00     0.163 HD
HETATM   19  C16 UNL     1     -23.316   1.492  10.197  1.00  0.00     0.264 C 
HETATM   20  C17 UNL     1     -23.368   0.064  10.687  1.00  0.00     0.259 C 
HETATM   21  N7  UNL     1     -23.741  -0.001  12.082  1.00  0.00    -0.168 NA
ENDROOT
BRANCH  15  22
HETATM   22  C14 UNL     1     -23.754   3.344   6.153  1.00  0.00     0.235 C 
BRANCH  22  23
HETATM   23  O5  UNL     1     -23.214   4.528   6.652  1.00  0.00    -0.384 OA
ATOM     24  H5  UNL     1     -22.687   4.952   5.986  1.00  0.00     0.210 HD
ENDBRANCH  22  23
BRANCH  22  25
HETATM   25  C15 UNL     1     -24.021   3.568   4.681  1.00  0.00     0.271 C 
BRANCH  25  26
HETATM   26  N5  UNL     1     -25.108   4.492   4.460  1.00  0.00    -0.076 N 
ATOM     27  H53 UNL     1     -26.001   4.085   4.738  1.00  0.00     0.274 HD
ATOM     28  H52 UNL     1     -25.072   5.269   5.120  1.00  0.00     0.274 HD
ATOM     29  H51 UNL     1     -25.139   4.827   3.497  1.00  0.00     0.274 HD
ENDBRANCH  25  26
ENDBRANCH  22  25
ENDBRANCH  15  22
BRANCH  19  30
HETATM   30  O6  UNL     1     -23.165   2.392  11.245  1.00  0.00    -0.373 OA
ATOM     31  H6  UNL     1     -22.389   2.238  11.770  1.00  0.00     0.212 HD
ENDBRANCH  19  30
BRANCH  20  32
HETATM   32  O7  UNL     1     -22.133  -0.527  10.451  1.00  0.00    -0.375 OA
ATOM     33  H7  UNL     1     -22.270  -1.447  10.264  1.00  0.00     0.211 HD
ENDBRANCH  20  32
BRANCH  21  34
HETATM   34  C18 UNL     1     -22.646  -0.429  12.918  1.00  0.00     0.342 C 
BRANCH  34  35
HETATM   35  N8  UNL     1     -21.596   0.564  12.975  1.00  0.00    -0.066 N 
ATOM     36  H83 UNL     1     -21.831   1.386  12.418  1.00  0.00     0.275 HD
ATOM     37  H82 UNL     1     -21.550   1.004  13.894  1.00  0.00     0.275 HD
ATOM     38  H81 UNL     1     -20.694   0.175  12.703  1.00  0.00     0.275 HD
ENDBRANCH  34  35
ENDBRANCH  21  34
BRANCH   1  39
HETATM   39  O1  UNL     1     -24.641  -2.025  12.230  1.00  0.00    -0.288 OA
BRANCH  39  40
HETATM   40  C3  UNL     1     -25.621  -2.817  11.685  1.00  0.00     0.197 C 
BRANCH  40  41
HETATM   41  C2  UNL     1     -25.092  -4.229  11.581  1.00  0.00     0.055 C 
BRANCH  41  42
HETATM   42  C1  UNL     1     -23.606  -4.194  11.322  1.00  0.00     0.231 C 
BRANCH  42  43
HETATM   43  N1  UNL     1     -23.268  -3.516  10.102  1.00  0.00    -0.079 N 
ATOM     44  H13 UNL     1     -23.996  -2.851   9.840  1.00  0.00     0.274 HD
ATOM     45  H12 UNL     1     -22.495  -2.866  10.247  1.00  0.00     0.274 HD
ATOM     46  H11 UNL     1     -23.067  -4.157   9.335  1.00  0.00     0.274 HD
ENDBRANCH  42  43
ENDBRANCH  41  42
ENDBRANCH  40  41
ENDBRANCH  39  40
ENDBRANCH   1  39
BRANCH   3  47
HETATM   47  C6  UNL     1     -28.243  -0.551  13.399  1.00  0.00     0.190 C 
BRANCH  47  48
HETATM   48  O2  UNL     1     -27.841  -0.586  14.752  1.00  0.00    -0.399 OA
ATOM     49  H2  UNL     1     -27.070  -1.139  14.769  1.00  0.00     0.209 HD
ENDBRANCH  47  48
ENDBRANCH   3  47
TORSDOF 15
ENDMDL
MODEL 4
REMARK VINA RESULT: -4.864986797      3.144      5.877
REMARK  15 active torsions:
REMARK  status: ('A' for Active; 'I' for Inactive)
REMARK    1  A    between atoms: N1_1  and  C1_5 
REMARK    2  A    between atoms: C1_5  and  C2_6 
REMARK    3  A    between atoms: C2_6  and  C3_7 
REMARK    4  A    between atoms: C3_7  and  O1_8 
REMARK    5  A    between atoms: O1_8  and  N2_9 
REMARK    6  A    between atoms: C5_11  and  C6_12 
REMARK    7  A    between atoms: C6_12  and  O2_13 
REMARK       I    between atoms: N4_24  and  C13_26 
REMARK    8  A    between atoms: C13_26  and  C14_28 
REMARK    9  A    between atoms: C14_28  and  O5_29 
REMARK   10  A    between atoms: C14_28  and  C15_31 
REMARK   11  A    between atoms: C15_31  and  N5_32 
REMARK   12  A    between atoms: C16_38  and  O6_39 
REMARK   13  A    between atoms: C17_41  and  O7_42 
REMARK   14  A    between atoms: N7_44  and  C18_45 
REMARK   15  A    between atoms: C18_45  and  N8_46 
ROOT
HETATM    1  N2  UNL     1     -25.735  -1.067  11.110  1.00  0.00    -0.119 NA
HETATM    2  C4  UNL     1     -27.137  -0.927  11.335  1.00  0.00     0.167 C 
HETATM    3  C5  UNL     1     -27.609  -1.489  12.659  1.00  0.00     0.124 C 
HETATM    4  N3  UNL     1     -28.576  -2.555  12.468  1.00  0.00    -0.353 N 
ATOM      5  H3  UNL     1     -28.970  -2.676  11.534  1.00  0.00     0.163 HD
HETATM    6  C7  UNL     1     -29.008  -3.427  13.473  1.00  0.00     0.217 C 
HETATM    7  O3  UNL     1     -30.183  -3.886  13.439  1.00  0.00    -0.274 OA
HETATM    8  C8  UNL     1     -28.160  -3.870  14.616  1.00  0.00     0.103 C 
HETATM    9  C9  UNL     1     -27.054  -4.794  14.224  1.00  0.00     0.010 C 
HETATM   10  C10 UNL     1     -27.484  -5.831  13.245  1.00  0.00     0.008 C 
HETATM   11  C11 UNL     1     -26.707  -5.789  11.954  1.00  0.00     0.076 C 
HETATM   12  C12 UNL     1     -25.237  -5.684  12.191  1.00  0.00     0.081 C 
HETATM   13  N4  UNL     1     -24.743  -6.664  12.912  1.00  0.00    -0.315 N 
ATOM     14  H4  UNL     1     -25.387  -7.386  13.235  1.00  0.00     0.170 HD
HETATM   15  C13 UNL     1     -23.395  -6.789  13.270  1.00  0.00     0.253 C 
HETATM   16  O4  UNL     1     -23.032  -6.253  14.363  1.00  0.00    -0.270 OA
HETATM   17  N6  UNL     1     -24.409  -4.657  11.717  1.00  0.00    -0.350 N 
ATOM     18  H6  UNL     1     -23.748  -4.267  12.389  1.00  0.00     0.163 HD
HETATM   19  C16 UNL     1     -24.378  -4.088  10.396  1.00  0.00     0.264 C 
HETATM   20  C17 UNL     1     -24.157  -2.594  10.419  1.00  0.00     0.259 C 
HETATM   21  N7  UNL     1     -25.362  -1.878  10.066  1.00  0.00    -0.168 NA
ENDROOT
BRANCH  15  22
HETATM   22  C14 UNL     1     -22.367  -7.499  12.467  1.00  0.00     0.235 C 
BRANCH  22  23
HETATM   23  O5  UNL     1     -22.412  -7.069  11.142  1.00  0.00    -0.384 OA
ATOM     24  H5  UNL     1     -22.927  -7.673  10.620  1.00  0.00     0.210 HD
ENDBRANCH  22  23
BRANCH  22  25
HETATM   25  C15 UNL     1     -22.666  -8.982  12.458  1.00  0.00     0.271 C 
BRANCH  25  26
HETATM   26  N5  UNL     1     -22.892  -9.499  13.787  1.00  0.00    -0.076 N 
ATOM     27  H53 UNL     1     -22.195 -10.203  14.033  1.00  0.00     0.274 HD
ATOM     28  H52 UNL     1     -22.673  -8.800  14.497  1.00  0.00     0.274 HD
ATOM     29  H51 UNL     1     -23.838  -9.861  13.904  1.00  0.00     0.274 HD
ENDBRANCH  25  26
ENDBRANCH  22  25
ENDBRANCH  15  22
BRANCH  19  30
HETATM   30  O6  UNL     1     -25.474  -4.435   9.615  1.00  0.00    -0.373 OA
ATOM     31  H6  UNL     1     -26.309  -4.299  10.048  1.00  0.00     0.212 HD
ENDBRANCH  19  30
BRANCH  20  32
HETATM   32  O7  UNL     1     -23.105  -2.292   9.564  1.00  0.00    -0.375 OA
ATOM     33  H7  UNL     1     -22.674  -1.508   9.882  1.00  0.00     0.211 HD
ENDBRANCH  20  32
BRANCH  21  34
HETATM   34  C18 UNL     1     -25.253  -1.228   8.782  1.00  0.00     0.342 C 
BRANCH  34  35
HETATM   35  N8  UNL     1     -25.633  -2.111   7.702  1.00  0.00    -0.066 N 
ATOM     36  H83 UNL     1     -26.434  -1.746   7.187  1.00  0.00     0.275 HD
ATOM     37  H82 UNL     1     -24.943  -2.100   6.951  1.00  0.00     0.275 HD
ATOM     38  H81 UNL     1     -25.806  -3.060   8.035  1.00  0.00     0.275 HD
ENDBRANCH  34  35
ENDBRANCH  21  34
BRANCH   1  39
HETATM   39  O1  UNL     1     -25.056   0.075  11.076  1.00  0.00    -0.288 OA
BRANCH  39  40
HETATM   40  C3  UNL     1     -24.581   0.499  12.293  1.00  0.00     0.197 C 
BRANCH  40  41
HETATM   41  C2  UNL     1     -23.318   1.297  12.061  1.00  0.00     0.055 C 
BRANCH  41  42
HETATM   42  C1  UNL     1     -22.173   0.358  11.771  1.00  0.00     0.231 C 
BRANCH  42  43
HETATM   43  N1  UNL     1     -21.907   0.221  10.366  1.00  0.00    -0.079 N 
ATOM     44  H13 UNL     1     -22.554   0.783   9.815  1.00  0.00     0.274 HD
ATOM     45  H12 UNL     1     -21.031   0.680  10.114  1.00  0.00     0.274 HD
ATOM     46  H11 UNL     1     -21.912  -0.751  10.055  1.00  0.00     0.274 HD
ENDBRANCH  42  43
ENDBRANCH  41  42
ENDBRANCH  40  41
ENDBRANCH  39  40
ENDBRANCH   1  39
BRANCH   3  47
HETATM   47  C6  UNL     1     -28.380  -0.369  13.371  1.00  0.00     0.190 C 
BRANCH  47  48
HETATM   48  O2  UNL     1     -27.849  -0.328  14.680  1.00  0.00    -0.399 OA
ATOM     49  H2  UNL     1     -26.909  -0.417  14.570  1.00  0.00     0.209 HD
ENDBRANCH  47  48
ENDBRANCH   3  47
TORSDOF 15
ENDMDL
MODEL 5
REMARK VINA RESULT: -4.864136262      2.086      2.438
REMARK  15 active torsions:
REMARK  status: ('A' for Active; 'I' for Inactive)
REMARK    1  A    between atoms: N1_1  and  C1_5 
REMARK    2  A    between atoms: C1_5  and  C2_6 
REMARK    3  A    between atoms: C2_6  and  C3_7 
REMARK    4  A    between atoms: C3_7  and  O1_8 
REMARK    5  A    between atoms: O1_8  and  N2_9 
REMARK    6  A    between atoms: C5_11  and  C6_12 
REMARK    7  A    between atoms: C6_12  and  O2_13 
REMARK       I    between atoms: N4_24  and  C13_26 
REMARK    8  A    between atoms: C13_26  and  C14_28 
REMARK    9  A    between atoms: C14_28  and  O5_29 
REMARK   10  A    between atoms: C14_28  and  C15_31 
REMARK   11  A    between atoms: C15_31  and  N5_32 
REMARK   12  A    between atoms: C16_38  and  O6_39 
REMARK   13  A    between atoms: C17_41  and  O7_42 
REMARK   14  A    between atoms: N7_44  and  C18_45 
REMARK   15  A    between atoms: C18_45  and  N8_46 
ROOT
HETATM    1  N2  UNL     1     -23.442   2.166  10.690  1.00  0.00    -0.119 NA
HETATM    2  C4  UNL     1     -23.135   2.032   9.304  1.00  0.00     0.167 C 
HETATM    3  C5  UNL     1     -24.194   2.592   8.379  1.00  0.00     0.124 C 
HETATM    4  N3  UNL     1     -24.745   1.562   7.517  1.00  0.00    -0.353 N 
ATOM      5  H3  UNL     1     -24.257   0.666   7.478  1.00  0.00     0.163 HD
HETATM    6  C7  UNL     1     -25.897   1.709   6.737  1.00  0.00     0.217 C 
HETATM    7  O3  UNL     1     -25.990   1.092   5.639  1.00  0.00    -0.274 OA
HETATM    8  C8  UNL     1     -27.058   2.563   7.112  1.00  0.00     0.103 C 
HETATM    9  C9  UNL     1     -27.849   2.034   8.263  1.00  0.00     0.010 C 
HETATM   10  C10 UNL     1     -28.075   0.564   8.185  1.00  0.00     0.008 C 
HETATM   11  C11 UNL     1     -27.525  -0.187   9.370  1.00  0.00     0.076 C 
HETATM   12  C12 UNL     1     -27.896   0.463  10.662  1.00  0.00     0.081 C 
HETATM   13  N4  UNL     1     -29.190   0.586  10.845  1.00  0.00    -0.315 N 
ATOM     14  H4  UNL     1     -29.807   0.237  10.111  1.00  0.00     0.170 HD
HETATM   15  C13 UNL     1     -29.784   1.160  11.974  1.00  0.00     0.253 C 
HETATM   16  O4  UNL     1     -30.012   2.410  11.938  1.00  0.00    -0.270 OA
HETATM   17  N6  UNL     1     -26.990   0.922  11.629  1.00  0.00    -0.350 N 
ATOM     18  H6  UNL     1     -27.179   1.847  12.017  1.00  0.00     0.163 HD
HETATM   19  C16 UNL     1     -25.827   0.246  12.140  1.00  0.00     0.264 C 
HETATM   20  C17 UNL     1     -24.671   1.190  12.374  1.00  0.00     0.259 C 
HETATM   21  N7  UNL     1     -23.629   1.000  11.390  1.00  0.00    -0.168 NA
ENDROOT
BRANCH  15  22
HETATM   22  C14 UNL     1     -30.165   0.418  13.203  1.00  0.00     0.235 C 
BRANCH  22  23
HETATM   23  O5  UNL     1     -29.031   0.142  13.966  1.00  0.00    -0.384 OA
ATOM     24  H5  UNL     1     -29.254   0.131  14.889  1.00  0.00     0.210 HD
ENDBRANCH  22  23
BRANCH  22  25
HETATM   25  C15 UNL     1     -30.774  -0.913  12.823  1.00  0.00     0.271 C 
BRANCH  25  26
HETATM   26  N5  UNL     1     -29.993  -2.027  13.307  1.00  0.00    -0.076 N 
ATOM     27  H53 UNL     1     -30.102  -2.844  12.706  1.00  0.00     0.274 HD
ATOM     28  H52 UNL     1     -28.995  -1.862  13.178  1.00  0.00     0.274 HD
ATOM     29  H51 UNL     1     -30.207  -2.253  14.279  1.00  0.00     0.274 HD
ENDBRANCH  25  26
ENDBRANCH  22  25
ENDBRANCH  15  22
BRANCH  19  30
HETATM   30  O6  UNL     1     -25.448  -0.857  11.385  1.00  0.00    -0.373 OA
ATOM     31  H6  UNL     1     -26.164  -1.250  10.899  1.00  0.00     0.212 HD
ENDBRANCH  19  30
BRANCH  20  32
HETATM   32  O7  UNL     1     -24.204   1.000  13.668  1.00  0.00    -0.375 OA
ATOM     33  H7  UNL     1     -23.290   1.255  13.699  1.00  0.00     0.211 HD
ENDBRANCH  20  32
BRANCH  21  34
HETATM   34  C18 UNL     1     -22.438   0.421  11.964  1.00  0.00     0.342 C 
BRANCH  34  35
HETATM   35  N8  UNL     1     -22.489  -1.024  11.955  1.00  0.00    -0.066 N 
ATOM     36  H83 UNL     1     -21.680  -1.428  12.427  1.00  0.00     0.275 HD
ATOM     37  H82 UNL     1     -23.222  -1.374  12.571  1.00  0.00     0.275 HD
ATOM     38  H81 UNL     1     -22.590  -1.391  11.009  1.00  0.00     0.275 HD
ENDBRANCH  34  35
ENDBRANCH  21  34
BRANCH   1  39
HETATM   39  O1  UNL     1     -22.645   2.990  11.364  1.00  0.00    -0.288 OA
BRANCH  39  40
HETATM   40  C3  UNL     1     -22.597   4.273  10.877  1.00  0.00     0.197 C 
BRANCH  40  41
HETATM   41  C2  UNL     1     -23.493   5.142  11.730  1.00  0.00     0.055 C 
BRANCH  41  42
HETATM   42  C1  UNL     1     -24.790   5.397  11.002  1.00  0.00     0.231 C 
BRANCH  42  43
HETATM   43  N1  UNL     1     -25.728   4.318  11.139  1.00  0.00    -0.079 N 
ATOM     44  H13 UNL     1     -26.103   4.043  10.231  1.00  0.00     0.274 HD
ATOM     45  H12 UNL     1     -25.253   3.451  11.391  1.00  0.00     0.274 HD
ATOM     46  H11 UNL     1     -26.479   4.527  11.796  1.00  0.00     0.274 HD
ENDBRANCH  42  43
ENDBRANCH  41  42
ENDBRANCH  40  41
ENDBRANCH  39  40
ENDBRANCH   1  39
BRANCH   3  47
HETATM   47  C6  UNL     1     -23.489   3.574   7.433  1.00  0.00     0.190 C 
BRANCH  47  48
HETATM   48  O2  UNL     1     -24.153   4.807   7.617  1.00  0.00    -0.399 OA
ATOM     49  H2  UNL     1     -23.500   5.471   7.432  1.00  0.00     0.209 HD
ENDBRANCH  47  48
ENDBRANCH   3  47
TORSDOF 15
ENDMDL
