MODEL 1
REMARK VINA RESULT: -5.042599355      0.000      0.000
REMARK  17 active torsions:
REMARK  status: ('A' for Active; 'I' for Inactive)
REMARK    1  A    between atoms: N1_1  and  C1_5 
REMARK    2  A    between atoms: C1_5  and  C2_6 
REMARK    3  A    between atoms: C2_6  and  O1_7 
REMARK    4  A    between atoms: O1_7  and  C3_8 
REMARK    5  A    between atoms: C4_9  and  N2_10 
REMARK    6  A    between atoms: C5_14  and  N3_15 
REMARK    7  A    between atoms: C7_20  and  N4_21 
REMARK    8  A    between atoms: C8_25  and  O2_26 
REMARK    9  A    between atoms: O2_26  and  C9_27 
REMARK   10  A    between atoms: C10_29  and  O4_30 
REMARK   11  A    between atoms: O4_30  and  C11_31 
REMARK   12  A    between atoms: C12_32  and  N5_33 
REMARK   13  A    between atoms: C14_38  and  N6_39 
REMARK   14  A    between atoms: C15_43  and  O5_44 
REMARK   15  A    between atoms: C16_46  and  N7_47 
REMARK   16  A    between atoms: C17_51  and  N8_52 
REMARK   17  A    between atoms: C19_57  and  N9_58 
ROOT
HETATM    1  C9  UNL     1     -28.001  -2.328  11.746  1.00  0.00     0.294 C 
HETATM    2  O3  UNL     1     -26.970  -1.766  10.965  1.00  0.00    -0.327 OA
HETATM    3  C10 UNL     1     -27.137  -0.453  10.655  1.00  0.00     0.293 C 
HETATM    4  C17 UNL     1     -28.576  -0.005  10.558  1.00  0.00     0.240 C 
HETATM    5  C18 UNL     1     -29.448  -1.111  10.079  1.00  0.00     0.075 C 
HETATM    6  C19 UNL     1     -29.332  -2.289  11.024  1.00  0.00     0.240 C 
ENDROOT
BRANCH   1   7
HETATM    7  O2  UNL     1     -27.680  -3.617  11.972  1.00  0.00    -0.349 OA
BRANCH   7   8
HETATM    8  C8  UNL     1     -26.832  -3.969  12.954  1.00  0.00     0.186 C 
HETATM    9  C3  UNL     1     -25.930  -5.082  12.453  1.00  0.00     0.185 C 
HETATM   10  C4  UNL     1     -26.012  -6.348  13.242  1.00  0.00     0.245 C 
HETATM   11  C5  UNL     1     -27.355  -6.733  13.756  1.00  0.00     0.218 C 
HETATM   12  C6  UNL     1     -28.208  -5.608  14.264  1.00  0.00     0.070 C 
HETATM   13  C7  UNL     1     -27.402  -4.353  14.277  1.00  0.00     0.217 C 
BRANCH   9  14
HETATM   14  O1  UNL     1     -24.588  -4.657  12.519  1.00  0.00    -0.379 OA
BRANCH  14  15
HETATM   15  C2  UNL     1     -23.863  -4.867  11.390  1.00  0.00     0.195 C 
BRANCH  15  16
HETATM   16  C1  UNL     1     -24.491  -4.547  10.084  1.00  0.00     0.255 C 
BRANCH  16  17
HETATM   17  N1  UNL     1     -24.549  -3.153   9.768  1.00  0.00    -0.077 N 
ATOM     18  H13 UNL     1     -23.610  -2.755   9.759  1.00  0.00     0.274 HD
ATOM     19  H12 UNL     1     -24.805  -3.023   8.789  1.00  0.00     0.274 HD
ATOM     20  H11 UNL     1     -25.160  -2.601  10.369  1.00  0.00     0.274 HD
ENDBRANCH  16  17
ENDBRANCH  15  16
ENDBRANCH  14  15
ENDBRANCH   9  14
BRANCH  10  21
HETATM   21  N2  UNL     1     -24.972  -6.435  14.263  1.00  0.00    -0.070 N 
ATOM     22  H23 UNL     1     -24.771  -5.518  14.662  1.00  0.00     0.274 HD
ATOM     23  H22 UNL     1     -25.317  -6.905  15.101  1.00  0.00     0.274 HD
ATOM     24  H21 UNL     1     -24.122  -6.879  13.915  1.00  0.00     0.274 HD
ENDBRANCH  10  21
BRANCH  11  25
HETATM   25  N3  UNL     1     -27.248  -7.701  14.865  1.00  0.00    -0.073 N 
ATOM     26  H33 UNL     1     -26.786  -7.290  15.677  1.00  0.00     0.274 HD
ATOM     27  H32 UNL     1     -28.158  -7.893  15.282  1.00  0.00     0.274 HD
ATOM     28  H31 UNL     1     -26.785  -8.559  14.565  1.00  0.00     0.274 HD
ENDBRANCH  11  25
BRANCH  13  29
HETATM   29  N4  UNL     1     -28.098  -3.239  14.937  1.00  0.00    -0.072 N 
ATOM     30  H43 UNL     1     -28.833  -2.861  14.339  1.00  0.00     0.274 HD
ATOM     31  H42 UNL     1     -28.671  -3.574  15.711  1.00  0.00     0.274 HD
ATOM     32  H41 UNL     1     -27.460  -2.504  15.244  1.00  0.00     0.274 HD
ENDBRANCH  13  29
ENDBRANCH   7   8
ENDBRANCH   1   7
BRANCH   6  33
HETATM   33  N9  UNL     1     -29.647  -3.539  10.367  1.00  0.00    -0.070 N 
ATOM     34  H93 UNL     1     -28.810  -3.965   9.970  1.00  0.00     0.274 HD
ATOM     35  H92 UNL     1     -29.890  -4.258  11.048  1.00  0.00     0.274 HD
ATOM     36  H91 UNL     1     -30.377  -3.439   9.662  1.00  0.00     0.274 HD
ENDBRANCH   6  33
BRANCH   3  37
HETATM   37  O4  UNL     1     -26.540   0.383  11.594  1.00  0.00    -0.349 OA
BRANCH  37  38
HETATM   38  C11 UNL     1     -25.351  -0.122  12.112  1.00  0.00     0.188 C 
HETATM   39  C12 UNL     1     -25.154   0.396  13.483  1.00  0.00     0.216 C 
HETATM   40  C13 UNL     1     -23.784   0.469  14.018  1.00  0.00     0.070 C 
HETATM   41  C14 UNL     1     -22.648   0.268  13.092  1.00  0.00     0.216 C 
HETATM   42  C15 UNL     1     -22.986  -0.553  11.871  1.00  0.00     0.181 C 
HETATM   43  C16 UNL     1     -24.172   0.161  11.243  1.00  0.00     0.244 C 
BRANCH  39  44
HETATM   44  N5  UNL     1     -25.929  -0.492  14.373  1.00  0.00    -0.072 N 
ATOM     45  H53 UNL     1     -26.863  -0.141  14.583  1.00  0.00     0.274 HD
ATOM     46  H52 UNL     1     -26.219  -1.361  13.926  1.00  0.00     0.274 HD
ATOM     47  H51 UNL     1     -25.353  -0.635  15.203  1.00  0.00     0.274 HD
ENDBRANCH  39  44
BRANCH  41  48
HETATM   48  N6  UNL     1     -21.527  -0.380  13.751  1.00  0.00    -0.072 N 
ATOM     49  H63 UNL     1     -20.711  -0.423  13.141  1.00  0.00     0.274 HD
ATOM     50  H62 UNL     1     -21.141   0.206  14.492  1.00  0.00     0.274 HD
ATOM     51  H61 UNL     1     -21.779  -1.305  14.100  1.00  0.00     0.274 HD
ENDBRANCH  41  48
BRANCH  42  52
HETATM   52  O5  UNL     1     -23.420  -1.819  12.266  1.00  0.00    -0.391 OA
ATOM     53  H5  UNL     1     -23.711  -2.308  11.505  1.00  0.00     0.210 HD
ENDBRANCH  42  52
BRANCH  43  54
HETATM   54  N7  UNL     1     -23.836   1.560  11.189  1.00  0.00    -0.070 N 
ATOM     55  H73 UNL     1     -24.363   2.087  11.885  1.00  0.00     0.274 HD
ATOM     56  H72 UNL     1     -22.891   1.722  11.537  1.00  0.00     0.274 HD
ATOM     57  H71 UNL     1     -23.956   1.962  10.259  1.00  0.00     0.274 HD
ENDBRANCH  43  54
ENDBRANCH  37  38
ENDBRANCH   3  37
BRANCH   4  58
HETATM   58  N8  UNL     1     -29.004   0.605  11.774  1.00  0.00    -0.070 N 
ATOM     59  H83 UNL     1     -28.755   0.040  12.586  1.00  0.00     0.274 HD
ATOM     60  H82 UNL     1     -28.456   1.437  11.991  1.00  0.00     0.274 HD
ATOM     61  H81 UNL     1     -30.003   0.808  11.749  1.00  0.00     0.274 HD
ENDBRANCH   4  58
TORSDOF 17
ENDMDL
MODEL 2
REMARK VINA RESULT: -4.780618316      4.874      7.530
REMARK  17 active torsions:
REMARK  status: ('A' for Active; 'I' for Inactive)
REMARK    1  A    between atoms: N1_1  and  C1_5 
REMARK    2  A    between atoms: C1_5  and  C2_6 
REMARK    3  A    between atoms: C2_6  and  O1_7 
REMARK    4  A    between atoms: O1_7  and  C3_8 
REMARK    5  A    between atoms: C4_9  and  N2_10 
REMARK    6  A    between atoms: C5_14  and  N3_15 
REMARK    7  A    between atoms: C7_20  and  N4_21 
REMARK    8  A    between atoms: C8_25  and  O2_26 
REMARK    9  A    between atoms: O2_26  and  C9_27 
REMARK   10  A    between atoms: C10_29  and  O4_30 
REMARK   11  A    between atoms: O4_30  and  C11_31 
REMARK   12  A    between atoms: C12_32  and  N5_33 
REMARK   13  A    between atoms: C14_38  and  N6_39 
REMARK   14  A    between atoms: C15_43  and  O5_44 
REMARK   15  A    between atoms: C16_46  and  N7_47 
REMARK   16  A    between atoms: C17_51  and  N8_52 
REMARK   17  A    between atoms: C19_57  and  N9_58 
ROOT
HETATM    1  C9  UNL     1     -25.682   2.019   8.863  1.00  0.00     0.294 C 
HETATM    2  O3  UNL     1     -25.487   3.355   9.274  1.00  0.00    -0.327 OA
HETATM    3  C10 UNL     1     -25.551   4.276   8.276  1.00  0.00     0.293 C 
HETATM    4  C17 UNL     1     -25.130   3.766   6.918  1.00  0.00     0.240 C 
HETATM    5  C18 UNL     1     -24.083   2.716   7.043  1.00  0.00     0.075 C 
HETATM    6  C19 UNL     1     -24.613   1.575   7.886  1.00  0.00     0.240 C 
ENDROOT
BRANCH   1   7
HETATM    7  O2  UNL     1     -25.600   1.243   9.961  1.00  0.00    -0.349 OA
BRANCH   7   8
HETATM    8  C8  UNL     1     -25.594   1.773  11.198  1.00  0.00     0.186 C 
HETATM    9  C3  UNL     1     -24.403   1.227  11.963  1.00  0.00     0.185 C 
HETATM   10  C4  UNL     1     -24.756   0.488  13.212  1.00  0.00     0.245 C 
HETATM   11  C5  UNL     1     -25.987  -0.349  13.173  1.00  0.00     0.218 C 
HETATM   12  C6  UNL     1     -27.150   0.234  12.427  1.00  0.00     0.070 C 
HETATM   13  C7  UNL     1     -26.822   1.635  12.031  1.00  0.00     0.217 C 
BRANCH   9  14
HETATM   14  O1  UNL     1     -23.573   2.296  12.353  1.00  0.00    -0.379 OA
BRANCH  14  15
HETATM   15  C2  UNL     1     -22.934   2.929  11.335  1.00  0.00     0.195 C 
BRANCH  15  16
HETATM   16  C1  UNL     1     -22.939   4.414  11.322  1.00  0.00     0.255 C 
BRANCH  16  17
HETATM   17  N1  UNL     1     -24.198   5.016  11.633  1.00  0.00    -0.077 N 
ATOM     18  H13 UNL     1     -24.799   5.023  10.808  1.00  0.00     0.274 HD
ATOM     19  H12 UNL     1     -24.741   4.404  12.242  1.00  0.00     0.274 HD
ATOM     20  H11 UNL     1     -24.140   5.953  12.034  1.00  0.00     0.274 HD
ENDBRANCH  16  17
ENDBRANCH  15  16
ENDBRANCH  14  15
ENDBRANCH   9  14
BRANCH  10  21
HETATM   21  N2  UNL     1     -24.690   1.337  14.399  1.00  0.00    -0.070 N 
ATOM     22  H23 UNL     1     -25.374   1.046  15.098  1.00  0.00     0.274 HD
ATOM     23  H22 UNL     1     -23.833   1.166  14.926  1.00  0.00     0.274 HD
ATOM     24  H21 UNL     1     -24.792   2.327  14.174  1.00  0.00     0.274 HD
ENDBRANCH  10  21
BRANCH  11  25
HETATM   25  N3  UNL     1     -26.478  -0.645  14.533  1.00  0.00    -0.073 N 
ATOM     26  H33 UNL     1     -25.921  -1.373  14.981  1.00  0.00     0.274 HD
ATOM     27  H32 UNL     1     -26.282   0.121  15.176  1.00  0.00     0.274 HD
ATOM     28  H31 UNL     1     -27.469  -0.884  14.525  1.00  0.00     0.274 HD
ENDBRANCH  11  25
BRANCH  13  29
HETATM   29  N4  UNL     1     -27.975   2.348  11.462  1.00  0.00    -0.072 N 
ATOM     30  H43 UNL     1     -28.593   1.707  10.965  1.00  0.00     0.274 HD
ATOM     31  H42 UNL     1     -28.613   2.657  12.195  1.00  0.00     0.274 HD
ATOM     32  H41 UNL     1     -27.699   3.128  10.864  1.00  0.00     0.274 HD
ENDBRANCH  13  29
ENDBRANCH   7   8
ENDBRANCH   1   7
BRANCH   6  33
HETATM   33  N9  UNL     1     -23.545   0.837   8.526  1.00  0.00    -0.070 N 
ATOM     34  H93 UNL     1     -23.418   1.140   9.491  1.00  0.00     0.274 HD
ATOM     35  H92 UNL     1     -23.818  -0.131   8.692  1.00  0.00     0.274 HD
ATOM     36  H91 UNL     1     -22.668   0.887   8.007  1.00  0.00     0.274 HD
ENDBRANCH   6  33
BRANCH   3  37
HETATM   37  O4  UNL     1     -26.838   4.777   8.113  1.00  0.00    -0.349 OA
BRANCH  37  38
HETATM   38  C11 UNL     1     -27.232   5.639   9.131  1.00  0.00     0.188 C 
HETATM   39  C12 UNL     1     -28.651   6.013   8.936  1.00  0.00     0.216 C 
HETATM   40  C13 UNL     1     -29.130   7.281   9.513  1.00  0.00     0.070 C 
HETATM   41  C14 UNL     1     -28.137   8.243  10.038  1.00  0.00     0.216 C 
HETATM   42  C15 UNL     1     -26.835   7.611  10.468  1.00  0.00     0.181 C 
HETATM   43  C16 UNL     1     -26.358   6.842   9.247  1.00  0.00     0.244 C 
BRANCH  39  44
HETATM   44  N5  UNL     1     -29.448   4.925   9.535  1.00  0.00    -0.072 N 
ATOM     45  H53 UNL     1     -29.217   4.741  10.511  1.00  0.00     0.274 HD
ATOM     46  H52 UNL     1     -30.426   5.173   9.684  1.00  0.00     0.274 HD
ATOM     47  H51 UNL     1     -29.323   4.114   8.929  1.00  0.00     0.274 HD
ENDBRANCH  39  44
BRANCH  41  48
HETATM   48  N6  UNL     1     -28.656   8.981  11.177  1.00  0.00    -0.072 N 
ATOM     49  H63 UNL     1     -29.314   8.419  11.715  1.00  0.00     0.274 HD
ATOM     50  H62 UNL     1     -27.939   9.115  11.891  1.00  0.00     0.274 HD
ATOM     51  H61 UNL     1     -29.069   9.870  10.894  1.00  0.00     0.274 HD
ENDBRANCH  41  48
BRANCH  42  52
HETATM   52  O5  UNL     1     -27.078   6.683  11.481  1.00  0.00    -0.391 OA
ATOM     53  H5  UNL     1     -26.305   6.148  11.615  1.00  0.00     0.210 HD
ENDBRANCH  42  52
BRANCH  43  54
HETATM   54  N7  UNL     1     -26.474   7.731   8.121  1.00  0.00    -0.070 N 
ATOM     55  H73 UNL     1     -25.557   8.061   7.821  1.00  0.00     0.274 HD
ATOM     56  H72 UNL     1     -26.751   7.222   7.282  1.00  0.00     0.274 HD
ATOM     57  H71 UNL     1     -27.104   8.514   8.297  1.00  0.00     0.274 HD
ENDBRANCH  43  54
ENDBRANCH  37  38
ENDBRANCH   3  37
BRANCH   4  58
HETATM   58  N8  UNL     1     -26.264   3.385   6.142  1.00  0.00    -0.070 N 
ATOM     59  H83 UNL     1     -27.128   3.765   6.528  1.00  0.00     0.274 HD
ATOM     60  H82 UNL     1     -26.278   3.857   5.238  1.00  0.00     0.274 HD
ATOM     61  H81 UNL     1     -26.311   2.371   6.039  1.00  0.00     0.274 HD
ENDBRANCH   4  58
TORSDOF 17
ENDMDL
MODEL 3
REMARK VINA RESULT: -4.713748979      3.114      6.883
REMARK  17 active torsions:
REMARK  status: ('A' for Active; 'I' for Inactive)
REMARK    1  A    between atoms: N1_1  and  C1_5 
REMARK    2  A    between atoms: C1_5  and  C2_6 
REMARK    3  A    between atoms: C2_6  and  O1_7 
REMARK    4  A    between atoms: O1_7  and  C3_8 
REMARK    5  A    between atoms: C4_9  and  N2_10 
REMARK    6  A    between atoms: C5_14  and  N3_15 
REMARK    7  A    between atoms: C7_20  and  N4_21 
REMARK    8  A    between atoms: C8_25  and  O2_26 
REMARK    9  A    between atoms: O2_26  and  C9_27 
REMARK   10  A    between atoms: C10_29  and  O4_30 
REMARK   11  A    between atoms: O4_30  and  C11_31 
REMARK   12  A    between atoms: C12_32  and  N5_33 
REMARK   13  A    between atoms: C14_38  and  N6_39 
REMARK   14  A    between atoms: C15_43  and  O5_44 
REMARK   15  A    between atoms: C16_46  and  N7_47 
REMARK   16  A    between atoms: C17_51  and  N8_52 
REMARK   17  A    between atoms: C19_57  and  N9_58 
ROOT
HETATM    1  C9  UNL     1     -26.344   2.767  10.963  1.00  0.00     0.294 C 
HETATM    2  O3  UNL     1     -27.456   2.762  11.831  1.00  0.00    -0.327 OA
HETATM    3  C10 UNL     1     -28.571   3.362  11.337  1.00  0.00     0.293 C 
HETATM    4  C17 UNL     1     -28.307   4.475  10.350  1.00  0.00     0.240 C 
HETATM    5  C18 UNL     1     -27.031   5.174  10.665  1.00  0.00     0.075 C 
HETATM    6  C19 UNL     1     -25.892   4.178  10.644  1.00  0.00     0.240 C 
ENDROOT
BRANCH   1   7
HETATM    7  O2  UNL     1     -25.337   2.132  11.593  1.00  0.00    -0.349 OA
BRANCH   7   8
HETATM    8  C8  UNL     1     -24.801   1.001  11.100  1.00  0.00     0.186 C 
HETATM    9  C3  UNL     1     -24.627   0.003  12.231  1.00  0.00     0.185 C 
HETATM   10  C4  UNL     1     -23.219  -0.443  12.450  1.00  0.00     0.245 C 
HETATM   11  C5  UNL     1     -22.154   0.581  12.271  1.00  0.00     0.218 C 
HETATM   12  C6  UNL     1     -22.349   1.535  11.130  1.00  0.00     0.070 C 
HETATM   13  C7  UNL     1     -23.530   1.099  10.328  1.00  0.00     0.217 C 
BRANCH   9  14
HETATM   14  O1  UNL     1     -25.373  -1.157  11.944  1.00  0.00    -0.379 OA
BRANCH  14  15
HETATM   15  C2  UNL     1     -26.197  -1.572  12.940  1.00  0.00     0.195 C 
BRANCH  15  16
HETATM   16  C1  UNL     1     -26.645  -0.571  13.941  1.00  0.00     0.255 C 
BRANCH  16  17
HETATM   17  N1  UNL     1     -27.409  -1.104  15.026  1.00  0.00    -0.077 N 
ATOM     18  H13 UNL     1     -26.861  -1.086  15.886  1.00  0.00     0.274 HD
ATOM     19  H12 UNL     1     -28.159  -0.459  15.280  1.00  0.00     0.274 HD
ATOM     20  H11 UNL     1     -27.787  -2.039  14.868  1.00  0.00     0.274 HD
ENDBRANCH  16  17
ENDBRANCH  15  16
ENDBRANCH  14  15
ENDBRANCH   9  14
BRANCH  10  21
HETATM   21  N2  UNL     1     -22.918  -1.695  11.762  1.00  0.00    -0.070 N 
ATOM     22  H23 UNL     1     -21.915  -1.796  11.603  1.00  0.00     0.274 HD
ATOM     23  H22 UNL     1     -23.068  -2.497  12.375  1.00  0.00     0.274 HD
ATOM     24  H21 UNL     1     -23.440  -1.795  10.891  1.00  0.00     0.274 HD
ENDBRANCH  10  21
BRANCH  11  25
HETATM   25  N3  UNL     1     -20.835  -0.047  12.060  1.00  0.00    -0.073 N 
ATOM     26  H33 UNL     1     -20.113   0.651  11.878  1.00  0.00     0.274 HD
ATOM     27  H32 UNL     1     -20.463  -0.434  12.927  1.00  0.00     0.274 HD
ATOM     28  H31 UNL     1     -20.872  -0.749  11.321  1.00  0.00     0.274 HD
ENDBRANCH  11  25
BRANCH  13  29
HETATM   29  N4  UNL     1     -23.683   1.865   9.082  1.00  0.00    -0.072 N 
ATOM     30  H43 UNL     1     -23.029   2.648   9.051  1.00  0.00     0.274 HD
ATOM     31  H42 UNL     1     -23.342   1.333   8.282  1.00  0.00     0.274 HD
ATOM     32  H41 UNL     1     -24.641   2.181   8.930  1.00  0.00     0.274 HD
ENDBRANCH  13  29
ENDBRANCH   7   8
ENDBRANCH   1   7
BRANCH   6  33
HETATM   33  N9  UNL     1     -24.785   4.607  11.471  1.00  0.00    -0.070 N 
ATOM     34  H93 UNL     1     -23.928   4.687  10.924  1.00  0.00     0.274 HD
ATOM     35  H92 UNL     1     -24.893   5.582  11.750  1.00  0.00     0.274 HD
ATOM     36  H91 UNL     1     -24.646   4.006  12.284  1.00  0.00     0.274 HD
ENDBRANCH   6  33
BRANCH   3  37
HETATM   37  O4  UNL     1     -29.399   2.457  10.678  1.00  0.00    -0.349 OA
BRANCH  37  38
HETATM   38  C11 UNL     1     -29.711   1.334  11.437  1.00  0.00     0.188 C 
HETATM   39  C12 UNL     1     -29.603   0.125  10.592  1.00  0.00     0.216 C 
HETATM   40  C13 UNL     1     -30.378  -1.069  10.968  1.00  0.00     0.070 C 
HETATM   41  C14 UNL     1     -31.419  -0.940  12.012  1.00  0.00     0.216 C 
HETATM   42  C15 UNL     1     -31.187   0.199  12.976  1.00  0.00     0.181 C 
HETATM   43  C16 UNL     1     -31.047   1.428  12.093  1.00  0.00     0.244 C 
BRANCH  39  44
HETATM   44  N5  UNL     1     -28.175  -0.255  10.600  1.00  0.00    -0.072 N 
ATOM     45  H53 UNL     1     -28.012  -1.225  10.331  1.00  0.00     0.274 HD
ATOM     46  H52 UNL     1     -27.637   0.175   9.848  1.00  0.00     0.274 HD
ATOM     47  H51 UNL     1     -27.826  -0.027  11.531  1.00  0.00     0.274 HD
ENDBRANCH  39  44
BRANCH  41  48
HETATM   48  N6  UNL     1     -31.541  -2.155  12.800  1.00  0.00    -0.072 N 
ATOM     49  H63 UNL     1     -30.809  -2.213  13.508  1.00  0.00     0.274 HD
ATOM     50  H62 UNL     1     -32.355  -2.119  13.415  1.00  0.00     0.274 HD
ATOM     51  H61 UNL     1     -31.556  -2.987  12.211  1.00  0.00     0.274 HD
ENDBRANCH  41  48
BRANCH  42  52
HETATM   52  O5  UNL     1     -29.970   0.014  13.633  1.00  0.00    -0.391 OA
ATOM     53  H5  UNL     1     -29.774  -0.914  13.686  1.00  0.00     0.210 HD
ENDBRANCH  42  52
BRANCH  43  54
HETATM   54  N7  UNL     1     -32.137   1.394  11.154  1.00  0.00    -0.070 N 
ATOM     55  H73 UNL     1     -32.125   0.529  10.613  1.00  0.00     0.274 HD
ATOM     56  H72 UNL     1     -33.029   1.277  11.634  1.00  0.00     0.274 HD
ATOM     57  H71 UNL     1     -32.158   2.208  10.539  1.00  0.00     0.274 HD
ENDBRANCH  43  54
ENDBRANCH  37  38
ENDBRANCH   3  37
BRANCH   4  58
HETATM   58  N8  UNL     1     -28.409   4.002   9.009  1.00  0.00    -0.070 N 
ATOM     59  H83 UNL     1     -28.741   3.039   8.973  1.00  0.00     0.274 HD
ATOM     60  H82 UNL     1     -29.178   4.449   8.510  1.00  0.00     0.274 HD
ATOM     61  H81 UNL     1     -27.524   4.114   8.514  1.00  0.00     0.274 HD
ENDBRANCH   4  58
TORSDOF 17
ENDMDL
MODEL 4
REMARK VINA RESULT: -4.704250758      4.433      6.983
REMARK  17 active torsions:
REMARK  status: ('A' for Active; 'I' for Inactive)
REMARK    1  A    between atoms: N1_1  and  C1_5 
REMARK    2  A    between atoms: C1_5  and  C2_6 
REMARK    3  A    between atoms: C2_6  and  O1_7 
REMARK    4  A    between atoms: O1_7  and  C3_8 
REMARK    5  A    between atoms: C4_9  and  N2_10 
REMARK    6  A    between atoms: C5_14  and  N3_15 
REMARK    7  A    between atoms: C7_20  and  N4_21 
REMARK    8  A    between atoms: C8_25  and  O2_26 
REMARK    9  A    between atoms: O2_26  and  C9_27 
REMARK   10  A    between atoms: C10_29  and  O4_30 
REMARK   11  A    between atoms: O4_30  and  C11_31 
REMARK   12  A    between atoms: C12_32  and  N5_33 
REMARK   13  A    between atoms: C14_38  and  N6_39 
REMARK   14  A    between atoms: C15_43  and  O5_44 
REMARK   15  A    between atoms: C16_46  and  N7_47 
REMARK   16  A    between atoms: C17_51  and  N8_52 
REMARK   17  A    between atoms: C19_57  and  N9_58 
ROOT
HETATM    1  C9  UNL     1     -25.471   1.742   8.908  1.00  0.00     0.294 C 
HETATM    2  O3  UNL     1     -25.206   3.051   9.360  1.00  0.00    -0.327 OA
HETATM    3  C10 UNL     1     -25.086   3.983   8.377  1.00  0.00     0.293 C 
HETATM    4  C17 UNL     1     -24.571   3.450   7.060  1.00  0.00     0.240 C 
HETATM    5  C18 UNL     1     -23.638   2.311   7.274  1.00  0.00     0.075 C 
HETATM    6  C19 UNL     1     -24.349   1.214   8.038  1.00  0.00     0.240 C 
ENDROOT
BRANCH   1   7
HETATM    7  O2  UNL     1     -25.571   0.952   9.995  1.00  0.00    -0.349 OA
BRANCH   7   8
HETATM    8  C8  UNL     1     -25.287   1.411  11.227  1.00  0.00     0.186 C 
HETATM    9  C3  UNL     1     -24.305   0.465  11.892  1.00  0.00     0.185 C 
HETATM   10  C4  UNL     1     -24.796  -0.140  13.166  1.00  0.00     0.245 C 
HETATM   11  C5  UNL     1     -26.240  -0.497  13.228  1.00  0.00     0.218 C 
HETATM   12  C6  UNL     1     -27.182   0.474  12.579  1.00  0.00     0.070 C 
HETATM   13  C7  UNL     1     -26.418   1.685  12.158  1.00  0.00     0.217 C 
BRANCH   9  14
HETATM   14  O1  UNL     1     -23.127   1.169  12.213  1.00  0.00    -0.379 OA
BRANCH  14  15
HETATM   15  C2  UNL     1     -21.975   0.583  11.795  1.00  0.00     0.195 C 
BRANCH  15  16
HETATM   16  C1  UNL     1     -21.028   0.088  12.825  1.00  0.00     0.255 C 
BRANCH  16  17
HETATM   17  N1  UNL     1     -21.173  -1.295  13.163  1.00  0.00    -0.077 N 
ATOM     18  H13 UNL     1     -22.155  -1.567  13.119  1.00  0.00     0.274 HD
ATOM     19  H12 UNL     1     -20.792  -1.882  12.421  1.00  0.00     0.274 HD
ATOM     20  H11 UNL     1     -20.774  -1.561  14.064  1.00  0.00     0.274 HD
ENDBRANCH  16  17
ENDBRANCH  15  16
ENDBRANCH  14  15
ENDBRANCH   9  14
BRANCH  10  21
HETATM   21  N2  UNL     1     -24.348   0.600  14.343  1.00  0.00    -0.070 N 
ATOM     22  H23 UNL     1     -23.693   0.047  14.897  1.00  0.00     0.274 HD
ATOM     23  H22 UNL     1     -23.730   1.369  14.080  1.00  0.00     0.274 HD
ATOM     24  H21 UNL     1     -25.126   0.931  14.914  1.00  0.00     0.274 HD
ENDBRANCH  10  21
BRANCH  11  25
HETATM   25  N3  UNL     1     -26.698  -0.643  14.623  1.00  0.00    -0.073 N 
ATOM     26  H33 UNL     1     -26.383   0.135  15.204  1.00  0.00     0.274 HD
ATOM     27  H32 UNL     1     -27.704  -0.502  14.703  1.00  0.00     0.274 HD
ATOM     28  H31 UNL     1     -26.413  -1.541  15.015  1.00  0.00     0.274 HD
ENDBRANCH  11  25
BRANCH  13  29
HETATM   29  N4  UNL     1     -27.291   2.769  11.684  1.00  0.00    -0.072 N 
ATOM     30  H43 UNL     1     -27.867   2.460  10.901  1.00  0.00     0.274 HD
ATOM     31  H42 UNL     1     -28.026   2.969  12.361  1.00  0.00     0.274 HD
ATOM     32  H41 UNL     1     -26.773   3.615  11.445  1.00  0.00     0.274 HD
ENDBRANCH  13  29
ENDBRANCH   7   8
ENDBRANCH   1   7
BRANCH   6  33
HETATM   33  N9  UNL     1     -23.421   0.380   8.771  1.00  0.00    -0.070 N 
ATOM     34  H93 UNL     1     -22.744   0.946   9.281  1.00  0.00     0.274 HD
ATOM     35  H92 UNL     1     -23.882  -0.075   9.558  1.00  0.00     0.274 HD
ATOM     36  H91 UNL     1     -22.952  -0.304   8.175  1.00  0.00     0.274 HD
ENDBRANCH   6  33
BRANCH   3  37
HETATM   37  O4  UNL     1     -26.301   4.597   8.091  1.00  0.00    -0.349 OA
BRANCH  37  38
HETATM   38  C11 UNL     1     -26.861   5.257   9.181  1.00  0.00     0.188 C 
HETATM   39  C12 UNL     1     -28.248   5.654   8.855  1.00  0.00     0.216 C 
HETATM   40  C13 UNL     1     -28.842   6.792   9.575  1.00  0.00     0.070 C 
HETATM   41  C14 UNL     1     -27.962   7.647  10.402  1.00  0.00     0.216 C 
HETATM   42  C15 UNL     1     -26.715   6.953  10.894  1.00  0.00     0.181 C 
HETATM   43  C16 UNL     1     -26.048   6.421   9.636  1.00  0.00     0.244 C 
BRANCH  39  44
HETATM   44  N5  UNL     1     -29.088   4.471   9.127  1.00  0.00    -0.072 N 
ATOM     45  H53 UNL     1     -28.582   3.588   9.058  1.00  0.00     0.274 HD
ATOM     46  H52 UNL     1     -29.360   4.382  10.106  1.00  0.00     0.274 HD
ATOM     47  H51 UNL     1     -29.883   4.534   8.490  1.00  0.00     0.274 HD
ENDBRANCH  39  44
BRANCH  41  48
HETATM   48  N6  UNL     1     -28.658   8.163  11.569  1.00  0.00    -0.072 N 
ATOM     49  H63 UNL     1     -29.620   8.416  11.346  1.00  0.00     0.274 HD
ATOM     50  H62 UNL     1     -28.841   7.424  12.249  1.00  0.00     0.274 HD
ATOM     51  H61 UNL     1     -28.155   8.943  11.993  1.00  0.00     0.274 HD
ENDBRANCH  41  48
BRANCH  42  52
HETATM   52  O5  UNL     1     -27.069   5.855  11.678  1.00  0.00    -0.391 OA
ATOM     53  H5  UNL     1     -26.497   5.805  12.434  1.00  0.00     0.210 HD
ENDBRANCH  42  52
BRANCH  43  54
HETATM   54  N7  UNL     1     -26.032   7.501   8.683  1.00  0.00    -0.070 N 
ATOM     55  H73 UNL     1     -25.130   7.977   8.688  1.00  0.00     0.274 HD
ATOM     56  H72 UNL     1     -26.027   7.144   7.728  1.00  0.00     0.274 HD
ATOM     57  H71 UNL     1     -26.795   8.163   8.821  1.00  0.00     0.274 HD
ENDBRANCH  43  54
ENDBRANCH  37  38
ENDBRANCH   3  37
BRANCH   4  58
HETATM   58  N8  UNL     1     -25.648   3.176   6.166  1.00  0.00    -0.070 N 
ATOM     59  H83 UNL     1     -25.699   3.866   5.416  1.00  0.00     0.274 HD
ATOM     60  H82 UNL     1     -25.466   2.347   5.600  1.00  0.00     0.274 HD
ATOM     61  H81 UNL     1     -26.531   3.101   6.670  1.00  0.00     0.274 HD
ENDBRANCH   4  58
TORSDOF 17
ENDMDL
MODEL 5
REMARK VINA RESULT: -4.686420130      3.792      7.479
REMARK  17 active torsions:
REMARK  status: ('A' for Active; 'I' for Inactive)
REMARK    1  A    between atoms: N1_1  and  C1_5 
REMARK    2  A    between atoms: C1_5  and  C2_6 
REMARK    3  A    between atoms: C2_6  and  O1_7 
REMARK    4  A    between atoms: O1_7  and  C3_8 
REMARK    5  A    between atoms: C4_9  and  N2_10 
REMARK    6  A    between atoms: C5_14  and  N3_15 
REMARK    7  A    between atoms: C7_20  and  N4_21 
REMARK    8  A    between atoms: C8_25  and  O2_26 
REMARK    9  A    between atoms: O2_26  and  C9_27 
REMARK   10  A    between atoms: C10_29  and  O4_30 
REMARK   11  A    between atoms: O4_30  and  C11_31 
REMARK   12  A    between atoms: C12_32  and  N5_33 
REMARK   13  A    between atoms: C14_38  and  N6_39 
REMARK   14  A    between atoms: C15_43  and  O5_44 
REMARK   15  A    between atoms: C16_46  and  N7_47 
REMARK   16  A    between atoms: C17_51  and  N8_52 
REMARK   17  A    between atoms: C19_57  and  N9_58 
ROOT
HETATM    1  C9  UNL     1     -27.333   2.460   9.848  1.00  0.00     0.294 C 
HETATM    2  O3  UNL     1     -26.207   2.208  10.658  1.00  0.00    -0.327 OA
HETATM    3  C10 UNL     1     -26.464   1.503  11.792  1.00  0.00     0.293 C 
HETATM    4  C17 UNL     1     -27.853   1.696  12.355  1.00  0.00     0.240 C 
HETATM    5  C18 UNL     1     -28.359   3.066  12.069  1.00  0.00     0.075 C 
HETATM    6  C19 UNL     1     -28.366   3.298  10.573  1.00  0.00     0.240 C 
ENDROOT
BRANCH   1   7
HETATM    7  O2  UNL     1     -26.909   3.150   8.771  1.00  0.00    -0.349 OA
BRANCH   7   8
HETATM    8  C8  UNL     1     -25.648   3.040   8.317  1.00  0.00     0.186 C 
HETATM    9  C3  UNL     1     -25.175   4.399   7.836  1.00  0.00     0.185 C 
HETATM   10  C4  UNL     1     -24.777   4.442   6.397  1.00  0.00     0.245 C 
HETATM   11  C5  UNL     1     -25.584   3.625   5.452  1.00  0.00     0.218 C 
HETATM   12  C6  UNL     1     -26.013   2.277   5.954  1.00  0.00     0.070 C 
HETATM   13  C7  UNL     1     -25.360   2.018   7.270  1.00  0.00     0.217 C 
BRANCH   9  14
HETATM   14  O1  UNL     1     -24.040   4.784   8.577  1.00  0.00    -0.379 OA
BRANCH  14  15
HETATM   15  C2  UNL     1     -24.280   5.097   9.876  1.00  0.00     0.195 C 
BRANCH  15  16
HETATM   16  C1  UNL     1     -23.337   4.589  10.904  1.00  0.00     0.255 C 
BRANCH  16  17
HETATM   17  N1  UNL     1     -23.956   4.036  12.069  1.00  0.00    -0.077 N 
ATOM     18  H13 UNL     1     -24.419   4.771  12.604  1.00  0.00     0.274 HD
ATOM     19  H12 UNL     1     -24.763   3.472  11.806  1.00  0.00     0.274 HD
ATOM     20  H11 UNL     1     -23.332   3.500  12.674  1.00  0.00     0.274 HD
ENDBRANCH  16  17
ENDBRANCH  15  16
ENDBRANCH  14  15
ENDBRANCH   9  14
BRANCH  10  21
HETATM   21  N2  UNL     1     -23.339   4.262   6.213  1.00  0.00    -0.070 N 
ATOM     22  H23 UNL     1     -23.010   4.758   5.384  1.00  0.00     0.274 HD
ATOM     23  H22 UNL     1     -22.811   4.766   6.926  1.00  0.00     0.274 HD
ATOM     24  H21 UNL     1     -23.071   3.278   6.183  1.00  0.00     0.274 HD
ENDBRANCH  10  21
BRANCH  11  25
HETATM   25  N3  UNL     1     -24.853   3.380   4.194  1.00  0.00    -0.073 N 
ATOM     26  H33 UNL     1     -24.898   4.187   3.571  1.00  0.00     0.274 HD
ATOM     27  H32 UNL     1     -23.845   3.357   4.346  1.00  0.00     0.274 HD
ATOM     28  H31 UNL     1     -25.181   2.531   3.732  1.00  0.00     0.274 HD
ENDBRANCH  11  25
BRANCH  13  29
HETATM   29  N4  UNL     1     -25.573   0.644   7.748  1.00  0.00    -0.072 N 
ATOM     30  H43 UNL     1     -24.702   0.233   8.081  1.00  0.00     0.274 HD
ATOM     31  H42 UNL     1     -26.103   0.637   8.619  1.00  0.00     0.274 HD
ATOM     32  H41 UNL     1     -26.015   0.049   7.047  1.00  0.00     0.274 HD
ENDBRANCH  13  29
ENDBRANCH   7   8
ENDBRANCH   1   7
BRANCH   6  33
HETATM   33  N9  UNL     1     -28.272   4.704  10.246  1.00  0.00    -0.070 N 
ATOM     34  H93 UNL     1     -27.377   4.919   9.808  1.00  0.00     0.274 HD
ATOM     35  H92 UNL     1     -28.894   4.942   9.474  1.00  0.00     0.274 HD
ATOM     36  H91 UNL     1     -28.441   5.307  11.052  1.00  0.00     0.274 HD
ENDBRANCH   6  33
BRANCH   3  37
HETATM   37  O4  UNL     1     -26.318   0.133  11.597  1.00  0.00    -0.349 OA
BRANCH  37  38
HETATM   38  C11 UNL     1     -25.100  -0.366  12.048  1.00  0.00     0.188 C 
HETATM   39  C12 UNL     1     -24.674   0.389  13.247  1.00  0.00     0.216 C 
HETATM   40  C13 UNL     1     -23.239   0.441  13.573  1.00  0.00     0.070 C 
HETATM   41  C14 UNL     1     -22.264  -0.036  12.568  1.00  0.00     0.216 C 
HETATM   42  C15 UNL     1     -22.827  -1.045  11.595  1.00  0.00     0.181 C 
HETATM   43  C16 UNL     1     -24.045  -0.364  10.994  1.00  0.00     0.244 C 
BRANCH  39  44
HETATM   44  N5  UNL     1     -25.365  -0.237  14.392  1.00  0.00    -0.072 N 
ATOM     45  H53 UNL     1     -25.846   0.433  14.992  1.00  0.00     0.274 HD
ATOM     46  H52 UNL     1     -26.187  -0.777  14.125  1.00  0.00     0.274 HD
ATOM     47  H51 UNL     1     -24.659  -0.788  14.883  1.00  0.00     0.274 HD
ENDBRANCH  39  44
BRANCH  41  48
HETATM   48  N6  UNL     1     -21.101  -0.642  13.194  1.00  0.00    -0.072 N 
ATOM     49  H63 UNL     1     -20.869  -1.536  12.761  1.00  0.00     0.274 HD
ATOM     50  H62 UNL     1     -20.248  -0.130  12.969  1.00  0.00     0.274 HD
ATOM     51  H61 UNL     1     -21.223  -0.738  14.202  1.00  0.00     0.274 HD
ENDBRANCH  41  48
BRANCH  42  52
HETATM   52  O5  UNL     1     -23.275  -2.167  12.293  1.00  0.00    -0.391 OA
ATOM     53  H5  UNL     1     -22.578  -2.811  12.343  1.00  0.00     0.210 HD
ENDBRANCH  42  52
BRANCH  43  54
HETATM   54  N7  UNL     1     -23.635   0.963  10.612  1.00  0.00    -0.070 N 
ATOM     55  H73 UNL     1     -24.062   1.235   9.727  1.00  0.00     0.274 HD
ATOM     56  H72 UNL     1     -24.054   1.664  11.223  1.00  0.00     0.274 HD
ATOM     57  H71 UNL     1     -22.621   1.070  10.576  1.00  0.00     0.274 HD
ENDBRANCH  43  54
ENDBRANCH  37  38
ENDBRANCH   3  37
BRANCH   4  58
HETATM   58  N8  UNL     1     -28.721   0.643  11.941  1.00  0.00    -0.070 N 
ATOM     59  H83 UNL     1     -28.257   0.005  11.294  1.00  0.00     0.274 HD
ATOM     60  H82 UNL     1     -28.906  -0.013  12.699  1.00  0.00     0.274 HD
ATOM     61  H81 UNL     1     -29.585   1.017  11.547  1.00  0.00     0.274 HD
ENDBRANCH   4  58
TORSDOF 17
ENDMDL
