MODEL 1
REMARK VINA RESULT: -4.834791815      0.000      0.000
REMARK  17 active torsions:
REMARK  status: ('A' for Active; 'I' for Inactive)
REMARK    1  A    between atoms: C2_2  and  C4_4 
REMARK    2  A    between atoms: C4_4  and  N1_5 
REMARK    3  A    between atoms: C4_4  and  C5_9 
REMARK    4  A    between atoms: C5_9  and  C6_10 
REMARK    5  A    between atoms: C6_10  and  O1_11 
REMARK    6  A    between atoms: C6_10  and  N2_13 
REMARK    7  A    between atoms: N2_13  and  C7_15 
REMARK    8  A    between atoms: C8_17  and  O3_18 
REMARK    9  A    between atoms: O3_18  and  C9_19 
REMARK   10  A    between atoms: C10_20  and  N3_21 
REMARK   11  A    between atoms: C12_26  and  N4_27 
REMARK   12  A    between atoms: C13_31  and  N5_32 
REMARK   13  A    between atoms: C15_37  and  C16_38 
REMARK   14  A    between atoms: C16_38  and  N8_39 
REMARK   15  A    between atoms: C16_38  and  N9_43 
REMARK   16  A    between atoms: C17_47  and  N10_48 
REMARK   17  A    between atoms: C19_53  and  N11_54 
ROOT
HETATM    1  O3  UNL     1     -23.389   2.508  10.269  1.00  0.00    -0.351 OA
ENDROOT
BRANCH   1   2
HETATM    2  C8  UNL     1     -23.063   1.672  11.352  1.00  0.00     0.293 C 
HETATM    3  O2  UNL     1     -24.154   1.068  11.884  1.00  0.00    -0.333 OA
HETATM    4  C7  UNL     1     -23.993  -0.301  12.204  1.00  0.00     0.252 C 
HETATM    5  C19 UNL     1     -22.693  -0.545  12.900  1.00  0.00     0.233 C 
HETATM    6  C18 UNL     1     -21.481  -0.030  12.139  1.00  0.00     0.075 C 
HETATM    7  C17 UNL     1     -21.920   0.791  10.969  1.00  0.00     0.240 C 
BRANCH   4   8
HETATM    8  N2  UNL     1     -25.119  -0.701  12.898  1.00  0.00    -0.369 N 
ATOM      9  H2  UNL     1     -24.997  -1.534  13.474  1.00  0.00     0.158 HD
BRANCH   8  10
HETATM   10  C6  UNL     1     -26.372  -0.151  12.934  1.00  0.00     0.217 C 
BRANCH  10  11
HETATM   11  C5  UNL     1     -27.267  -0.320  11.765  1.00  0.00     0.086 C 
BRANCH  11  12
HETATM   12  C4  UNL     1     -28.694  -0.700  12.221  1.00  0.00     0.191 C 
BRANCH  12  13
HETATM   13  C2  UNL     1     -28.975  -2.158  11.966  1.00  0.00     0.008 C 
HETATM   14  C1  UNL     1     -28.123  -2.570  10.780  1.00  0.00     0.011 C 
HETATM   15  C3  UNL     1     -28.614  -3.053  13.110  1.00  0.00     0.011 C 
ENDBRANCH  12  13
BRANCH  12  16
HETATM   16  N1  UNL     1     -28.815  -0.464  13.645  1.00  0.00    -0.075 N 
ATOM     17  H13 UNL     1     -29.616  -0.941  14.058  1.00  0.00     0.274 HD
ATOM     18  H12 UNL     1     -28.085  -0.928  14.186  1.00  0.00     0.274 HD
ATOM     19  H11 UNL     1     -28.835   0.545  13.796  1.00  0.00     0.274 HD
ENDBRANCH  12  16
ENDBRANCH  11  12
ENDBRANCH  10  11
BRANCH  10  20
HETATM   20  O1  UNL     1     -26.388   1.202  13.384  1.00  0.00    -0.377 OA
ATOM     21  H1  UNL     1     -25.503   1.510  13.548  1.00  0.00     0.212 HD
ENDBRANCH  10  20
ENDBRANCH   8  10
ENDBRANCH   4   8
BRANCH   5  22
HETATM   22  N11 UNL     1     -22.740   0.099  14.204  1.00  0.00    -0.071 N 
ATOM     23 3H11 UNL     1     -23.134   1.039  14.162  1.00  0.00     0.274 HD
ATOM     24 2H11 UNL     1     -23.437  -0.316  14.821  1.00  0.00     0.274 HD
ATOM     25 1H11 UNL     1     -21.802   0.085  14.605  1.00  0.00     0.274 HD
ENDBRANCH   5  22
BRANCH   7  26
HETATM   26  N10 UNL     1     -22.074   0.067   9.745  1.00  0.00    -0.070 N 
ATOM     27 3H10 UNL     1     -22.806   0.496   9.177  1.00  0.00     0.274 HD
ATOM     28 2H10 UNL     1     -21.264   0.222   9.146  1.00  0.00     0.274 HD
ATOM     29 1H10 UNL     1     -22.250  -0.934   9.839  1.00  0.00     0.274 HD
ENDBRANCH   7  26
ENDBRANCH   1   2
BRANCH   1  30
HETATM   30  C9  UNL     1     -24.755   2.546  10.009  1.00  0.00     0.165 C 
HETATM   31  C10 UNL     1     -25.018   2.406   8.539  1.00  0.00     0.215 C 
HETATM   32  C11 UNL     1     -26.299   2.956   8.074  1.00  0.00     0.070 C 
HETATM   33  C12 UNL     1     -27.312   3.286   9.120  1.00  0.00     0.208 C 
HETATM   34  C13 UNL     1     -26.845   3.792  10.411  1.00  0.00     0.124 C 
HETATM   35  C15 UNL     1     -25.360   3.708  10.690  1.00  0.00     0.099 C 
BRANCH  31  36
HETATM   36  N3  UNL     1     -23.862   2.928   7.835  1.00  0.00    -0.072 N 
ATOM     37  H33 UNL     1     -23.976   3.901   7.552  1.00  0.00     0.274 HD
ATOM     38  H32 UNL     1     -23.052   3.059   8.443  1.00  0.00     0.274 HD
ATOM     39  H31 UNL     1     -23.672   2.306   7.050  1.00  0.00     0.274 HD
ENDBRANCH  31  36
BRANCH  33  40
HETATM   40  N4  UNL     1     -28.192   4.282   8.491  1.00  0.00    -0.073 N 
ATOM     41  H43 UNL     1     -28.332   4.138   7.491  1.00  0.00     0.274 HD
ATOM     42  H42 UNL     1     -29.173   4.195   8.758  1.00  0.00     0.274 HD
ATOM     43  H41 UNL     1     -27.776   5.183   8.727  1.00  0.00     0.274 HD
ENDBRANCH  33  40
BRANCH  34  44
HETATM   44  N5  UNL     1     -27.517   3.278  11.563  1.00  0.00    -0.360 N 
HETATM   45  C14 UNL     1     -28.654   3.450  12.038  1.00  0.00     0.197 C 
HETATM   46  N6  UNL     1     -28.991   2.745  13.245  1.00  0.00    -0.067 NA
HETATM   47  N7  UNL     1     -29.635   4.287  11.505  1.00  0.00    -0.067 NA
ATOM     48  H5  UNL     1     -26.945   2.636  12.110  1.00  0.00     0.162 HD
ENDBRANCH  34  44
BRANCH  35  49
HETATM   49  C16 UNL     1     -24.642   5.014  10.586  1.00  0.00     0.386 C 
BRANCH  49  50
HETATM   50  N8  UNL     1     -23.838   5.157  11.814  1.00  0.00    -0.050 N 
ATOM     51  H83 UNL     1     -24.375   5.000  12.667  1.00  0.00     0.276 HD
ATOM     52  H82 UNL     1     -23.165   4.402  11.944  1.00  0.00     0.276 HD
ATOM     53  H81 UNL     1     -23.405   6.079  11.776  1.00  0.00     0.276 HD
ENDBRANCH  49  50
BRANCH  49  54
HETATM   54  N9  UNL     1     -25.446   6.183  10.508  1.00  0.00    -0.050 N 
ATOM     55  H93 UNL     1     -26.002   6.159   9.652  1.00  0.00     0.276 HD
ATOM     56  H92 UNL     1     -26.184   6.138  11.211  1.00  0.00     0.276 HD
ATOM     57  H91 UNL     1     -24.964   7.079  10.576  1.00  0.00     0.276 HD
ENDBRANCH  49  54
ENDBRANCH  35  49
ENDBRANCH   1  30
TORSDOF 17
ENDMDL
MODEL 2
REMARK VINA RESULT: -4.700764914      5.221      6.787
REMARK  17 active torsions:
REMARK  status: ('A' for Active; 'I' for Inactive)
REMARK    1  A    between atoms: C2_2  and  C4_4 
REMARK    2  A    between atoms: C4_4  and  N1_5 
REMARK    3  A    between atoms: C4_4  and  C5_9 
REMARK    4  A    between atoms: C5_9  and  C6_10 
REMARK    5  A    between atoms: C6_10  and  O1_11 
REMARK    6  A    between atoms: C6_10  and  N2_13 
REMARK    7  A    between atoms: N2_13  and  C7_15 
REMARK    8  A    between atoms: C8_17  and  O3_18 
REMARK    9  A    between atoms: O3_18  and  C9_19 
REMARK   10  A    between atoms: C10_20  and  N3_21 
REMARK   11  A    between atoms: C12_26  and  N4_27 
REMARK   12  A    between atoms: C13_31  and  N5_32 
REMARK   13  A    between atoms: C15_37  and  C16_38 
REMARK   14  A    between atoms: C16_38  and  N8_39 
REMARK   15  A    between atoms: C16_38  and  N9_43 
REMARK   16  A    between atoms: C17_47  and  N10_48 
REMARK   17  A    between atoms: C19_53  and  N11_54 
ROOT
HETATM    1  O3  UNL     1     -23.550  -1.981  12.375  1.00  0.00    -0.351 OA
ENDROOT
BRANCH   1   2
HETATM    2  C8  UNL     1     -23.688  -3.089  11.520  1.00  0.00     0.293 C 
HETATM    3  O2  UNL     1     -22.962  -4.156  11.937  1.00  0.00    -0.333 OA
HETATM    4  C7  UNL     1     -23.622  -5.406  11.858  1.00  0.00     0.252 C 
HETATM    5  C19 UNL     1     -24.339  -5.558  10.555  1.00  0.00     0.233 C 
HETATM    6  C18 UNL     1     -25.306  -4.425  10.248  1.00  0.00     0.075 C 
HETATM    7  C17 UNL     1     -25.137  -3.322  11.243  1.00  0.00     0.240 C 
BRANCH   4   8
HETATM    8  N2  UNL     1     -22.690  -6.386  12.137  1.00  0.00    -0.369 N 
ATOM      9  H2  UNL     1     -21.798  -6.283  11.653  1.00  0.00     0.158 HD
BRANCH   8  10
HETATM   10  C6  UNL     1     -22.778  -7.475  12.963  1.00  0.00     0.217 C 
BRANCH  10  11
HETATM   11  C5  UNL     1     -23.542  -8.662  12.512  1.00  0.00     0.086 C 
BRANCH  11  12
HETATM   12  C4  UNL     1     -22.714  -9.951  12.711  1.00  0.00     0.191 C 
BRANCH  12  13
HETATM   13  C2  UNL     1     -21.278  -9.743  12.305  1.00  0.00     0.008 C 
HETATM   14  C1  UNL     1     -20.444 -10.712  13.124  1.00  0.00     0.011 C 
HETATM   15  C3  UNL     1     -21.010 -10.032  10.862  1.00  0.00     0.011 C 
ENDBRANCH  12  13
BRANCH  12  16
HETATM   16  N1  UNL     1     -22.734 -10.316  14.113  1.00  0.00    -0.075 N 
ATOM     17  H13 UNL     1     -22.472 -11.288  14.271  1.00  0.00     0.274 HD
ATOM     18  H12 UNL     1     -21.979  -9.882  14.645  1.00  0.00     0.274 HD
ATOM     19  H11 UNL     1     -23.657 -10.090  14.484  1.00  0.00     0.274 HD
ENDBRANCH  12  16
ENDBRANCH  11  12
ENDBRANCH  10  11
BRANCH  10  20
HETATM   20  O1  UNL     1     -23.116  -7.143  14.308  1.00  0.00    -0.377 OA
ATOM     21  H1  UNL     1     -22.885  -6.241  14.497  1.00  0.00     0.212 HD
ENDBRANCH  10  20
ENDBRANCH   8  10
ENDBRANCH   4   8
BRANCH   5  22
HETATM   22  N11 UNL     1     -23.349  -5.634   9.491  1.00  0.00    -0.071 N 
ATOM     23 3H11 UNL     1     -22.655  -4.889   9.547  1.00  0.00     0.274 HD
ATOM     24 2H11 UNL     1     -22.714  -6.424   9.602  1.00  0.00     0.274 HD
ATOM     25 1H11 UNL     1     -23.838  -5.648   8.595  1.00  0.00     0.274 HD
ENDBRANCH   5  22
BRANCH   7  26
HETATM   26  N10 UNL     1     -25.985  -3.407  12.392  1.00  0.00    -0.070 N 
ATOM     27 3H10 UNL     1     -25.652  -2.772  13.117  1.00  0.00     0.274 HD
ATOM     28 2H10 UNL     1     -26.892  -2.989  12.185  1.00  0.00     0.274 HD
ATOM     29 1H10 UNL     1     -26.114  -4.341  12.781  1.00  0.00     0.274 HD
ENDBRANCH   7  26
ENDBRANCH   1   2
BRANCH   1  30
HETATM   30  C9  UNL     1     -23.632  -0.766  11.702  1.00  0.00     0.165 C 
HETATM   31  C10 UNL     1     -22.267  -0.175  11.511  1.00  0.00     0.215 C 
HETATM   32  C11 UNL     1     -22.233   1.283  11.328  1.00  0.00     0.070 C 
HETATM   33  C12 UNL     1     -23.531   1.957  11.031  1.00  0.00     0.208 C 
HETATM   34  C13 UNL     1     -24.749   1.431  11.648  1.00  0.00     0.124 C 
HETATM   35  C15 UNL     1     -24.649   0.090  12.343  1.00  0.00     0.099 C 
BRANCH  31  36
HETATM   36  N3  UNL     1     -21.426  -0.653  12.593  1.00  0.00    -0.072 N 
ATOM     37  H33 UNL     1     -21.565  -1.643  12.796  1.00  0.00     0.274 HD
ATOM     38  H32 UNL     1     -20.440  -0.706  12.335  1.00  0.00     0.274 HD
ATOM     39  H31 UNL     1     -21.594  -0.055  13.401  1.00  0.00     0.274 HD
ENDBRANCH  31  36
BRANCH  33  40
HETATM   40  N4  UNL     1     -23.334   3.354  11.443  1.00  0.00    -0.073 N 
ATOM     41  H43 UNL     1     -23.182   3.472  12.445  1.00  0.00     0.274 HD
ATOM     42  H42 UNL     1     -22.444   3.752  11.144  1.00  0.00     0.274 HD
ATOM     43  H41 UNL     1     -24.152   3.849  11.087  1.00  0.00     0.274 HD
ENDBRANCH  33  40
BRANCH  34  44
HETATM   44  N5  UNL     1     -25.904   1.382  10.808  1.00  0.00    -0.360 N 
HETATM   45  C14 UNL     1     -27.127   1.443  11.029  1.00  0.00     0.197 C 
HETATM   46  N6  UNL     1     -28.018   1.359   9.903  1.00  0.00    -0.067 NA
HETATM   47  N7  UNL     1     -27.716   1.574  12.286  1.00  0.00    -0.067 NA
ATOM     48  H5  UNL     1     -25.679   1.273   9.819  1.00  0.00     0.162 HD
ENDBRANCH  34  44
BRANCH  35  49
HETATM   49  C16 UNL     1     -24.636   0.173  13.835  1.00  0.00     0.386 C 
BRANCH  49  50
HETATM   50  N8  UNL     1     -25.890  -0.442  14.307  1.00  0.00    -0.050 N 
ATOM     51  H83 UNL     1     -26.713  -0.120  13.797  1.00  0.00     0.276 HD
ATOM     52  H82 UNL     1     -25.968  -1.430  14.066  1.00  0.00     0.276 HD
ATOM     53  H81 UNL     1     -25.944  -0.267  15.310  1.00  0.00     0.276 HD
ENDBRANCH  49  50
BRANCH  49  54
HETATM   54  N9  UNL     1     -24.602   1.475  14.404  1.00  0.00    -0.050 N 
ATOM     55  H93 UNL     1     -23.644   1.709  14.666  1.00  0.00     0.276 HD
ATOM     56  H92 UNL     1     -24.772   2.170  13.677  1.00  0.00     0.276 HD
ATOM     57  H91 UNL     1     -25.224   1.648  15.194  1.00  0.00     0.276 HD
ENDBRANCH  49  54
ENDBRANCH  35  49
ENDBRANCH   1  30
TORSDOF 17
ENDMDL
MODEL 3
REMARK VINA RESULT: -4.643678979      1.428      1.750
REMARK  17 active torsions:
REMARK  status: ('A' for Active; 'I' for Inactive)
REMARK    1  A    between atoms: C2_2  and  C4_4 
REMARK    2  A    between atoms: C4_4  and  N1_5 
REMARK    3  A    between atoms: C4_4  and  C5_9 
REMARK    4  A    between atoms: C5_9  and  C6_10 
REMARK    5  A    between atoms: C6_10  and  O1_11 
REMARK    6  A    between atoms: C6_10  and  N2_13 
REMARK    7  A    between atoms: N2_13  and  C7_15 
REMARK    8  A    between atoms: C8_17  and  O3_18 
REMARK    9  A    between atoms: O3_18  and  C9_19 
REMARK   10  A    between atoms: C10_20  and  N3_21 
REMARK   11  A    between atoms: C12_26  and  N4_27 
REMARK   12  A    between atoms: C13_31  and  N5_32 
REMARK   13  A    between atoms: C15_37  and  C16_38 
REMARK   14  A    between atoms: C16_38  and  N8_39 
REMARK   15  A    between atoms: C16_38  and  N9_43 
REMARK   16  A    between atoms: C17_47  and  N10_48 
REMARK   17  A    between atoms: C19_53  and  N11_54 
ROOT
HETATM    1  O3  UNL     1     -23.747   2.455  10.656  1.00  0.00    -0.351 OA
ENDROOT
BRANCH   1   2
HETATM    2  C8  UNL     1     -23.756   1.829  11.915  1.00  0.00     0.293 C 
HETATM    3  O2  UNL     1     -25.013   1.648  12.392  1.00  0.00    -0.333 OA
HETATM    4  C7  UNL     1     -25.259   0.389  12.989  1.00  0.00     0.252 C 
HETATM    5  C19 UNL     1     -24.140  -0.006  13.898  1.00  0.00     0.233 C 
HETATM    6  C18 UNL     1     -22.772   0.010  13.234  1.00  0.00     0.075 C 
HETATM    7  C17 UNL     1     -22.867   0.631  11.877  1.00  0.00     0.240 C 
BRANCH   4   8
HETATM    8  N2  UNL     1     -26.507   0.445  13.579  1.00  0.00    -0.369 N 
ATOM      9  H2  UNL     1     -26.802   1.375  13.875  1.00  0.00     0.158 HD
BRANCH   8  10
HETATM   10  C6  UNL     1     -27.409  -0.555  13.827  1.00  0.00     0.217 C 
BRANCH  10  11
HETATM   11  C5  UNL     1     -28.772  -0.455  13.252  1.00  0.00     0.086 C 
BRANCH  11  12
HETATM   12  C4  UNL     1     -28.963   0.900  12.534  1.00  0.00     0.191 C 
BRANCH  12  13
HETATM   13  C2  UNL     1     -29.398   0.701  11.105  1.00  0.00     0.008 C 
HETATM   14  C1  UNL     1     -28.156   0.325  10.316  1.00  0.00     0.011 C 
HETATM   15  C3  UNL     1     -30.394  -0.400  10.924  1.00  0.00     0.011 C 
ENDBRANCH  12  13
BRANCH  12  16
HETATM   16  N1  UNL     1     -29.994   1.656  13.214  1.00  0.00    -0.075 N 
ATOM     17  H13 UNL     1     -30.024   2.633  12.923  1.00  0.00     0.274 HD
ATOM     18  H12 UNL     1     -30.935   1.396  12.918  1.00  0.00     0.274 HD
ATOM     19  H11 UNL     1     -29.853   1.548  14.219  1.00  0.00     0.274 HD
ENDBRANCH  12  16
ENDBRANCH  11  12
ENDBRANCH  10  11
BRANCH  10  20
HETATM   20  O1  UNL     1     -27.471  -0.938  15.199  1.00  0.00    -0.377 OA
ATOM     21  H1  UNL     1     -27.527  -0.171  15.757  1.00  0.00     0.212 HD
ENDBRANCH  10  20
ENDBRANCH   8  10
ENDBRANCH   4   8
BRANCH   5  22
HETATM   22  N11 UNL     1     -24.124   0.905  15.033  1.00  0.00    -0.071 N 
ATOM     23 3H11 UNL     1     -23.214   0.942  15.492  1.00  0.00     0.274 HD
ATOM     24 2H11 UNL     1     -24.178   1.883  14.750  1.00  0.00     0.274 HD
ATOM     25 1H11 UNL     1     -24.875   0.639  15.671  1.00  0.00     0.274 HD
ENDBRANCH   5  22
BRANCH   7  26
HETATM   26  N10 UNL     1     -23.104  -0.288  10.807  1.00  0.00    -0.070 N 
ATOM     27 3H10 UNL     1     -24.100  -0.310  10.582  1.00  0.00     0.274 HD
ATOM     28 2H10 UNL     1     -22.729   0.088   9.936  1.00  0.00     0.274 HD
ATOM     29 1H10 UNL     1     -22.761  -1.238  10.951  1.00  0.00     0.274 HD
ENDBRANCH   7  26
ENDBRANCH   1   2
BRANCH   1  30
HETATM   30  C9  UNL     1     -25.020   2.589  10.110  1.00  0.00     0.165 C 
HETATM   31  C10 UNL     1     -25.062   2.023   8.722  1.00  0.00     0.215 C 
HETATM   32  C11 UNL     1     -26.121   2.560   7.855  1.00  0.00     0.070 C 
HETATM   33  C12 UNL     1     -27.207   3.339   8.520  1.00  0.00     0.208 C 
HETATM   34  C13 UNL     1     -26.867   4.164   9.680  1.00  0.00     0.124 C 
HETATM   35  C15 UNL     1     -25.492   3.977  10.282  1.00  0.00     0.099 C 
BRANCH  31  36
HETATM   36  N3  UNL     1     -23.728   2.134   8.162  1.00  0.00    -0.072 N 
ATOM     37  H33 UNL     1     -23.141   2.798   8.665  1.00  0.00     0.274 HD
ATOM     38  H32 UNL     1     -23.159   1.303   8.323  1.00  0.00     0.274 HD
ATOM     39  H31 UNL     1     -23.828   2.362   7.173  1.00  0.00     0.274 HD
ENDBRANCH  31  36
BRANCH  33  40
HETATM   40  N4  UNL     1     -27.766   4.189   7.459  1.00  0.00    -0.073 N 
ATOM     41  H43 UNL     1     -28.777   4.109   7.353  1.00  0.00     0.274 HD
ATOM     42  H42 UNL     1     -27.751   5.186   7.676  1.00  0.00     0.274 HD
ATOM     43  H41 UNL     1     -27.240   3.939   6.621  1.00  0.00     0.274 HD
ENDBRANCH  33  40
BRANCH  34  44
HETATM   44  N5  UNL     1     -27.804   4.140  10.759  1.00  0.00    -0.360 N 
HETATM   45  C14 UNL     1     -28.208   5.001  11.561  1.00  0.00     0.197 C 
HETATM   46  N6  UNL     1     -29.184   4.602  12.539  1.00  0.00    -0.067 NA
HETATM   47  N7  UNL     1     -27.783   6.328  11.605  1.00  0.00    -0.067 NA
ATOM     48  H5  UNL     1     -28.230   3.224  10.903  1.00  0.00     0.162 HD
ENDBRANCH  34  44
BRANCH  35  49
HETATM   49  C16 UNL     1     -24.529   5.074   9.962  1.00  0.00     0.386 C 
BRANCH  49  50
HETATM   50  N8  UNL     1     -23.798   5.375  11.207  1.00  0.00    -0.050 N 
ATOM     51  H83 UNL     1     -23.812   4.606  11.878  1.00  0.00     0.276 HD
ATOM     52  H82 UNL     1     -22.787   5.417  11.081  1.00  0.00     0.276 HD
ATOM     53  H81 UNL     1     -24.193   6.239  11.578  1.00  0.00     0.276 HD
ENDBRANCH  49  50
BRANCH  49  54
HETATM   54  N9  UNL     1     -25.084   6.308   9.528  1.00  0.00    -0.050 N 
ATOM     55  H93 UNL     1     -24.454   6.750   8.858  1.00  0.00     0.276 HD
ATOM     56  H92 UNL     1     -25.893   6.127   8.932  1.00  0.00     0.276 HD
ATOM     57  H91 UNL     1     -25.337   6.979  10.253  1.00  0.00     0.276 HD
ENDBRANCH  49  54
ENDBRANCH  35  49
ENDBRANCH   1  30
TORSDOF 17
ENDMDL
MODEL 4
REMARK VINA RESULT: -4.621108875      1.749      5.233
REMARK  17 active torsions:
REMARK  status: ('A' for Active; 'I' for Inactive)
REMARK    1  A    between atoms: C2_2  and  C4_4 
REMARK    2  A    between atoms: C4_4  and  N1_5 
REMARK    3  A    between atoms: C4_4  and  C5_9 
REMARK    4  A    between atoms: C5_9  and  C6_10 
REMARK    5  A    between atoms: C6_10  and  O1_11 
REMARK    6  A    between atoms: C6_10  and  N2_13 
REMARK    7  A    between atoms: N2_13  and  C7_15 
REMARK    8  A    between atoms: C8_17  and  O3_18 
REMARK    9  A    between atoms: O3_18  and  C9_19 
REMARK   10  A    between atoms: C10_20  and  N3_21 
REMARK   11  A    between atoms: C12_26  and  N4_27 
REMARK   12  A    between atoms: C13_31  and  N5_32 
REMARK   13  A    between atoms: C15_37  and  C16_38 
REMARK   14  A    between atoms: C16_38  and  N8_39 
REMARK   15  A    between atoms: C16_38  and  N9_43 
REMARK   16  A    between atoms: C17_47  and  N10_48 
REMARK   17  A    between atoms: C19_53  and  N11_54 
ROOT
HETATM    1  O3  UNL     1     -28.820   0.858  11.132  1.00  0.00    -0.351 OA
ENDROOT
BRANCH   1   2
HETATM    2  C8  UNL     1     -28.191  -0.216  11.786  1.00  0.00     0.293 C 
HETATM    3  O2  UNL     1     -27.096   0.175  12.486  1.00  0.00    -0.333 OA
HETATM    4  C7  UNL     1     -26.962  -0.399  13.772  1.00  0.00     0.252 C 
HETATM    5  C19 UNL     1     -27.241  -1.867  13.741  1.00  0.00     0.233 C 
HETATM    6  C18 UNL     1     -28.589  -2.226  13.136  1.00  0.00     0.075 C 
HETATM    7  C17 UNL     1     -29.215  -1.014  12.523  1.00  0.00     0.240 C 
BRANCH   4   8
HETATM    8  N2  UNL     1     -25.719  -0.045  14.258  1.00  0.00    -0.369 N 
ATOM      9  H2  UNL     1     -25.570  -0.243  15.247  1.00  0.00     0.158 HD
BRANCH   8  10
HETATM   10  C6  UNL     1     -24.655   0.531  13.616  1.00  0.00     0.217 C 
BRANCH  10  11
HETATM   11  C5  UNL     1     -23.279   0.148  14.013  1.00  0.00     0.086 C 
BRANCH  11  12
HETATM   12  C4  UNL     1     -22.598  -0.672  12.894  1.00  0.00     0.191 C 
BRANCH  12  13
HETATM   13  C2  UNL     1     -22.959  -0.139  11.533  1.00  0.00     0.008 C 
HETATM   14  C1  UNL     1     -21.686   0.428  10.930  1.00  0.00     0.011 C 
HETATM   15  C3  UNL     1     -23.474  -1.182  10.592  1.00  0.00     0.011 C 
ENDBRANCH  12  13
BRANCH  12  16
HETATM   16  N1  UNL     1     -21.160  -0.576  13.045  1.00  0.00    -0.075 N 
ATOM     17  H13 UNL     1     -20.791  -1.234  13.731  1.00  0.00     0.274 HD
ATOM     18  H12 UNL     1     -20.653  -0.926  12.232  1.00  0.00     0.274 HD
ATOM     19  H11 UNL     1     -20.931   0.394  13.265  1.00  0.00     0.274 HD
ENDBRANCH  12  16
ENDBRANCH  11  12
ENDBRANCH  10  11
BRANCH  10  20
HETATM   20  O1  UNL     1     -24.764   1.948  13.492  1.00  0.00    -0.377 OA
ATOM     21  H1  UNL     1     -24.729   2.361  14.348  1.00  0.00     0.212 HD
ENDBRANCH  10  20
ENDBRANCH   8  10
ENDBRANCH   4   8
BRANCH   5  22
HETATM   22  N11 UNL     1     -26.191  -2.520  12.973  1.00  0.00    -0.071 N 
ATOM     23 3H11 UNL     1     -26.560  -3.084  12.207  1.00  0.00     0.274 HD
ATOM     24 2H11 UNL     1     -25.649  -1.862  12.413  1.00  0.00     0.274 HD
ATOM     25 1H11 UNL     1     -25.610  -3.061  13.614  1.00  0.00     0.274 HD
ENDBRANCH   5  22
BRANCH   7  26
HETATM   26  N10 UNL     1     -30.077  -0.273  13.391  1.00  0.00    -0.070 N 
ATOM     27 3H10 UNL     1     -30.667   0.354  12.843  1.00  0.00     0.274 HD
ATOM     28 2H10 UNL     1     -30.786  -0.891  13.787  1.00  0.00     0.274 HD
ATOM     29 1H10 UNL     1     -29.616   0.249  14.137  1.00  0.00     0.274 HD
ENDBRANCH   7  26
ENDBRANCH   1   2
BRANCH   1  30
HETATM   30  C9  UNL     1     -28.306   2.095  11.509  1.00  0.00     0.165 C 
HETATM   31  C10 UNL     1     -29.393   2.978  12.043  1.00  0.00     0.215 C 
HETATM   32  C11 UNL     1     -29.127   4.422  11.964  1.00  0.00     0.070 C 
HETATM   33  C12 UNL     1     -27.721   4.834  11.677  1.00  0.00     0.208 C 
HETATM   34  C13 UNL     1     -26.915   3.998  10.788  1.00  0.00     0.124 C 
HETATM   35  C15 UNL     1     -27.474   2.641  10.419  1.00  0.00     0.099 C 
BRANCH  31  36
HETATM   36  N3  UNL     1     -30.637   2.573  11.415  1.00  0.00    -0.072 N 
ATOM     37  H33 UNL     1     -31.375   3.269  11.512  1.00  0.00     0.274 HD
ATOM     38  H32 UNL     1     -30.585   2.573  10.396  1.00  0.00     0.274 HD
ATOM     39  H31 UNL     1     -30.895   1.665  11.800  1.00  0.00     0.274 HD
ENDBRANCH  31  36
BRANCH  33  40
HETATM   40  N4  UNL     1     -27.833   6.187  11.113  1.00  0.00    -0.073 N 
ATOM     41  H43 UNL     1     -28.552   6.761  11.554  1.00  0.00     0.274 HD
ATOM     42  H42 UNL     1     -27.046   6.796  11.339  1.00  0.00     0.274 HD
ATOM     43  H41 UNL     1     -27.972   6.042  10.113  1.00  0.00     0.274 HD
ENDBRANCH  33  40
BRANCH  34  44
HETATM   44  N5  UNL     1     -25.555   3.798  11.180  1.00  0.00    -0.360 N 
HETATM   45  C14 UNL     1     -24.480   3.768  10.556  1.00  0.00     0.197 C 
HETATM   46  N6  UNL     1     -23.274   3.539  11.306  1.00  0.00    -0.067 NA
HETATM   47  N7  UNL     1     -24.340   3.925   9.178  1.00  0.00    -0.067 NA
ATOM     48  H5  UNL     1     -25.443   3.649  12.183  1.00  0.00     0.162 HD
ENDBRANCH  34  44
BRANCH  35  49
HETATM   49  C16 UNL     1     -28.021   2.560   9.030  1.00  0.00     0.386 C 
BRANCH  49  50
HETATM   50  N8  UNL     1     -27.607   1.254   8.486  1.00  0.00    -0.050 N 
ATOM     51  H83 UNL     1     -27.529   0.527   9.197  1.00  0.00     0.276 HD
ATOM     52  H82 UNL     1     -28.329   0.805   7.922  1.00  0.00     0.276 HD
ATOM     53  H81 UNL     1     -26.738   1.412   7.974  1.00  0.00     0.276 HD
ENDBRANCH  49  50
BRANCH  49  54
HETATM   54  N9  UNL     1     -27.562   3.534   8.103  1.00  0.00    -0.050 N 
ATOM     55  H93 UNL     1     -28.138   4.373   8.175  1.00  0.00     0.276 HD
ATOM     56  H92 UNL     1     -26.660   3.899   8.410  1.00  0.00     0.276 HD
ATOM     57  H91 UNL     1     -27.499   3.245   7.127  1.00  0.00     0.276 HD
ENDBRANCH  49  54
ENDBRANCH  35  49
ENDBRANCH   1  30
TORSDOF 17
ENDMDL
MODEL 5
REMARK VINA RESULT: -4.575373285      4.555      8.702
REMARK  17 active torsions:
REMARK  status: ('A' for Active; 'I' for Inactive)
REMARK    1  A    between atoms: C2_2  and  C4_4 
REMARK    2  A    between atoms: C4_4  and  N1_5 
REMARK    3  A    between atoms: C4_4  and  C5_9 
REMARK    4  A    between atoms: C5_9  and  C6_10 
REMARK    5  A    between atoms: C6_10  and  O1_11 
REMARK    6  A    between atoms: C6_10  and  N2_13 
REMARK    7  A    between atoms: N2_13  and  C7_15 
REMARK    8  A    between atoms: C8_17  and  O3_18 
REMARK    9  A    between atoms: O3_18  and  C9_19 
REMARK   10  A    between atoms: C10_20  and  N3_21 
REMARK   11  A    between atoms: C12_26  and  N4_27 
REMARK   12  A    between atoms: C13_31  and  N5_32 
REMARK   13  A    between atoms: C15_37  and  C16_38 
REMARK   14  A    between atoms: C16_38  and  N8_39 
REMARK   15  A    between atoms: C16_38  and  N9_43 
REMARK   16  A    between atoms: C17_47  and  N10_48 
REMARK   17  A    between atoms: C19_53  and  N11_54 
ROOT
HETATM    1  O3  UNL     1     -25.532  -3.838  11.626  1.00  0.00    -0.351 OA
ENDROOT
BRANCH   1   2
HETATM    2  C8  UNL     1     -26.201  -2.994  12.529  1.00  0.00     0.293 C 
HETATM    3  O2  UNL     1     -25.377  -2.064  13.074  1.00  0.00    -0.333 OA
HETATM    4  C7  UNL     1     -25.912  -0.757  13.163  1.00  0.00     0.252 C 
HETATM    5  C19 UNL     1     -27.316  -0.781  13.674  1.00  0.00     0.233 C 
HETATM    6  C18 UNL     1     -28.246  -1.683  12.878  1.00  0.00     0.075 C 
HETATM    7  C17 UNL     1     -27.460  -2.496  11.899  1.00  0.00     0.240 C 
BRANCH   4   8
HETATM    8  N2  UNL     1     -25.028   0.004  13.902  1.00  0.00    -0.369 N 
ATOM      9  H2  UNL     1     -25.359   0.271  14.829  1.00  0.00     0.158 HD
BRANCH   8  10
HETATM   10  C6  UNL     1     -23.775   0.455  13.583  1.00  0.00     0.217 C 
BRANCH  10  11
HETATM   11  C5  UNL     1     -23.514   0.948  12.210  1.00  0.00     0.086 C 
BRANCH  11  12
HETATM   12  C4  UNL     1     -23.850   2.452  12.097  1.00  0.00     0.191 C 
BRANCH  12  13
HETATM   13  C2  UNL     1     -22.979   3.128  11.070  1.00  0.00     0.008 C 
HETATM   14  C1  UNL     1     -23.737   3.089   9.755  1.00  0.00     0.011 C 
HETATM   15  C3  UNL     1     -22.687   4.563  11.376  1.00  0.00     0.011 C 
ENDBRANCH  12  13
BRANCH  12  16
HETATM   16  N1  UNL     1     -25.230   2.598  11.679  1.00  0.00    -0.075 N 
ATOM     17  H13 UNL     1     -25.888   2.186  12.340  1.00  0.00     0.274 HD
ATOM     18  H12 UNL     1     -25.560   3.561  11.739  1.00  0.00     0.274 HD
ATOM     19  H11 UNL     1     -25.318   2.210  10.740  1.00  0.00     0.274 HD
ENDBRANCH  12  16
ENDBRANCH  11  12
ENDBRANCH  10  11
BRANCH  10  20
HETATM   20  O1  UNL     1     -22.730  -0.417  14.009  1.00  0.00    -0.377 OA
ATOM     21  H1  UNL     1     -22.817  -0.615  14.935  1.00  0.00     0.212 HD
ENDBRANCH  10  20
ENDBRANCH   8  10
ENDBRANCH   4   8
BRANCH   5  22
HETATM   22  N11 UNL     1     -27.296  -1.229  15.059  1.00  0.00    -0.071 N 
ATOM     23 3H11 UNL     1     -27.512  -2.221  15.153  1.00  0.00     0.274 HD
ATOM     24 2H11 UNL     1     -26.354  -1.255  15.448  1.00  0.00     0.274 HD
ATOM     25 1H11 UNL     1     -27.927  -0.637  15.599  1.00  0.00     0.274 HD
ENDBRANCH   5  22
BRANCH   7  26
HETATM   26  N10 UNL     1     -27.319  -1.909  10.602  1.00  0.00    -0.070 N 
ATOM     27 3H10 UNL     1     -28.225  -1.578  10.270  1.00  0.00     0.274 HD
ATOM     28 2H10 UNL     1     -26.816  -1.024  10.674  1.00  0.00     0.274 HD
ATOM     29 1H10 UNL     1     -26.883  -2.498   9.892  1.00  0.00     0.274 HD
ENDBRANCH   7  26
ENDBRANCH   1   2
BRANCH   1  30
HETATM   30  C9  UNL     1     -25.011  -4.975  12.235  1.00  0.00     0.165 C 
HETATM   31  C10 UNL     1     -23.528  -5.054  12.028  1.00  0.00     0.215 C 
HETATM   32  C11 UNL     1     -22.950  -6.402  12.123  1.00  0.00     0.070 C 
HETATM   33  C12 UNL     1     -23.811  -7.465  12.720  1.00  0.00     0.208 C 
HETATM   34  C13 UNL     1     -25.253  -7.417  12.474  1.00  0.00     0.124 C 
HETATM   35  C15 UNL     1     -25.806  -6.157  11.844  1.00  0.00     0.099 C 
BRANCH  31  36
HETATM   36  N3  UNL     1     -23.221  -4.367  10.788  1.00  0.00    -0.072 N 
ATOM     37  H33 UNL     1     -22.596  -4.900  10.183  1.00  0.00     0.274 HD
ATOM     38  H32 UNL     1     -24.017  -4.321  10.151  1.00  0.00     0.274 HD
ATOM     39  H31 UNL     1     -22.852  -3.447  11.028  1.00  0.00     0.274 HD
ENDBRANCH  31  36
BRANCH  33  40
HETATM   40  N4  UNL     1     -23.265  -8.728  12.200  1.00  0.00    -0.073 N 
ATOM     41  H43 UNL     1     -22.921  -8.667  11.242  1.00  0.00     0.274 HD
ATOM     42  H42 UNL     1     -22.378  -9.001  12.625  1.00  0.00     0.274 HD
ATOM     43  H41 UNL     1     -24.014  -9.408  12.330  1.00  0.00     0.274 HD
ENDBRANCH  33  40
BRANCH  34  44
HETATM   44  N5  UNL     1     -26.087  -7.728  13.591  1.00  0.00    -0.360 N 
HETATM   45  C14 UNL     1     -27.188  -8.296  13.706  1.00  0.00     0.197 C 
HETATM   46  N6  UNL     1     -27.738  -8.435  15.027  1.00  0.00    -0.067 NA
HETATM   47  N7  UNL     1     -27.951  -8.801  12.653  1.00  0.00    -0.067 NA
ATOM     48  H5  UNL     1     -25.699  -7.420  14.483  1.00  0.00     0.162 HD
ENDBRANCH  34  44
BRANCH  35  49
HETATM   49  C16 UNL     1     -26.161  -6.299  10.400  1.00  0.00     0.386 C 
BRANCH  49  50
HETATM   50  N8  UNL     1     -27.475  -5.655  10.221  1.00  0.00    -0.050 N 
ATOM     51  H83 UNL     1     -28.123  -6.210   9.661  1.00  0.00     0.276 HD
ATOM     52  H82 UNL     1     -28.032  -5.632  11.075  1.00  0.00     0.276 HD
ATOM     53  H81 UNL     1     -27.298  -4.729   9.831  1.00  0.00     0.276 HD
ENDBRANCH  49  50
BRANCH  49  54
HETATM   54  N9  UNL     1     -26.304  -7.622   9.902  1.00  0.00    -0.050 N 
ATOM     55  H93 UNL     1     -25.384  -8.005   9.682  1.00  0.00     0.276 HD
ATOM     56  H92 UNL     1     -26.589  -8.243  10.659  1.00  0.00     0.276 HD
ATOM     57  H91 UNL     1     -26.926  -7.748   9.104  1.00  0.00     0.276 HD
ENDBRANCH  49  54
ENDBRANCH  35  49
ENDBRANCH   1  30
TORSDOF 17
ENDMDL
