MODEL 1
REMARK VINA RESULT: -7.597102702      0.000      0.000
REMARK  6 active torsions:
REMARK  status: ('A' for Active; 'I' for Inactive)
REMARK    1  A    between atoms: C2_2  and  C3_4 
REMARK    2  A    between atoms: C3_4  and  N1_5 
REMARK       I    between atoms: N1_5  and  C4_7 
REMARK    3  A    between atoms: C4_7  and  C5_9 
REMARK    4  A    between atoms: N2_13  and  C9_14 
REMARK       I    between atoms: N3_17  and  C12_18 
REMARK    5  A    between atoms: C12_18  and  C13_20 
REMARK    6  A    between atoms: C13_20  and  C14_21 
ROOT
HETATM    1  C5  UNL     1      48.847  51.285  36.707  1.00  0.00     0.116 C 
HETATM    2  C6  UNL     1      49.056  49.877  36.190  1.00  0.00     0.024 C 
HETATM    3  C7  UNL     1      49.536  50.008  34.762  1.00  0.00     0.046 C 
HETATM    4  C8  UNL     1      48.858  51.120  34.009  1.00  0.00     0.063 C 
HETATM    5  N2  UNL     1      47.696  51.633  34.583  1.00  0.00    -0.365 N 
HETATM    6  C20 UNL     1      47.666  51.862  35.965  1.00  0.00     0.077 C 
ENDROOT
BRANCH   5   7
HETATM    7  C9  UNL     1      46.503  51.690  33.866  1.00  0.00     0.125 C 
HETATM    8  C10 UNL     1      46.836  51.544  32.375  1.00  0.00     0.048 C 
HETATM    9  C11 UNL     1      45.660  51.854  31.513  1.00  0.00     0.128 C 
HETATM   10  N3  UNL     1      44.487  51.126  31.940  1.00  0.00    -0.349 N 
HETATM   11  C12 UNL     1      43.553  50.740  30.949  1.00  0.00     0.220 C 
HETATM   12  C18 UNL     1      44.261  50.802  33.301  1.00  0.00     0.165 C 
HETATM   13  O2  UNL     1      42.531  50.106  31.305  1.00  0.00    -0.273 OA
HETATM   14  C19 UNL     1      45.479  50.655  34.166  1.00  0.00     0.211 C 
HETATM   15  F2  UNL     1      45.051  50.848  35.487  1.00  0.00    -0.245 F 
BRANCH  11  16
HETATM   16  C13 UNL     1      43.743  51.064  29.511  1.00  0.00     0.111 C 
BRANCH  16  17
HETATM   17  C14 UNL     1      44.070  49.858  28.689  1.00  0.00    -0.043 C 
HETATM   18  C15 UNL     1      45.101  50.316  27.648  1.00  0.00     0.015 C 
HETATM   19  C16 UNL     1      44.749  48.767  29.490  1.00  0.00     0.015 C 
HETATM   20  C17 UNL     1      42.896  49.314  27.930  1.00  0.00     0.015 C 
ENDBRANCH  16  17
ENDBRANCH  11  16
ENDBRANCH   5   7
BRANCH   1  21
HETATM   21  C4  UNL     1      48.640  51.318  38.179  1.00  0.00     0.226 C 
HETATM   22  N1  UNL     1      47.974  50.268  38.808  1.00  0.00    -0.358 N 
ATOM     23  H1  UNL     1      47.667  49.509  38.198  1.00  0.00     0.162 HD
HETATM   24  O1  UNL     1      49.078  52.301  38.796  1.00  0.00    -0.273 OA
BRANCH  22  25
HETATM   25  C3  UNL     1      47.665  50.114  40.193  1.00  0.00     0.159 C 
BRANCH  25  26
HETATM   26  C2  UNL     1      47.004  48.852  40.599  1.00  0.00     0.183 C 
HETATM   27  C1  UNL     1      46.663  48.038  39.342  1.00  0.00     0.046 C 
HETATM   28  F1  UNL     1      47.791  48.036  41.362  1.00  0.00    -0.248 F 
ENDBRANCH  25  26
ENDBRANCH  22  25
ENDBRANCH   1  21
TORSDOF 6
ENDMDL
MODEL 2
REMARK VINA RESULT: -7.272665882      1.802      2.260
REMARK  6 active torsions:
REMARK  status: ('A' for Active; 'I' for Inactive)
REMARK    1  A    between atoms: C2_2  and  C3_4 
REMARK    2  A    between atoms: C3_4  and  N1_5 
REMARK       I    between atoms: N1_5  and  C4_7 
REMARK    3  A    between atoms: C4_7  and  C5_9 
REMARK    4  A    between atoms: N2_13  and  C9_14 
REMARK       I    between atoms: N3_17  and  C12_18 
REMARK    5  A    between atoms: C12_18  and  C13_20 
REMARK    6  A    between atoms: C13_20  and  C14_21 
ROOT
HETATM    1  C5  UNL     1      47.776  50.638  35.759  1.00  0.00     0.116 C 
HETATM    2  C6  UNL     1      48.719  49.636  35.127  1.00  0.00     0.024 C 
HETATM    3  C7  UNL     1      49.631  50.420  34.210  1.00  0.00     0.046 C 
HETATM    4  C8  UNL     1      48.925  51.530  33.481  1.00  0.00     0.063 C 
HETATM    5  N2  UNL     1      47.532  51.478  33.480  1.00  0.00    -0.365 N 
HETATM    6  C20 UNL     1      46.865  51.143  34.666  1.00  0.00     0.077 C 
ENDROOT
BRANCH   5   7
HETATM    7  C9  UNL     1      46.810  51.508  32.289  1.00  0.00     0.125 C 
HETATM    8  C10 UNL     1      46.242  50.104  32.041  1.00  0.00     0.048 C 
HETATM    9  C11 UNL     1      45.679  49.971  30.667  1.00  0.00     0.128 C 
HETATM   10  N3  UNL     1      44.767  51.049  30.365  1.00  0.00    -0.349 N 
HETATM   11  C12 UNL     1      43.679  50.771  29.503  1.00  0.00     0.220 C 
HETATM   12  C18 UNL     1      44.940  52.350  30.900  1.00  0.00     0.165 C 
HETATM   13  O2  UNL     1      42.877  51.698  29.233  1.00  0.00    -0.273 OA
HETATM   14  C19 UNL     1      45.656  52.442  32.216  1.00  0.00     0.211 C 
HETATM   15  F2  UNL     1      46.158  53.748  32.302  1.00  0.00    -0.245 F 
BRANCH  11  16
HETATM   16  C13 UNL     1      43.460  49.426  28.911  1.00  0.00     0.111 C 
BRANCH  16  17
HETATM   17  C14 UNL     1      43.630  49.416  27.425  1.00  0.00    -0.043 C 
HETATM   18  C15 UNL     1      44.143  48.015  27.061  1.00  0.00     0.015 C 
HETATM   19  C16 UNL     1      42.320  49.581  26.683  1.00  0.00     0.015 C 
HETATM   20  C17 UNL     1      44.653  50.396  26.933  1.00  0.00     0.015 C 
ENDBRANCH  16  17
ENDBRANCH  11  16
ENDBRANCH   5   7
BRANCH   1  21
HETATM   21  C4  UNL     1      47.007  50.050  36.887  1.00  0.00     0.226 C 
HETATM   22  N1  UNL     1      47.558  49.013  37.635  1.00  0.00    -0.358 N 
ATOM     23  H1  UNL     1      48.495  48.716  37.359  1.00  0.00     0.162 HD
HETATM   24  O1  UNL     1      45.882  50.519  37.117  1.00  0.00    -0.273 OA
BRANCH  22  25
HETATM   25  C3  UNL     1      46.985  48.310  38.738  1.00  0.00     0.159 C 
BRANCH  25  26
HETATM   26  C2  UNL     1      46.895  49.038  40.026  1.00  0.00     0.183 C 
HETATM   27  C1  UNL     1      47.356  48.110  41.160  1.00  0.00     0.046 C 
HETATM   28  F1  UNL     1      47.704  50.137  40.099  1.00  0.00    -0.248 F 
ENDBRANCH  25  26
ENDBRANCH  22  25
ENDBRANCH   1  21
TORSDOF 6
ENDMDL
MODEL 3
REMARK VINA RESULT: -7.244795920      5.681      8.933
REMARK  6 active torsions:
REMARK  status: ('A' for Active; 'I' for Inactive)
REMARK    1  A    between atoms: C2_2  and  C3_4 
REMARK    2  A    between atoms: C3_4  and  N1_5 
REMARK       I    between atoms: N1_5  and  C4_7 
REMARK    3  A    between atoms: C4_7  and  C5_9 
REMARK    4  A    between atoms: N2_13  and  C9_14 
REMARK       I    between atoms: N3_17  and  C12_18 
REMARK    5  A    between atoms: C12_18  and  C13_20 
REMARK    6  A    between atoms: C13_20  and  C14_21 
ROOT
HETATM    1  C5  UNL     1      49.374  50.560  35.164  1.00  0.00     0.116 C 
HETATM    2  C6  UNL     1      50.313  51.309  36.086  1.00  0.00     0.024 C 
HETATM    3  C7  UNL     1      51.251  52.098  35.199  1.00  0.00     0.046 C 
HETATM    4  C8  UNL     1      51.661  51.352  33.959  1.00  0.00     0.063 C 
HETATM    5  N2  UNL     1      51.415  49.980  33.956  1.00  0.00    -0.365 N 
HETATM    6  C20 UNL     1      50.192  49.509  34.453  1.00  0.00     0.077 C 
ENDROOT
BRANCH   5   7
HETATM    7  C9  UNL     1      52.435  49.066  33.704  1.00  0.00     0.125 C 
HETATM    8  C10 UNL     1      53.230  48.870  35.003  1.00  0.00     0.048 C 
HETATM    9  C11 UNL     1      54.494  48.116  34.769  1.00  0.00     0.128 C 
HETATM   10  N3  UNL     1      54.252  46.901  34.024  1.00  0.00    -0.349 N 
HETATM   11  C12 UNL     1      55.088  45.789  34.287  1.00  0.00     0.220 C 
HETATM   12  C18 UNL     1      53.221  46.808  33.057  1.00  0.00     0.165 C 
HETATM   13  O2  UNL     1      54.888  44.727  33.650  1.00  0.00    -0.273 OA
HETATM   14  C19 UNL     1      52.035  47.707  33.254  1.00  0.00     0.211 C 
HETATM   15  F2  UNL     1      51.424  47.836  31.999  1.00  0.00    -0.245 F 
BRANCH  11  16
HETATM   16  C13 UNL     1      56.187  45.842  35.286  1.00  0.00     0.111 C 
BRANCH  16  17
HETATM   17  C14 UNL     1      57.512  46.155  34.667  1.00  0.00    -0.043 C 
HETATM   18  C15 UNL     1      58.101  47.318  35.479  1.00  0.00     0.015 C 
HETATM   19  C16 UNL     1      58.505  45.018  34.797  1.00  0.00     0.015 C 
HETATM   20  C17 UNL     1      57.415  46.621  33.245  1.00  0.00     0.015 C 
ENDBRANCH  16  17
ENDBRANCH  11  16
ENDBRANCH   5   7
BRANCH   1  21
HETATM   21  C4  UNL     1      48.228  49.961  35.896  1.00  0.00     0.226 C 
HETATM   22  N1  UNL     1      48.073  50.206  37.259  1.00  0.00    -0.358 N 
ATOM     23  H1  UNL     1      48.776  50.812  37.683  1.00  0.00     0.162 HD
HETATM   24  O1  UNL     1      47.443  49.252  35.248  1.00  0.00    -0.273 OA
BRANCH  22  25
HETATM   25  C3  UNL     1      47.059  49.721  38.140  1.00  0.00     0.159 C 
BRANCH  25  26
HETATM   26  C2  UNL     1      47.324  48.436  38.828  1.00  0.00     0.183 C 
HETATM   27  C1  UNL     1      46.536  48.401  40.146  1.00  0.00     0.046 C 
HETATM   28  F1  UNL     1      46.914  47.338  38.126  1.00  0.00    -0.248 F 
ENDBRANCH  25  26
ENDBRANCH  22  25
ENDBRANCH   1  21
TORSDOF 6
ENDMDL
MODEL 4
REMARK VINA RESULT: -7.210256958      4.100      5.154
REMARK  6 active torsions:
REMARK  status: ('A' for Active; 'I' for Inactive)
REMARK    1  A    between atoms: C2_2  and  C3_4 
REMARK    2  A    between atoms: C3_4  and  N1_5 
REMARK       I    between atoms: N1_5  and  C4_7 
REMARK    3  A    between atoms: C4_7  and  C5_9 
REMARK    4  A    between atoms: N2_13  and  C9_14 
REMARK       I    between atoms: N3_17  and  C12_18 
REMARK    5  A    between atoms: C12_18  and  C13_20 
REMARK    6  A    between atoms: C13_20  and  C14_21 
ROOT
HETATM    1  C5  UNL     1      45.910  50.173  35.858  1.00  0.00     0.116 C 
HETATM    2  C6  UNL     1      45.456  51.301  34.956  1.00  0.00     0.024 C 
HETATM    3  C7  UNL     1      44.349  50.742  34.090  1.00  0.00     0.046 C 
HETATM    4  C8  UNL     1      44.600  49.325  33.651  1.00  0.00     0.063 C 
HETATM    5  N2  UNL     1      45.903  48.854  33.803  1.00  0.00    -0.365 N 
HETATM    6  C20 UNL     1      46.599  49.153  34.983  1.00  0.00     0.077 C 
ENDROOT
BRANCH   5   7
HETATM    7  C9  UNL     1      46.605  48.315  32.727  1.00  0.00     0.125 C 
HETATM    8  C10 UNL     1      46.745  46.804  32.960  1.00  0.00     0.048 C 
HETATM    9  C11 UNL     1      47.702  46.184  32.001  1.00  0.00     0.128 C 
HETATM   10  N3  UNL     1      47.398  46.555  30.639  1.00  0.00    -0.349 N 
HETATM   11  C12 UNL     1      47.682  45.615  29.620  1.00  0.00     0.220 C 
HETATM   12  C18 UNL     1      46.836  47.814  30.313  1.00  0.00     0.165 C 
HETATM   13  O2  UNL     1      47.421  45.923  28.432  1.00  0.00    -0.273 OA
HETATM   14  C19 UNL     1      46.005  48.472  31.376  1.00  0.00     0.211 C 
HETATM   15  F2  UNL     1      45.989  49.841  31.074  1.00  0.00    -0.245 F 
BRANCH  11  16
HETATM   16  C13 UNL     1      48.278  44.285  29.911  1.00  0.00     0.111 C 
BRANCH  16  17
HETATM   17  C14 UNL     1      49.739  44.228  29.594  1.00  0.00    -0.043 C 
HETATM   18  C15 UNL     1      50.427  43.657  30.842  1.00  0.00     0.015 C 
HETATM   19  C16 UNL     1      50.059  43.263  28.470  1.00  0.00     0.015 C 
HETATM   20  C17 UNL     1      50.350  45.573  29.336  1.00  0.00     0.015 C 
ENDBRANCH  16  17
ENDBRANCH  11  16
ENDBRANCH   5   7
BRANCH   1  21
HETATM   21  C4  UNL     1      46.801  50.650  36.948  1.00  0.00     0.226 C 
HETATM   22  N1  UNL     1      46.942  49.892  38.109  1.00  0.00    -0.358 N 
ATOM     23  H1  UNL     1      46.413  49.019  38.135  1.00  0.00     0.162 HD
HETATM   24  O1  UNL     1      47.391  51.726  36.774  1.00  0.00    -0.273 OA
BRANCH  22  25
HETATM   25  C3  UNL     1      47.729  50.176  39.266  1.00  0.00     0.159 C 
BRANCH  25  26
HETATM   26  C2  UNL     1      47.360  49.476  40.519  1.00  0.00     0.183 C 
HETATM   27  C1  UNL     1      46.502  48.249  40.174  1.00  0.00     0.046 C 
HETATM   28  F1  UNL     1      48.429  48.992  41.218  1.00  0.00    -0.248 F 
ENDBRANCH  25  26
ENDBRANCH  22  25
ENDBRANCH   1  21
TORSDOF 6
ENDMDL
MODEL 5
REMARK VINA RESULT: -7.168977049      4.067      5.265
REMARK  6 active torsions:
REMARK  status: ('A' for Active; 'I' for Inactive)
REMARK    1  A    between atoms: C2_2  and  C3_4 
REMARK    2  A    between atoms: C3_4  and  N1_5 
REMARK       I    between atoms: N1_5  and  C4_7 
REMARK    3  A    between atoms: C4_7  and  C5_9 
REMARK    4  A    between atoms: N2_13  and  C9_14 
REMARK       I    between atoms: N3_17  and  C12_18 
REMARK    5  A    between atoms: C12_18  and  C13_20 
REMARK    6  A    between atoms: C13_20  and  C14_21 
ROOT
HETATM    1  C5  UNL     1      45.992  50.456  36.075  1.00  0.00     0.116 C 
HETATM    2  C6  UNL     1      46.065  51.519  34.999  1.00  0.00     0.024 C 
HETATM    3  C7  UNL     1      44.883  51.289  34.084  1.00  0.00     0.046 C 
HETATM    4  C8  UNL     1      44.591  49.832  33.849  1.00  0.00     0.063 C 
HETATM    5  N2  UNL     1      45.597  48.937  34.206  1.00  0.00    -0.365 N 
HETATM    6  C20 UNL     1      46.282  49.131  35.413  1.00  0.00     0.077 C 
ENDROOT
BRANCH   5   7
HETATM    7  C9  UNL     1      46.099  48.014  33.290  1.00  0.00     0.125 C 
HETATM    8  C10 UNL     1      47.424  48.560  32.741  1.00  0.00     0.048 C 
HETATM    9  C11 UNL     1      47.902  47.774  31.568  1.00  0.00     0.128 C 
HETATM   10  N3  UNL     1      47.908  46.357  31.851  1.00  0.00    -0.349 N 
HETATM   11  C12 UNL     1      48.898  45.564  31.223  1.00  0.00     0.220 C 
HETATM   12  C18 UNL     1      46.962  45.763  32.722  1.00  0.00     0.165 C 
HETATM   13  O2  UNL     1      48.916  44.332  31.461  1.00  0.00    -0.273 OA
HETATM   14  C19 UNL     1      46.390  46.646  33.794  1.00  0.00     0.211 C 
HETATM   15  F2  UNL     1      45.174  46.064  34.178  1.00  0.00    -0.245 F 
BRANCH  11  16
HETATM   16  C13 UNL     1      49.906  46.140  30.296  1.00  0.00     0.111 C 
BRANCH  16  17
HETATM   17  C14 UNL     1      51.286  46.140  30.874  1.00  0.00    -0.043 C 
HETATM   18  C15 UNL     1      52.029  47.307  30.209  1.00  0.00     0.015 C 
HETATM   19  C16 UNL     1      51.299  46.436  32.360  1.00  0.00     0.015 C 
HETATM   20  C17 UNL     1      52.064  44.895  30.568  1.00  0.00     0.015 C 
ENDBRANCH  16  17
ENDBRANCH  11  16
ENDBRANCH   5   7
BRANCH   1  21
HETATM   21  C4  UNL     1      46.930  50.727  37.196  1.00  0.00     0.226 C 
HETATM   22  N1  UNL     1      46.920  49.906  38.321  1.00  0.00    -0.358 N 
ATOM     23  H1  UNL     1      46.252  49.135  38.301  1.00  0.00     0.162 HD
HETATM   24  O1  UNL     1      47.697  51.695  37.078  1.00  0.00    -0.273 OA
BRANCH  22  25
HETATM   25  C3  UNL     1      47.723  50.001  39.498  1.00  0.00     0.159 C 
BRANCH  25  26
HETATM   26  C2  UNL     1      47.275  49.229  40.682  1.00  0.00     0.183 C 
HETATM   27  C1  UNL     1      46.255  48.171  40.234  1.00  0.00     0.046 C 
HETATM   28  F1  UNL     1      48.276  48.536  41.301  1.00  0.00    -0.248 F 
ENDBRANCH  25  26
ENDBRANCH  22  25
ENDBRANCH   1  21
TORSDOF 6
ENDMDL
