MODEL 1
REMARK VINA RESULT: -7.292443089      0.000      0.000
REMARK  6 active torsions:
REMARK  status: ('A' for Active; 'I' for Inactive)
REMARK    1  A    between atoms: C2_2  and  C5_5 
REMARK       I    between atoms: N1_9  and  C9_10 
REMARK    2  A    between atoms: C9_10  and  C10_12 
REMARK    3  A    between atoms: C10_12  and  C11_13 
REMARK    4  A    between atoms: C11_13  and  C12_15 
REMARK    5  A    between atoms: C12_15  and  C13_17 
REMARK    6  A    between atoms: C13_17  and  C14_19 
ROOT
HETATM    1  C5  UNL     1      53.830  49.723  35.527  1.00  0.00     0.011 C 
HETATM    2  C6  UNL     1      54.357  51.105  35.661  1.00  0.00     0.009 C 
HETATM    3  C7  UNL     1      53.699  52.083  34.694  1.00  0.00     0.020 C 
HETATM    4  C8  UNL     1      52.211  52.154  34.879  1.00  0.00     0.126 C 
HETATM    5  N1  UNL     1      51.738  50.799  35.166  1.00  0.00    -0.351 N 
HETATM    6  C9  UNL     1      50.546  50.572  35.886  1.00  0.00     0.226 C 
HETATM    7  O1  UNL     1      50.214  49.382  36.088  1.00  0.00    -0.273 OA
HETATM    8  C15 UNL     1      52.568  49.721  34.665  1.00  0.00     0.131 C 
ENDROOT
BRANCH   6   9
HETATM    9  C10 UNL     1      49.687  51.651  36.405  1.00  0.00     0.182 C 
BRANCH   9  10
HETATM   10  C11 UNL     1      48.678  51.186  37.378  1.00  0.00     0.153 C 
HETATM   11  O2  UNL     1      48.685  51.569  38.523  1.00  0.00    -0.296 OA
BRANCH  10  12
HETATM   12  C12 UNL     1      47.602  50.221  37.000  1.00  0.00     0.172 C 
HETATM   13 BR1  UNL     1      46.396  51.126  35.782  1.00  0.00    -0.080 Br
BRANCH  12  14
HETATM   14  C13 UNL     1      46.810  49.792  38.210  1.00  0.00     0.292 C 
HETATM   15  F1  UNL     1      45.451  49.837  37.991  1.00  0.00    -0.236 F 
BRANCH  14  16
HETATM   16  C14 UNL     1      47.184  48.413  38.589  1.00  0.00     0.210 C 
HETATM   17  O3  UNL     1      46.965  47.420  37.842  1.00  0.00    -0.646 OA
HETATM   18  O4  UNL     1      47.794  48.190  39.800  1.00  0.00    -0.646 OA
ENDBRANCH  14  16
ENDBRANCH  12  14
ENDBRANCH  10  12
ENDBRANCH   9  10
ENDBRANCH   6   9
BRANCH   1  19
HETATM   19  C2  UNL     1      54.833  48.722  35.023  1.00  0.00    -0.046 C 
HETATM   20  C1  UNL     1      56.231  49.284  35.180  1.00  0.00     0.015 C 
HETATM   21  C3  UNL     1      54.610  48.507  33.542  1.00  0.00     0.015 C 
HETATM   22  C4  UNL     1      54.777  47.403  35.718  1.00  0.00     0.015 C 
ENDBRANCH   1  19
TORSDOF 6
ENDMDL
MODEL 2
REMARK VINA RESULT: -7.065926891      4.874      7.248
REMARK  6 active torsions:
REMARK  status: ('A' for Active; 'I' for Inactive)
REMARK    1  A    between atoms: C2_2  and  C5_5 
REMARK       I    between atoms: N1_9  and  C9_10 
REMARK    2  A    between atoms: C9_10  and  C10_12 
REMARK    3  A    between atoms: C10_12  and  C11_13 
REMARK    4  A    between atoms: C11_13  and  C12_15 
REMARK    5  A    between atoms: C12_15  and  C13_17 
REMARK    6  A    between atoms: C13_17  and  C14_19 
ROOT
HETATM    1  C5  UNL     1      45.661  52.146  31.594  1.00  0.00     0.011 C 
HETATM    2  C6  UNL     1      44.223  51.809  31.743  1.00  0.00     0.009 C 
HETATM    3  C7  UNL     1      43.956  50.310  31.658  1.00  0.00     0.020 C 
HETATM    4  C8  UNL     1      44.705  49.538  32.705  1.00  0.00     0.126 C 
HETATM    5  N1  UNL     1      46.022  50.157  32.849  1.00  0.00    -0.351 N 
HETATM    6  C9  UNL     1      46.759  50.047  34.048  1.00  0.00     0.226 C 
HETATM    7  O1  UNL     1      47.879  50.606  34.088  1.00  0.00    -0.273 OA
HETATM    8  C15 UNL     1      46.511  50.880  31.692  1.00  0.00     0.131 C 
ENDROOT
BRANCH   6   9
HETATM    9  C10 UNL     1      46.283  49.317  35.236  1.00  0.00     0.182 C 
BRANCH   9  10
HETATM   10  C11 UNL     1      46.360  50.105  36.483  1.00  0.00     0.153 C 
HETATM   11  O2  UNL     1      45.516  50.921  36.764  1.00  0.00    -0.296 OA
BRANCH  10  12
HETATM   12  C12 UNL     1      47.481  49.935  37.456  1.00  0.00     0.172 C 
HETATM   13 BR1  UNL     1      46.819  48.885  38.945  1.00  0.00    -0.080 Br
BRANCH  12  14
HETATM   14  C13 UNL     1      47.939  51.269  37.991  1.00  0.00     0.292 C 
HETATM   15  F1  UNL     1      48.332  51.198  39.310  1.00  0.00    -0.236 F 
BRANCH  14  16
HETATM   16  C14 UNL     1      49.073  51.769  37.185  1.00  0.00     0.210 C 
HETATM   17  O3  UNL     1      49.114  52.944  36.726  1.00  0.00    -0.646 OA
HETATM   18  O4  UNL     1      50.130  50.932  36.919  1.00  0.00    -0.646 OA
ENDBRANCH  14  16
ENDBRANCH  12  14
ENDBRANCH  10  12
ENDBRANCH   9  10
ENDBRANCH   6   9
BRANCH   1  19
HETATM   19  C2  UNL     1      45.991  52.927  30.352  1.00  0.00    -0.046 C 
HETATM   20  C1  UNL     1      47.495  53.035  30.208  1.00  0.00     0.015 C 
HETATM   21  C3  UNL     1      45.462  54.336  30.505  1.00  0.00     0.015 C 
HETATM   22  C4  UNL     1      45.441  52.336  29.098  1.00  0.00     0.015 C 
ENDBRANCH   1  19
TORSDOF 6
ENDMDL
MODEL 3
REMARK VINA RESULT: -7.024891070      0.988      1.373
REMARK  6 active torsions:
REMARK  status: ('A' for Active; 'I' for Inactive)
REMARK    1  A    between atoms: C2_2  and  C5_5 
REMARK       I    between atoms: N1_9  and  C9_10 
REMARK    2  A    between atoms: C9_10  and  C10_12 
REMARK    3  A    between atoms: C10_12  and  C11_13 
REMARK    4  A    between atoms: C11_13  and  C12_15 
REMARK    5  A    between atoms: C12_15  and  C13_17 
REMARK    6  A    between atoms: C13_17  and  C14_19 
ROOT
HETATM    1  C5  UNL     1      53.424  49.040  35.236  1.00  0.00     0.011 C 
HETATM    2  C6  UNL     1      53.706  50.211  36.104  1.00  0.00     0.009 C 
HETATM    3  C7  UNL     1      53.446  51.540  35.404  1.00  0.00     0.020 C 
HETATM    4  C8  UNL     1      52.027  51.668  34.932  1.00  0.00     0.126 C 
HETATM    5  N1  UNL     1      51.607  50.355  34.440  1.00  0.00    -0.351 N 
HETATM    6  C9  UNL     1      50.248  49.977  34.419  1.00  0.00     0.226 C 
HETATM    7  O1  UNL     1      49.975  48.836  33.982  1.00  0.00    -0.273 OA
HETATM    8  C15 UNL     1      52.670  49.483  33.982  1.00  0.00     0.131 C 
ENDROOT
BRANCH   6   9
HETATM    9  C10 UNL     1      49.151  50.847  34.879  1.00  0.00     0.182 C 
BRANCH   9  10
HETATM   10  C11 UNL     1      48.623  50.478  36.209  1.00  0.00     0.153 C 
HETATM   11  O2  UNL     1      49.208  50.778  37.222  1.00  0.00    -0.296 OA
BRANCH  10  12
HETATM   12  C12 UNL     1      47.347  49.718  36.369  1.00  0.00     0.172 C 
HETATM   13 BR1  UNL     1      45.989  50.612  35.313  1.00  0.00    -0.080 Br
BRANCH  12  14
HETATM   14  C13 UNL     1      46.895  49.718  37.808  1.00  0.00     0.292 C 
HETATM   15  F1  UNL     1      45.544  49.956  37.934  1.00  0.00    -0.236 F 
BRANCH  14  16
HETATM   16  C14 UNL     1      47.207  48.414  38.430  1.00  0.00     0.210 C 
HETATM   17  O3  UNL     1      46.934  47.314  37.875  1.00  0.00    -0.646 OA
HETATM   18  O4  UNL     1      47.818  48.384  39.661  1.00  0.00    -0.646 OA
ENDBRANCH  14  16
ENDBRANCH  12  14
ENDBRANCH  10  12
ENDBRANCH   9  10
ENDBRANCH   6   9
BRANCH   1  19
HETATM   19  C2  UNL     1      54.636  48.223  34.881  1.00  0.00    -0.046 C 
HETATM   20  C1  UNL     1      54.511  47.728  33.455  1.00  0.00     0.015 C 
HETATM   21  C3  UNL     1      54.678  46.999  35.769  1.00  0.00     0.015 C 
HETATM   22  C4  UNL     1      55.926  48.961  35.011  1.00  0.00     0.015 C 
ENDBRANCH   1  19
TORSDOF 6
ENDMDL
MODEL 4
REMARK VINA RESULT: -6.993580174      5.567      6.958
REMARK  6 active torsions:
REMARK  status: ('A' for Active; 'I' for Inactive)
REMARK    1  A    between atoms: C2_2  and  C5_5 
REMARK       I    between atoms: N1_9  and  C9_10 
REMARK    2  A    between atoms: C9_10  and  C10_12 
REMARK    3  A    between atoms: C10_12  and  C11_13 
REMARK    4  A    between atoms: C11_13  and  C12_15 
REMARK    5  A    between atoms: C12_15  and  C13_17 
REMARK    6  A    between atoms: C13_17  and  C14_19 
ROOT
HETATM    1  C5  UNL     1      54.784  51.059  35.214  1.00  0.00     0.011 C 
HETATM    2  C6  UNL     1      56.150  51.589  35.452  1.00  0.00     0.009 C 
HETATM    3  C7  UNL     1      56.623  52.520  34.340  1.00  0.00     0.020 C 
HETATM    4  C8  UNL     1      55.713  53.700  34.160  1.00  0.00     0.126 C 
HETATM    5  N1  UNL     1      54.341  53.229  34.342  1.00  0.00    -0.351 N 
HETATM    6  C9  UNL     1      53.312  54.102  34.757  1.00  0.00     0.226 C 
HETATM    7  O1  UNL     1      52.165  53.617  34.889  1.00  0.00    -0.273 OA
HETATM    8  C15 UNL     1      54.114  51.823  34.073  1.00  0.00     0.131 C 
ENDROOT
BRANCH   6   9
HETATM    9  C10 UNL     1      53.519  55.533  35.036  1.00  0.00     0.182 C 
BRANCH   9  10
HETATM   10  C11 UNL     1      52.990  56.423  33.983  1.00  0.00     0.153 C 
HETATM   11  O2  UNL     1      53.136  56.168  32.812  1.00  0.00    -0.296 OA
BRANCH  10  12
HETATM   12  C12 UNL     1      52.251  57.681  34.308  1.00  0.00     0.172 C 
HETATM   13 BR1  UNL     1      53.520  59.145  34.249  1.00  0.00    -0.080 Br
BRANCH  12  14
HETATM   14  C13 UNL     1      51.669  57.622  35.698  1.00  0.00     0.292 C 
HETATM   15  F1  UNL     1      52.412  58.340  36.609  1.00  0.00    -0.236 F 
BRANCH  14  16
HETATM   16  C14 UNL     1      50.290  58.154  35.686  1.00  0.00     0.210 C 
HETATM   17  O3  UNL     1      50.037  59.386  35.786  1.00  0.00    -0.646 OA
HETATM   18  O4  UNL     1      49.234  57.283  35.562  1.00  0.00    -0.646 OA
ENDBRANCH  14  16
ENDBRANCH  12  14
ENDBRANCH  10  12
ENDBRANCH   9  10
ENDBRANCH   6   9
BRANCH   1  19
HETATM   19  C2  UNL     1      54.725  49.574  34.983  1.00  0.00    -0.046 C 
HETATM   20  C1  UNL     1      54.135  49.299  33.615  1.00  0.00     0.015 C 
HETATM   21  C3  UNL     1      53.786  48.958  35.997  1.00  0.00     0.015 C 
HETATM   22  C4  UNL     1      56.048  48.892  35.069  1.00  0.00     0.015 C 
ENDBRANCH   1  19
TORSDOF 6
ENDMDL
MODEL 5
REMARK VINA RESULT: -6.990048349      1.432      2.259
REMARK  6 active torsions:
REMARK  status: ('A' for Active; 'I' for Inactive)
REMARK    1  A    between atoms: C2_2  and  C5_5 
REMARK       I    between atoms: N1_9  and  C9_10 
REMARK    2  A    between atoms: C9_10  and  C10_12 
REMARK    3  A    between atoms: C10_12  and  C11_13 
REMARK    4  A    between atoms: C11_13  and  C12_15 
REMARK    5  A    between atoms: C12_15  and  C13_17 
REMARK    6  A    between atoms: C13_17  and  C14_19 
ROOT
HETATM    1  C5  UNL     1      54.598  50.885  34.633  1.00  0.00     0.011 C 
HETATM    2  C6  UNL     1      54.690  49.404  34.678  1.00  0.00     0.009 C 
HETATM    3  C7  UNL     1      54.102  48.815  35.956  1.00  0.00     0.020 C 
HETATM    4  C8  UNL     1      52.656  49.177  36.137  1.00  0.00     0.126 C 
HETATM    5  N1  UNL     1      52.489  50.558  35.686  1.00  0.00    -0.351 N 
HETATM    6  C9  UNL     1      51.243  51.037  35.228  1.00  0.00     0.226 C 
HETATM    7  O1  UNL     1      51.186  52.233  34.860  1.00  0.00    -0.273 OA
HETATM    8  C15 UNL     1      53.675  51.389  35.742  1.00  0.00     0.131 C 
ENDROOT
BRANCH   6   9
HETATM    9  C10 UNL     1      50.024  50.211  35.163  1.00  0.00     0.182 C 
BRANCH   9  10
HETATM   10  C11 UNL     1      49.107  50.422  36.301  1.00  0.00     0.153 C 
HETATM   11  O2  UNL     1      49.453  51.033  37.283  1.00  0.00    -0.296 OA
BRANCH  10  12
HETATM   12  C12 UNL     1      47.710  49.890  36.298  1.00  0.00     0.172 C 
HETATM   13 BR1  UNL     1      46.632  51.065  35.197  1.00  0.00    -0.080 Br
BRANCH  12  14
HETATM   14  C13 UNL     1      47.129  49.890  37.690  1.00  0.00     0.292 C 
HETATM   15  F1  UNL     1      45.787  50.200  37.699  1.00  0.00    -0.236 F 
BRANCH  14  16
HETATM   16  C14 UNL     1      47.312  48.559  38.308  1.00  0.00     0.210 C 
HETATM   17  O3  UNL     1      46.967  47.490  37.734  1.00  0.00    -0.646 OA
HETATM   18  O4  UNL     1      47.879  48.470  39.557  1.00  0.00    -0.646 OA
ENDBRANCH  14  16
ENDBRANCH  12  14
ENDBRANCH  10  12
ENDBRANCH   9  10
ENDBRANCH   6   9
BRANCH   1  19
HETATM   19  C2  UNL     1      55.925  51.591  34.668  1.00  0.00    -0.046 C 
HETATM   20  C1  UNL     1      55.840  52.781  35.603  1.00  0.00     0.015 C 
HETATM   21  C3  UNL     1      56.225  52.137  33.289  1.00  0.00     0.015 C 
HETATM   22  C4  UNL     1      57.061  50.730  35.106  1.00  0.00     0.015 C 
ENDBRANCH   1  19
TORSDOF 6
ENDMDL
