MODEL 1
REMARK VINA RESULT: -5.995120654      0.000      0.000
REMARK  0 active torsions:
REMARK  status: ('A' for Active; 'I' for Inactive)
ROOT
HETATM    1  N1  UNL     1       9.377   5.627  38.543  1.00  0.00    -0.194 NA
HETATM    2  C1  UNL     1       9.284   5.828  39.663  1.00  0.00     0.108 C 
HETATM    3  C2  UNL     1       9.156   6.062  41.080  1.00  0.00     0.277 C 
HETATM    4  C3  UNL     1       7.981   7.003  41.375  1.00  0.00     0.065 C 
HETATM    5  C4  UNL     1       8.166   7.462  42.821  1.00  0.00     0.029 C 
HETATM    6  C5  UNL     1       8.593   6.348  43.725  1.00  0.00     0.133 C 
HETATM    7  C6  UNL     1       8.282   5.040  43.083  1.00  0.00     0.258 C 
HETATM    8  N2  UNL     1       8.849   4.835  41.794  1.00  0.00    -0.044 N 
ATOM      9  H21 UNL     1       9.677   4.241  41.858  1.00  0.00     0.279 HD
ATOM     10  H22 UNL     1       8.249   4.234  41.231  1.00  0.00     0.279 HD
HETATM   11  N3  UNL     1       9.996   6.440  44.114  1.00  0.00    -0.086 NA
HETATM   12  O1  UNL     1      10.746   6.757  42.992  1.00  0.00    -0.227 OA
HETATM   13  C7  UNL     1      10.347   6.726  41.670  1.00  0.00     0.187 C 
HETATM   14  N4  UNL     1      11.079   7.341  40.806  1.00  0.00    -0.379 N 
ATOM     15  H41 UNL     1      11.898   7.796  41.211  1.00  0.00     0.158 HD
ATOM     16  H42 UNL     1      10.785   7.317  39.830  1.00  0.00     0.158 HD
ENDROOT
TORSDOF 0
ENDMDL
MODEL 2
REMARK VINA RESULT: -5.912999390      2.044      3.717
REMARK  0 active torsions:
REMARK  status: ('A' for Active; 'I' for Inactive)
ROOT
HETATM    1  N1  UNL     1      10.896   6.207  43.581  1.00  0.00    -0.194 NA
HETATM    2  C1  UNL     1      10.107   5.999  42.783  1.00  0.00     0.108 C 
HETATM    3  C2  UNL     1       9.125   5.729  41.762  1.00  0.00     0.277 C 
HETATM    4  C3  UNL     1       8.705   7.022  41.052  1.00  0.00     0.065 C 
HETATM    5  C4  UNL     1       7.434   6.679  40.276  1.00  0.00     0.029 C 
HETATM    6  C5  UNL     1       7.518   5.344  39.602  1.00  0.00     0.133 C 
HETATM    7  C6  UNL     1       8.946   4.933  39.490  1.00  0.00     0.258 C 
HETATM    8  N2  UNL     1       9.670   4.881  40.714  1.00  0.00    -0.044 N 
ATOM      9  H21 UNL     1       9.752   3.918  41.040  1.00  0.00     0.279 HD
ATOM     10  H22 UNL     1      10.654   5.096  40.557  1.00  0.00     0.279 HD
HETATM   11  N3  UNL     1       6.710   4.325  40.261  1.00  0.00    -0.086 NA
HETATM   12  O1  UNL     1       6.898   4.430  41.631  1.00  0.00    -0.227 OA
HETATM   13  C7  UNL     1       7.868   5.150  42.300  1.00  0.00     0.187 C 
HETATM   14  N4  UNL     1       7.694   5.368  43.558  1.00  0.00    -0.379 N 
ATOM     15  H41 UNL     1       6.830   4.970  43.929  1.00  0.00     0.158 HD
ATOM     16  H42 UNL     1       8.411   5.900  44.053  1.00  0.00     0.158 HD
ENDROOT
TORSDOF 0
ENDMDL
MODEL 3
REMARK VINA RESULT: -5.884072774      1.206      1.206
REMARK  0 active torsions:
REMARK  status: ('A' for Active; 'I' for Inactive)
ROOT
HETATM    1  N1  UNL     1       8.114   3.984  39.066  1.00  0.00    -0.194 NA
HETATM    2  C1  UNL     1       8.415   4.555  40.008  1.00  0.00     0.108 C 
HETATM    3  C2  UNL     1       8.780   5.265  41.209  1.00  0.00     0.277 C 
HETATM    4  C3  UNL     1       8.117   6.648  41.250  1.00  0.00     0.065 C 
HETATM    5  C4  UNL     1       8.847   7.428  42.343  1.00  0.00     0.029 C 
HETATM    6  C5  UNL     1       9.119   6.594  43.557  1.00  0.00     0.133 C 
HETATM    7  C6  UNL     1       8.224   5.404  43.553  1.00  0.00     0.258 C 
HETATM    8  N2  UNL     1       8.300   4.578  42.396  1.00  0.00    -0.044 N 
ATOM      9  H21 UNL     1       8.866   3.751  42.585  1.00  0.00     0.279 HD
ATOM     10  H22 UNL     1       7.401   4.134  42.214  1.00  0.00     0.279 HD
HETATM   11  N3  UNL     1      10.522   6.217  43.681  1.00  0.00    -0.086 NA
HETATM   12  O1  UNL     1      10.984   5.813  42.437  1.00  0.00    -0.227 OA
HETATM   13  C7  UNL     1      10.239   5.525  41.310  1.00  0.00     0.187 C 
HETATM   14  N4  UNL     1      10.856   5.466  40.181  1.00  0.00    -0.379 N 
ATOM     15  H41 UNL     1      11.858   5.645  40.250  1.00  0.00     0.158 HD
ATOM     16  H42 UNL     1      10.306   5.253  39.348  1.00  0.00     0.158 HD
ENDROOT
TORSDOF 0
ENDMDL
MODEL 4
REMARK VINA RESULT: -5.829461430      2.012      3.673
REMARK  0 active torsions:
REMARK  status: ('A' for Active; 'I' for Inactive)
ROOT
HETATM    1  N1  UNL     1      10.817   6.201  43.540  1.00  0.00    -0.194 NA
HETATM    2  C1  UNL     1      10.162   6.044  42.619  1.00  0.00     0.108 C 
HETATM    3  C2  UNL     1       9.326   5.865  41.458  1.00  0.00     0.277 C 
HETATM    4  C3  UNL     1       8.104   4.999  41.791  1.00  0.00     0.065 C 
HETATM    5  C4  UNL     1       7.509   4.581  40.447  1.00  0.00     0.029 C 
HETATM    6  C5  UNL     1       7.494   5.702  39.454  1.00  0.00     0.133 C 
HETATM    7  C6  UNL     1       7.630   7.001  40.169  1.00  0.00     0.258 C 
HETATM    8  N2  UNL     1       8.780   7.131  40.998  1.00  0.00    -0.044 N 
ATOM      9  H21 UNL     1       9.498   7.682  40.529  1.00  0.00     0.279 HD
ATOM     10  H22 UNL     1       8.582   7.743  41.790  1.00  0.00     0.279 HD
HETATM   11  N3  UNL     1       8.502   5.548  38.412  1.00  0.00    -0.086 NA
HETATM   12  O1  UNL     1       9.693   5.153  39.003  1.00  0.00    -0.227 OA
HETATM   13  C7  UNL     1      10.015   5.160  40.346  1.00  0.00     0.187 C 
HETATM   14  N4  UNL     1      11.041   4.478  40.722  1.00  0.00    -0.379 N 
ATOM     15  H41 UNL     1      11.514   3.994  39.959  1.00  0.00     0.158 HD
ATOM     16  H42 UNL     1      11.279   4.483  41.714  1.00  0.00     0.158 HD
ENDROOT
TORSDOF 0
ENDMDL
MODEL 5
REMARK VINA RESULT: -5.803053562      3.803      5.650
REMARK  0 active torsions:
REMARK  status: ('A' for Active; 'I' for Inactive)
ROOT
HETATM    1  N1  UNL     1       6.030  11.925  45.740  1.00  0.00    -0.194 NA
HETATM    2  C1  UNL     1       6.440  10.901  45.446  1.00  0.00     0.108 C 
HETATM    3  C2  UNL     1       6.965   9.616  45.054  1.00  0.00     0.277 C 
HETATM    4  C3  UNL     1       5.851   8.714  44.506  1.00  0.00     0.065 C 
HETATM    5  C4  UNL     1       6.434   7.302  44.474  1.00  0.00     0.029 C 
HETATM    6  C5  UNL     1       7.848   7.278  43.983  1.00  0.00     0.133 C 
HETATM    7  C6  UNL     1       8.139   8.537  43.243  1.00  0.00     0.258 C 
HETATM    8  N2  UNL     1       7.920   9.743  43.967  1.00  0.00    -0.044 N 
ATOM      9  H21 UNL     1       8.804  10.119  44.310  1.00  0.00     0.279 HD
ATOM     10  H22 UNL     1       7.645  10.494  43.335  1.00  0.00     0.279 HD
HETATM   11  N3  UNL     1       8.814   7.040  45.049  1.00  0.00    -0.086 NA
HETATM   12  O1  UNL     1       8.467   7.820  46.142  1.00  0.00    -0.227 OA
HETATM   13  C7  UNL     1       7.559   8.860  46.186  1.00  0.00     0.187 C 
HETATM   14  N4  UNL     1       7.152   9.255  47.344  1.00  0.00    -0.379 N 
ATOM     15  H41 UNL     1       7.561   8.736  48.121  1.00  0.00     0.158 HD
ATOM     16  H42 UNL     1       6.482  10.023  47.376  1.00  0.00     0.158 HD
ENDROOT
TORSDOF 0
ENDMDL
