MODEL 1
REMARK VINA RESULT: -4.758860581      0.000      0.000
REMARK  1 active torsions:
REMARK  status: ('A' for Active; 'I' for Inactive)
REMARK    1  A    between atoms: N1_4  and  O1_5 
ROOT
HETATM    1  C1  UNL     1       7.313   7.634  41.731  1.00  0.00     0.024 C 
HETATM    2  C2  UNL     1       7.546   8.472  42.981  1.00  0.00     0.075 C 
HETATM    3  C3  UNL     1       7.472   7.516  44.143  1.00  0.00     0.174 C 
HETATM    4  N1  UNL     1       7.723   8.040  45.432  1.00  0.00    -0.237 N 
HETATM    5  C4  UNL     1       7.113   9.166  46.052  1.00  0.00     0.170 C 
HETATM    6  N2  UNL     1       6.941   9.205  47.350  1.00  0.00    -0.378 N 
ATOM      7  H21 UNL     1       6.504  10.013  47.794  1.00  0.00     0.158 HD
ATOM      8  H22 UNL     1       7.250   8.414  47.916  1.00  0.00     0.158 HD
HETATM    9  S1  UNL     1       6.575  10.542  45.065  1.00  0.00    -0.019 SA
HETATM   10  S2  UNL     1       6.246   9.755  43.111  1.00  0.00    -0.083 SA
ENDROOT
BRANCH   4  11
HETATM   11  O1  UNL     1       8.652   7.422  46.222  1.00  0.00    -0.285 OA
ATOM     12  H1  UNL     1       8.895   7.831  47.046  1.00  0.00     0.245 HD
ENDBRANCH   4  11
TORSDOF 1
ENDMDL
MODEL 2
REMARK VINA RESULT: -4.613528984      3.127      3.772
REMARK  1 active torsions:
REMARK  status: ('A' for Active; 'I' for Inactive)
REMARK    1  A    between atoms: N1_4  and  O1_5 
ROOT
HETATM    1  C1  UNL     1       4.573  12.884  43.545  1.00  0.00     0.024 C 
HETATM    2  C2  UNL     1       4.807  11.583  44.300  1.00  0.00     0.075 C 
HETATM    3  C3  UNL     1       5.473  11.967  45.595  1.00  0.00     0.174 C 
HETATM    4  N1  UNL     1       5.743  10.932  46.519  1.00  0.00    -0.237 N 
HETATM    5  C4  UNL     1       6.433   9.710  46.286  1.00  0.00     0.170 C 
HETATM    6  N2  UNL     1       7.139   9.147  47.236  1.00  0.00    -0.378 N 
ATOM      7  H21 UNL     1       7.634   8.270  47.069  1.00  0.00     0.158 HD
ATOM      8  H22 UNL     1       7.189   9.597  48.151  1.00  0.00     0.158 HD
HETATM    9  S1  UNL     1       6.345   8.927  44.694  1.00  0.00    -0.019 SA
HETATM   10  S2  UNL     1       5.890  10.486  43.312  1.00  0.00    -0.083 SA
ENDROOT
BRANCH   4  11
HETATM   11  O1  UNL     1       5.314  11.076  47.810  1.00  0.00    -0.285 OA
ATOM     12  H1  UNL     1       5.955  11.037  48.511  1.00  0.00     0.245 HD
ENDBRANCH   4  11
TORSDOF 1
ENDMDL
MODEL 3
REMARK VINA RESULT: -4.607064001      1.574      1.612
REMARK  1 active torsions:
REMARK  status: ('A' for Active; 'I' for Inactive)
REMARK    1  A    between atoms: N1_4  and  O1_5 
ROOT
HETATM    1  C1  UNL     1       8.696   5.918  41.567  1.00  0.00     0.024 C 
HETATM    2  C2  UNL     1       8.693   6.988  42.650  1.00  0.00     0.075 C 
HETATM    3  C3  UNL     1       8.387   6.272  43.940  1.00  0.00     0.174 C 
HETATM    4  N1  UNL     1       8.391   7.041  45.127  1.00  0.00    -0.237 N 
HETATM    5  C4  UNL     1       7.685   8.249  45.388  1.00  0.00     0.170 C 
HETATM    6  N2  UNL     1       7.267   8.532  46.597  1.00  0.00    -0.378 N 
ATOM      7  H21 UNL     1       6.761   9.399  46.784  1.00  0.00     0.158 HD
ATOM      8  H22 UNL     1       7.453   7.874  47.354  1.00  0.00     0.158 HD
HETATM    9  S1  UNL     1       7.362   9.393  44.069  1.00  0.00    -0.019 SA
HETATM   10  S2  UNL     1       7.407   8.236  42.279  1.00  0.00    -0.083 SA
ENDROOT
BRANCH   4  11
HETATM   11  O1  UNL     1       9.144   6.613  46.185  1.00  0.00    -0.285 OA
ATOM     12  H1  UNL     1       8.892   6.879  47.062  1.00  0.00     0.245 HD
ENDBRANCH   4  11
TORSDOF 1
ENDMDL
MODEL 4
REMARK VINA RESULT: -4.507293858      6.372      7.048
REMARK  1 active torsions:
REMARK  status: ('A' for Active; 'I' for Inactive)
REMARK    1  A    between atoms: N1_4  and  O1_5 
ROOT
HETATM    1  C1  UNL     1       4.310  12.058  47.369  1.00  0.00     0.024 C 
HETATM    2  C2  UNL     1       4.604  12.739  46.039  1.00  0.00     0.075 C 
HETATM    3  C3  UNL     1       3.438  13.656  45.775  1.00  0.00     0.174 C 
HETATM    4  N1  UNL     1       3.497  14.465  44.617  1.00  0.00    -0.237 N 
HETATM    5  C4  UNL     1       3.746  14.055  43.277  1.00  0.00     0.170 C 
HETATM    6  N2  UNL     1       3.203  14.693  42.269  1.00  0.00    -0.378 N 
ATOM      7  H21 UNL     1       3.381  14.400  41.309  1.00  0.00     0.158 HD
ATOM      8  H22 UNL     1       2.595  15.491  42.456  1.00  0.00     0.158 HD
HETATM    9  S1  UNL     1       4.803  12.666  42.953  1.00  0.00    -0.019 SA
HETATM   10  S2  UNL     1       4.749  11.476  44.721  1.00  0.00    -0.083 SA
ENDROOT
BRANCH   4  11
HETATM   11  O1  UNL     1       3.291  15.810  44.744  1.00  0.00    -0.285 OA
ATOM     12  H1  UNL     1       2.626  16.223  44.205  1.00  0.00     0.245 HD
ENDBRANCH   4  11
TORSDOF 1
ENDMDL
MODEL 5
REMARK VINA RESULT: -4.462694539      3.248      3.744
REMARK  1 active torsions:
REMARK  status: ('A' for Active; 'I' for Inactive)
REMARK    1  A    between atoms: N1_4  and  O1_5 
ROOT
HETATM    1  C1  UNL     1      10.944   6.839  40.741  1.00  0.00     0.024 C 
HETATM    2  C2  UNL     1      10.110   6.853  42.014  1.00  0.00     0.075 C 
HETATM    3  C3  UNL     1       9.391   5.531  42.056  1.00  0.00     0.174 C 
HETATM    4  N1  UNL     1       8.589   5.262  43.189  1.00  0.00    -0.237 N 
HETATM    5  C4  UNL     1       7.561   6.074  43.744  1.00  0.00     0.170 C 
HETATM    6  N2  UNL     1       6.528   5.533  44.342  1.00  0.00    -0.378 N 
ATOM      7  H21 UNL     1       5.791   6.115  44.740  1.00  0.00     0.158 HD
ATOM      8  H22 UNL     1       6.468   4.516  44.405  1.00  0.00     0.158 HD
HETATM    9  S1  UNL     1       7.666   7.844  43.632  1.00  0.00    -0.019 SA
HETATM   10  S2  UNL     1       8.917   8.241  41.952  1.00  0.00    -0.083 SA
ENDROOT
BRANCH   4  11
HETATM   11  O1  UNL     1       8.780   4.090  43.866  1.00  0.00    -0.285 OA
ATOM     12  H1  UNL     1       8.687   3.270  43.396  1.00  0.00     0.245 HD
ENDBRANCH   4  11
TORSDOF 1
ENDMDL
