MODEL 1
REMARK VINA RESULT: -5.973013242      0.000      0.000
REMARK  2 active torsions:
REMARK  status: ('A' for Active; 'I' for Inactive)
REMARK    1  A    between atoms: O1_1  and  C1_3 
REMARK    2  A    between atoms: C6_13  and  O2_14 
ROOT
HETATM    1  C1  UNL     1       4.324  14.369  43.900  1.00  0.00     0.120 C 
HETATM    2  C2  UNL     1       4.259  13.033  43.235  1.00  0.00     0.033 C 
HETATM    3  C3  UNL     1       4.641  11.868  44.037  1.00  0.00     0.024 C 
HETATM    4  C4  UNL     1       5.623  12.093  45.132  1.00  0.00     0.147 C 
HETATM    5  N1  UNL     1       4.896  12.251  46.373  1.00  0.00    -0.287 N 
HETATM    6  N2  UNL     1       4.955  11.942  47.714  1.00  0.00    -0.245 N 
ATOM      7  H2  UNL     1       5.643  11.435  48.271  1.00  0.00     0.208 HD
HETATM    8  N3  UNL     1       3.841  12.513  48.025  1.00  0.00    -0.295 N 
ATOM      9  H3  UNL     1       3.316  12.633  48.891  1.00  0.00     0.184 HD
HETATM   10  C5  UNL     1       3.637  12.908  46.672  1.00  0.00     0.246 A 
HETATM   11  C6  UNL     1       3.828  14.379  46.364  1.00  0.00     0.165 C 
HETATM   12  C7  UNL     1       3.289  14.592  44.951  1.00  0.00     0.067 C 
ENDROOT
BRANCH   1  13
HETATM   13  O1  UNL     1       4.072  15.318  42.875  1.00  0.00    -0.395 OA
ATOM     14  H1  UNL     1       4.721  16.001  42.995  1.00  0.00     0.210 HD
ENDBRANCH   1  13
BRANCH  11  15
HETATM   15  O2  UNL     1       3.219  15.185  47.292  1.00  0.00    -0.392 OA
ATOM     16  H2  UNL     1       3.398  16.105  47.140  1.00  0.00     0.210 HD
ENDBRANCH  11  15
TORSDOF 2
ENDMDL
MODEL 2
REMARK VINA RESULT: -5.903841504      2.404      3.657
REMARK  2 active torsions:
REMARK  status: ('A' for Active; 'I' for Inactive)
REMARK    1  A    between atoms: O1_1  and  C1_3 
REMARK    2  A    between atoms: C6_13  and  O2_14 
ROOT
HETATM    1  C1  UNL     1       3.901  12.568  46.654  1.00  0.00     0.120 C 
HETATM    2  C2  UNL     1       5.280  12.090  46.336  1.00  0.00     0.033 C 
HETATM    3  C3  UNL     1       5.678  12.084  44.927  1.00  0.00     0.024 C 
HETATM    4  C4  UNL     1       4.594  11.916  43.920  1.00  0.00     0.147 C 
HETATM    5  N1  UNL     1       4.218  13.225  43.430  1.00  0.00    -0.287 N 
HETATM    6  N2  UNL     1       3.834  13.887  42.285  1.00  0.00    -0.245 N 
ATOM      7  H2  UNL     1       3.694  13.572  41.325  1.00  0.00     0.208 HD
HETATM    8  N3  UNL     1       3.713  15.044  42.843  1.00  0.00    -0.295 N 
ATOM      9  H3  UNL     1       3.450  15.972  42.513  1.00  0.00     0.184 HD
HETATM   10  C5  UNL     1       4.096  14.504  44.104  1.00  0.00     0.246 A 
HETATM   11  C6  UNL     1       2.994  14.352  45.133  1.00  0.00     0.165 C 
HETATM   12  C7  UNL     1       3.688  14.032  46.455  1.00  0.00     0.067 C 
ENDROOT
BRANCH   1  13
HETATM   13  O1  UNL     1       3.721  12.317  48.040  1.00  0.00    -0.395 OA
ATOM     14  H1  UNL     1       2.871  12.682  48.256  1.00  0.00     0.210 HD
ENDBRANCH   1  13
BRANCH  11  15
HETATM   15  O2  UNL     1       2.198  15.466  45.207  1.00  0.00    -0.392 OA
ATOM     16  H2  UNL     1       1.951  15.670  46.101  1.00  0.00     0.210 HD
ENDBRANCH  11  15
TORSDOF 2
ENDMDL
MODEL 3
REMARK VINA RESULT: -5.798550893      8.858      9.639
REMARK  2 active torsions:
REMARK  status: ('A' for Active; 'I' for Inactive)
REMARK    1  A    between atoms: O1_1  and  C1_3 
REMARK    2  A    between atoms: C6_13  and  O2_14 
ROOT
HETATM    1  C1  UNL     1       9.571   5.484  40.574  1.00  0.00     0.120 C 
HETATM    2  C2  UNL     1       8.302   6.042  40.017  1.00  0.00     0.033 C 
HETATM    3  C3  UNL     1       7.143   6.086  40.910  1.00  0.00     0.024 C 
HETATM    4  C4  UNL     1       7.080   5.061  41.988  1.00  0.00     0.147 C 
HETATM    5  N1  UNL     1       7.584   5.653  43.210  1.00  0.00    -0.287 N 
HETATM    6  N2  UNL     1       7.377   5.676  44.572  1.00  0.00    -0.245 N 
ATOM      7  H2  UNL     1       6.700   5.203  45.170  1.00  0.00     0.208 HD
HETATM    8  N3  UNL     1       8.333   6.502  44.831  1.00  0.00    -0.295 N 
ATOM      9  H3  UNL     1       8.700   6.926  45.682  1.00  0.00     0.184 HD
HETATM   10  C5  UNL     1       8.671   6.583  43.450  1.00  0.00     0.246 A 
HETATM   11  C6  UNL     1       9.947   5.883  43.027  1.00  0.00     0.165 C 
HETATM   12  C7  UNL     1      10.232   6.343  41.599  1.00  0.00     0.067 C 
ENDROOT
BRANCH   1  13
HETATM   13  O1  UNL     1      10.466   5.403  39.474  1.00  0.00    -0.395 OA
ATOM     14  H1  UNL     1       9.958   5.039  38.759  1.00  0.00     0.210 HD
ENDBRANCH   1  13
BRANCH  11  15
HETATM   15  O2  UNL     1      10.986   6.137  43.884  1.00  0.00    -0.392 OA
ATOM     16  H2  UNL     1      10.790   6.848  44.483  1.00  0.00     0.210 HD
ENDBRANCH  11  15
TORSDOF 2
ENDMDL
MODEL 4
REMARK VINA RESULT: -5.767409758      4.180      5.164
REMARK  2 active torsions:
REMARK  status: ('A' for Active; 'I' for Inactive)
REMARK    1  A    between atoms: O1_1  and  C1_3 
REMARK    2  A    between atoms: C6_13  and  O2_14 
ROOT
HETATM    1  C1  UNL     1       7.017  10.002  42.861  1.00  0.00     0.120 C 
HETATM    2  C2  UNL     1       7.910  11.168  43.134  1.00  0.00     0.033 C 
HETATM    3  C3  UNL     1       7.766  11.831  44.432  1.00  0.00     0.024 C 
HETATM    4  C4  UNL     1       6.427  11.767  45.079  1.00  0.00     0.147 C 
HETATM    5  N1  UNL     1       6.436  10.686  46.042  1.00  0.00    -0.287 N 
HETATM    6  N2  UNL     1       5.968  10.339  47.290  1.00  0.00    -0.245 N 
ATOM      7  H2  UNL     1       5.398  10.840  47.972  1.00  0.00     0.208 HD
HETATM    8  N3  UNL     1       6.497   9.163  47.301  1.00  0.00    -0.295 N 
ATOM      9  H3  UNL     1       6.513   8.392  47.969  1.00  0.00     0.184 HD
HETATM   10  C5  UNL     1       7.051   9.372  46.006  1.00  0.00     0.246 A 
HETATM   11  C6  UNL     1       6.399   8.617  44.865  1.00  0.00     0.165 C 
HETATM   12  C7  UNL     1       7.326   8.782  43.662  1.00  0.00     0.067 C 
ENDROOT
BRANCH   1  13
HETATM   13  O1  UNL     1       7.240   9.662  41.501  1.00  0.00    -0.395 OA
ATOM     14  H1  UNL     1       6.733   8.873  41.349  1.00  0.00     0.210 HD
ENDBRANCH   1  13
BRANCH  11  15
HETATM   15  O2  UNL     1       6.167   7.303  45.180  1.00  0.00    -0.392 OA
ATOM     16  H2  UNL     1       6.245   7.139  46.113  1.00  0.00     0.210 HD
ENDBRANCH  11  15
TORSDOF 2
ENDMDL
MODEL 5
REMARK VINA RESULT: -5.723521666      1.636      1.874
REMARK  2 active torsions:
REMARK  status: ('A' for Active; 'I' for Inactive)
REMARK    1  A    between atoms: O1_1  and  C1_3 
REMARK    2  A    between atoms: C6_13  and  O2_14 
ROOT
HETATM    1  C1  UNL     1       3.808  14.270  44.602  1.00  0.00     0.120 C 
HETATM    2  C2  UNL     1       3.839  13.567  43.285  1.00  0.00     0.033 C 
HETATM    3  C3  UNL     1       4.834  12.505  43.117  1.00  0.00     0.024 C 
HETATM    4  C4  UNL     1       6.085  12.618  43.915  1.00  0.00     0.147 C 
HETATM    5  N1  UNL     1       5.946  11.799  45.101  1.00  0.00    -0.287 N 
HETATM    6  N2  UNL     1       6.657  10.960  45.931  1.00  0.00    -0.245 N 
ATOM      7  H2  UNL     1       7.627  10.647  45.921  1.00  0.00     0.208 HD
HETATM    8  N3  UNL     1       5.672  10.705  46.725  1.00  0.00    -0.295 N 
ATOM      9  H3  UNL     1       5.558  10.132  47.561  1.00  0.00     0.184 HD
HETATM   10  C5  UNL     1       4.809  11.544  45.964  1.00  0.00     0.246 A 
HETATM   11  C6  UNL     1       4.432  12.870  46.594  1.00  0.00     0.165 C 
HETATM   12  C7  UNL     1       3.305  13.443  45.738  1.00  0.00     0.067 C 
ENDROOT
BRANCH   1  13
HETATM   13  O1  UNL     1       2.889  15.340  44.441  1.00  0.00    -0.395 OA
ATOM     14  H1  UNL     1       2.213  15.195  45.093  1.00  0.00     0.210 HD
ENDBRANCH   1  13
BRANCH  11  15
HETATM   15  O2  UNL     1       4.082  12.736  47.912  1.00  0.00    -0.392 OA
ATOM     16  H2  UNL     1       4.619  13.272  48.482  1.00  0.00     0.210 HD
ENDBRANCH  11  15
TORSDOF 2
ENDMDL
