MODEL 1
REMARK VINA RESULT: -9.077456407      0.000      0.000
REMARK  12 active torsions:
REMARK  status: ('A' for Active; 'I' for Inactive)
REMARK    1  A    between atoms: C2_2  and  C3_3 
REMARK    2  A    between atoms: C3_3  and  C4_4 
REMARK    3  A    between atoms: C4_4  and  C5_5 
REMARK    4  A    between atoms: C5_5  and  C6_6 
REMARK    5  A    between atoms: C6_6  and  C7_7 
REMARK    6  A    between atoms: C7_7  and  C8_8 
REMARK    7  A    between atoms: C8_8  and  O1_9 
REMARK    8  A    between atoms: O1_9  and  C9_10 
REMARK    9  A    between atoms: C16_22  and  C17_23 
REMARK   10  A    between atoms: N5_31  and  C21_32 
REMARK   11  A    between atoms: C22_33  and  O4_34 
REMARK   12  A    between atoms: C22_33  and  N6_36 
ROOT
HETATM    1  C9  UNL     1     -10.341  14.626  29.257  1.00  0.00     0.108 A 
HETATM    2  C10 UNL     1     -11.262  13.849  29.909  1.00  0.00     0.095 A 
HETATM    3  N1  UNL     1     -11.306  13.168  31.070  1.00  0.00    -0.297 N 
ATOM      4  H1  UNL     1     -10.485  13.171  31.676  1.00  0.00     0.187 HD
HETATM    5  N2  UNL     1     -12.382  12.494  31.453  1.00  0.00    -0.309 N 
ATOM      6  H2  UNL     1     -12.343  12.000  32.345  1.00  0.00     0.186 HD
HETATM    7  C11 UNL     1     -13.519  12.419  30.744  1.00  0.00     0.134 A 
HETATM    8  C12 UNL     1     -13.607  13.080  29.526  1.00  0.00     0.076 A 
HETATM    9  N3  UNL     1     -14.785  13.031  28.739  1.00  0.00    -0.100 NA
HETATM   10  C13 UNL     1     -12.508  13.784  29.107  1.00  0.00     0.027 A 
HETATM   11  C14 UNL     1     -12.246  14.549  27.995  1.00  0.00    -0.034 A 
HETATM   12  C15 UNL     1     -13.209  14.800  26.891  1.00  0.00     0.050 C 
HETATM   13  C16 UNL     1     -10.951  15.053  28.083  1.00  0.00     0.008 A 
ENDROOT
BRANCH  13  14
HETATM   14  C17 UNL     1     -10.347  15.930  27.104  1.00  0.00     0.037 C 
HETATM   15  C18 UNL     1      -9.606  15.482  26.103  1.00  0.00     0.101 A 
HETATM   16  C19 UNL     1      -9.308  14.079  25.872  1.00  0.00     0.265 A 
HETATM   17  C28 UNL     1      -9.048  16.416  25.122  1.00  0.00     0.271 A 
HETATM   18  O2  UNL     1      -9.731  13.198  26.650  1.00  0.00    -0.267 OA
HETATM   19  N4  UNL     1      -8.510  13.693  24.728  1.00  0.00    -0.274 N 
HETATM   20  C20 UNL     1      -8.001  14.645  23.815  1.00  0.00     0.336 A 
ATOM     21  H4  UNL     1      -8.310  12.705  24.577  1.00  0.00     0.173 HD
HETATM   22  O3  UNL     1      -7.307  14.315  22.820  1.00  0.00    -0.246 OA
HETATM   23  N5  UNL     1      -8.266  16.063  23.999  1.00  0.00    -0.236 N 
HETATM   24  O5  UNL     1      -9.295  17.643  25.305  1.00  0.00    -0.266 OA
BRANCH  23  25
HETATM   25  C21 UNL     1      -7.795  17.009  23.040  1.00  0.00     0.160 C 
HETATM   26  C22 UNL     1      -6.561  17.687  23.135  1.00  0.00     0.154 C 
BRANCH  26  27
HETATM   27  O4  UNL     1      -6.350  18.516  22.097  1.00  0.00    -0.345 OA
ATOM     28  H4  UNL     1      -5.834  19.275  22.339  1.00  0.00     0.219 HD
ENDBRANCH  26  27
BRANCH  26  29
HETATM   29  N6  UNL     1      -5.532  17.671  24.069  1.00  0.00    -0.358 N 
HETATM   30  C23 UNL     1      -4.608  16.607  24.279  1.00  0.00     0.155 C 
HETATM   31  C24 UNL     1      -3.654  17.048  25.412  1.00  0.00     0.291 C 
HETATM   32  N7  UNL     1      -4.362  17.369  26.611  1.00  0.00     0.087 N 
HETATM   33  C25 UNL     1      -4.795  16.252  27.394  1.00  0.00     0.310 C 
HETATM   34  C26 UNL     1      -5.425  18.339  26.365  1.00  0.00     0.291 C 
HETATM   35  C27 UNL     1      -5.325  18.866  24.946  1.00  0.00     0.155 C 
ENDBRANCH  26  29
ENDBRANCH  23  25
ENDBRANCH  13  14
BRANCH   1  36
HETATM   36  O1  UNL     1      -9.085  14.947  29.618  1.00  0.00    -0.348 OA
BRANCH  36  37
HETATM   37  C8  UNL     1      -8.556  15.683  30.645  1.00  0.00     0.176 C 
BRANCH  37  38
HETATM   38  C7  UNL     1      -8.533  15.196  32.030  1.00  0.00     0.027 C 
BRANCH  38  39
HETATM   39  C6  UNL     1      -9.202  15.977  33.085  1.00  0.00     0.002 C 
BRANCH  39  40
HETATM   40  C5  UNL     1      -9.260  15.293  34.424  1.00  0.00     0.000 C 
BRANCH  40  41
HETATM   41  C4  UNL     1     -10.010  13.983  34.335  1.00  0.00     0.000 C 
BRANCH  41  42
HETATM   42  C3  UNL     1     -11.495  14.196  34.525  1.00  0.00    -0.000 C 
BRANCH  42  43
HETATM   43  C2  UNL     1     -12.196  12.975  35.031  1.00  0.00    -0.005 C 
HETATM   44  C1  UNL     1     -11.225  11.812  35.012  1.00  0.00     0.005 C 
ENDBRANCH  42  43
ENDBRANCH  41  42
ENDBRANCH  40  41
ENDBRANCH  39  40
ENDBRANCH  38  39
ENDBRANCH  37  38
ENDBRANCH  36  37
ENDBRANCH   1  36
TORSDOF 12
ENDMDL
MODEL 2
REMARK VINA RESULT: -9.063519664      2.252      8.300
REMARK  12 active torsions:
REMARK  status: ('A' for Active; 'I' for Inactive)
REMARK    1  A    between atoms: C2_2  and  C3_3 
REMARK    2  A    between atoms: C3_3  and  C4_4 
REMARK    3  A    between atoms: C4_4  and  C5_5 
REMARK    4  A    between atoms: C5_5  and  C6_6 
REMARK    5  A    between atoms: C6_6  and  C7_7 
REMARK    6  A    between atoms: C7_7  and  C8_8 
REMARK    7  A    between atoms: C8_8  and  O1_9 
REMARK    8  A    between atoms: O1_9  and  C9_10 
REMARK    9  A    between atoms: C16_22  and  C17_23 
REMARK   10  A    between atoms: N5_31  and  C21_32 
REMARK   11  A    between atoms: C22_33  and  O4_34 
REMARK   12  A    between atoms: C22_33  and  N6_36 
ROOT
HETATM    1  C9  UNL     1      -6.910  16.747  23.917  1.00  0.00     0.108 A 
HETATM    2  C10 UNL     1      -6.517  17.220  22.692  1.00  0.00     0.095 A 
HETATM    3  N1  UNL     1      -5.901  18.325  22.232  1.00  0.00    -0.297 N 
ATOM      4  H1  UNL     1      -5.630  19.051  22.897  1.00  0.00     0.187 HD
HETATM    5  N2  UNL     1      -5.634  18.502  20.945  1.00  0.00    -0.309 N 
ATOM      6  H2  UNL     1      -5.166  19.366  20.670  1.00  0.00     0.186 HD
HETATM    7  C11 UNL     1      -5.939  17.619  19.982  1.00  0.00     0.134 A 
HETATM    8  C12 UNL     1      -6.575  16.433  20.322  1.00  0.00     0.076 A 
HETATM    9  N3  UNL     1      -6.920  15.468  19.342  1.00  0.00    -0.100 NA
HETATM   10  C13 UNL     1      -6.863  16.226  21.647  1.00  0.00     0.027 A 
HETATM   11  C14 UNL     1      -7.456  15.192  22.333  1.00  0.00    -0.034 A 
HETATM   12  C15 UNL     1      -7.967  13.943  21.710  1.00  0.00     0.050 C 
HETATM   13  C16 UNL     1      -7.485  15.502  23.689  1.00  0.00     0.008 A 
ENDROOT
BRANCH  13  14
HETATM   14  C17 UNL     1      -8.007  14.628  24.717  1.00  0.00     0.037 C 
HETATM   15  C18 UNL     1      -9.232  14.746  25.203  1.00  0.00     0.101 A 
HETATM   16  C19 UNL     1     -10.186  15.755  24.774  1.00  0.00     0.265 A 
HETATM   17  C28 UNL     1      -9.717  13.809  26.219  1.00  0.00     0.271 A 
HETATM   18  O2  UNL     1      -9.875  16.606  23.915  1.00  0.00    -0.267 OA
HETATM   19  N4  UNL     1     -11.513  15.778  25.349  1.00  0.00    -0.274 N 
HETATM   20  C20 UNL     1     -11.923  14.843  26.328  1.00  0.00     0.336 A 
ATOM     21  H4  UNL     1     -12.174  16.491  25.039  1.00  0.00     0.173 HD
HETATM   22  O3  UNL     1     -13.074  14.859  26.831  1.00  0.00    -0.246 OA
HETATM   23  N5  UNL     1     -11.008  13.812  26.795  1.00  0.00    -0.236 N 
HETATM   24  O5  UNL     1      -8.903  12.923  26.605  1.00  0.00    -0.266 OA
BRANCH  23  25
HETATM   25  C21 UNL     1     -11.450  12.840  27.740  1.00  0.00     0.160 C 
HETATM   26  C22 UNL     1     -11.255  12.943  29.135  1.00  0.00     0.154 C 
BRANCH  26  27
HETATM   27  O4  UNL     1     -11.775  11.899  29.804  1.00  0.00    -0.345 OA
ATOM     28  H4  UNL     1     -12.161  12.157  30.632  1.00  0.00     0.219 HD
ENDBRANCH  26  27
BRANCH  26  29
HETATM   29  N6  UNL     1     -10.645  13.892  29.946  1.00  0.00    -0.358 N 
HETATM   30  C23 UNL     1      -9.265  13.930  30.299  1.00  0.00     0.155 C 
HETATM   31  C24 UNL     1      -9.060  15.163  31.208  1.00  0.00     0.291 C 
HETATM   32  N7  UNL     1      -9.895  15.117  32.366  1.00  0.00     0.087 N 
HETATM   33  C25 UNL     1      -9.451  14.253  33.418  1.00  0.00     0.310 C 
HETATM   34  C26 UNL     1     -11.296  14.909  32.012  1.00  0.00     0.291 C 
HETATM   35  C27 UNL     1     -11.468  15.008  30.508  1.00  0.00     0.155 C 
ENDBRANCH  26  29
ENDBRANCH  23  25
ENDBRANCH  13  14
BRANCH   1  36
HETATM   36  O1  UNL     1      -6.796  17.319  25.129  1.00  0.00    -0.348 OA
BRANCH  36  37
HETATM   37  C8  UNL     1      -6.341  18.537  25.561  1.00  0.00     0.176 C 
BRANCH  37  38
HETATM   38  C7  UNL     1      -4.910  18.857  25.641  1.00  0.00     0.027 C 
BRANCH  38  39
HETATM   39  C6  UNL     1      -3.938  17.777  25.887  1.00  0.00     0.002 C 
BRANCH  39  40
HETATM   40  C5  UNL     1      -3.773  17.407  27.337  1.00  0.00     0.000 C 
BRANCH  40  41
HETATM   41  C4  UNL     1      -4.588  16.182  27.683  1.00  0.00     0.000 C 
BRANCH  41  42
HETATM   42  C3  UNL     1      -5.830  16.559  28.459  1.00  0.00    -0.000 C 
BRANCH  42  43
HETATM   43  C2  UNL     1      -7.022  15.741  28.079  1.00  0.00    -0.005 C 
HETATM   44  C1  UNL     1      -8.251  16.626  28.106  1.00  0.00     0.005 C 
ENDBRANCH  42  43
ENDBRANCH  41  42
ENDBRANCH  40  41
ENDBRANCH  39  40
ENDBRANCH  38  39
ENDBRANCH  37  38
ENDBRANCH  36  37
ENDBRANCH   1  36
TORSDOF 12
ENDMDL
MODEL 3
REMARK VINA RESULT: -9.026008550      2.264      8.517
REMARK  12 active torsions:
REMARK  status: ('A' for Active; 'I' for Inactive)
REMARK    1  A    between atoms: C2_2  and  C3_3 
REMARK    2  A    between atoms: C3_3  and  C4_4 
REMARK    3  A    between atoms: C4_4  and  C5_5 
REMARK    4  A    between atoms: C5_5  and  C6_6 
REMARK    5  A    between atoms: C6_6  and  C7_7 
REMARK    6  A    between atoms: C7_7  and  C8_8 
REMARK    7  A    between atoms: C8_8  and  O1_9 
REMARK    8  A    between atoms: O1_9  and  C9_10 
REMARK    9  A    between atoms: C16_22  and  C17_23 
REMARK   10  A    between atoms: N5_31  and  C21_32 
REMARK   11  A    between atoms: C22_33  and  O4_34 
REMARK   12  A    between atoms: C22_33  and  N6_36 
ROOT
HETATM    1  C9  UNL     1      -6.998  16.727  24.035  1.00  0.00     0.108 A 
HETATM    2  C10 UNL     1      -6.614  17.208  22.811  1.00  0.00     0.095 A 
HETATM    3  N1  UNL     1      -6.001  18.317  22.355  1.00  0.00    -0.297 N 
ATOM      4  H1  UNL     1      -5.727  19.039  23.022  1.00  0.00     0.187 HD
HETATM    5  N2  UNL     1      -5.743  18.502  21.067  1.00  0.00    -0.309 N 
ATOM      6  H2  UNL     1      -5.278  19.368  20.794  1.00  0.00     0.186 HD
HETATM    7  C11 UNL     1      -6.053  17.625  20.100  1.00  0.00     0.134 A 
HETATM    8  C12 UNL     1      -6.687  16.436  20.436  1.00  0.00     0.076 A 
HETATM    9  N3  UNL     1      -7.037  15.478  19.452  1.00  0.00    -0.100 NA
HETATM   10  C13 UNL     1      -6.966  16.220  21.761  1.00  0.00     0.027 A 
HETATM   11  C14 UNL     1      -7.554  15.181  22.444  1.00  0.00    -0.034 A 
HETATM   12  C15 UNL     1      -8.067  13.937  21.817  1.00  0.00     0.050 C 
HETATM   13  C16 UNL     1      -7.573  15.483  23.803  1.00  0.00     0.008 A 
ENDROOT
BRANCH  13  14
HETATM   14  C17 UNL     1      -8.088  14.602  24.828  1.00  0.00     0.037 C 
HETATM   15  C18 UNL     1      -9.340  14.652  25.253  1.00  0.00     0.101 A 
HETATM   16  C19 UNL     1     -10.335  15.587  24.754  1.00  0.00     0.265 A 
HETATM   17  C28 UNL     1      -9.814  13.710  26.270  1.00  0.00     0.271 A 
HETATM   18  O2  UNL     1     -10.037  16.436  23.888  1.00  0.00    -0.267 OA
HETATM   19  N4  UNL     1     -11.686  15.539  25.266  1.00  0.00    -0.274 N 
HETATM   20  C20 UNL     1     -12.083  14.603  26.250  1.00  0.00     0.336 A 
ATOM     21  H4  UNL     1     -12.375  16.200  24.907  1.00  0.00     0.173 HD
HETATM   22  O3  UNL     1     -13.255  14.557  26.698  1.00  0.00    -0.246 OA
HETATM   23  N5  UNL     1     -11.128  13.644  26.786  1.00  0.00    -0.236 N 
HETATM   24  O5  UNL     1      -8.964  12.888  26.718  1.00  0.00    -0.266 OA
BRANCH  23  25
HETATM   25  C21 UNL     1     -11.553  12.668  27.735  1.00  0.00     0.160 C 
HETATM   26  C22 UNL     1     -11.482  12.839  29.135  1.00  0.00     0.154 C 
BRANCH  26  27
HETATM   27  O4  UNL     1     -11.955  11.774  29.806  1.00  0.00    -0.345 OA
ATOM     28  H4  UNL     1     -11.538  11.665  30.652  1.00  0.00     0.219 HD
ENDBRANCH  26  27
BRANCH  26  29
HETATM   29  N6  UNL     1     -11.030  13.871  29.949  1.00  0.00    -0.358 N 
HETATM   30  C23 UNL     1      -9.715  14.420  29.953  1.00  0.00     0.155 C 
HETATM   31  C24 UNL     1      -9.692  15.541  31.017  1.00  0.00     0.291 C 
HETATM   32  N7  UNL     1     -10.060  15.056  32.310  1.00  0.00     0.087 N 
HETATM   33  C25 UNL     1      -9.040  14.345  33.019  1.00  0.00     0.310 C 
HETATM   34  C26 UNL     1     -11.333  14.343  32.275  1.00  0.00     0.291 C 
HETATM   35  C27 UNL     1     -11.980  14.508  30.913  1.00  0.00     0.155 C 
ENDBRANCH  26  29
ENDBRANCH  23  25
ENDBRANCH  13  14
BRANCH   1  36
HETATM   36  O1  UNL     1      -6.877  17.291  25.250  1.00  0.00    -0.348 OA
BRANCH  36  37
HETATM   37  C8  UNL     1      -7.778  17.672  26.210  1.00  0.00     0.176 C 
BRANCH  37  38
HETATM   38  C7  UNL     1      -7.826  17.043  27.536  1.00  0.00     0.027 C 
BRANCH  38  39
HETATM   39  C6  UNL     1      -6.808  16.043  27.901  1.00  0.00     0.002 C 
BRANCH  39  40
HETATM   40  C5  UNL     1      -5.463  16.622  28.251  1.00  0.00     0.000 C 
BRANCH  40  41
HETATM   41  C4  UNL     1      -4.430  16.271  27.205  1.00  0.00     0.000 C 
BRANCH  41  42
HETATM   42  C3  UNL     1      -3.651  17.496  26.780  1.00  0.00    -0.000 C 
BRANCH  42  43
HETATM   43  C2  UNL     1      -3.756  17.769  25.313  1.00  0.00    -0.005 C 
HETATM   44  C1  UNL     1      -3.411  16.504  24.555  1.00  0.00     0.005 C 
ENDBRANCH  42  43
ENDBRANCH  41  42
ENDBRANCH  40  41
ENDBRANCH  39  40
ENDBRANCH  38  39
ENDBRANCH  37  38
ENDBRANCH  36  37
ENDBRANCH   1  36
TORSDOF 12
ENDMDL
MODEL 4
REMARK VINA RESULT: -9.013110116      2.207      5.510
REMARK  12 active torsions:
REMARK  status: ('A' for Active; 'I' for Inactive)
REMARK    1  A    between atoms: C2_2  and  C3_3 
REMARK    2  A    between atoms: C3_3  and  C4_4 
REMARK    3  A    between atoms: C4_4  and  C5_5 
REMARK    4  A    between atoms: C5_5  and  C6_6 
REMARK    5  A    between atoms: C6_6  and  C7_7 
REMARK    6  A    between atoms: C7_7  and  C8_8 
REMARK    7  A    between atoms: C8_8  and  O1_9 
REMARK    8  A    between atoms: O1_9  and  C9_10 
REMARK    9  A    between atoms: C16_22  and  C17_23 
REMARK   10  A    between atoms: N5_31  and  C21_32 
REMARK   11  A    between atoms: C22_33  and  O4_34 
REMARK   12  A    between atoms: C22_33  and  N6_36 
ROOT
HETATM    1  C9  UNL     1     -11.137  14.340  29.379  1.00  0.00     0.108 A 
HETATM    2  C10 UNL     1     -11.756  14.224  30.596  1.00  0.00     0.095 A 
HETATM    3  N1  UNL     1     -13.026  14.241  31.042  1.00  0.00    -0.297 N 
ATOM      4  H1  UNL     1     -13.783  14.379  30.371  1.00  0.00     0.187 HD
HETATM    5  N2  UNL     1     -13.327  14.086  32.324  1.00  0.00    -0.309 N 
ATOM      6  H2  UNL     1     -14.311  14.112  32.590  1.00  0.00     0.186 HD
HETATM    7  C11 UNL     1     -12.421  13.896  33.296  1.00  0.00     0.134 A 
HETATM    8  C12 UNL     1     -11.072  13.855  32.969  1.00  0.00     0.076 A 
HETATM    9  N3  UNL     1     -10.075  13.658  33.958  1.00  0.00    -0.100 NA
HETATM   10  C13 UNL     1     -10.734  14.014  31.650  1.00  0.00     0.027 A 
HETATM   11  C14 UNL     1      -9.534  14.016  30.977  1.00  0.00    -0.034 A 
HETATM   12  C15 UNL     1      -8.205  13.824  31.612  1.00  0.00     0.050 C 
HETATM   13  C16 UNL     1      -9.774  14.210  29.620  1.00  0.00     0.008 A 
ENDROOT
BRANCH  13  14
HETATM   14  C17 UNL     1      -8.745  14.234  28.603  1.00  0.00     0.037 C 
HETATM   15  C18 UNL     1      -8.227  15.358  28.135  1.00  0.00     0.101 A 
HETATM   16  C19 UNL     1      -8.626  16.685  28.573  1.00  0.00     0.265 A 
HETATM   17  C28 UNL     1      -7.162  15.319  27.130  1.00  0.00     0.271 A 
HETATM   18  O2  UNL     1      -9.528  16.834  29.424  1.00  0.00    -0.267 OA
HETATM   19  N4  UNL     1      -7.975  17.851  28.017  1.00  0.00    -0.274 N 
HETATM   20  C20 UNL     1      -6.950  17.746  27.048  1.00  0.00     0.336 A 
ATOM     21  H4  UNL     1      -8.263  18.777  28.333  1.00  0.00     0.173 HD
HETATM   22  O3  UNL     1      -6.381  18.755  26.561  1.00  0.00    -0.246 OA
HETATM   23  N5  UNL     1      -6.512  16.443  26.572  1.00  0.00    -0.236 N 
HETATM   24  O5  UNL     1      -6.800  14.174  26.735  1.00  0.00    -0.266 OA
BRANCH  23  25
HETATM   25  C21 UNL     1      -5.439  16.347  25.638  1.00  0.00     0.160 C 
HETATM   26  C22 UNL     1      -5.611  16.229  24.241  1.00  0.00     0.154 C 
BRANCH  26  27
HETATM   27  O4  UNL     1      -4.439  16.166  23.584  1.00  0.00    -0.345 OA
ATOM     28  H4  UNL     1      -4.475  16.600  22.739  1.00  0.00     0.219 HD
ENDBRANCH  26  27
BRANCH  26  29
HETATM   29  N6  UNL     1      -6.729  16.168  23.419  1.00  0.00    -0.358 N 
HETATM   30  C23 UNL     1      -7.444  14.987  23.063  1.00  0.00     0.155 C 
HETATM   31  C24 UNL     1      -8.607  15.418  22.141  1.00  0.00     0.291 C 
HETATM   32  N7  UNL     1      -8.140  16.116  20.985  1.00  0.00     0.087 N 
HETATM   33  C25 UNL     1      -7.601  15.297  19.942  1.00  0.00     0.310 C 
HETATM   34  C26 UNL     1      -7.267  17.229  21.343  1.00  0.00     0.291 C 
HETATM   35  C27 UNL     1      -7.283  17.435  22.846  1.00  0.00     0.155 C 
ENDBRANCH  26  29
ENDBRANCH  23  25
ENDBRANCH  13  14
BRANCH   1  36
HETATM   36  O1  UNL     1     -11.676  14.542  28.163  1.00  0.00    -0.348 OA
BRANCH  36  37
HETATM   37  C8  UNL     1     -12.951  14.776  27.721  1.00  0.00     0.176 C 
BRANCH  37  38
HETATM   38  C7  UNL     1     -13.957  13.710  27.626  1.00  0.00     0.027 C 
BRANCH  38  39
HETATM   39  C6  UNL     1     -13.523  12.323  27.384  1.00  0.00     0.002 C 
BRANCH  39  40
HETATM   40  C5  UNL     1     -13.238  12.003  25.942  1.00  0.00     0.000 C 
BRANCH  40  41
HETATM   41  C4  UNL     1     -11.755  12.056  25.654  1.00  0.00     0.000 C 
BRANCH  41  42
HETATM   42  C3  UNL     1     -11.408  13.269  24.820  1.00  0.00    -0.000 C 
BRANCH  42  43
HETATM   43  C2  UNL     1     -10.126  13.915  25.241  1.00  0.00    -0.005 C 
HETATM   44  C1  UNL     1     -10.303  15.419  25.205  1.00  0.00     0.005 C 
ENDBRANCH  42  43
ENDBRANCH  41  42
ENDBRANCH  40  41
ENDBRANCH  39  40
ENDBRANCH  38  39
ENDBRANCH  37  38
ENDBRANCH  36  37
ENDBRANCH   1  36
TORSDOF 12
ENDMDL
MODEL 5
REMARK VINA RESULT: -8.936778527      2.933      8.820
REMARK  12 active torsions:
REMARK  status: ('A' for Active; 'I' for Inactive)
REMARK    1  A    between atoms: C2_2  and  C3_3 
REMARK    2  A    between atoms: C3_3  and  C4_4 
REMARK    3  A    between atoms: C4_4  and  C5_5 
REMARK    4  A    between atoms: C5_5  and  C6_6 
REMARK    5  A    between atoms: C6_6  and  C7_7 
REMARK    6  A    between atoms: C7_7  and  C8_8 
REMARK    7  A    between atoms: C8_8  and  O1_9 
REMARK    8  A    between atoms: O1_9  and  C9_10 
REMARK    9  A    between atoms: C16_22  and  C17_23 
REMARK   10  A    between atoms: N5_31  and  C21_32 
REMARK   11  A    between atoms: C22_33  and  O4_34 
REMARK   12  A    between atoms: C22_33  and  N6_36 
ROOT
HETATM    1  C9  UNL     1      -6.040  16.288  23.072  1.00  0.00     0.108 A 
HETATM    2  C10 UNL     1      -6.185  16.652  21.758  1.00  0.00     0.095 A 
HETATM    3  N1  UNL     1      -5.454  17.333  20.856  1.00  0.00    -0.297 N 
ATOM      4  H1  UNL     1      -4.552  17.718  21.140  1.00  0.00     0.187 HD
HETATM    5  N2  UNL     1      -5.866  17.521  19.609  1.00  0.00    -0.309 N 
ATOM      6  H2  UNL     1      -5.261  18.048  18.981  1.00  0.00     0.186 HD
HETATM    7  C11 UNL     1      -7.029  17.061  19.121  1.00  0.00     0.134 A 
HETATM    8  C12 UNL     1      -7.878  16.339  19.949  1.00  0.00     0.076 A 
HETATM    9  N3  UNL     1      -9.117  15.833  19.482  1.00  0.00    -0.100 NA
HETATM   10  C13 UNL     1      -7.475  16.131  21.243  1.00  0.00     0.027 A 
HETATM   11  C14 UNL     1      -8.034  15.469  22.310  1.00  0.00    -0.034 A 
HETATM   12  C15 UNL     1      -9.339  14.759  22.279  1.00  0.00     0.050 C 
HETATM   13  C16 UNL     1      -7.177  15.561  23.404  1.00  0.00     0.008 A 
ENDROOT
BRANCH  13  14
HETATM   14  C17 UNL     1      -7.426  14.950  24.691  1.00  0.00     0.037 C 
HETATM   15  C18 UNL     1      -8.160  15.529  25.628  1.00  0.00     0.101 A 
HETATM   16  C19 UNL     1      -8.792  16.830  25.483  1.00  0.00     0.265 A 
HETATM   17  C28 UNL     1      -8.406  14.846  26.900  1.00  0.00     0.271 A 
HETATM   18  O2  UNL     1      -8.644  17.500  24.440  1.00  0.00    -0.267 OA
HETATM   19  N4  UNL     1      -9.599  17.360  26.559  1.00  0.00    -0.274 N 
HETATM   20  C20 UNL     1      -9.800  16.649  27.766  1.00  0.00     0.336 A 
ATOM     21  H4  UNL     1     -10.038  18.274  26.445  1.00  0.00     0.173 HD
HETATM   22  O3  UNL     1     -10.500  17.105  28.704  1.00  0.00    -0.246 OA
HETATM   23  N5  UNL     1      -9.190  15.343  27.966  1.00  0.00    -0.236 N 
HETATM   24  O5  UNL     1      -7.866  13.712  27.047  1.00  0.00    -0.266 OA
BRANCH  23  25
HETATM   25  C21 UNL     1      -9.446  14.611  29.163  1.00  0.00     0.160 C 
HETATM   26  C22 UNL     1     -10.546  13.744  29.342  1.00  0.00     0.154 C 
BRANCH  26  27
HETATM   27  O4  UNL     1     -10.551  13.168  30.558  1.00  0.00    -0.345 OA
ATOM     28  H4  UNL     1     -11.396  13.236  30.986  1.00  0.00     0.219 HD
ENDBRANCH  26  27
BRANCH  26  29
HETATM   29  N6  UNL     1     -11.608  13.368  28.529  1.00  0.00    -0.358 N 
HETATM   30  C23 UNL     1     -11.885  12.047  28.070  1.00  0.00     0.155 C 
HETATM   31  C24 UNL     1     -13.163  12.124  27.204  1.00  0.00     0.291 C 
HETATM   32  N7  UNL     1     -13.014  13.035  26.114  1.00  0.00     0.087 N 
HETATM   33  C25 UNL     1     -12.269  12.546  24.993  1.00  0.00     0.310 C 
HETATM   34  C26 UNL     1     -12.565  14.348  26.566  1.00  0.00     0.291 C 
HETATM   35  C27 UNL     1     -12.588  14.407  28.082  1.00  0.00     0.155 C 
ENDBRANCH  26  29
ENDBRANCH  23  25
ENDBRANCH  13  14
BRANCH   1  36
HETATM   36  O1  UNL     1      -5.032  16.549  23.923  1.00  0.00    -0.348 OA
BRANCH  36  37
HETATM   37  C8  UNL     1      -3.808  17.150  23.785  1.00  0.00     0.176 C 
BRANCH  37  38
HETATM   38  C7  UNL     1      -3.646  18.609  23.779  1.00  0.00     0.027 C 
BRANCH  38  39
HETATM   39  C6  UNL     1      -4.668  19.455  24.419  1.00  0.00     0.002 C 
BRANCH  39  40
HETATM   40  C5  UNL     1      -4.758  19.300  25.913  1.00  0.00     0.000 C 
BRANCH  40  41
HETATM   41  C4  UNL     1      -6.127  18.812  26.330  1.00  0.00     0.000 C 
BRANCH  41  42
HETATM   42  C3  UNL     1      -6.026  17.818  27.465  1.00  0.00    -0.000 C 
BRANCH  42  43
HETATM   43  C2  UNL     1      -4.621  17.372  27.722  1.00  0.00    -0.005 C 
HETATM   44  C1  UNL     1      -4.479  15.930  27.281  1.00  0.00     0.005 C 
ENDBRANCH  42  43
ENDBRANCH  41  42
ENDBRANCH  40  41
ENDBRANCH  39  40
ENDBRANCH  38  39
ENDBRANCH  37  38
ENDBRANCH  36  37
ENDBRANCH   1  36
TORSDOF 12
ENDMDL
