MODEL 1
REMARK VINA RESULT: -9.993903865      0.000      0.000
REMARK  11 active torsions:
REMARK  status: ('A' for Active; 'I' for Inactive)
REMARK    1  A    between atoms: C2_2  and  C3_3 
REMARK    2  A    between atoms: C3_3  and  C4_4 
REMARK    3  A    between atoms: C4_4  and  N1_5 
REMARK    4  A    between atoms: N1_5  and  C5_7 
REMARK    5  A    between atoms: C5_7  and  C6_8 
REMARK    6  A    between atoms: C7_9  and  N2_10 
REMARK       I    between atoms: N3_13  and  C10_14 
REMARK    7  A    between atoms: C10_14  and  C11_16 
REMARK    8  A    between atoms: C11_16  and  C12_17 
REMARK    9  A    between atoms: C11_16  and  N4_24 
REMARK   10  A    between atoms: C12_17  and  C13_18 
REMARK       I    between atoms: N4_24  and  C19_25 
REMARK   11  A    between atoms: C19_25  and  C20_27 
ROOT
HETATM    1  N2  UNL     1      -7.427  16.451  25.016  1.00  0.00    -0.374 N 
HETATM    2  C8  UNL     1      -7.923  17.624  25.662  1.00  0.00     0.143 C 
HETATM    3  C9  UNL     1      -9.157  17.219  26.454  1.00  0.00     0.146 C 
HETATM    4  N3  UNL     1      -9.018  16.043  27.252  1.00  0.00    -0.343 N 
HETATM    5  C10 UNL     1      -9.743  15.966  28.536  1.00  0.00     0.284 C 
HETATM    6  O1  UNL     1     -10.158  16.826  29.101  1.00  0.00    -0.265 OA
HETATM    7  C27 UNL     1      -8.030  15.059  26.972  1.00  0.00     0.146 C 
HETATM    8  C28 UNL     1      -7.132  15.289  25.806  1.00  0.00     0.143 C 
ENDROOT
BRANCH   5   9
HETATM    9  C11 UNL     1      -9.753  14.430  28.960  1.00  0.00     0.175 C 
BRANCH   9  10
HETATM   10  C12 UNL     1      -8.962  14.368  30.174  1.00  0.00     0.033 C 
BRANCH  10  11
HETATM   11  C13 UNL     1      -9.265  14.710  31.529  1.00  0.00    -0.023 C 
HETATM   12  C14 UNL     1      -8.676  13.513  32.357  1.00  0.00     0.019 C 
HETATM   13  C15 UNL     1      -8.730  15.882  32.248  1.00  0.00     0.013 C 
HETATM   14  C16 UNL     1      -9.377  15.713  33.639  1.00  0.00     0.001 C 
HETATM   15  C17 UNL     1     -10.553  14.819  33.472  1.00  0.00     0.001 C 
HETATM   16  C18 UNL     1     -10.730  14.738  31.969  1.00  0.00     0.013 C 
ENDBRANCH  10  11
ENDBRANCH   9  10
BRANCH   9  17
HETATM   17  N4  UNL     1     -10.492  13.608  28.272  1.00  0.00    -0.361 NA
HETATM   18  C19 UNL     1     -11.306  12.696  27.502  1.00  0.00     0.328 C 
HETATM   19  O2  UNL     1     -11.103  12.290  26.415  1.00  0.00    -0.251 OA
BRANCH  18  20
HETATM   20  C20 UNL     1     -12.548  12.285  28.193  1.00  0.00     0.074 A 
HETATM   21  C21 UNL     1     -12.500  11.146  29.000  1.00  0.00     0.044 A 
HETATM   22  C22 UNL     1     -13.488  10.913  29.923  1.00  0.00     0.006 A 
HETATM   23  C23 UNL     1     -13.458   9.724  30.839  1.00  0.00     0.068 C 
HETATM   24  N5  UNL     1     -14.496  11.765  30.043  1.00  0.00    -0.362 N 
HETATM   25  C24 UNL     1     -14.561  12.879  29.263  1.00  0.00     0.031 A 
ATOM     26  H5  UNL     1     -15.231  11.584  30.726  1.00  0.00     0.165 HD
HETATM   27  C25 UNL     1     -15.709  13.796  29.472  1.00  0.00     0.070 C 
HETATM   28  C26 UNL     1     -13.600  13.128  28.351  1.00  0.00     0.085 A 
HETATM   29  N6  UNL     1     -13.663  14.261  27.467  1.00  0.00    -0.099 NA
ENDBRANCH  18  20
ENDBRANCH   9  17
ENDBRANCH   5   9
BRANCH   1  30
HETATM   30  C7  UNL     1      -7.285  16.357  23.603  1.00  0.00     0.101 A 
HETATM   31  C6  UNL     1      -6.417  16.774  22.659  1.00  0.00     0.064 A 
HETATM   32  C30 UNL     1      -7.069  15.994  21.700  1.00  0.00     0.237 A 
HETATM   33  C29 UNL     1      -7.947  15.580  22.680  1.00  0.00     0.250 A 
HETATM   34  O4  UNL     1      -6.939  15.763  20.476  1.00  0.00    -0.283 OA
HETATM   35  O3  UNL     1      -8.932  14.798  22.647  1.00  0.00    -0.282 OA
BRANCH  31  36
HETATM   36  C5  UNL     1      -5.334  17.787  22.452  1.00  0.00     0.105 C 
BRANCH  36  37
HETATM   37  N1  UNL     1      -5.460  18.934  23.251  1.00  0.00    -0.378 N 
ATOM     38  H1  UNL     1      -6.268  19.548  23.147  1.00  0.00     0.164 HD
BRANCH  37  39
HETATM   39  C4  UNL     1      -4.455  19.228  24.200  1.00  0.00     0.060 C 
BRANCH  39  40
HETATM   40  C3  UNL     1      -4.576  18.841  25.604  1.00  0.00     0.044 C 
BRANCH  40  41
HETATM   41  C2  UNL     1      -4.116  17.513  26.051  1.00  0.00     0.001 C 
HETATM   42  C1  UNL     1      -4.155  17.379  27.578  1.00  0.00     0.005 C 
ENDBRANCH  40  41
ENDBRANCH  39  40
ENDBRANCH  37  39
ENDBRANCH  36  37
ENDBRANCH  31  36
ENDBRANCH   1  30
TORSDOF 11
ENDMDL
MODEL 2
REMARK VINA RESULT: -9.761607087      1.613      3.100
REMARK  11 active torsions:
REMARK  status: ('A' for Active; 'I' for Inactive)
REMARK    1  A    between atoms: C2_2  and  C3_3 
REMARK    2  A    between atoms: C3_3  and  C4_4 
REMARK    3  A    between atoms: C4_4  and  N1_5 
REMARK    4  A    between atoms: N1_5  and  C5_7 
REMARK    5  A    between atoms: C5_7  and  C6_8 
REMARK    6  A    between atoms: C7_9  and  N2_10 
REMARK       I    between atoms: N3_13  and  C10_14 
REMARK    7  A    between atoms: C10_14  and  C11_16 
REMARK    8  A    between atoms: C11_16  and  C12_17 
REMARK    9  A    between atoms: C11_16  and  N4_24 
REMARK   10  A    between atoms: C12_17  and  C13_18 
REMARK       I    between atoms: N4_24  and  C19_25 
REMARK   11  A    between atoms: C19_25  and  C20_27 
ROOT
HETATM    1  N2  UNL     1      -6.076  17.127  25.903  1.00  0.00    -0.374 N 
HETATM    2  C8  UNL     1      -6.880  18.208  26.376  1.00  0.00     0.143 C 
HETATM    3  C9  UNL     1      -8.269  17.654  26.655  1.00  0.00     0.146 C 
HETATM    4  N3  UNL     1      -8.307  16.436  27.401  1.00  0.00    -0.343 N 
HETATM    5  C10 UNL     1      -9.428  16.210  28.335  1.00  0.00     0.284 C 
HETATM    6  O1  UNL     1     -10.098  16.991  28.748  1.00  0.00    -0.265 OA
HETATM    7  C27 UNL     1      -7.193  15.553  27.453  1.00  0.00     0.146 C 
HETATM    8  C28 UNL     1      -5.968  15.936  26.697  1.00  0.00     0.143 C 
ENDROOT
BRANCH   5   9
HETATM    9  C11 UNL     1      -9.438  14.650  28.663  1.00  0.00     0.175 C 
BRANCH   9  10
HETATM   10  C12 UNL     1      -8.653  14.514  29.875  1.00  0.00     0.033 C 
BRANCH  10  11
HETATM   11  C13 UNL     1      -9.016  14.565  31.257  1.00  0.00    -0.023 C 
HETATM   12  C14 UNL     1     -10.577  14.408  31.241  1.00  0.00     0.019 C 
HETATM   13  C15 UNL     1      -8.612  13.578  32.277  1.00  0.00     0.013 C 
HETATM   14  C16 UNL     1      -9.304  14.136  33.538  1.00  0.00     0.001 C 
HETATM   15  C17 UNL     1      -9.598  15.570  33.281  1.00  0.00     0.001 C 
HETATM   16  C18 UNL     1      -8.814  15.875  32.021  1.00  0.00     0.013 C 
ENDBRANCH  10  11
ENDBRANCH   9  10
BRANCH   9  17
HETATM   17  N4  UNL     1     -10.171  13.871  27.921  1.00  0.00    -0.361 NA
HETATM   18  C19 UNL     1     -10.980  13.008  27.092  1.00  0.00     0.328 C 
HETATM   19  O2  UNL     1     -10.778  12.683  25.978  1.00  0.00    -0.251 OA
BRANCH  18  20
HETATM   20  C20 UNL     1     -12.213  12.535  27.756  1.00  0.00     0.074 A 
HETATM   21  C21 UNL     1     -12.147  11.347  28.488  1.00  0.00     0.044 A 
HETATM   22  C22 UNL     1     -13.129  11.040  29.396  1.00  0.00     0.006 A 
HETATM   23  C23 UNL     1     -13.078   9.796  30.234  1.00  0.00     0.068 C 
HETATM   24  N5  UNL     1     -14.149  11.868  29.572  1.00  0.00    -0.362 N 
HETATM   25  C24 UNL     1     -14.232  13.029  28.866  1.00  0.00     0.031 A 
ATOM     26  H5  UNL     1     -14.879  11.632  30.244  1.00  0.00     0.165 HD
HETATM   27  C25 UNL     1     -15.393  13.914  29.135  1.00  0.00     0.070 C 
HETATM   28  C26 UNL     1     -13.277  13.350  27.970  1.00  0.00     0.085 A 
HETATM   29  N6  UNL     1     -13.359  14.536  27.161  1.00  0.00    -0.099 NA
ENDBRANCH  18  20
ENDBRANCH   9  17
ENDBRANCH   5   9
BRANCH   1  30
HETATM   30  C7  UNL     1      -5.435  17.148  24.632  1.00  0.00     0.101 A 
HETATM   31  C6  UNL     1      -5.790  17.292  23.340  1.00  0.00     0.064 A 
HETATM   32  C30 UNL     1      -4.445  17.373  22.968  1.00  0.00     0.237 A 
HETATM   33  C29 UNL     1      -4.102  17.222  24.296  1.00  0.00     0.250 A 
HETATM   34  O4  UNL     1      -3.804  17.509  21.901  1.00  0.00    -0.283 OA
HETATM   35  O3  UNL     1      -2.986  17.182  24.875  1.00  0.00    -0.282 OA
BRANCH  31  36
HETATM   36  C5  UNL     1      -6.993  17.197  22.455  1.00  0.00     0.105 C 
BRANCH  36  37
HETATM   37  N1  UNL     1      -8.199  16.999  23.145  1.00  0.00    -0.378 N 
ATOM     38  H1  UNL     1      -8.482  17.644  23.883  1.00  0.00     0.164 HD
BRANCH  37  39
HETATM   39  C4  UNL     1      -9.017  15.898  22.804  1.00  0.00     0.060 C 
BRANCH  39  40
HETATM   40  C3  UNL     1      -8.816  15.131  21.577  1.00  0.00     0.044 C 
BRANCH  40  41
HETATM   41  C2  UNL     1      -9.465  15.554  20.321  1.00  0.00     0.001 C 
HETATM   42  C1  UNL     1      -8.439  15.949  19.252  1.00  0.00     0.005 C 
ENDBRANCH  40  41
ENDBRANCH  39  40
ENDBRANCH  37  39
ENDBRANCH  36  37
ENDBRANCH  31  36
ENDBRANCH   1  30
TORSDOF 11
ENDMDL
MODEL 3
REMARK VINA RESULT: -9.710317108      2.211      9.630
REMARK  11 active torsions:
REMARK  status: ('A' for Active; 'I' for Inactive)
REMARK    1  A    between atoms: C2_2  and  C3_3 
REMARK    2  A    between atoms: C3_3  and  C4_4 
REMARK    3  A    between atoms: C4_4  and  N1_5 
REMARK    4  A    between atoms: N1_5  and  C5_7 
REMARK    5  A    between atoms: C5_7  and  C6_8 
REMARK    6  A    between atoms: C7_9  and  N2_10 
REMARK       I    between atoms: N3_13  and  C10_14 
REMARK    7  A    between atoms: C10_14  and  C11_16 
REMARK    8  A    between atoms: C11_16  and  C12_17 
REMARK    9  A    between atoms: C11_16  and  N4_24 
REMARK   10  A    between atoms: C12_17  and  C13_18 
REMARK       I    between atoms: N4_24  and  C19_25 
REMARK   11  A    between atoms: C19_25  and  C20_27 
ROOT
HETATM    1  N2  UNL     1     -11.745  13.860  27.331  1.00  0.00    -0.374 N 
HETATM    2  C8  UNL     1     -12.289  15.114  26.916  1.00  0.00     0.143 C 
HETATM    3  C9  UNL     1     -11.121  16.042  26.625  1.00  0.00     0.146 C 
HETATM    4  N3  UNL     1     -10.077  15.486  25.823  1.00  0.00    -0.343 N 
HETATM    5  C10 UNL     1      -9.350  16.369  24.890  1.00  0.00     0.284 C 
HETATM    6  O1  UNL     1      -9.702  17.354  24.519  1.00  0.00    -0.265 OA
HETATM    7  C27 UNL     1      -9.879  14.081  25.720  1.00  0.00     0.146 C 
HETATM    8  C28 UNL     1     -10.800  13.192  26.481  1.00  0.00     0.143 C 
ENDROOT
BRANCH   5   9
HETATM    9  C11 UNL     1      -8.011  15.603  24.490  1.00  0.00     0.175 C 
BRANCH   9  10
HETATM   10  C12 UNL     1      -8.316  14.938  23.238  1.00  0.00     0.033 C 
BRANCH  10  11
HETATM   11  C13 UNL     1      -8.298  15.396  21.884  1.00  0.00    -0.023 C 
HETATM   12  C14 UNL     1      -7.460  14.304  21.130  1.00  0.00     0.019 C 
HETATM   13  C15 UNL     1      -9.485  15.534  21.018  1.00  0.00     0.013 C 
HETATM   14  C16 UNL     1      -8.853  16.036  19.703  1.00  0.00     0.001 C 
HETATM   15  C17 UNL     1      -7.522  16.603  20.044  1.00  0.00     0.001 C 
HETATM   16  C18 UNL     1      -7.545  16.687  21.556  1.00  0.00     0.013 C 
ENDBRANCH  10  11
ENDBRANCH   9  10
BRANCH   9  17
HETATM   17  N4  UNL     1      -6.954  15.788  25.227  1.00  0.00    -0.361 NA
HETATM   18  C19 UNL     1      -5.785  15.989  26.051  1.00  0.00     0.328 C 
HETATM   19  O2  UNL     1      -5.582  15.564  27.131  1.00  0.00    -0.251 OA
BRANCH  18  20
HETATM   20  C20 UNL     1      -4.770  16.870  25.433  1.00  0.00     0.074 A 
HETATM   21  C21 UNL     1      -3.730  16.269  24.720  1.00  0.00     0.044 A 
HETATM   22  C22 UNL     1      -2.972  17.011  23.849  1.00  0.00     0.006 A 
HETATM   23  C23 UNL     1      -1.872  16.400  23.031  1.00  0.00     0.068 C 
HETATM   24  N5  UNL     1      -3.221  18.303  23.690  1.00  0.00    -0.362 N 
HETATM   25  C24 UNL     1      -4.229  18.906  24.378  1.00  0.00     0.031 A 
ATOM     26  H5  UNL     1      -2.652  18.851  23.045  1.00  0.00     0.165 HD
HETATM   27  C25 UNL     1      -4.460  20.351  24.131  1.00  0.00     0.070 C 
HETATM   28  C26 UNL     1      -4.986  18.196  25.238  1.00  0.00     0.085 A 
HETATM   29  N6  UNL     1      -6.020  18.807  26.029  1.00  0.00    -0.099 NA
ENDBRANCH  18  20
ENDBRANCH   9  17
ENDBRANCH   5   9
BRANCH   1  30
HETATM   30  C7  UNL     1     -12.041  13.277  28.595  1.00  0.00     0.101 A 
HETATM   31  C6  UNL     1     -11.755  13.511  29.892  1.00  0.00     0.064 A 
HETATM   32  C30 UNL     1     -12.674  12.534  30.282  1.00  0.00     0.237 A 
HETATM   33  C29 UNL     1     -12.951  12.308  28.950  1.00  0.00     0.250 A 
HETATM   34  O4  UNL     1     -13.078  12.047  31.363  1.00  0.00    -0.283 OA
HETATM   35  O3  UNL     1     -13.742  11.511  28.382  1.00  0.00    -0.282 OA
BRANCH  31  36
HETATM   36  C5  UNL     1     -10.770  14.252  30.742  1.00  0.00     0.105 C 
BRANCH  36  37
HETATM   37  N1  UNL     1      -9.500  13.659  30.800  1.00  0.00    -0.378 N 
ATOM     38  H1  UNL     1      -9.225  12.962  30.107  1.00  0.00     0.164 HD
BRANCH  37  39
HETATM   39  C4  UNL     1      -8.607  14.037  31.828  1.00  0.00     0.060 C 
BRANCH  39  40
HETATM   40  C3  UNL     1      -8.585  15.390  32.378  1.00  0.00     0.044 C 
BRANCH  40  41
HETATM   41  C2  UNL     1      -9.136  15.656  33.721  1.00  0.00     0.001 C 
HETATM   42  C1  UNL     1      -9.795  14.409  34.324  1.00  0.00     0.005 C 
ENDBRANCH  40  41
ENDBRANCH  39  40
ENDBRANCH  37  39
ENDBRANCH  36  37
ENDBRANCH  31  36
ENDBRANCH   1  30
TORSDOF 11
ENDMDL
MODEL 4
REMARK VINA RESULT: -9.707836779      2.137      9.988
REMARK  11 active torsions:
REMARK  status: ('A' for Active; 'I' for Inactive)
REMARK    1  A    between atoms: C2_2  and  C3_3 
REMARK    2  A    between atoms: C3_3  and  C4_4 
REMARK    3  A    between atoms: C4_4  and  N1_5 
REMARK    4  A    between atoms: N1_5  and  C5_7 
REMARK    5  A    between atoms: C5_7  and  C6_8 
REMARK    6  A    between atoms: C7_9  and  N2_10 
REMARK       I    between atoms: N3_13  and  C10_14 
REMARK    7  A    between atoms: C10_14  and  C11_16 
REMARK    8  A    between atoms: C11_16  and  C12_17 
REMARK    9  A    between atoms: C11_16  and  N4_24 
REMARK   10  A    between atoms: C12_17  and  C13_18 
REMARK       I    between atoms: N4_24  and  C19_25 
REMARK   11  A    between atoms: C19_25  and  C20_27 
ROOT
HETATM    1  N2  UNL     1     -10.707  14.696  28.435  1.00  0.00    -0.374 N 
HETATM    2  C8  UNL     1     -11.466  15.680  27.729  1.00  0.00     0.143 C 
HETATM    3  C9  UNL     1     -10.486  16.510  26.914  1.00  0.00     0.146 C 
HETATM    4  N3  UNL     1      -9.523  15.767  26.166  1.00  0.00    -0.343 N 
HETATM    5  C10 UNL     1      -9.073  16.296  24.863  1.00  0.00     0.284 C 
HETATM    6  O1  UNL     1      -9.602  17.057  24.252  1.00  0.00    -0.265 OA
HETATM    7  C27 UNL     1      -9.168  14.434  26.515  1.00  0.00     0.146 C 
HETATM    8  C28 UNL     1      -9.834  13.825  27.699  1.00  0.00     0.143 C 
ENDROOT
BRANCH   5   9
HETATM    9  C11 UNL     1      -7.730  15.521  24.497  1.00  0.00     0.175 C 
BRANCH   9  10
HETATM   10  C12 UNL     1      -8.039  14.779  23.290  1.00  0.00     0.033 C 
BRANCH  10  11
HETATM   11  C13 UNL     1      -8.039  15.156  21.911  1.00  0.00    -0.023 C 
HETATM   12  C14 UNL     1      -7.355  13.941  21.191  1.00  0.00     0.019 C 
HETATM   13  C15 UNL     1      -9.246  15.369  21.089  1.00  0.00     0.013 C 
HETATM   14  C16 UNL     1      -8.630  15.727  19.721  1.00  0.00     0.001 C 
HETATM   15  C17 UNL     1      -7.233  16.170  19.970  1.00  0.00     0.001 C 
HETATM   16  C18 UNL     1      -7.175  16.341  21.474  1.00  0.00     0.013 C 
ENDBRANCH  10  11
ENDBRANCH   9  10
BRANCH   9  17
HETATM   17  N4  UNL     1      -6.669  15.760  25.212  1.00  0.00    -0.361 NA
HETATM   18  C19 UNL     1      -5.495  16.021  26.012  1.00  0.00     0.328 C 
HETATM   19  O2  UNL     1      -5.268  15.643  27.104  1.00  0.00    -0.251 OA
BRANCH  18  20
HETATM   20  C20 UNL     1      -4.510  16.901  25.347  1.00  0.00     0.074 A 
HETATM   21  C21 UNL     1      -3.531  16.303  24.550  1.00  0.00     0.044 A 
HETATM   22  C22 UNL     1      -2.822  17.054  23.647  1.00  0.00     0.006 A 
HETATM   23  C23 UNL     1      -1.790  16.446  22.741  1.00  0.00     0.068 C 
HETATM   24  N5  UNL     1      -3.060  18.353  23.536  1.00  0.00    -0.362 N 
HETATM   25  C24 UNL     1      -4.008  18.954  24.305  1.00  0.00     0.031 A 
ATOM     26  H5  UNL     1      -2.526  18.908  22.867  1.00  0.00     0.165 HD
HETATM   27  C25 UNL     1      -4.231  20.408  24.108  1.00  0.00     0.070 C 
HETATM   28  C26 UNL     1      -4.716  18.234  25.198  1.00  0.00     0.085 A 
HETATM   29  N6  UNL     1      -5.684  18.842  26.072  1.00  0.00    -0.099 NA
ENDBRANCH  18  20
ENDBRANCH   9  17
ENDBRANCH   5   9
BRANCH   1  30
HETATM   30  C7  UNL     1     -10.720  14.592  29.855  1.00  0.00     0.101 A 
HETATM   31  C6  UNL     1     -11.510  14.056  30.807  1.00  0.00     0.064 A 
HETATM   32  C30 UNL     1     -10.539  14.323  31.776  1.00  0.00     0.237 A 
HETATM   33  C29 UNL     1      -9.747  14.869  30.787  1.00  0.00     0.250 A 
HETATM   34  O4  UNL     1     -10.420  14.159  33.012  1.00  0.00    -0.283 OA
HETATM   35  O3  UNL     1      -8.602  15.388  30.822  1.00  0.00    -0.282 OA
BRANCH  31  36
HETATM   36  C5  UNL     1     -12.910  13.566  31.006  1.00  0.00     0.105 C 
BRANCH  36  37
HETATM   37  N1  UNL     1     -13.878  14.289  30.292  1.00  0.00    -0.378 N 
ATOM     38  H1  UNL     1     -14.024  15.281  30.481  1.00  0.00     0.164 HD
BRANCH  37  39
HETATM   39  C4  UNL     1     -14.649  13.627  29.309  1.00  0.00     0.060 C 
BRANCH  39  40
HETATM   40  C3  UNL     1     -14.204  13.510  27.922  1.00  0.00     0.044 C 
BRANCH  40  41
HETATM   41  C2  UNL     1     -13.400  12.349  27.495  1.00  0.00     0.001 C 
HETATM   42  C1  UNL     1     -13.047  12.417  26.004  1.00  0.00     0.005 C 
ENDBRANCH  40  41
ENDBRANCH  39  40
ENDBRANCH  37  39
ENDBRANCH  36  37
ENDBRANCH  31  36
ENDBRANCH   1  30
TORSDOF 11
ENDMDL
MODEL 5
REMARK VINA RESULT: -9.600264166      2.207      5.231
REMARK  11 active torsions:
REMARK  status: ('A' for Active; 'I' for Inactive)
REMARK    1  A    between atoms: C2_2  and  C3_3 
REMARK    2  A    between atoms: C3_3  and  C4_4 
REMARK    3  A    between atoms: C4_4  and  N1_5 
REMARK    4  A    between atoms: N1_5  and  C5_7 
REMARK    5  A    between atoms: C5_7  and  C6_8 
REMARK    6  A    between atoms: C7_9  and  N2_10 
REMARK       I    between atoms: N3_13  and  C10_14 
REMARK    7  A    between atoms: C10_14  and  C11_16 
REMARK    8  A    between atoms: C11_16  and  C12_17 
REMARK    9  A    between atoms: C11_16  and  N4_24 
REMARK   10  A    between atoms: C12_17  and  C13_18 
REMARK       I    between atoms: N4_24  and  C19_25 
REMARK   11  A    between atoms: C19_25  and  C20_27 
ROOT
HETATM    1  N2  UNL     1      -8.618  15.809  23.003  1.00  0.00    -0.374 N 
HETATM    2  C8  UNL     1      -8.602  14.389  23.155  1.00  0.00     0.143 C 
HETATM    3  C9  UNL     1      -7.643  14.064  24.289  1.00  0.00     0.146 C 
HETATM    4  N3  UNL     1      -7.804  14.846  25.474  1.00  0.00    -0.343 N 
HETATM    5  C10 UNL     1      -7.541  14.215  26.783  1.00  0.00     0.284 C 
HETATM    6  O1  UNL     1      -7.511  13.124  26.985  1.00  0.00    -0.265 OA
HETATM    7  C27 UNL     1      -8.431  16.122  25.451  1.00  0.00     0.146 C 
HETATM    8  C28 UNL     1      -8.923  16.631  24.140  1.00  0.00     0.143 C 
ENDROOT
BRANCH   5   9
HETATM    9  C11 UNL     1      -7.370  15.401  27.833  1.00  0.00     0.175 C 
BRANCH   9  10
HETATM   10  C12 UNL     1      -5.985  15.816  27.712  1.00  0.00     0.033 C 
BRANCH  10  11
HETATM   11  C13 UNL     1      -5.355  16.817  26.910  1.00  0.00    -0.023 C 
HETATM   12  C14 UNL     1      -4.134  17.281  27.782  1.00  0.00     0.019 C 
HETATM   13  C15 UNL     1      -4.729  16.582  25.595  1.00  0.00     0.013 C 
HETATM   14  C16 UNL     1      -4.215  17.992  25.240  1.00  0.00     0.001 C 
HETATM   15  C17 UNL     1      -4.979  18.961  26.069  1.00  0.00     0.001 C 
HETATM   16  C18 UNL     1      -6.102  18.127  26.650  1.00  0.00     0.013 C 
ENDBRANCH  10  11
ENDBRANCH   9  10
BRANCH   9  17
HETATM   17  N4  UNL     1      -8.428  15.820  28.464  1.00  0.00    -0.361 NA
HETATM   18  C19 UNL     1      -9.603  16.292  29.160  1.00  0.00     0.328 C 
HETATM   19  O2  UNL     1     -10.257  17.240  28.912  1.00  0.00    -0.251 OA
BRANCH  18  20
HETATM   20  C20 UNL     1      -9.962  15.472  30.337  1.00  0.00     0.074 A 
HETATM   21  C21 UNL     1      -9.380  15.798  31.564  1.00  0.00     0.044 A 
HETATM   22  C22 UNL     1      -9.918  15.321  32.733  1.00  0.00     0.006 A 
HETATM   23  C23 UNL     1      -9.352  15.679  34.076  1.00  0.00     0.068 C 
HETATM   24  N5  UNL     1     -10.988  14.540  32.697  1.00  0.00    -0.362 N 
HETATM   25  C24 UNL     1     -11.568  14.208  31.511  1.00  0.00     0.031 A 
ATOM     26  H5  UNL     1     -11.381  14.183  33.568  1.00  0.00     0.165 HD
HETATM   27  C25 UNL     1     -12.776  13.347  31.555  1.00  0.00     0.070 C 
HETATM   28  C26 UNL     1     -11.056  14.667  30.352  1.00  0.00     0.085 A 
HETATM   29  N6  UNL     1     -11.602  14.292  29.075  1.00  0.00    -0.099 NA
ENDBRANCH  18  20
ENDBRANCH   9  17
ENDBRANCH   5   9
BRANCH   1  30
HETATM   30  C7  UNL     1      -8.267  16.453  21.783  1.00  0.00     0.101 A 
HETATM   31  C6  UNL     1      -7.268  17.230  21.319  1.00  0.00     0.064 A 
HETATM   32  C30 UNL     1      -7.769  17.117  20.019  1.00  0.00     0.237 A 
HETATM   33  C29 UNL     1      -8.784  16.325  20.515  1.00  0.00     0.250 A 
HETATM   34  O4  UNL     1      -7.458  17.547  18.885  1.00  0.00    -0.283 OA
HETATM   35  O3  UNL     1      -9.754  15.755  19.951  1.00  0.00    -0.282 OA
BRANCH  31  36
HETATM   36  C5  UNL     1      -6.165  18.113  21.815  1.00  0.00     0.105 C 
BRANCH  36  37
HETATM   37  N1  UNL     1      -5.076  18.220  20.936  1.00  0.00    -0.378 N 
ATOM     38  H1  UNL     1      -4.991  19.027  20.317  1.00  0.00     0.164 HD
BRANCH  37  39
HETATM   39  C4  UNL     1      -4.100  17.199  20.918  1.00  0.00     0.060 C 
BRANCH  39  40
HETATM   40  C3  UNL     1      -3.629  16.596  19.672  1.00  0.00     0.044 C 
BRANCH  40  41
HETATM   41  C2  UNL     1      -4.468  15.616  18.958  1.00  0.00     0.001 C 
HETATM   42  C1  UNL     1      -4.515  15.895  17.451  1.00  0.00     0.005 C 
ENDBRANCH  40  41
ENDBRANCH  39  40
ENDBRANCH  37  39
ENDBRANCH  36  37
ENDBRANCH  31  36
ENDBRANCH   1  30
TORSDOF 11
ENDMDL
