MODEL 1
REMARK VINA RESULT: -9.284089154      0.000      0.000
REMARK  13 active torsions:
REMARK  status: ('A' for Active; 'I' for Inactive)
REMARK    1  A    between atoms: C2_2  and  C3_3 
REMARK    2  A    between atoms: C3_3  and  C4_4 
REMARK    3  A    between atoms: C4_4  and  C5_5 
REMARK    4  A    between atoms: C5_5  and  C6_6 
REMARK    5  A    between atoms: C5_5  and  C23_35 
REMARK       I    between atoms: C6_6  and  N1_8 
REMARK    6  A    between atoms: N1_8  and  C7_10 
REMARK    7  A    between atoms: C8_15  and  C9_16 
REMARK    8  A    between atoms: C9_16  and  C10_17 
REMARK    9  A    between atoms: C10_17  and  C11_18 
REMARK   10  A    between atoms: C11_18  and  C12_19 
REMARK       I    between atoms: C12_19  and  N4_21 
REMARK       I    between atoms: C23_35  and  N6_37 
REMARK   11  A    between atoms: N6_37  and  C24_39 
REMARK   12  A    between atoms: C24_39  and  C25_40 
REMARK   13  A    between atoms: C25_40  and  O5_42 
ROOT
HETATM    1  C7  UNL     1      -5.297  17.184  22.795  1.00  0.00     0.167 A 
HETATM    2  N2  UNL     1      -4.626  18.261  23.217  1.00  0.00    -0.279 N 
ATOM      3  H2  UNL     1      -4.185  18.894  22.550  1.00  0.00     0.189 HD
HETATM    4  N3  UNL     1      -4.551  18.476  24.464  1.00  0.00    -0.296 N 
ATOM      5  H3  UNL     1      -4.043  19.292  24.807  1.00  0.00     0.187 HD
HETATM    6  C8  UNL     1      -5.127  17.650  25.323  1.00  0.00     0.069 A 
HETATM    7  S1  UNL     1      -5.815  16.497  24.273  1.00  0.00    -0.038 SA
ENDROOT
BRANCH   1   8
HETATM    8  N1  UNL     1      -5.488  16.787  21.559  1.00  0.00    -0.305 N 
HETATM    9  C6  UNL     1      -6.266  17.584  20.678  1.00  0.00     0.236 C 
HETATM   10  O1  UNL     1      -6.651  18.716  21.104  1.00  0.00    -0.272 OA
ATOM     11  H1  UNL     1      -5.080  15.911  21.233  1.00  0.00     0.171 HD
BRANCH   9  12
HETATM   12  C5  UNL     1      -6.613  17.129  19.333  1.00  0.00     0.170 C 
BRANCH  12  13
HETATM   13  C4  UNL     1      -7.445  15.914  19.232  1.00  0.00     0.024 C 
BRANCH  13  14
HETATM   14  C3  UNL     1      -8.867  15.941  19.627  1.00  0.00     0.001 C 
BRANCH  14  15
HETATM   15  C2  UNL     1      -9.250  15.424  20.963  1.00  0.00    -0.005 C 
HETATM   16  C1  UNL     1      -8.150  14.436  21.387  1.00  0.00     0.005 C 
ENDBRANCH  14  15
ENDBRANCH  13  14
ENDBRANCH  12  13
BRANCH  12  17
HETATM   17  C23 UNL     1      -5.333  16.969  18.555  1.00  0.00     0.231 C 
HETATM   18  O3  UNL     1      -4.464  16.194  18.993  1.00  0.00    -0.273 OA
HETATM   19  N6  UNL     1      -5.115  17.680  17.350  1.00  0.00    -0.351 N 
ATOM     20  H6  UNL     1      -5.833  18.313  16.998  1.00  0.00     0.163 HD
BRANCH  19  21
HETATM   21  C24 UNL     1      -3.884  17.514  16.620  1.00  0.00     0.233 C 
BRANCH  21  22
HETATM   22  C25 UNL     1      -4.108  16.675  15.425  1.00  0.00     0.276 C 
HETATM   23  O4  UNL     1      -4.641  17.170  14.410  1.00  0.00    -0.263 OA
BRANCH  22  24
HETATM   24  O5  UNL     1      -3.716  15.328  15.455  1.00  0.00    -0.325 OA
HETATM   25  C26 UNL     1      -2.559  15.047  16.244  1.00  0.00     0.213 C 
ENDBRANCH  22  24
ENDBRANCH  21  22
ENDBRANCH  19  21
ENDBRANCH  12  17
ENDBRANCH   9  12
ENDBRANCH   1   8
BRANCH   6  26
HETATM   26  C9  UNL     1      -5.137  17.757  26.829  1.00  0.00     0.067 C 
BRANCH  26  27
HETATM   27  C10 UNL     1      -5.633  16.473  27.441  1.00  0.00     0.016 C 
BRANCH  27  28
HETATM   28  C11 UNL     1      -6.907  16.736  28.200  1.00  0.00     0.103 C 
BRANCH  28  29
HETATM   29  C12 UNL     1      -7.896  15.679  27.825  1.00  0.00     0.224 C 
HETATM   30  O2  UNL     1      -7.739  14.527  28.280  1.00  0.00    -0.273 OA
HETATM   31  N4  UNL     1      -8.990  15.985  26.968  1.00  0.00    -0.314 N 
HETATM   32  C13 UNL     1      -9.127  17.287  26.305  1.00  0.00     0.152 C 
HETATM   33  C22 UNL     1      -9.997  15.022  26.685  1.00  0.00     0.064 A 
HETATM   34  C14 UNL     1      -9.386  17.115  24.831  1.00  0.00     0.140 C 
HETATM   35  N5  UNL     1     -10.067  15.903  24.482  1.00  0.00    -0.387 N 
HETATM   36  C15 UNL     1     -10.568  14.961  25.408  1.00  0.00     0.055 A 
ATOM     37  H5  UNL     1     -10.200  15.707  23.490  1.00  0.00     0.159 HD
HETATM   38  C16 UNL     1     -11.542  14.037  25.112  1.00  0.00     0.038 A 
HETATM   39  C17 UNL     1     -11.963  13.161  26.086  1.00  0.00    -0.054 A 
HETATM   40  C18 UNL     1     -13.026  12.133  25.809  1.00  0.00     0.049 C 
HETATM   41  C19 UNL     1     -11.394  13.236  27.334  1.00  0.00    -0.054 A 
HETATM   42  C20 UNL     1     -11.837  12.297  28.400  1.00  0.00     0.049 C 
HETATM   43  C21 UNL     1     -10.404  14.156  27.676  1.00  0.00     0.039 A 
ENDBRANCH  28  29
ENDBRANCH  27  28
ENDBRANCH  26  27
ENDBRANCH   6  26
TORSDOF 13
ENDMDL
MODEL 2
REMARK VINA RESULT: -9.184766780      1.401      1.738
REMARK  13 active torsions:
REMARK  status: ('A' for Active; 'I' for Inactive)
REMARK    1  A    between atoms: C2_2  and  C3_3 
REMARK    2  A    between atoms: C3_3  and  C4_4 
REMARK    3  A    between atoms: C4_4  and  C5_5 
REMARK    4  A    between atoms: C5_5  and  C6_6 
REMARK    5  A    between atoms: C5_5  and  C23_35 
REMARK       I    between atoms: C6_6  and  N1_8 
REMARK    6  A    between atoms: N1_8  and  C7_10 
REMARK    7  A    between atoms: C8_15  and  C9_16 
REMARK    8  A    between atoms: C9_16  and  C10_17 
REMARK    9  A    between atoms: C10_17  and  C11_18 
REMARK   10  A    between atoms: C11_18  and  C12_19 
REMARK       I    between atoms: C12_19  and  N4_21 
REMARK       I    between atoms: C23_35  and  N6_37 
REMARK   11  A    between atoms: N6_37  and  C24_39 
REMARK   12  A    between atoms: C24_39  and  C25_40 
REMARK   13  A    between atoms: C25_40  and  O5_42 
ROOT
HETATM    1  C7  UNL     1      -5.035  17.624  22.756  1.00  0.00     0.167 A 
HETATM    2  N2  UNL     1      -5.230  18.873  23.190  1.00  0.00    -0.279 N 
ATOM      3  H2  UNL     1      -5.399  19.633  22.531  1.00  0.00     0.189 HD
HETATM    4  N3  UNL     1      -5.201  19.091  24.439  1.00  0.00    -0.296 N 
ATOM      5  H3  UNL     1      -5.347  20.037  24.791  1.00  0.00     0.187 HD
HETATM    6  C8  UNL     1      -4.982  18.099  25.288  1.00  0.00     0.069 A 
HETATM    7  S1  UNL     1      -4.808  16.778  24.224  1.00  0.00    -0.038 SA
ENDROOT
BRANCH   1   8
HETATM    8  N1  UNL     1      -5.026  17.194  21.516  1.00  0.00    -0.305 N 
HETATM    9  C6  UNL     1      -6.090  17.544  20.644  1.00  0.00     0.236 C 
HETATM   10  O1  UNL     1      -6.956  18.363  21.081  1.00  0.00    -0.272 OA
ATOM     11  H1  UNL     1      -4.259  16.612  21.181  1.00  0.00     0.171 HD
BRANCH   9  12
HETATM   12  C5  UNL     1      -6.192  16.991  19.294  1.00  0.00     0.170 C 
BRANCH  12  13
HETATM   13  C4  UNL     1      -6.956  15.738  19.142  1.00  0.00     0.024 C 
BRANCH  13  14
HETATM   14  C3  UNL     1      -8.418  15.717  19.350  1.00  0.00     0.001 C 
BRANCH  14  15
HETATM   15  C2  UNL     1      -8.954  15.175  20.622  1.00  0.00    -0.005 C 
HETATM   16  C1  UNL     1      -7.826  14.345  21.260  1.00  0.00     0.005 C 
ENDBRANCH  14  15
ENDBRANCH  13  14
ENDBRANCH  12  13
BRANCH  12  17
HETATM   17  C23 UNL     1      -4.796  16.838  18.751  1.00  0.00     0.231 C 
HETATM   18  O3  UNL     1      -4.203  15.759  18.930  1.00  0.00    -0.273 OA
HETATM   19  N6  UNL     1      -4.164  17.893  18.050  1.00  0.00    -0.351 N 
ATOM     20  H6  UNL     1      -4.657  18.774  17.907  1.00  0.00     0.163 HD
BRANCH  19  21
HETATM   21  C24 UNL     1      -2.827  17.729  17.537  1.00  0.00     0.233 C 
BRANCH  21  22
HETATM   22  C25 UNL     1      -1.849  18.349  18.454  1.00  0.00     0.276 C 
HETATM   23  O4  UNL     1      -1.739  19.592  18.496  1.00  0.00    -0.263 OA
BRANCH  22  24
HETATM   24  O5  UNL     1      -1.054  17.523  19.265  1.00  0.00    -0.325 OA
HETATM   25  C26 UNL     1      -1.480  17.414  20.624  1.00  0.00     0.213 C 
ENDBRANCH  22  24
ENDBRANCH  21  22
ENDBRANCH  19  21
ENDBRANCH  12  17
ENDBRANCH   9  12
ENDBRANCH   1   8
BRANCH   6  26
HETATM   26  C9  UNL     1      -4.917  18.181  26.794  1.00  0.00     0.067 C 
BRANCH  26  27
HETATM   27  C10 UNL     1      -5.429  16.905  27.409  1.00  0.00     0.016 C 
BRANCH  27  28
HETATM   28  C11 UNL     1      -6.741  17.170  28.100  1.00  0.00     0.103 C 
BRANCH  28  29
HETATM   29  C12 UNL     1      -7.666  16.039  27.783  1.00  0.00     0.224 C 
HETATM   30  O2  UNL     1      -7.575  14.988  28.450  1.00  0.00    -0.273 OA
HETATM   31  N4  UNL     1      -8.630  16.164  26.742  1.00  0.00    -0.314 N 
HETATM   32  C13 UNL     1      -8.673  17.328  25.849  1.00  0.00     0.152 C 
HETATM   33  C22 UNL     1      -9.587  15.142  26.496  1.00  0.00     0.064 A 
HETATM   34  C14 UNL     1      -8.722  16.896  24.406  1.00  0.00     0.140 C 
HETATM   35  N5  UNL     1      -9.347  15.626  24.185  1.00  0.00    -0.387 N 
HETATM   36  C15 UNL     1      -9.972  14.845  25.182  1.00  0.00     0.055 A 
ATOM     37  H5  UNL     1      -9.339  15.257  23.234  1.00  0.00     0.159 HD
HETATM   38  C16 UNL     1     -10.894  13.860  24.922  1.00  0.00     0.038 A 
HETATM   39  C17 UNL     1     -11.448  13.156  25.966  1.00  0.00    -0.054 A 
HETATM   40  C18 UNL     1     -12.460  12.069  25.730  1.00  0.00     0.049 C 
HETATM   41  C19 UNL     1     -11.060  13.460  27.248  1.00  0.00    -0.054 A 
HETATM   42  C20 UNL     1     -11.647  12.710  28.391  1.00  0.00     0.049 C 
HETATM   43  C21 UNL     1     -10.128  14.451  27.557  1.00  0.00     0.039 A 
ENDBRANCH  28  29
ENDBRANCH  27  28
ENDBRANCH  26  27
ENDBRANCH   6  26
TORSDOF 13
ENDMDL
MODEL 3
REMARK VINA RESULT: -9.184632252      5.589     13.255
REMARK  13 active torsions:
REMARK  status: ('A' for Active; 'I' for Inactive)
REMARK    1  A    between atoms: C2_2  and  C3_3 
REMARK    2  A    between atoms: C3_3  and  C4_4 
REMARK    3  A    between atoms: C4_4  and  C5_5 
REMARK    4  A    between atoms: C5_5  and  C6_6 
REMARK    5  A    between atoms: C5_5  and  C23_35 
REMARK       I    between atoms: C6_6  and  N1_8 
REMARK    6  A    between atoms: N1_8  and  C7_10 
REMARK    7  A    between atoms: C8_15  and  C9_16 
REMARK    8  A    between atoms: C9_16  and  C10_17 
REMARK    9  A    between atoms: C10_17  and  C11_18 
REMARK   10  A    between atoms: C11_18  and  C12_19 
REMARK       I    between atoms: C12_19  and  N4_21 
REMARK       I    between atoms: C23_35  and  N6_37 
REMARK   11  A    between atoms: N6_37  and  C24_39 
REMARK   12  A    between atoms: C24_39  and  C25_40 
REMARK   13  A    between atoms: C25_40  and  O5_42 
ROOT
HETATM    1  C7  UNL     1     -12.426  13.024  30.524  1.00  0.00     0.167 A 
HETATM    2  N2  UNL     1     -13.695  13.128  30.118  1.00  0.00    -0.279 N 
ATOM      3  H2  UNL     1     -14.456  13.183  30.794  1.00  0.00     0.189 HD
HETATM    4  N3  UNL     1     -13.930  13.156  28.872  1.00  0.00    -0.296 N 
ATOM      5  H3  UNL     1     -14.891  13.234  28.540  1.00  0.00     0.187 HD
HETATM    6  C8  UNL     1     -12.936  13.084  28.000  1.00  0.00     0.069 A 
HETATM    7  S1  UNL     1     -11.587  12.970  29.035  1.00  0.00    -0.038 SA
ENDROOT
BRANCH   1   8
HETATM    8  N1  UNL     1     -11.976  12.979  31.756  1.00  0.00    -0.305 N 
HETATM    9  C6  UNL     1     -12.223  14.066  32.635  1.00  0.00     0.236 C 
HETATM   10  O1  UNL     1     -12.977  14.996  32.212  1.00  0.00    -0.272 OA
ATOM     11  H1  UNL     1     -11.452  12.166  32.081  1.00  0.00     0.171 HD
BRANCH   9  12
HETATM   12  C5  UNL     1     -11.640  14.121  33.974  1.00  0.00     0.170 C 
BRANCH  12  13
HETATM   13  C4  UNL     1     -10.174  13.975  34.072  1.00  0.00     0.024 C 
BRANCH  13  14
HETATM   14  C3  UNL     1      -9.289  15.145  33.911  1.00  0.00     0.001 C 
BRANCH  14  15
HETATM   15  C2  UNL     1      -8.603  15.353  32.612  1.00  0.00    -0.005 C 
HETATM   16  C1  UNL     1      -8.523  13.977  31.929  1.00  0.00     0.005 C 
ENDBRANCH  14  15
ENDBRANCH  13  14
ENDBRANCH  12  13
BRANCH  12  17
HETATM   17  C23 UNL     1     -12.339  13.094  34.825  1.00  0.00     0.231 C 
HETATM   18  O3  UNL     1     -12.573  11.974  34.335  1.00  0.00    -0.273 OA
HETATM   19  N6  UNL     1     -12.725  13.386  36.156  1.00  0.00    -0.351 N 
ATOM     20  H6  UNL     1     -12.530  14.305  36.550  1.00  0.00     0.163 HD
BRANCH  19  21
HETATM   21  C24 UNL     1     -13.394  12.390  36.954  1.00  0.00     0.233 C 
BRANCH  21  22
HETATM   22  C25 UNL     1     -12.539  11.989  38.090  1.00  0.00     0.276 C 
HETATM   23  O4  UNL     1     -12.932  12.179  39.260  1.00  0.00    -0.263 OA
BRANCH  22  24
HETATM   24  O5  UNL     1     -11.293  11.397  37.831  1.00  0.00    -0.325 OA
HETATM   25  C26 UNL     1     -11.345  10.122  37.189  1.00  0.00     0.213 C 
ENDBRANCH  22  24
ENDBRANCH  21  22
ENDBRANCH  19  21
ENDBRANCH  12  17
ENDBRANCH   9  12
ENDBRANCH   1   8
BRANCH   6  26
HETATM   26  C9  UNL     1     -13.038  13.106  26.494  1.00  0.00     0.067 C 
BRANCH  26  27
HETATM   27  C10 UNL     1     -11.664  13.062  25.877  1.00  0.00     0.016 C 
BRANCH  27  28
HETATM   28  C11 UNL     1     -11.318  14.418  25.321  1.00  0.00     0.103 C 
BRANCH  28  29
HETATM   29  C12 UNL     1      -9.878  14.686  25.619  1.00  0.00     0.224 C 
HETATM   30  O2  UNL     1      -9.010  14.022  25.015  1.00  0.00    -0.273 OA
HETATM   31  N4  UNL     1      -9.509  15.679  26.571  1.00  0.00    -0.314 N 
HETATM   32  C13 UNL     1     -10.499  16.378  27.398  1.00  0.00     0.152 C 
HETATM   33  C22 UNL     1      -8.147  16.021  26.790  1.00  0.00     0.064 A 
HETATM   34  C14 UNL     1     -10.106  16.344  28.852  1.00  0.00     0.140 C 
HETATM   35  N5  UNL     1      -8.694  16.273  29.086  1.00  0.00    -0.387 N 
HETATM   36  C15 UNL     1      -7.702  16.331  28.081  1.00  0.00     0.055 A 
ATOM     37  H5  UNL     1      -8.381  16.174  30.052  1.00  0.00     0.159 HD
HETATM   38  C16 UNL     1      -6.389  16.663  28.316  1.00  0.00     0.038 A 
HETATM   39  C17 UNL     1      -5.499  16.692  27.268  1.00  0.00    -0.054 A 
HETATM   40  C18 UNL     1      -4.053  17.049  27.476  1.00  0.00     0.049 C 
HETATM   41  C19 UNL     1      -5.952  16.387  26.007  1.00  0.00    -0.054 A 
HETATM   42  C20 UNL     1      -5.005  16.412  24.860  1.00  0.00     0.049 C 
HETATM   43  C21 UNL     1      -7.274  16.044  25.725  1.00  0.00     0.039 A 
ENDBRANCH  28  29
ENDBRANCH  27  28
ENDBRANCH  26  27
ENDBRANCH   6  26
TORSDOF 13
ENDMDL
MODEL 4
REMARK VINA RESULT: -9.157313399      1.529      2.235
REMARK  13 active torsions:
REMARK  status: ('A' for Active; 'I' for Inactive)
REMARK    1  A    between atoms: C2_2  and  C3_3 
REMARK    2  A    between atoms: C3_3  and  C4_4 
REMARK    3  A    between atoms: C4_4  and  C5_5 
REMARK    4  A    between atoms: C5_5  and  C6_6 
REMARK    5  A    between atoms: C5_5  and  C23_35 
REMARK       I    between atoms: C6_6  and  N1_8 
REMARK    6  A    between atoms: N1_8  and  C7_10 
REMARK    7  A    between atoms: C8_15  and  C9_16 
REMARK    8  A    between atoms: C9_16  and  C10_17 
REMARK    9  A    between atoms: C10_17  and  C11_18 
REMARK   10  A    between atoms: C11_18  and  C12_19 
REMARK       I    between atoms: C12_19  and  N4_21 
REMARK       I    between atoms: C23_35  and  N6_37 
REMARK   11  A    between atoms: N6_37  and  C24_39 
REMARK   12  A    between atoms: C24_39  and  C25_40 
REMARK   13  A    between atoms: C25_40  and  O5_42 
ROOT
HETATM    1  C7  UNL     1      -6.009  16.922  23.005  1.00  0.00     0.167 A 
HETATM    2  N2  UNL     1      -7.035  17.411  23.708  1.00  0.00    -0.279 N 
ATOM      3  H2  UNL     1      -7.947  17.547  23.274  1.00  0.00     0.189 HD
HETATM    4  N3  UNL     1      -6.848  17.702  24.928  1.00  0.00    -0.296 N 
ATOM      5  H3  UNL     1      -7.617  18.077  25.483  1.00  0.00     0.187 HD
HETATM    6  C8  UNL     1      -5.660  17.522  25.486  1.00  0.00     0.069 A 
HETATM    7  S1  UNL     1      -4.764  16.898  24.177  1.00  0.00    -0.038 SA
ENDROOT
BRANCH   1   8
HETATM    8  N1  UNL     1      -5.996  16.563  21.743  1.00  0.00    -0.305 N 
HETATM    9  C6  UNL     1      -6.402  17.488  20.745  1.00  0.00     0.236 C 
HETATM   10  O1  UNL     1      -6.653  18.675  21.119  1.00  0.00    -0.272 OA
ATOM     11  H1  UNL     1      -5.696  15.625  21.480  1.00  0.00     0.171 HD
BRANCH   9  12
HETATM   12  C5  UNL     1      -6.524  17.101  19.341  1.00  0.00     0.170 C 
BRANCH  12  13
HETATM   13  C4  UNL     1      -7.326  15.896  19.047  1.00  0.00     0.024 C 
BRANCH  13  14
HETATM   14  C3  UNL     1      -8.796  15.923  19.170  1.00  0.00     0.001 C 
BRANCH  14  15
HETATM   15  C2  UNL     1      -9.411  15.652  20.492  1.00  0.00    -0.005 C 
HETATM   16  C1  UNL     1      -8.576  14.540  21.149  1.00  0.00     0.005 C 
ENDBRANCH  14  15
ENDBRANCH  13  14
ENDBRANCH  12  13
BRANCH  12  17
HETATM   17  C23 UNL     1      -5.135  16.972  18.774  1.00  0.00     0.231 C 
HETATM   18  O3  UNL     1      -4.165  17.062  19.549  1.00  0.00    -0.273 OA
HETATM   19  N6  UNL     1      -4.926  16.751  17.391  1.00  0.00    -0.351 N 
ATOM     20  H6  UNL     1      -5.726  16.678  16.763  1.00  0.00     0.163 HD
BRANCH  19  21
HETATM   21  C24 UNL     1      -3.589  16.630  16.867  1.00  0.00     0.233 C 
BRANCH  21  22
HETATM   22  C25 UNL     1      -3.291  15.219  16.550  1.00  0.00     0.276 C 
HETATM   23  O4  UNL     1      -3.423  14.804  15.379  1.00  0.00    -0.263 OA
BRANCH  22  24
HETATM   24  O5  UNL     1      -2.862  14.364  17.578  1.00  0.00    -0.325 OA
HETATM   25  C26 UNL     1      -1.691  14.790  18.275  1.00  0.00     0.213 C 
ENDBRANCH  22  24
ENDBRANCH  21  22
ENDBRANCH  19  21
ENDBRANCH  12  17
ENDBRANCH   9  12
ENDBRANCH   1   8
BRANCH   6  26
HETATM   26  C9  UNL     1      -5.268  17.811  26.915  1.00  0.00     0.067 C 
BRANCH  26  27
HETATM   27  C10 UNL     1      -6.336  17.324  27.858  1.00  0.00     0.016 C 
BRANCH  27  28
HETATM   28  C11 UNL     1      -6.368  15.818  27.849  1.00  0.00     0.103 C 
BRANCH  28  29
HETATM   29  C12 UNL     1      -7.757  15.387  27.502  1.00  0.00     0.224 C 
HETATM   30  O2  UNL     1      -8.129  15.471  26.313  1.00  0.00    -0.273 OA
HETATM   31  N4  UNL     1      -8.633  14.891  28.509  1.00  0.00    -0.314 N 
HETATM   32  C13 UNL     1      -8.279  14.908  29.933  1.00  0.00     0.152 C 
HETATM   33  C22 UNL     1      -9.918  14.379  28.183  1.00  0.00     0.064 A 
HETATM   34  C14 UNL     1      -9.386  15.516  30.755  1.00  0.00     0.140 C 
HETATM   35  N5  UNL     1     -10.698  15.352  30.202  1.00  0.00    -0.387 N 
HETATM   36  C15 UNL     1     -11.000  14.605  29.042  1.00  0.00     0.055 A 
ATOM     37  H5  UNL     1     -11.472  15.809  30.683  1.00  0.00     0.159 HD
HETATM   38  C16 UNL     1     -12.252  14.120  28.745  1.00  0.00     0.038 A 
HETATM   39  C17 UNL     1     -12.443  13.401  27.588  1.00  0.00    -0.054 A 
HETATM   40  C18 UNL     1     -13.794  12.851  27.221  1.00  0.00     0.049 C 
HETATM   41  C19 UNL     1     -11.371  13.187  26.757  1.00  0.00    -0.054 A 
HETATM   42  C20 UNL     1     -11.558  12.412  25.501  1.00  0.00     0.049 C 
HETATM   43  C21 UNL     1     -10.086  13.661  27.019  1.00  0.00     0.039 A 
ENDBRANCH  28  29
ENDBRANCH  27  28
ENDBRANCH  26  27
ENDBRANCH   6  26
TORSDOF 13
ENDMDL
MODEL 5
REMARK VINA RESULT: -9.053115504      1.910      2.769
REMARK  13 active torsions:
REMARK  status: ('A' for Active; 'I' for Inactive)
REMARK    1  A    between atoms: C2_2  and  C3_3 
REMARK    2  A    between atoms: C3_3  and  C4_4 
REMARK    3  A    between atoms: C4_4  and  C5_5 
REMARK    4  A    between atoms: C5_5  and  C6_6 
REMARK    5  A    between atoms: C5_5  and  C23_35 
REMARK       I    between atoms: C6_6  and  N1_8 
REMARK    6  A    between atoms: N1_8  and  C7_10 
REMARK    7  A    between atoms: C8_15  and  C9_16 
REMARK    8  A    between atoms: C9_16  and  C10_17 
REMARK    9  A    between atoms: C10_17  and  C11_18 
REMARK   10  A    between atoms: C11_18  and  C12_19 
REMARK       I    between atoms: C12_19  and  N4_21 
REMARK       I    between atoms: C23_35  and  N6_37 
REMARK   11  A    between atoms: N6_37  and  C24_39 
REMARK   12  A    between atoms: C24_39  and  C25_40 
REMARK   13  A    between atoms: C25_40  and  O5_42 
ROOT
HETATM    1  C7  UNL     1      -5.851  16.948  23.058  1.00  0.00     0.167 A 
HETATM    2  N2  UNL     1      -6.931  17.429  23.682  1.00  0.00    -0.279 N 
ATOM      3  H2  UNL     1      -7.814  17.541  23.185  1.00  0.00     0.189 HD
HETATM    4  N3  UNL     1      -6.831  17.743  24.906  1.00  0.00    -0.296 N 
ATOM      5  H3  UNL     1      -7.642  18.113  25.402  1.00  0.00     0.187 HD
HETATM    6  C8  UNL     1      -5.681  17.593  25.546  1.00  0.00     0.069 A 
HETATM    7  S1  UNL     1      -4.688  16.965  24.311  1.00  0.00    -0.038 SA
ENDROOT
BRANCH   1   8
HETATM    8  N1  UNL     1      -5.747  16.568  21.806  1.00  0.00    -0.305 N 
HETATM    9  C6  UNL     1      -6.305  17.375  20.779  1.00  0.00     0.236 C 
HETATM   10  O1  UNL     1      -6.786  18.499  21.119  1.00  0.00    -0.272 OA
ATOM     11  H1  UNL     1      -5.268  15.699  21.572  1.00  0.00     0.171 HD
BRANCH   9  12
HETATM   12  C5  UNL     1      -6.325  16.938  19.384  1.00  0.00     0.170 C 
BRANCH  12  13
HETATM   13  C4  UNL     1      -7.218  15.811  19.049  1.00  0.00     0.024 C 
BRANCH  13  14
HETATM   14  C3  UNL     1      -8.683  15.950  19.170  1.00  0.00     0.001 C 
BRANCH  14  15
HETATM   15  C2  UNL     1      -9.327  15.652  20.472  1.00  0.00    -0.005 C 
HETATM   16  C1  UNL     1      -8.507  14.525  21.124  1.00  0.00     0.005 C 
ENDBRANCH  14  15
ENDBRANCH  13  14
ENDBRANCH  12  13
BRANCH  12  17
HETATM   17  C23 UNL     1      -4.908  16.640  18.972  1.00  0.00     0.231 C 
HETATM   18  O3  UNL     1      -4.489  15.474  19.078  1.00  0.00    -0.273 OA
HETATM   19  N6  UNL     1      -4.061  17.660  18.471  1.00  0.00    -0.351 N 
ATOM     20  H6  UNL     1      -4.412  18.614  18.387  1.00  0.00     0.163 HD
BRANCH  19  21
HETATM   21  C24 UNL     1      -2.708  17.356  18.083  1.00  0.00     0.233 C 
BRANCH  21  22
HETATM   22  C25 UNL     1      -1.771  17.721  19.165  1.00  0.00     0.276 C 
HETATM   23  O4  UNL     1      -1.290  18.872  19.208  1.00  0.00    -0.263 OA
BRANCH  22  24
HETATM   24  O5  UNL     1      -1.438  16.759  20.132  1.00  0.00    -0.325 OA
HETATM   25  C26 UNL     1      -2.030  16.956  21.417  1.00  0.00     0.213 C 
ENDBRANCH  22  24
ENDBRANCH  21  22
ENDBRANCH  19  21
ENDBRANCH  12  17
ENDBRANCH   9  12
ENDBRANCH   1   8
BRANCH   6  26
HETATM   26  C9  UNL     1      -5.391  17.913  26.993  1.00  0.00     0.067 C 
BRANCH  26  27
HETATM   27  C10 UNL     1      -6.499  17.398  27.873  1.00  0.00     0.016 C 
BRANCH  27  28
HETATM   28  C11 UNL     1      -6.476  15.892  27.882  1.00  0.00     0.103 C 
BRANCH  28  29
HETATM   29  C12 UNL     1      -7.853  15.407  27.556  1.00  0.00     0.224 C 
HETATM   30  O2  UNL     1      -8.239  15.458  26.370  1.00  0.00    -0.273 OA
HETATM   31  N4  UNL     1      -8.701  14.897  28.581  1.00  0.00    -0.314 N 
HETATM   32  C13 UNL     1      -8.334  14.951  30.001  1.00  0.00     0.152 C 
HETATM   33  C22 UNL     1      -9.970  14.335  28.276  1.00  0.00     0.064 A 
HETATM   34  C14 UNL     1      -9.454  15.534  30.823  1.00  0.00     0.140 C 
HETATM   35  N5  UNL     1     -10.764  15.314  30.287  1.00  0.00    -0.387 N 
HETATM   36  C15 UNL     1     -11.052  14.538  29.142  1.00  0.00     0.055 A 
ATOM     37  H5  UNL     1     -11.549  15.752  30.769  1.00  0.00     0.159 HD
HETATM   38  C16 UNL     1     -12.288  14.005  28.866  1.00  0.00     0.038 A 
HETATM   39  C17 UNL     1     -12.466  13.260  27.723  1.00  0.00    -0.054 A 
HETATM   40  C18 UNL     1     -13.800  12.657  27.379  1.00  0.00     0.049 C 
HETATM   41  C19 UNL     1     -11.394  13.070  26.885  1.00  0.00    -0.054 A 
HETATM   42  C20 UNL     1     -11.566  12.268  25.643  1.00  0.00     0.049 C 
HETATM   43  C21 UNL     1     -10.124  13.593  27.126  1.00  0.00     0.039 A 
ENDBRANCH  28  29
ENDBRANCH  27  28
ENDBRANCH  26  27
ENDBRANCH   6  26
TORSDOF 13
ENDMDL
