MODEL 1
REMARK VINA RESULT: -8.888092699      0.000      0.000
REMARK  12 active torsions:
REMARK  status: ('A' for Active; 'I' for Inactive)
REMARK    1  A    between atoms: O1_2  and  C2_3 
REMARK    2  A    between atoms: C2_3  and  C3_4 
REMARK    3  A    between atoms: C3_4  and  C4_5 
REMARK    4  A    between atoms: C4_5  and  C5_6 
REMARK    5  A    between atoms: C5_6  and  N1_7 
REMARK    6  A    between atoms: C8_10  and  N2_11 
REMARK    7  A    between atoms: N2_11  and  C9_12 
REMARK    8  A    between atoms: C10_15  and  N4_16 
REMARK    9  A    between atoms: C20_29  and  N7_30 
REMARK       I    between atoms: N7_30  and  C21_32 
REMARK       I    between atoms: C21_32  and  N8_34 
REMARK   10  A    between atoms: N8_34  and  C22_36 
REMARK   11  A    between atoms: C22_36  and  C23_37 
REMARK   12  A    between atoms: C23_37  and  O3_38 
ROOT
HETATM    1  C9  UNL     1      -9.777  15.501  24.948  1.00  0.00     0.200 A 
HETATM    2  N3  UNL     1      -9.305  15.618  23.661  1.00  0.00    -0.164 N 
ATOM      3  H3  UNL     1      -9.885  15.255  22.905  1.00  0.00     0.187 HD
HETATM    4  C10 UNL     1      -8.144  16.173  23.339  1.00  0.00     0.683 A 
HETATM    5  N6  UNL     1      -7.382  16.649  24.323  1.00  0.00    -0.190 N 
ATOM      6  H6  UNL     1      -6.485  17.074  24.086  1.00  0.00     0.184 HD
HETATM    7  C16 UNL     1      -7.742  16.593  25.595  1.00  0.00     0.070 A 
HETATM    8  C17 UNL     1      -6.887  17.173  26.513  1.00  0.00    -0.032 A 
HETATM    9  C18 UNL     1      -5.605  17.751  26.059  1.00  0.00     0.050 C 
HETATM   10  C19 UNL     1      -7.302  17.163  27.838  1.00  0.00     0.038 A 
HETATM   11  C20 UNL     1      -8.501  16.607  28.206  1.00  0.00     0.037 A 
HETATM   12  C25 UNL     1      -9.329  16.030  27.261  1.00  0.00     0.048 A 
HETATM   13  C26 UNL     1      -8.935  16.027  25.942  1.00  0.00     0.052 A 
ENDROOT
BRANCH   1  14
HETATM   14  N2  UNL     1     -10.791  14.951  25.237  1.00  0.00    -0.424 NA
BRANCH  14  15
HETATM   15  C8  UNL     1     -11.936  14.324  25.549  1.00  0.00     0.168 C 
HETATM   16  C7  UNL     1     -11.992  12.863  25.251  1.00  0.00     0.069 C 
HETATM   17  C6  UNL     1     -12.586  12.011  26.376  1.00  0.00     0.275 C 
HETATM   18  N1  UNL     1     -11.892  12.104  27.584  1.00  0.00     0.088 N 
HETATM   19  C28 UNL     1     -11.335  13.477  27.752  1.00  0.00     0.275 C 
HETATM   20  C27 UNL     1     -12.269  14.439  27.065  1.00  0.00     0.069 C 
BRANCH  18  21
HETATM   21  C5  UNL     1     -12.378  11.648  28.817  1.00  0.00     0.272 C 
BRANCH  21  22
HETATM   22  C4  UNL     1     -13.793  11.339  29.014  1.00  0.00     0.032 C 
BRANCH  22  23
HETATM   23  C3  UNL     1     -14.626  12.076  29.997  1.00  0.00     0.028 C 
BRANCH  23  24
HETATM   24  C2  UNL     1     -15.011  13.483  29.597  1.00  0.00     0.167 C 
BRANCH  24  25
HETATM   25  O1  UNL     1     -15.026  14.324  30.660  1.00  0.00    -0.396 OA
HETATM   26  C1  UNL     1     -13.798  14.368  31.286  1.00  0.00     0.201 C 
ENDBRANCH  24  25
ENDBRANCH  23  24
ENDBRANCH  22  23
ENDBRANCH  21  22
ENDBRANCH  18  21
ENDBRANCH  14  15
ENDBRANCH   1  14
BRANCH   4  27
HETATM   27  N4  UNL     1      -7.712  16.320  21.996  1.00  0.00    -0.214 N 
HETATM   28  C11 UNL     1      -8.610  16.206  20.885  1.00  0.00     0.171 C 
HETATM   29  C12 UNL     1      -7.980  16.482  19.559  1.00  0.00     0.292 C 
HETATM   30  N5  UNL     1      -6.874  17.361  19.525  1.00  0.00     0.087 N 
HETATM   31  C13 UNL     1      -5.755  16.752  18.799  1.00  0.00     0.310 C 
HETATM   32  C14 UNL     1      -6.361  17.813  20.775  1.00  0.00     0.292 C 
HETATM   33  C15 UNL     1      -6.317  16.604  21.720  1.00  0.00     0.171 C 
ENDBRANCH   4  27
BRANCH  11  34
HETATM   34  N7  UNL     1      -8.981  16.731  29.538  1.00  0.00    -0.309 N 
HETATM   35  C21 UNL     1      -8.818  15.621  30.432  1.00  0.00     0.320 C 
HETATM   36  O2  UNL     1      -8.260  14.551  30.041  1.00  0.00    -0.247 OA
HETATM   37  N8  UNL     1      -9.265  15.686  31.756  1.00  0.00    -0.341 N 
ATOM     38  H8  UNL     1      -9.719  16.545  32.070  1.00  0.00     0.164 HD
ATOM     39  H7  UNL     1      -9.430  17.591  29.852  1.00  0.00     0.170 HD
BRANCH  37  40
HETATM   40  C22 UNL     1      -9.120  14.604  32.705  1.00  0.00     0.150 C 
BRANCH  40  41
HETATM   41  C23 UNL     1      -9.440  15.074  34.077  1.00  0.00     0.186 C 
BRANCH  41  42
HETATM   42  O3  UNL     1     -10.752  15.462  34.228  1.00  0.00    -0.394 OA
HETATM   43  C24 UNL     1     -11.593  14.365  34.244  1.00  0.00     0.201 C 
ENDBRANCH  41  42
ENDBRANCH  40  41
ENDBRANCH  37  40
ENDBRANCH  11  34
TORSDOF 12
ENDMDL
MODEL 2
REMARK VINA RESULT: -8.871142602      3.163      7.239
REMARK  12 active torsions:
REMARK  status: ('A' for Active; 'I' for Inactive)
REMARK    1  A    between atoms: O1_2  and  C2_3 
REMARK    2  A    between atoms: C2_3  and  C3_4 
REMARK    3  A    between atoms: C3_4  and  C4_5 
REMARK    4  A    between atoms: C4_5  and  C5_6 
REMARK    5  A    between atoms: C5_6  and  N1_7 
REMARK    6  A    between atoms: C8_10  and  N2_11 
REMARK    7  A    between atoms: N2_11  and  C9_12 
REMARK    8  A    between atoms: C10_15  and  N4_16 
REMARK    9  A    between atoms: C20_29  and  N7_30 
REMARK       I    between atoms: N7_30  and  C21_32 
REMARK       I    between atoms: C21_32  and  N8_34 
REMARK   10  A    between atoms: N8_34  and  C22_36 
REMARK   11  A    between atoms: C22_36  and  C23_37 
REMARK   12  A    between atoms: C23_37  and  O3_38 
ROOT
HETATM    1  C9  UNL     1      -5.034  17.444  21.243  1.00  0.00     0.200 A 
HETATM    2  N3  UNL     1      -4.423  17.346  20.013  1.00  0.00    -0.164 N 
ATOM      3  H3  UNL     1      -3.449  17.642  19.939  1.00  0.00     0.187 HD
HETATM    4  C10 UNL     1      -5.018  16.893  18.919  1.00  0.00     0.683 A 
HETATM    5  N6  UNL     1      -6.289  16.505  19.009  1.00  0.00    -0.190 N 
ATOM      6  H6  UNL     1      -6.756  16.159  18.171  1.00  0.00     0.184 HD
HETATM    7  C16 UNL     1      -6.970  16.551  20.143  1.00  0.00     0.070 A 
HETATM    8  C17 UNL     1      -8.264  16.068  20.116  1.00  0.00    -0.032 A 
HETATM    9  C18 UNL     1      -8.846  15.600  18.840  1.00  0.00     0.050 C 
HETATM   10  C19 UNL     1      -8.949  16.064  21.324  1.00  0.00     0.038 A 
HETATM   11  C20 UNL     1      -8.362  16.517  22.478  1.00  0.00     0.037 A 
HETATM   12  C25 UNL     1      -7.066  17.000  22.467  1.00  0.00     0.048 A 
HETATM   13  C26 UNL     1      -6.370  17.014  21.280  1.00  0.00     0.052 A 
ENDROOT
BRANCH   1  14
HETATM   14  N2  UNL     1      -4.515  17.905  22.208  1.00  0.00    -0.424 NA
BRANCH  14  15
HETATM   15  C8  UNL     1      -3.917  18.418  23.295  1.00  0.00     0.168 C 
HETATM   16  C7  UNL     1      -4.783  19.217  24.211  1.00  0.00     0.069 C 
HETATM   17  C6  UNL     1      -4.593  18.900  25.696  1.00  0.00     0.275 C 
HETATM   18  N1  UNL     1      -4.852  17.569  26.030  1.00  0.00     0.088 N 
HETATM   19  C28 UNL     1      -4.458  16.672  24.905  1.00  0.00     0.275 C 
HETATM   20  C27 UNL     1      -3.293  17.311  24.194  1.00  0.00     0.069 C 
BRANCH  18  21
HETATM   21  C5  UNL     1      -4.495  16.970  27.245  1.00  0.00     0.272 C 
BRANCH  21  22
HETATM   22  C4  UNL     1      -5.500  16.593  28.236  1.00  0.00     0.032 C 
BRANCH  22  23
HETATM   23  C3  UNL     1      -6.682  15.769  27.880  1.00  0.00     0.028 C 
BRANCH  23  24
HETATM   24  C2  UNL     1      -7.824  15.809  28.871  1.00  0.00     0.167 C 
BRANCH  24  25
HETATM   25  O1  UNL     1      -8.870  16.535  28.408  1.00  0.00    -0.396 OA
HETATM   26  C1  UNL     1     -10.028  16.252  29.102  1.00  0.00     0.201 C 
ENDBRANCH  24  25
ENDBRANCH  23  24
ENDBRANCH  22  23
ENDBRANCH  21  22
ENDBRANCH  18  21
ENDBRANCH  14  15
ENDBRANCH   1  14
BRANCH   4  27
HETATM   27  N4  UNL     1      -4.340  16.761  17.679  1.00  0.00    -0.214 N 
HETATM   28  C11 UNL     1      -4.089  15.486  17.075  1.00  0.00     0.171 C 
HETATM   29  C12 UNL     1      -3.444  15.565  15.730  1.00  0.00     0.292 C 
HETATM   30  N5  UNL     1      -3.687  16.715  14.946  1.00  0.00     0.087 N 
HETATM   31  C13 UNL     1      -2.426  17.291  14.471  1.00  0.00     0.310 C 
HETATM   32  C14 UNL     1      -4.423  17.773  15.554  1.00  0.00     0.292 C 
HETATM   33  C15 UNL     1      -3.886  17.949  16.982  1.00  0.00     0.171 C 
ENDBRANCH   4  27
BRANCH  11  34
HETATM   34  N7  UNL     1      -9.019  16.374  23.731  1.00  0.00    -0.309 N 
HETATM   35  C21 UNL     1      -8.897  15.127  24.431  1.00  0.00     0.320 C 
HETATM   36  O2  UNL     1      -8.218  14.174  23.942  1.00  0.00    -0.247 OA
HETATM   37  N8  UNL     1      -9.517  14.929  25.669  1.00  0.00    -0.341 N 
ATOM     38  H8  UNL     1     -10.067  15.694  26.061  1.00  0.00     0.164 HD
ATOM     39  H7  UNL     1      -9.565  17.141  24.123  1.00  0.00     0.170 HD
BRANCH  37  40
HETATM   40  C22 UNL     1      -9.421  13.699  26.425  1.00  0.00     0.150 C 
BRANCH  40  41
HETATM   41  C23 UNL     1     -10.776  13.202  26.777  1.00  0.00     0.186 C 
BRANCH  41  42
HETATM   42  O3  UNL     1     -11.183  12.137  26.006  1.00  0.00    -0.394 OA
HETATM   43  C24 UNL     1     -12.274  12.477  25.230  1.00  0.00     0.201 C 
ENDBRANCH  41  42
ENDBRANCH  40  41
ENDBRANCH  37  40
ENDBRANCH  11  34
TORSDOF 12
ENDMDL
MODEL 3
REMARK VINA RESULT: -8.828628171      3.262     10.031
REMARK  12 active torsions:
REMARK  status: ('A' for Active; 'I' for Inactive)
REMARK    1  A    between atoms: O1_2  and  C2_3 
REMARK    2  A    between atoms: C2_3  and  C3_4 
REMARK    3  A    between atoms: C3_4  and  C4_5 
REMARK    4  A    between atoms: C4_5  and  C5_6 
REMARK    5  A    between atoms: C5_6  and  N1_7 
REMARK    6  A    between atoms: C8_10  and  N2_11 
REMARK    7  A    between atoms: N2_11  and  C9_12 
REMARK    8  A    between atoms: C10_15  and  N4_16 
REMARK    9  A    between atoms: C20_29  and  N7_30 
REMARK       I    between atoms: N7_30  and  C21_32 
REMARK       I    between atoms: C21_32  and  N8_34 
REMARK   10  A    between atoms: N8_34  and  C22_36 
REMARK   11  A    between atoms: C22_36  and  C23_37 
REMARK   12  A    between atoms: C23_37  and  O3_38 
ROOT
HETATM    1  C9  UNL     1     -12.747  13.255  32.372  1.00  0.00     0.200 A 
HETATM    2  N3  UNL     1     -12.941  12.707  33.619  1.00  0.00    -0.164 N 
ATOM      3  H3  UNL     1     -13.720  12.059  33.740  1.00  0.00     0.187 HD
HETATM    4  C10 UNL     1     -12.180  12.965  34.674  1.00  0.00     0.683 A 
HETATM    5  N6  UNL     1     -11.161  13.810  34.522  1.00  0.00    -0.190 N 
ATOM      6  H6  UNL     1     -10.573  14.018  35.329  1.00  0.00     0.184 HD
HETATM    7  C16 UNL     1     -10.881  14.389  33.365  1.00  0.00     0.070 A 
HETATM    8  C17 UNL     1      -9.764  15.201  33.327  1.00  0.00    -0.032 A 
HETATM    9  C18 UNL     1      -8.989  15.443  34.563  1.00  0.00     0.050 C 
HETATM   10  C19 UNL     1      -9.444  15.756  32.095  1.00  0.00     0.038 A 
HETATM   11  C20 UNL     1     -10.202  15.503  30.980  1.00  0.00     0.037 A 
HETATM   12  C25 UNL     1     -11.318  14.689  31.057  1.00  0.00     0.048 A 
HETATM   13  C26 UNL     1     -11.654  14.131  32.269  1.00  0.00     0.052 A 
ENDROOT
BRANCH   1  14
HETATM   14  N2  UNL     1     -13.465  13.066  31.444  1.00  0.00    -0.424 NA
BRANCH  14  15
HETATM   15  C8  UNL     1     -14.271  12.838  30.394  1.00  0.00     0.168 C 
HETATM   16  C7  UNL     1     -14.401  13.949  29.407  1.00  0.00     0.069 C 
HETATM   17  C6  UNL     1     -14.313  13.508  27.944  1.00  0.00     0.275 C 
HETATM   18  N1  UNL     1     -13.114  12.875  27.613  1.00  0.00     0.088 N 
HETATM   19  C28 UNL     1     -12.611  12.089  28.777  1.00  0.00     0.275 C 
HETATM   20  C27 UNL     1     -13.806  11.610  29.559  1.00  0.00     0.069 C 
BRANCH  18  21
HETATM   21  C5  UNL     1     -12.897  12.147  26.436  1.00  0.00     0.272 C 
BRANCH  21  22
HETATM   22  C4  UNL     1     -11.731  12.390  25.590  1.00  0.00     0.032 C 
BRANCH  22  23
HETATM   23  C3  UNL     1     -10.678  13.366  25.967  1.00  0.00     0.028 C 
BRANCH  23  24
HETATM   24  C2  UNL     1     -10.241  14.307  24.867  1.00  0.00     0.167 C 
BRANCH  24  25
HETATM   25  O1  UNL     1     -10.188  15.593  25.293  1.00  0.00    -0.396 OA
HETATM   26  C1  UNL     1      -9.569  16.406  24.368  1.00  0.00     0.201 C 
ENDBRANCH  24  25
ENDBRANCH  23  24
ENDBRANCH  22  23
ENDBRANCH  21  22
ENDBRANCH  18  21
ENDBRANCH  14  15
ENDBRANCH   1  14
BRANCH   4  27
HETATM   27  N4  UNL     1     -12.381  12.343  35.933  1.00  0.00    -0.214 N 
HETATM   28  C11 UNL     1     -13.286  12.867  36.912  1.00  0.00     0.171 C 
HETATM   29  C12 UNL     1     -13.422  12.019  38.135  1.00  0.00     0.292 C 
HETATM   30  N5  UNL     1     -13.208  10.629  38.001  1.00  0.00     0.087 N 
HETATM   31  C13 UNL     1     -12.252  10.156  39.005  1.00  0.00     0.310 C 
HETATM   32  C14 UNL     1     -12.748  10.160  36.737  1.00  0.00     0.292 C 
HETATM   33  C15 UNL     1     -11.658  11.126  36.253  1.00  0.00     0.171 C 
ENDBRANCH   4  27
BRANCH  11  34
HETATM   34  N7  UNL     1      -9.784  15.956  29.700  1.00  0.00    -0.309 N 
HETATM   35  C21 UNL     1      -8.755  15.227  29.016  1.00  0.00     0.320 C 
HETATM   36  O2  UNL     1      -8.229  14.200  29.544  1.00  0.00    -0.247 OA
HETATM   37  N8  UNL     1      -8.305  15.622  27.752  1.00  0.00    -0.341 N 
ATOM     38  H8  UNL     1      -8.724  16.450  27.329  1.00  0.00     0.164 HD
ATOM     39  H7  UNL     1     -10.206  16.782  29.276  1.00  0.00     0.170 HD
BRANCH  37  40
HETATM   40  C22 UNL     1      -7.279  14.920  27.012  1.00  0.00     0.150 C 
BRANCH  40  41
HETATM   41  C23 UNL     1      -6.230  15.869  26.558  1.00  0.00     0.186 C 
BRANCH  41  42
HETATM   42  O3  UNL     1      -5.014  15.672  27.173  1.00  0.00    -0.394 OA
HETATM   43  C24 UNL     1      -4.685  16.748  27.975  1.00  0.00     0.201 C 
ENDBRANCH  41  42
ENDBRANCH  40  41
ENDBRANCH  37  40
ENDBRANCH  11  34
TORSDOF 12
ENDMDL
MODEL 4
REMARK VINA RESULT: -8.678674121      3.254     10.545
REMARK  12 active torsions:
REMARK  status: ('A' for Active; 'I' for Inactive)
REMARK    1  A    between atoms: O1_2  and  C2_3 
REMARK    2  A    between atoms: C2_3  and  C3_4 
REMARK    3  A    between atoms: C3_4  and  C4_5 
REMARK    4  A    between atoms: C4_5  and  C5_6 
REMARK    5  A    between atoms: C5_6  and  N1_7 
REMARK    6  A    between atoms: C8_10  and  N2_11 
REMARK    7  A    between atoms: N2_11  and  C9_12 
REMARK    8  A    between atoms: C10_15  and  N4_16 
REMARK    9  A    between atoms: C20_29  and  N7_30 
REMARK       I    between atoms: N7_30  and  C21_32 
REMARK       I    between atoms: C21_32  and  N8_34 
REMARK   10  A    between atoms: N8_34  and  C22_36 
REMARK   11  A    between atoms: C22_36  and  C23_37 
REMARK   12  A    between atoms: C23_37  and  O3_38 
ROOT
HETATM    1  C9  UNL     1      -8.276  15.943  28.588  1.00  0.00     0.200 A 
HETATM    2  N3  UNL     1      -8.569  15.572  29.881  1.00  0.00    -0.164 N 
ATOM      3  H3  UNL     1      -7.887  15.792  30.607  1.00  0.00     0.187 HD
HETATM    4  C10 UNL     1      -9.681  14.947  30.244  1.00  0.00     0.683 A 
HETATM    5  N6  UNL     1     -10.575  14.658  29.300  1.00  0.00    -0.190 N 
ATOM      6  H6  UNL     1     -11.432  14.173  29.569  1.00  0.00     0.184 HD
HETATM    7  C16 UNL     1     -10.397  14.973  28.027  1.00  0.00     0.070 A 
HETATM    8  C17 UNL     1     -11.424  14.667  27.156  1.00  0.00    -0.032 A 
HETATM    9  C18 UNL     1     -12.619  13.952  27.653  1.00  0.00     0.050 C 
HETATM   10  C19 UNL     1     -11.253  15.056  25.834  1.00  0.00     0.038 A 
HETATM   11  C20 UNL     1     -10.120  15.713  25.425  1.00  0.00     0.037 A 
HETATM   12  C25 UNL     1      -9.109  15.998  26.323  1.00  0.00     0.048 A 
HETATM   13  C26 UNL     1      -9.257  15.619  27.638  1.00  0.00     0.052 A 
ENDROOT
BRANCH   1  14
HETATM   14  N2  UNL     1      -7.253  16.450  28.258  1.00  0.00    -0.424 NA
BRANCH  14  15
HETATM   15  C8  UNL     1      -6.090  17.014  27.894  1.00  0.00     0.168 C 
HETATM   16  C7  UNL     1      -5.040  16.087  27.379  1.00  0.00     0.069 C 
HETATM   17  C6  UNL     1      -4.327  16.579  26.116  1.00  0.00     0.275 C 
HETATM   18  N1  UNL     1      -5.180  16.793  25.031  1.00  0.00     0.088 N 
HETATM   19  C28 UNL     1      -6.508  17.276  25.509  1.00  0.00     0.275 C 
HETATM   20  C27 UNL     1      -6.282  18.071  26.769  1.00  0.00     0.069 C 
BRANCH  18  21
HETATM   21  C5  UNL     1      -4.826  17.490  23.868  1.00  0.00     0.272 C 
BRANCH  21  22
HETATM   22  C4  UNL     1      -3.602  18.286  23.795  1.00  0.00     0.032 C 
BRANCH  22  23
HETATM   23  C3  UNL     1      -2.347  17.742  23.221  1.00  0.00     0.028 C 
BRANCH  23  24
HETATM   24  C2  UNL     1      -2.503  16.977  21.926  1.00  0.00     0.167 C 
BRANCH  24  25
HETATM   25  O1  UNL     1      -2.872  17.785  20.902  1.00  0.00    -0.396 OA
HETATM   26  C1  UNL     1      -3.020  17.077  19.728  1.00  0.00     0.201 C 
ENDBRANCH  24  25
ENDBRANCH  23  24
ENDBRANCH  22  23
ENDBRANCH  21  22
ENDBRANCH  18  21
ENDBRANCH  14  15
ENDBRANCH   1  14
BRANCH   4  27
HETATM   27  N4  UNL     1      -9.971  14.625  31.595  1.00  0.00    -0.214 N 
HETATM   28  C11 UNL     1      -9.174  15.101  32.685  1.00  0.00     0.171 C 
HETATM   29  C12 UNL     1      -9.695  14.725  34.033  1.00  0.00     0.292 C 
HETATM   30  N5  UNL     1     -11.088  14.528  34.171  1.00  0.00     0.087 N 
HETATM   31  C13 UNL     1     -11.365  13.242  34.817  1.00  0.00     0.310 C 
HETATM   32  C14 UNL     1     -11.872  14.574  32.983  1.00  0.00     0.292 C 
HETATM   33  C15 UNL     1     -11.118  13.790  31.900  1.00  0.00     0.171 C 
ENDBRANCH   4  27
BRANCH  11  34
HETATM   34  N7  UNL     1     -10.020  16.233  24.106  1.00  0.00    -0.309 N 
HETATM   35  C21 UNL     1      -9.193  15.545  23.158  1.00  0.00     0.320 C 
HETATM   36  O2  UNL     1      -8.563  14.495  23.490  1.00  0.00    -0.247 OA
HETATM   37  N8  UNL     1      -9.059  16.007  21.845  1.00  0.00    -0.341 N 
ATOM     38  H8  UNL     1      -9.561  16.854  21.578  1.00  0.00     0.164 HD
ATOM     39  H7  UNL     1     -10.526  17.078  23.840  1.00  0.00     0.170 HD
BRANCH  37  40
HETATM   40  C22 UNL     1      -8.248  15.349  20.843  1.00  0.00     0.150 C 
BRANCH  40  41
HETATM   41  C23 UNL     1      -8.590  15.854  19.489  1.00  0.00     0.186 C 
BRANCH  41  42
HETATM   42  O3  UNL     1      -8.161  17.143  19.264  1.00  0.00    -0.394 OA
HETATM   43  C24 UNL     1      -6.782  17.220  19.306  1.00  0.00     0.201 C 
ENDBRANCH  41  42
ENDBRANCH  40  41
ENDBRANCH  37  40
ENDBRANCH  11  34
TORSDOF 12
ENDMDL
MODEL 5
REMARK VINA RESULT: -8.603192934      1.006      1.455
REMARK  12 active torsions:
REMARK  status: ('A' for Active; 'I' for Inactive)
REMARK    1  A    between atoms: O1_2  and  C2_3 
REMARK    2  A    between atoms: C2_3  and  C3_4 
REMARK    3  A    between atoms: C3_4  and  C4_5 
REMARK    4  A    between atoms: C4_5  and  C5_6 
REMARK    5  A    between atoms: C5_6  and  N1_7 
REMARK    6  A    between atoms: C8_10  and  N2_11 
REMARK    7  A    between atoms: N2_11  and  C9_12 
REMARK    8  A    between atoms: C10_15  and  N4_16 
REMARK    9  A    between atoms: C20_29  and  N7_30 
REMARK       I    between atoms: N7_30  and  C21_32 
REMARK       I    between atoms: C21_32  and  N8_34 
REMARK   10  A    between atoms: N8_34  and  C22_36 
REMARK   11  A    between atoms: C22_36  and  C23_37 
REMARK   12  A    between atoms: C23_37  and  O3_38 
ROOT
HETATM    1  C9  UNL     1      -9.753  14.595  24.884  1.00  0.00     0.200 A 
HETATM    2  N3  UNL     1      -9.242  14.747  23.615  1.00  0.00    -0.164 N 
ATOM      3  H3  UNL     1      -9.643  14.180  22.868  1.00  0.00     0.187 HD
HETATM    4  C10 UNL     1      -8.262  15.583  23.301  1.00  0.00     0.683 A 
HETATM    5  N6  UNL     1      -7.735  16.327  24.273  1.00  0.00    -0.190 N 
ATOM      6  H6  UNL     1      -6.978  16.970  24.041  1.00  0.00     0.184 HD
HETATM    7  C16 UNL     1      -8.155  16.264  25.527  1.00  0.00     0.070 A 
HETATM    8  C17 UNL     1      -7.563  17.128  26.428  1.00  0.00    -0.032 A 
HETATM    9  C18 UNL     1      -6.463  18.012  25.985  1.00  0.00     0.050 C 
HETATM   10  C19 UNL     1      -8.052  17.098  27.727  1.00  0.00     0.038 A 
HETATM   11  C20 UNL     1      -9.071  16.253  28.086  1.00  0.00     0.037 A 
HETATM   12  C25 UNL     1      -9.636  15.397  27.158  1.00  0.00     0.048 A 
HETATM   13  C26 UNL     1      -9.165  15.410  25.865  1.00  0.00     0.052 A 
ENDROOT
BRANCH   1  14
HETATM   14  N2  UNL     1     -10.591  13.804  25.173  1.00  0.00    -0.424 NA
BRANCH  14  15
HETATM   15  C8  UNL     1     -11.549  12.918  25.492  1.00  0.00     0.168 C 
HETATM   16  C7  UNL     1     -11.379  12.200  26.789  1.00  0.00     0.069 C 
HETATM   17  C6  UNL     1     -12.652  12.113  27.635  1.00  0.00     0.275 C 
HETATM   18  N1  UNL     1     -13.188  13.355  27.981  1.00  0.00     0.088 N 
HETATM   19  C28 UNL     1     -12.953  14.339  26.885  1.00  0.00     0.275 C 
HETATM   20  C27 UNL     1     -12.952  13.584  25.581  1.00  0.00     0.069 C 
BRANCH  18  21
HETATM   21  C5  UNL     1     -14.472  13.547  28.507  1.00  0.00     0.272 C 
BRANCH  21  22
HETATM   22  C4  UNL     1     -14.684  13.833  29.924  1.00  0.00     0.032 C 
BRANCH  22  23
HETATM   23  C3  UNL     1     -13.564  13.846  30.897  1.00  0.00     0.028 C 
BRANCH  23  24
HETATM   24  C2  UNL     1     -13.141  12.490  31.418  1.00  0.00     0.167 C 
BRANCH  24  25
HETATM   25  O1  UNL     1     -14.169  11.607  31.423  1.00  0.00    -0.396 OA
HETATM   26  C1  UNL     1     -13.795  10.394  30.885  1.00  0.00     0.201 C 
ENDBRANCH  24  25
ENDBRANCH  23  24
ENDBRANCH  22  23
ENDBRANCH  21  22
ENDBRANCH  18  21
ENDBRANCH  14  15
ENDBRANCH   1  14
BRANCH   4  27
HETATM   27  N4  UNL     1      -7.794  15.748  21.972  1.00  0.00    -0.214 N 
HETATM   28  C11 UNL     1      -8.516  15.253  20.838  1.00  0.00     0.171 C 
HETATM   29  C12 UNL     1      -7.903  15.606  19.522  1.00  0.00     0.292 C 
HETATM   30  N5  UNL     1      -7.137  16.791  19.447  1.00  0.00     0.087 N 
HETATM   31  C13 UNL     1      -5.829  16.521  18.845  1.00  0.00     0.310 C 
HETATM   32  C14 UNL     1      -6.898  17.490  20.665  1.00  0.00     0.292 C 
HETATM   33  C15 UNL     1      -6.545  16.447  21.735  1.00  0.00     0.171 C 
ENDBRANCH   4  27
BRANCH  11  34
HETATM   34  N7  UNL     1      -9.660  16.333  29.377  1.00  0.00    -0.309 N 
HETATM   35  C21 UNL     1      -9.149  15.489  30.418  1.00  0.00     0.320 C 
HETATM   36  O2  UNL     1      -8.192  14.687  30.190  1.00  0.00    -0.247 OA
HETATM   37  N8  UNL     1      -9.684  15.528  31.710  1.00  0.00    -0.341 N 
ATOM     38  H8  UNL     1     -10.456  16.169  31.893  1.00  0.00     0.164 HD
ATOM     39  H7  UNL     1     -10.429  16.978  29.559  1.00  0.00     0.170 HD
BRANCH  37  40
HETATM   40  C22 UNL     1      -9.202  14.708  32.801  1.00  0.00     0.150 C 
BRANCH  40  41
HETATM   41  C23 UNL     1      -9.573  15.316  34.105  1.00  0.00     0.186 C 
BRANCH  41  42
HETATM   42  O3  UNL     1     -10.932  15.478  34.263  1.00  0.00    -0.394 OA
HETATM   43  C24 UNL     1     -11.569  14.255  34.342  1.00  0.00     0.201 C 
ENDBRANCH  41  42
ENDBRANCH  40  41
ENDBRANCH  37  40
ENDBRANCH  11  34
TORSDOF 12
ENDMDL
