MODEL 1
REMARK VINA RESULT: -5.794777447      0.000      0.000
REMARK  2 active torsions:
REMARK  status: ('A' for Active; 'I' for Inactive)
REMARK    1  A    between atoms: C3_3  and  N2_7 
REMARK    2  A    between atoms: N2_7  and  C4_9 
ROOT
HETATM    1  C1  UNL     1       8.385  11.634  43.698  1.00  0.00     0.021 C 
HETATM    2  C2  UNL     1       7.472  11.331  44.429  1.00  0.00    -0.042 C 
HETATM    3  C3  UNL     1       6.361  10.977  45.290  1.00  0.00     0.150 C 
HETATM    4  N1  UNL     1       6.572  10.208  46.305  1.00  0.00    -0.379 N 
ATOM      5  H11 UNL     1       5.790   9.959  46.911  1.00  0.00     0.158 HD
ATOM      6  H12 UNL     1       7.516   9.864  46.484  1.00  0.00     0.158 HD
ENDROOT
BRANCH   3   7
HETATM    7  N2  UNL     1       5.058  11.452  45.044  1.00  0.00    -0.365 N 
ATOM      8  H2  UNL     1       4.273  10.831  45.237  1.00  0.00     0.162 HD
BRANCH   7   9
HETATM    9  C4  UNL     1       4.776  12.774  44.530  1.00  0.00     0.083 C 
HETATM   10  C5  UNL     1       3.697  13.482  45.330  1.00  0.00     0.025 C 
HETATM   11  C6  UNL     1       3.154  14.584  44.439  1.00  0.00     0.002 C 
HETATM   12  C7  UNL     1       4.295  15.159  43.629  1.00  0.00     0.000 C 
HETATM   13  C8  UNL     1       4.642  14.161  42.532  1.00  0.00     0.002 C 
HETATM   14  C9  UNL     1       4.359  12.764  43.098  1.00  0.00     0.025 C 
ENDBRANCH   7   9
ENDBRANCH   3   7
TORSDOF 2
ENDMDL
MODEL 2
REMARK VINA RESULT: -5.603645861      1.665      2.743
REMARK  2 active torsions:
REMARK  status: ('A' for Active; 'I' for Inactive)
REMARK    1  A    between atoms: C3_3  and  N2_7 
REMARK    2  A    between atoms: N2_7  and  C4_9 
ROOT
HETATM    1  C1  UNL     1       3.540  12.387  47.096  1.00  0.00     0.021 C 
HETATM    2  C2  UNL     1       4.554  11.998  46.568  1.00  0.00    -0.042 C 
HETATM    3  C3  UNL     1       5.773  11.553  45.923  1.00  0.00     0.150 C 
HETATM    4  N1  UNL     1       6.334  10.461  46.324  1.00  0.00    -0.379 N 
ATOM      5  H11 UNL     1       7.192  10.148  45.870  1.00  0.00     0.158 HD
ATOM      6  H12 UNL     1       5.910   9.932  47.087  1.00  0.00     0.158 HD
ENDROOT
BRANCH   3   7
HETATM    7  N2  UNL     1       6.358  12.282  44.870  1.00  0.00    -0.365 N 
ATOM      8  H2  UNL     1       7.304  12.642  44.999  1.00  0.00     0.162 HD
BRANCH   7   9
HETATM    9  C4  UNL     1       5.688  12.547  43.616  1.00  0.00     0.083 C 
HETATM   10  C5  UNL     1       4.701  13.695  43.725  1.00  0.00     0.025 C 
HETATM   11  C6  UNL     1       3.742  13.550  42.556  1.00  0.00     0.002 C 
HETATM   12  C7  UNL     1       4.512  13.044  41.357  1.00  0.00     0.000 C 
HETATM   13  C8  UNL     1       4.798  11.563  41.573  1.00  0.00     0.002 C 
HETATM   14  C9  UNL     1       4.960  11.359  43.085  1.00  0.00     0.025 C 
ENDBRANCH   7   9
ENDBRANCH   3   7
TORSDOF 2
ENDMDL
MODEL 3
REMARK VINA RESULT: -5.565828081      2.891      4.392
REMARK  2 active torsions:
REMARK  status: ('A' for Active; 'I' for Inactive)
REMARK    1  A    between atoms: C3_3  and  N2_7 
REMARK    2  A    between atoms: N2_7  and  C4_9 
ROOT
HETATM    1  C1  UNL     1       4.518  11.870  40.337  1.00  0.00     0.021 C 
HETATM    2  C2  UNL     1       4.069  12.927  40.710  1.00  0.00    -0.042 C 
HETATM    3  C3  UNL     1       3.544  14.195  41.178  1.00  0.00     0.150 C 
HETATM    4  N1  UNL     1       2.821  14.909  40.382  1.00  0.00    -0.379 N 
ATOM      5  H11 UNL     1       2.452  15.801  40.711  1.00  0.00     0.158 HD
ATOM      6  H12 UNL     1       2.633  14.569  39.439  1.00  0.00     0.158 HD
ENDROOT
BRANCH   3   7
HETATM    7  N2  UNL     1       3.804  14.664  42.480  1.00  0.00    -0.365 N 
ATOM      8  H2  UNL     1       4.022  15.652  42.604  1.00  0.00     0.162 HD
BRANCH   7   9
HETATM    9  C4  UNL     1       3.778  13.817  43.652  1.00  0.00     0.083 C 
HETATM   10  C5  UNL     1       3.141  14.506  44.845  1.00  0.00     0.025 C 
HETATM   11  C6  UNL     1       3.612  13.756  46.078  1.00  0.00     0.002 C 
HETATM   12  C7  UNL     1       3.703  12.284  45.745  1.00  0.00     0.000 C 
HETATM   13  C8  UNL     1       4.946  12.072  44.889  1.00  0.00     0.002 C 
HETATM   14  C9  UNL     1       5.135  13.348  44.059  1.00  0.00     0.025 C 
ENDBRANCH   7   9
ENDBRANCH   3   7
TORSDOF 2
ENDMDL
MODEL 4
REMARK VINA RESULT: -5.541267267      1.808      2.396
REMARK  2 active torsions:
REMARK  status: ('A' for Active; 'I' for Inactive)
REMARK    1  A    between atoms: C3_3  and  N2_7 
REMARK    2  A    between atoms: N2_7  and  C4_9 
ROOT
HETATM    1  C1  UNL     1       6.676   7.924  44.088  1.00  0.00     0.021 C 
HETATM    2  C2  UNL     1       6.713   8.739  44.979  1.00  0.00    -0.042 C 
HETATM    3  C3  UNL     1       6.756   9.734  46.032  1.00  0.00     0.150 C 
HETATM    4  N1  UNL     1       6.700   9.350  47.264  1.00  0.00    -0.379 N 
ATOM      5  H11 UNL     1       6.730  10.050  48.004  1.00  0.00     0.158 HD
ATOM      6  H12 UNL     1       6.629   8.354  47.473  1.00  0.00     0.158 HD
ENDROOT
BRANCH   3   7
HETATM    7  N2  UNL     1       6.855  11.109  45.742  1.00  0.00    -0.365 N 
ATOM      8  H2  UNL     1       7.782  11.507  45.598  1.00  0.00     0.162 HD
BRANCH   7   9
HETATM    9  C4  UNL     1       5.709  11.986  45.639  1.00  0.00     0.083 C 
HETATM   10  C5  UNL     1       4.801  11.889  46.852  1.00  0.00     0.025 C 
HETATM   11  C6  UNL     1       3.450  12.432  46.422  1.00  0.00     0.002 C 
HETATM   12  C7  UNL     1       3.672  13.584  45.468  1.00  0.00     0.000 C 
HETATM   13  C8  UNL     1       4.096  13.005  44.124  1.00  0.00     0.002 C 
HETATM   14  C9  UNL     1       4.886  11.724  44.423  1.00  0.00     0.025 C 
ENDBRANCH   7   9
ENDBRANCH   3   7
TORSDOF 2
ENDMDL
MODEL 5
REMARK VINA RESULT: -5.532682222      1.600      4.366
REMARK  2 active torsions:
REMARK  status: ('A' for Active; 'I' for Inactive)
REMARK    1  A    between atoms: C3_3  and  N2_7 
REMARK    2  A    between atoms: N2_7  and  C4_9 
ROOT
HETATM    1  C1  UNL     1       3.445  14.081  44.655  1.00  0.00     0.021 C 
HETATM    2  C2  UNL     1       3.803  13.405  45.590  1.00  0.00    -0.042 C 
HETATM    3  C3  UNL     1       4.254  12.594  46.702  1.00  0.00     0.150 C 
HETATM    4  N1  UNL     1       3.493  12.466  47.738  1.00  0.00    -0.379 N 
ATOM      5  H11 UNL     1       3.810  11.895  48.521  1.00  0.00     0.158 HD
ATOM      6  H12 UNL     1       2.589  12.938  47.754  1.00  0.00     0.158 HD
ENDROOT
BRANCH   3   7
HETATM    7  N2  UNL     1       5.502  11.942  46.680  1.00  0.00    -0.365 N 
ATOM      8  H2  UNL     1       6.082  11.979  47.518  1.00  0.00     0.162 HD
BRANCH   7   9
HETATM    9  C4  UNL     1       6.004  11.221  45.531  1.00  0.00     0.083 C 
HETATM   10  C5  UNL     1       6.615   9.885  45.914  1.00  0.00     0.025 C 
HETATM   11  C6  UNL     1       7.517   9.479  44.763  1.00  0.00     0.002 C 
HETATM   12  C7  UNL     1       6.873   9.914  43.465  1.00  0.00     0.000 C 
HETATM   13  C8  UNL     1       7.045  11.423  43.338  1.00  0.00     0.002 C 
HETATM   14  C9  UNL     1       7.023  11.993  44.762  1.00  0.00     0.025 C 
ENDBRANCH   7   9
ENDBRANCH   3   7
TORSDOF 2
ENDMDL
