MODEL 1
REMARK VINA RESULT: -5.269434620      0.000      0.000
REMARK  1 active torsions:
REMARK  status: ('A' for Active; 'I' for Inactive)
REMARK    1  A    between atoms: O1_1  and  C1_3 
ROOT
HETATM    1  C1  UNL     1       3.326  13.737  45.550  1.00  0.00     0.122 C 
HETATM    2  C2  UNL     1       4.354  13.866  44.474  1.00  0.00     0.032 C 
HETATM    3  C3  UNL     1       4.270  12.790  43.426  1.00  0.00     0.002 C 
HETATM    4  C4  UNL     1       5.609  12.226  43.040  1.00  0.00     0.002 C 
HETATM    5  C5  UNL     1       6.519  11.959  44.184  1.00  0.00     0.020 C 
HETATM    6  C6  UNL     1       5.827  11.234  45.333  1.00  0.00     0.118 C 
HETATM    7  N1  UNL     1       5.798  12.047  46.488  1.00  0.00    -0.402 N 
ATOM      8  H1  UNL     1       6.652  12.478  46.841  1.00  0.00     0.158 HD
HETATM    9  C7  UNL     1       4.577  12.248  47.138  1.00  0.00     0.058 C 
HETATM   10  C8  UNL     1       3.367  12.456  46.311  1.00  0.00     0.075 C 
ENDROOT
BRANCH   1  11
HETATM   11  O1  UNL     1       3.385  14.825  46.389  1.00  0.00    -0.395 OA
ATOM     12  H1  UNL     1       2.795  14.702  47.123  1.00  0.00     0.210 HD
ENDBRANCH   1  11
TORSDOF 1
ENDMDL
MODEL 2
REMARK VINA RESULT: -5.045725930      1.600      2.351
REMARK  1 active torsions:
REMARK  status: ('A' for Active; 'I' for Inactive)
REMARK    1  A    between atoms: O1_1  and  C1_3 
ROOT
HETATM    1  C1  UNL     1       3.915  14.719  43.672  1.00  0.00     0.122 C 
HETATM    2  C2  UNL     1       4.987  13.686  43.790  1.00  0.00     0.032 C 
HETATM    3  C3  UNL     1       4.497  12.279  43.576  1.00  0.00     0.002 C 
HETATM    4  C4  UNL     1       5.044  11.298  44.574  1.00  0.00     0.002 C 
HETATM    5  C5  UNL     1       5.049  11.784  45.978  1.00  0.00     0.020 C 
HETATM    6  C6  UNL     1       3.734  12.441  46.381  1.00  0.00     0.118 C 
HETATM    7  N1  UNL     1       3.930  13.808  46.675  1.00  0.00    -0.402 N 
ATOM      8  H1  UNL     1       4.655  14.100  47.330  1.00  0.00     0.158 HD
HETATM    9  C7  UNL     1       3.112  14.754  46.050  1.00  0.00     0.058 C 
HETATM   10  C8  UNL     1       2.777  14.559  44.622  1.00  0.00     0.075 C 
ENDROOT
BRANCH   1  11
HETATM   11  O1  UNL     1       4.464  15.977  43.749  1.00  0.00    -0.395 OA
ATOM     12  H1  UNL     1       4.793  16.135  44.626  1.00  0.00     0.210 HD
ENDBRANCH   1  11
TORSDOF 1
ENDMDL
MODEL 3
REMARK VINA RESULT: -4.904958067      1.085      1.255
REMARK  1 active torsions:
REMARK  status: ('A' for Active; 'I' for Inactive)
REMARK    1  A    between atoms: O1_1  and  C1_3 
ROOT
HETATM    1  C1  UNL     1       3.330  14.800  44.610  1.00  0.00     0.122 C 
HETATM    2  C2  UNL     1       4.338  14.463  43.561  1.00  0.00     0.032 C 
HETATM    3  C3  UNL     1       3.882  13.393  42.606  1.00  0.00     0.002 C 
HETATM    4  C4  UNL     1       4.938  12.365  42.313  1.00  0.00     0.002 C 
HETATM    5  C5  UNL     1       5.695  11.901  43.504  1.00  0.00     0.020 C 
HETATM    6  C6  UNL     1       4.792  11.572  44.688  1.00  0.00     0.118 C 
HETATM    7  N1  UNL     1       5.050  12.444  45.768  1.00  0.00    -0.402 N 
ATOM      8  H1  UNL     1       6.001  12.581  46.111  1.00  0.00     0.158 HD
HETATM    9  C7  UNL     1       3.977  13.118  46.358  1.00  0.00     0.058 C 
HETATM   10  C8  UNL     1       2.917  13.660  45.478  1.00  0.00     0.075 C 
ENDROOT
BRANCH   1  11
HETATM   11  O1  UNL     1       3.766  15.870  45.355  1.00  0.00    -0.395 OA
ATOM     12  H1  UNL     1       3.051  16.219  45.873  1.00  0.00     0.210 HD
ENDBRANCH   1  11
TORSDOF 1
ENDMDL
MODEL 4
REMARK VINA RESULT: -4.838711619      1.998      3.349
REMARK  1 active torsions:
REMARK  status: ('A' for Active; 'I' for Inactive)
REMARK    1  A    between atoms: O1_1  and  C1_3 
ROOT
HETATM    1  C1  UNL     1       5.920  12.078  43.313  1.00  0.00     0.122 C 
HETATM    2  C2  UNL     1       4.497  12.340  43.681  1.00  0.00     0.032 C 
HETATM    3  C3  UNL     1       4.279  13.674  44.341  1.00  0.00     0.002 C 
HETATM    4  C4  UNL     1       3.368  13.608  45.534  1.00  0.00     0.002 C 
HETATM    5  C5  UNL     1       3.623  12.460  46.443  1.00  0.00     0.020 C 
HETATM    6  C6  UNL     1       5.103  12.272  46.756  1.00  0.00     0.118 C 
HETATM    7  N1  UNL     1       5.566  11.037  46.252  1.00  0.00    -0.402 N 
ATOM      8  H1  UNL     1       5.073  10.170  46.468  1.00  0.00     0.158 HD
HETATM    9  C7  UNL     1       6.711  11.025  45.450  1.00  0.00     0.058 C 
HETATM   10  C8  UNL     1       6.882  12.104  44.453  1.00  0.00     0.075 C 
ENDROOT
BRANCH   1  11
HETATM   11  O1  UNL     1       6.014  10.906  42.600  1.00  0.00    -0.395 OA
ATOM     12  H1  UNL     1       5.866  11.074  41.677  1.00  0.00     0.210 HD
ENDBRANCH   1  11
TORSDOF 1
ENDMDL
MODEL 5
REMARK VINA RESULT: -4.810507905      2.347      3.450
REMARK  1 active torsions:
REMARK  status: ('A' for Active; 'I' for Inactive)
REMARK    1  A    between atoms: O1_1  and  C1_3 
ROOT
HETATM    1  C1  UNL     1       4.030  14.447  43.930  1.00  0.00     0.122 C 
HETATM    2  C2  UNL     1       4.049  13.051  44.459  1.00  0.00     0.032 C 
HETATM    3  C3  UNL     1       5.435  12.508  44.683  1.00  0.00     0.002 C 
HETATM    4  C4  UNL     1       5.608  11.096  44.198  1.00  0.00     0.002 C 
HETATM    5  C5  UNL     1       5.002  10.821  42.870  1.00  0.00     0.020 C 
HETATM    6  C6  UNL     1       5.325  11.896  41.838  1.00  0.00     0.118 C 
HETATM    7  N1  UNL     1       4.149  12.560  41.426  1.00  0.00    -0.402 N 
ATOM      8  H1  UNL     1       3.339  12.030  41.103  1.00  0.00     0.158 HD
HETATM    9  C7  UNL     1       4.115  13.956  41.469  1.00  0.00     0.058 C 
HETATM   10  C8  UNL     1       4.732  14.638  42.628  1.00  0.00     0.075 C 
ENDROOT
BRANCH   1  11
HETATM   11  O1  UNL     1       2.737  14.914  43.880  1.00  0.00    -0.395 OA
ATOM     12  H1  UNL     1       2.601  15.566  44.556  1.00  0.00     0.210 HD
ENDBRANCH   1  11
TORSDOF 1
ENDMDL
