MODEL 1
REMARK VINA RESULT: -5.356305939      0.000      0.000
REMARK  1 active torsions:
REMARK  status: ('A' for Active; 'I' for Inactive)
REMARK    1  A    between atoms: O1_1  and  C1_3 
ROOT
HETATM    1  C1  UNL     1       6.248   9.056  46.132  1.00  0.00     0.153 C 
HETATM    2  C2  UNL     1       6.982   8.228  45.068  1.00  0.00     0.038 C 
HETATM    3  C3  UNL     1       7.629   9.557  44.649  1.00  0.00     0.044 C 
HETATM    4  C4  UNL     1       6.298  10.161  45.109  1.00  0.00     0.090 C 
HETATM    5  O2  UNL     1       5.364  10.082  44.107  1.00  0.00    -0.377 OA
HETATM    6  C5  UNL     1       5.562  11.301  43.421  1.00  0.00     0.174 C 
HETATM    7  C6  UNL     1       5.494  12.285  44.572  1.00  0.00     0.016 C 
HETATM    8  C7  UNL     1       4.321  12.044  45.464  1.00  0.00     0.007 C 
HETATM    9  C8  UNL     1       5.287  11.849  46.618  1.00  0.00     0.009 C 
HETATM   10  C9  UNL     1       6.360  11.552  45.605  1.00  0.00     0.029 C 
ENDROOT
BRANCH   1  11
HETATM   11  O1  UNL     1       7.113   9.276  47.192  1.00  0.00    -0.393 OA
ATOM     12  H1  UNL     1       6.738   9.945  47.753  1.00  0.00     0.210 HD
ENDBRANCH   1  11
TORSDOF 1
ENDMDL
MODEL 2
REMARK VINA RESULT: -5.213142028      2.501      4.445
REMARK  1 active torsions:
REMARK  status: ('A' for Active; 'I' for Inactive)
REMARK    1  A    between atoms: O1_1  and  C1_3 
ROOT
HETATM    1  C1  UNL     1       4.448  14.592  43.789  1.00  0.00     0.153 C 
HETATM    2  C2  UNL     1       4.564  14.683  42.260  1.00  0.00     0.038 C 
HETATM    3  C3  UNL     1       3.995  13.256  42.249  1.00  0.00     0.044 C 
HETATM    4  C4  UNL     1       4.734  13.127  43.586  1.00  0.00     0.090 C 
HETATM    5  O2  UNL     1       6.051  12.806  43.375  1.00  0.00    -0.377 OA
HETATM    6  C5  UNL     1       6.016  11.394  43.377  1.00  0.00     0.174 C 
HETATM    7  C6  UNL     1       5.273  11.133  44.673  1.00  0.00     0.016 C 
HETATM    8  C7  UNL     1       5.816  11.926  45.815  1.00  0.00     0.007 C 
HETATM    9  C8  UNL     1       4.444  12.555  45.981  1.00  0.00     0.009 C 
HETATM   10  C9  UNL     1       4.152  12.175  44.554  1.00  0.00     0.029 C 
ENDROOT
BRANCH   1  11
HETATM   11  O1  UNL     1       3.129  14.830  44.143  1.00  0.00    -0.393 OA
ATOM     12  H1  UNL     1       3.097  15.018  45.074  1.00  0.00     0.210 HD
ENDBRANCH   1  11
TORSDOF 1
ENDMDL
MODEL 3
REMARK VINA RESULT: -5.016128246      1.496      1.732
REMARK  1 active torsions:
REMARK  status: ('A' for Active; 'I' for Inactive)
REMARK    1  A    between atoms: O1_1  and  C1_3 
ROOT
HETATM    1  C1  UNL     1       6.889   9.321  44.183  1.00  0.00     0.153 C 
HETATM    2  C2  UNL     1       7.139   8.787  42.764  1.00  0.00     0.038 C 
HETATM    3  C3  UNL     1       7.447  10.247  42.397  1.00  0.00     0.044 C 
HETATM    4  C4  UNL     1       6.413  10.567  43.482  1.00  0.00     0.090 C 
HETATM    5  O2  UNL     1       5.144  10.508  42.966  1.00  0.00    -0.377 OA
HETATM    6  C5  UNL     1       4.939  11.834  42.527  1.00  0.00     0.174 C 
HETATM    7  C6  UNL     1       5.315  12.605  43.777  1.00  0.00     0.016 C 
HETATM    8  C7  UNL     1       4.669  12.056  45.005  1.00  0.00     0.007 C 
HETATM    9  C8  UNL     1       6.053  11.829  45.586  1.00  0.00     0.009 C 
HETATM   10  C9  UNL     1       6.593  11.857  44.181  1.00  0.00     0.029 C 
ENDROOT
BRANCH   1  11
HETATM   11  O1  UNL     1       8.114   9.499  44.806  1.00  0.00    -0.393 OA
ATOM     12  H1  UNL     1       8.390   8.665  45.170  1.00  0.00     0.210 HD
ENDBRANCH   1  11
TORSDOF 1
ENDMDL
MODEL 4
REMARK VINA RESULT: -4.997679348      2.265      3.809
REMARK  1 active torsions:
REMARK  status: ('A' for Active; 'I' for Inactive)
REMARK    1  A    between atoms: O1_1  and  C1_3 
ROOT
HETATM    1  C1  UNL     1       3.311  13.078  45.910  1.00  0.00     0.153 C 
HETATM    2  C2  UNL     1       3.720  12.156  47.068  1.00  0.00     0.038 C 
HETATM    3  C3  UNL     1       5.162  12.404  46.600  1.00  0.00     0.044 C 
HETATM    4  C4  UNL     1       4.520  12.511  45.213  1.00  0.00     0.090 C 
HETATM    5  O2  UNL     1       4.356  11.264  44.664  1.00  0.00    -0.377 OA
HETATM    6  C5  UNL     1       5.574  11.082  43.972  1.00  0.00     0.174 C 
HETATM    7  C6  UNL     1       5.634  12.366  43.168  1.00  0.00     0.016 C 
HETATM    8  C7  UNL     1       4.349  12.666  42.470  1.00  0.00     0.007 C 
HETATM    9  C8  UNL     1       4.287  13.979  43.228  1.00  0.00     0.009 C 
HETATM   10  C9  UNL     1       5.222  13.379  44.244  1.00  0.00     0.029 C 
ENDROOT
BRANCH   1  11
HETATM   11  O1  UNL     1       3.497  14.392  46.309  1.00  0.00    -0.393 OA
ATOM     12  H1  UNL     1       3.712  14.911  45.542  1.00  0.00     0.210 HD
ENDBRANCH   1  11
TORSDOF 1
ENDMDL
MODEL 5
REMARK VINA RESULT: -4.918733972      1.722      3.165
REMARK  1 active torsions:
REMARK  status: ('A' for Active; 'I' for Inactive)
REMARK    1  A    between atoms: O1_1  and  C1_3 
ROOT
HETATM    1  C1  UNL     1       6.455  12.297  44.444  1.00  0.00     0.153 C 
HETATM    2  C2  UNL     1       7.279  11.070  44.859  1.00  0.00     0.038 C 
HETATM    3  C3  UNL     1       5.925  10.404  45.149  1.00  0.00     0.044 C 
HETATM    4  C4  UNL     1       5.484  11.830  45.498  1.00  0.00     0.090 C 
HETATM    5  O2  UNL     1       5.825  12.132  46.792  1.00  0.00    -0.377 OA
HETATM    6  C5  UNL     1       4.680  11.714  47.506  1.00  0.00     0.174 C 
HETATM    7  C6  UNL     1       3.589  12.421  46.725  1.00  0.00     0.016 C 
HETATM    8  C7  UNL     1       3.902  13.859  46.476  1.00  0.00     0.007 C 
HETATM    9  C8  UNL     1       3.807  13.583  44.987  1.00  0.00     0.009 C 
HETATM   10  C9  UNL     1       4.051  12.130  45.291  1.00  0.00     0.029 C 
ENDROOT
BRANCH   1  11
HETATM   11  O1  UNL     1       5.980  12.093  43.159  1.00  0.00    -0.393 OA
ATOM     12  H1  UNL     1       6.296  12.798  42.606  1.00  0.00     0.210 HD
ENDBRANCH   1  11
TORSDOF 1
ENDMDL
