MODEL 1
REMARK VINA RESULT: -5.375156794      0.000      0.000
REMARK  1 active torsions:
REMARK  status: ('A' for Active; 'I' for Inactive)
REMARK    1  A    between atoms: O1_1  and  C1_3 
ROOT
HETATM    1  C1  UNL     1       6.531   9.137  45.925  1.00  0.00     0.147 C 
HETATM    2  C2  UNL     1       7.714   8.987  44.987  1.00  0.00     0.039 C 
HETATM    3  C3  UNL     1       7.561   9.846  43.748  1.00  0.00    -0.009 C 
HETATM    4  C4  UNL     1       7.963  11.271  43.995  1.00  0.00     0.036 C 
HETATM    5  C5  UNL     1       6.913  12.080  44.701  1.00  0.00     0.122 C 
HETATM    6  C6  UNL     1       5.571  11.993  43.972  1.00  0.00     0.039 C 
HETATM    7  C7  UNL     1       5.273  10.509  44.238  1.00  0.00     0.020 C 
HETATM    8  C8  UNL     1       6.154   9.743  43.252  1.00  0.00     0.012 C 
HETATM    9  C9  UNL     1       5.780  10.398  45.646  1.00  0.00     0.154 C 
HETATM   10  O2  UNL     1       6.592  11.472  45.906  1.00  0.00    -0.378 OA
ENDROOT
BRANCH   1  11
HETATM   11  O1  UNL     1       7.056   9.262  47.231  1.00  0.00    -0.393 OA
ATOM     12  H1  UNL     1       6.501   9.878  47.694  1.00  0.00     0.210 HD
ENDBRANCH   1  11
TORSDOF 1
ENDMDL
MODEL 2
REMARK VINA RESULT: -5.023880151      3.473      4.575
REMARK  1 active torsions:
REMARK  status: ('A' for Active; 'I' for Inactive)
REMARK    1  A    between atoms: O1_1  and  C1_3 
ROOT
HETATM    1  C1  UNL     1       9.779   6.166  42.785  1.00  0.00     0.147 C 
HETATM    2  C2  UNL     1       9.653   7.382  41.887  1.00  0.00     0.039 C 
HETATM    3  C3  UNL     1       8.250   7.953  41.906  1.00  0.00    -0.009 C 
HETATM    4  C4  UNL     1       8.014   8.834  43.098  1.00  0.00     0.036 C 
HETATM    5  C5  UNL     1       7.736   8.075  44.363  1.00  0.00     0.122 C 
HETATM    6  C6  UNL     1       6.592   7.079  44.166  1.00  0.00     0.039 C 
HETATM    7  C7  UNL     1       7.301   6.121  43.194  1.00  0.00     0.020 C 
HETATM    8  C8  UNL     1       7.264   6.830  41.840  1.00  0.00     0.012 C 
HETATM    9  C9  UNL     1       8.676   6.127  43.793  1.00  0.00     0.154 C 
HETATM   10  O2  UNL     1       8.788   7.210  44.625  1.00  0.00    -0.378 OA
ENDROOT
BRANCH   1  11
HETATM   11  O1  UNL     1      10.982   6.315  43.511  1.00  0.00    -0.393 OA
ATOM     12  H1  UNL     1      11.694   6.197  42.893  1.00  0.00     0.210 HD
ENDBRANCH   1  11
TORSDOF 1
ENDMDL
MODEL 3
REMARK VINA RESULT: -5.004328728      4.860      5.851
REMARK  1 active torsions:
REMARK  status: ('A' for Active; 'I' for Inactive)
REMARK    1  A    between atoms: O1_1  and  C1_3 
ROOT
HETATM    1  C1  UNL     1       7.917   5.981  43.738  1.00  0.00     0.147 C 
HETATM    2  C2  UNL     1       7.203   5.368  42.547  1.00  0.00     0.039 C 
HETATM    3  C3  UNL     1       7.750   5.890  41.234  1.00  0.00    -0.009 C 
HETATM    4  C4  UNL     1       9.006   5.179  40.822  1.00  0.00     0.036 C 
HETATM    5  C5  UNL     1      10.234   5.661  41.539  1.00  0.00     0.122 C 
HETATM    6  C6  UNL     1      10.382   7.178  41.417  1.00  0.00     0.039 C 
HETATM    7  C7  UNL     1       9.162   7.585  42.258  1.00  0.00     0.020 C 
HETATM    8  C8  UNL     1       7.957   7.367  41.343  1.00  0.00     0.012 C 
HETATM    9  C9  UNL     1       9.241   6.546  43.337  1.00  0.00     0.154 C 
HETATM   10  O2  UNL     1      10.053   5.529  42.908  1.00  0.00    -0.378 OA
ENDROOT
BRANCH   1  11
HETATM   11  O1  UNL     1       8.186   4.929  44.642  1.00  0.00    -0.393 OA
ATOM     12  H1  UNL     1       8.473   5.330  45.454  1.00  0.00     0.210 HD
ENDBRANCH   1  11
TORSDOF 1
ENDMDL
MODEL 4
REMARK VINA RESULT: -4.999125314      1.526      2.482
REMARK  1 active torsions:
REMARK  status: ('A' for Active; 'I' for Inactive)
REMARK    1  A    between atoms: O1_1  and  C1_3 
ROOT
HETATM    1  C1  UNL     1       6.225   9.533  45.166  1.00  0.00     0.147 C 
HETATM    2  C2  UNL     1       5.290   9.685  43.981  1.00  0.00     0.039 C 
HETATM    3  C3  UNL     1       5.741  10.791  43.048  1.00  0.00    -0.009 C 
HETATM    4  C4  UNL     1       6.822  10.334  42.112  1.00  0.00     0.036 C 
HETATM    5  C5  UNL     1       8.185  10.292  42.740  1.00  0.00     0.122 C 
HETATM    6  C6  UNL     1       8.533  11.632  43.389  1.00  0.00     0.039 C 
HETATM    7  C7  UNL     1       7.496  11.602  44.523  1.00  0.00     0.020 C 
HETATM    8  C8  UNL     1       6.170  11.972  43.859  1.00  0.00     0.012 C 
HETATM    9  C9  UNL     1       7.557  10.147  44.882  1.00  0.00     0.154 C 
HETATM   10  O2  UNL     1       8.156   9.466  43.854  1.00  0.00    -0.378 OA
ENDROOT
BRANCH   1  11
HETATM   11  O1  UNL     1       6.448   8.149  45.338  1.00  0.00    -0.393 OA
ATOM     12  H1  UNL     1       6.842   8.036  46.195  1.00  0.00     0.210 HD
ENDBRANCH   1  11
TORSDOF 1
ENDMDL
MODEL 5
REMARK VINA RESULT: -4.974217323      1.111      1.135
REMARK  1 active torsions:
REMARK  status: ('A' for Active; 'I' for Inactive)
REMARK    1  A    between atoms: O1_1  and  C1_3 
ROOT
HETATM    1  C1  UNL     1       6.550   8.703  44.344  1.00  0.00     0.147 C 
HETATM    2  C2  UNL     1       7.789   9.013  43.523  1.00  0.00     0.039 C 
HETATM    3  C3  UNL     1       7.694  10.369  42.853  1.00  0.00    -0.009 C 
HETATM    4  C4  UNL     1       8.056  11.487  43.786  1.00  0.00     0.036 C 
HETATM    5  C5  UNL     1       6.953  11.864  44.733  1.00  0.00     0.122 C 
HETATM    6  C6  UNL     1       5.657  12.162  43.976  1.00  0.00     0.039 C 
HETATM    7  C7  UNL     1       5.370  10.740  43.468  1.00  0.00     0.020 C 
HETATM    8  C8  UNL     1       6.320  10.540  42.287  1.00  0.00     0.012 C 
HETATM    9  C9  UNL     1       5.796   9.951  44.670  1.00  0.00     0.154 C 
HETATM   10  O2  UNL     1       6.572  10.751  45.468  1.00  0.00    -0.378 OA
ENDROOT
BRANCH   1  11
HETATM   11  O1  UNL     1       6.996   8.170  45.574  1.00  0.00    -0.393 OA
ATOM     12  H1  UNL     1       7.894   8.457  45.690  1.00  0.00     0.210 HD
ENDBRANCH   1  11
TORSDOF 1
ENDMDL
