MODEL 1
REMARK VINA RESULT: -5.803233801      0.000      0.000
REMARK  1 active torsions:
REMARK  status: ('A' for Active; 'I' for Inactive)
REMARK    1  A    between atoms: O1_1  and  C1_3 
ROOT
HETATM    1  C1  UNL     1       4.014  12.642  45.565  1.00  0.00     0.118 C 
HETATM    2  C2  UNL     1       3.372  13.994  45.618  1.00  0.00     0.034 C 
HETATM    3  C3  UNL     1       3.950  14.994  44.683  1.00  0.00     0.035 C 
HETATM    4  C4  UNL     1       4.350  14.447  43.349  1.00  0.00     0.125 C 
HETATM    5  O2  UNL     1       3.245  14.182  42.520  1.00  0.00    -0.385 OA
HETATM    6  C5  UNL     1       3.773  14.082  41.220  1.00  0.00     0.168 C 
HETATM    7  C6  UNL     1       4.354  12.706  41.085  1.00  0.00     0.027 C 
HETATM    8  C7  UNL     1       4.692  12.132  42.443  1.00  0.00     0.009 C 
HETATM    9  C8  UNL     1       5.173  13.207  43.407  1.00  0.00     0.017 C 
HETATM   10  C9  UNL     1       5.292  12.609  44.776  1.00  0.00     0.039 C 
ENDROOT
BRANCH   1  11
HETATM   11  O1  UNL     1       4.342  12.228  46.877  1.00  0.00    -0.396 OA
ATOM     12  H1  UNL     1       4.616  11.319  46.860  1.00  0.00     0.210 HD
ENDBRANCH   1  11
TORSDOF 1
ENDMDL
MODEL 2
REMARK VINA RESULT: -5.796271991      1.670      3.516
REMARK  1 active torsions:
REMARK  status: ('A' for Active; 'I' for Inactive)
REMARK    1  A    between atoms: O1_1  and  C1_3 
ROOT
HETATM    1  C1  UNL     1       3.948  14.257  44.749  1.00  0.00     0.118 C 
HETATM    2  C2  UNL     1       3.640  13.711  46.108  1.00  0.00     0.034 C 
HETATM    3  C3  UNL     1       3.711  12.229  46.214  1.00  0.00     0.035 C 
HETATM    4  C4  UNL     1       4.814  11.598  45.426  1.00  0.00     0.125 C 
HETATM    5  O2  UNL     1       6.078  11.787  46.015  1.00  0.00    -0.385 OA
HETATM    6  C5  UNL     1       6.912  10.825  45.418  1.00  0.00     0.168 C 
HETATM    7  C6  UNL     1       7.323  11.366  44.081  1.00  0.00     0.027 C 
HETATM    8  C7  UNL     1       6.330  12.397  43.593  1.00  0.00     0.009 C 
HETATM    9  C8  UNL     1       4.908  12.054  44.011  1.00  0.00     0.017 C 
HETATM   10  C9  UNL     1       4.014  13.209  43.675  1.00  0.00     0.039 C 
ENDROOT
BRANCH   1  11
HETATM   11  O1  UNL     1       2.931  15.162  44.366  1.00  0.00    -0.396 OA
ATOM     12  H1  UNL     1       2.701  15.010  43.457  1.00  0.00     0.210 HD
ENDBRANCH   1  11
TORSDOF 1
ENDMDL
MODEL 3
REMARK VINA RESULT: -5.704377548      0.886      1.119
REMARK  1 active torsions:
REMARK  status: ('A' for Active; 'I' for Inactive)
REMARK    1  A    between atoms: O1_1  and  C1_3 
ROOT
HETATM    1  C1  UNL     1       3.698  12.561  46.302  1.00  0.00     0.118 C 
HETATM    2  C2  UNL     1       3.121  13.879  45.889  1.00  0.00     0.034 C 
HETATM    3  C3  UNL     1       3.933  14.630  44.896  1.00  0.00     0.035 C 
HETATM    4  C4  UNL     1       4.587  13.780  43.853  1.00  0.00     0.125 C 
HETATM    5  O2  UNL     1       3.679  13.313  42.886  1.00  0.00    -0.385 OA
HETATM    6  C5  UNL     1       4.471  12.908  41.798  1.00  0.00     0.168 C 
HETATM    7  C6  UNL     1       5.006  11.545  42.125  1.00  0.00     0.027 C 
HETATM    8  C7  UNL     1       5.013  11.318  43.621  1.00  0.00     0.009 C 
HETATM    9  C8  UNL     1       5.322  12.598  44.384  1.00  0.00     0.017 C 
HETATM   10  C9  UNL     1       5.113  12.350  45.847  1.00  0.00     0.039 C 
ENDROOT
BRANCH   1  11
HETATM   11  O1  UNL     1       3.713  12.478  47.714  1.00  0.00    -0.396 OA
ATOM     12  H1  UNL     1       3.535  11.583  47.979  1.00  0.00     0.210 HD
ENDBRANCH   1  11
TORSDOF 1
ENDMDL
MODEL 4
REMARK VINA RESULT: -5.482290473      1.140      4.131
REMARK  1 active torsions:
REMARK  status: ('A' for Active; 'I' for Inactive)
REMARK    1  A    between atoms: O1_1  and  C1_3 
ROOT
HETATM    1  C1  UNL     1       3.707  13.745  42.256  1.00  0.00     0.118 C 
HETATM    2  C2  UNL     1       4.532  12.532  41.954  1.00  0.00     0.034 C 
HETATM    3  C3  UNL     1       5.645  12.284  42.908  1.00  0.00     0.035 C 
HETATM    4  C4  UNL     1       5.325  12.592  44.337  1.00  0.00     0.125 C 
HETATM    5  O2  UNL     1       4.490  11.625  44.925  1.00  0.00    -0.385 OA
HETATM    6  C5  UNL     1       4.621  11.816  46.312  1.00  0.00     0.168 C 
HETATM    7  C6  UNL     1       3.740  12.973  46.682  1.00  0.00     0.027 C 
HETATM    8  C7  UNL     1       3.484  13.856  45.481  1.00  0.00     0.009 C 
HETATM    9  C8  UNL     1       4.694  13.922  44.561  1.00  0.00     0.017 C 
HETATM   10  C9  UNL     1       4.305  14.640  43.304  1.00  0.00     0.039 C 
ENDROOT
BRANCH   1  11
HETATM   11  O1  UNL     1       3.580  14.528  41.084  1.00  0.00    -0.396 OA
ATOM     12  H1  UNL     1       3.391  13.960  40.346  1.00  0.00     0.210 HD
ENDBRANCH   1  11
TORSDOF 1
ENDMDL
MODEL 5
REMARK VINA RESULT: -5.466953867      1.592      3.667
REMARK  1 active torsions:
REMARK  status: ('A' for Active; 'I' for Inactive)
REMARK    1  A    between atoms: O1_1  and  C1_3 
ROOT
HETATM    1  C1  UNL     1       4.724  14.095  42.499  1.00  0.00     0.118 C 
HETATM    2  C2  UNL     1       4.311  14.525  43.872  1.00  0.00     0.034 C 
HETATM    3  C3  UNL     1       3.930  13.413  44.783  1.00  0.00     0.035 C 
HETATM    4  C4  UNL     1       4.760  12.177  44.643  1.00  0.00     0.125 C 
HETATM    5  O2  UNL     1       6.041  12.317  45.208  1.00  0.00    -0.385 OA
HETATM    6  C5  UNL     1       6.521  11.005  45.368  1.00  0.00     0.168 C 
HETATM    7  C6  UNL     1       7.031  10.557  44.030  1.00  0.00     0.027 C 
HETATM    8  C7  UNL     1       6.384  11.350  42.917  1.00  0.00     0.009 C 
HETATM    9  C8  UNL     1       4.940  11.704  43.242  1.00  0.00     0.017 C 
HETATM   10  C9  UNL     1       4.429  12.653  42.201  1.00  0.00     0.039 C 
ENDROOT
BRANCH   1  11
HETATM   11  O1  UNL     1       4.018  14.856  41.538  1.00  0.00    -0.396 OA
ATOM     12  H1  UNL     1       4.632  15.218  40.911  1.00  0.00     0.210 HD
ENDBRANCH   1  11
TORSDOF 1
ENDMDL
