MODEL 1
REMARK VINA RESULT: -5.260374668      0.000      0.000
REMARK  0 active torsions:
REMARK  status: ('A' for Active; 'I' for Inactive)
ROOT
HETATM    1  N1  UNL     1       4.516  11.713  48.140  1.00  0.00    -0.389 N 
ATOM      2  H11 UNL     1       5.445  11.448  48.468  1.00  0.00     0.157 HD
ATOM      3  H12 UNL     1       3.692  11.814  48.733  1.00  0.00     0.157 HD
HETATM    4  C1  UNL     1       4.360  11.938  46.894  1.00  0.00     0.070 C 
HETATM    5  C2  UNL     1       3.007  12.323  46.417  1.00  0.00     0.075 C 
HETATM    6  C3  UNL     1       3.133  13.509  45.533  1.00  0.00     0.007 C 
HETATM    7  C4  UNL     1       3.702  13.270  44.193  1.00  0.00     0.002 C 
HETATM    8  C5  UNL     1       4.277  11.921  43.942  1.00  0.00     0.020 C 
HETATM    9  C6  UNL     1       5.557  11.622  44.653  1.00  0.00     0.121 C 
HETATM   10  N2  UNL     1       5.508  11.798  46.069  1.00  0.00    -0.380 N 
ATOM     11  H2  UNL     1       6.408  11.827  46.548  1.00  0.00     0.160 HD
ENDROOT
TORSDOF 0
ENDMDL
MODEL 2
REMARK VINA RESULT: -4.772958082      1.027      2.197
REMARK  0 active torsions:
REMARK  status: ('A' for Active; 'I' for Inactive)
ROOT
HETATM    1  N1  UNL     1       4.646  11.631  47.808  1.00  0.00    -0.389 N 
ATOM      2  H11 UNL     1       3.993  11.862  48.557  1.00  0.00     0.157 HD
ATOM      3  H12 UNL     1       5.464  11.030  47.907  1.00  0.00     0.157 HD
HETATM    4  C1  UNL     1       4.434  12.128  46.651  1.00  0.00     0.070 C 
HETATM    5  C2  UNL     1       5.385  11.792  45.561  1.00  0.00     0.075 C 
HETATM    6  C3  UNL     1       4.610  11.385  44.362  1.00  0.00     0.007 C 
HETATM    7  C4  UNL     1       3.920  12.465  43.631  1.00  0.00     0.002 C 
HETATM    8  C5  UNL     1       3.898  13.803  44.279  1.00  0.00     0.020 C 
HETATM    9  C6  UNL     1       3.026  13.922  45.488  1.00  0.00     0.121 C 
HETATM   10  N2  UNL     1       3.295  12.965  46.513  1.00  0.00    -0.380 N 
ATOM     11  H2  UNL     1       2.581  12.871  47.236  1.00  0.00     0.160 HD
ENDROOT
TORSDOF 0
ENDMDL
MODEL 3
REMARK VINA RESULT: -4.708399889      2.440      3.271
REMARK  0 active torsions:
REMARK  status: ('A' for Active; 'I' for Inactive)
ROOT
HETATM    1  N1  UNL     1       1.921  15.498  44.902  1.00  0.00    -0.389 N 
ATOM      2  H11 UNL     1       1.762  15.704  45.888  1.00  0.00     0.157 HD
ATOM      3  H12 UNL     1       1.501  16.004  44.121  1.00  0.00     0.157 HD
HETATM    4  C1  UNL     1       2.705  14.535  44.608  1.00  0.00     0.070 C 
HETATM    5  C2  UNL     1       2.938  14.235  43.172  1.00  0.00     0.075 C 
HETATM    6  C3  UNL     1       4.397  14.092  42.945  1.00  0.00     0.007 C 
HETATM    7  C4  UNL     1       5.023  12.858  43.458  1.00  0.00     0.002 C 
HETATM    8  C5  UNL     1       4.179  11.991  44.323  1.00  0.00     0.020 C 
HETATM    9  C6  UNL     1       3.879  12.531  45.685  1.00  0.00     0.121 C 
HETATM   10  N2  UNL     1       3.290  13.831  45.695  1.00  0.00    -0.380 N 
ATOM     11  H2  UNL     1       3.289  14.315  46.593  1.00  0.00     0.160 HD
ENDROOT
TORSDOF 0
ENDMDL
MODEL 4
REMARK VINA RESULT: -4.702401175      1.777      2.618
REMARK  0 active torsions:
REMARK  status: ('A' for Active; 'I' for Inactive)
ROOT
HETATM    1  N1  UNL     1       3.177  12.381  47.127  1.00  0.00    -0.389 N 
ATOM      2  H11 UNL     1       2.373  12.770  47.621  1.00  0.00     0.157 HD
ATOM      3  H12 UNL     1       3.779  11.638  47.482  1.00  0.00     0.157 HD
HETATM    4  C1  UNL     1       3.461  12.852  45.976  1.00  0.00     0.070 C 
HETATM    5  C2  UNL     1       4.631  12.286  45.258  1.00  0.00     0.075 C 
HETATM    6  C3  UNL     1       4.231  11.979  43.862  1.00  0.00     0.007 C 
HETATM    7  C4  UNL     1       4.050  13.135  42.963  1.00  0.00     0.002 C 
HETATM    8  C5  UNL     1       4.081  14.482  43.593  1.00  0.00     0.020 C 
HETATM    9  C6  UNL     1       2.902  14.826  44.445  1.00  0.00     0.121 C 
HETATM   10  N2  UNL     1       2.622  13.886  45.483  1.00  0.00    -0.380 N 
ATOM     11  H2  UNL     1       1.706  13.968  45.924  1.00  0.00     0.160 HD
ENDROOT
TORSDOF 0
ENDMDL
MODEL 5
REMARK VINA RESULT: -4.623913048      1.721      2.807
REMARK  0 active torsions:
REMARK  status: ('A' for Active; 'I' for Inactive)
ROOT
HETATM    1  N1  UNL     1       4.363  11.988  47.314  1.00  0.00    -0.389 N 
ATOM      2  H11 UNL     1       4.353  11.611  48.262  1.00  0.00     0.157 HD
ATOM      3  H12 UNL     1       3.869  12.828  47.011  1.00  0.00     0.157 HD
HETATM    4  C1  UNL     1       5.044  11.371  46.429  1.00  0.00     0.070 C 
HETATM    5  C2  UNL     1       5.059  11.919  45.049  1.00  0.00     0.075 C 
HETATM    6  C3  UNL     1       6.463  11.968  44.571  1.00  0.00     0.007 C 
HETATM    7  C4  UNL     1       7.083  10.675  44.224  1.00  0.00     0.002 C 
HETATM    8  C5  UNL     1       6.319   9.450  44.582  1.00  0.00     0.020 C 
HETATM    9  C6  UNL     1       6.241   9.140  46.043  1.00  0.00     0.121 C 
HETATM   10  N2  UNL     1       5.732  10.202  46.851  1.00  0.00    -0.380 N 
ATOM     11  H2  UNL     1       5.882  10.110  47.856  1.00  0.00     0.160 HD
ENDROOT
TORSDOF 0
ENDMDL
