MODEL 1
REMARK VINA RESULT: -5.194415993      0.000      0.000
REMARK  0 active torsions:
REMARK  status: ('A' for Active; 'I' for Inactive)
ROOT
HETATM    1  C1  UNL     1       3.883  12.811  44.801  1.00  0.00     0.002 C 
HETATM    2  C2  UNL     1       3.159  14.073  45.288  1.00  0.00     0.002 C 
HETATM    3  C3  UNL     1       2.527  14.520  43.964  1.00  0.00     0.028 C 
HETATM    4  C4  UNL     1       3.661  14.344  42.998  1.00  0.00     0.048 C 
HETATM    5  C5  UNL     1       4.642  13.383  43.607  1.00  0.00     0.028 C 
HETATM    6  C6  UNL     1       3.152  13.798  41.696  1.00  0.00     0.045 C 
HETATM    7  C7  UNL     1       3.632  14.818  40.701  1.00  0.00     0.132 C 
HETATM    8  N1  UNL     1       4.358  15.824  41.399  1.00  0.00    -0.148 NA
HETATM    9  N2  UNL     1       4.254  15.622  42.750  1.00  0.00    -0.138 NA
ENDROOT
TORSDOF 0
ENDMDL
MODEL 2
REMARK VINA RESULT: -4.954693659      1.343      3.038
REMARK  0 active torsions:
REMARK  status: ('A' for Active; 'I' for Inactive)
ROOT
HETATM    1  C1  UNL     1       3.480  13.054  41.930  1.00  0.00     0.002 C 
HETATM    2  C2  UNL     1       4.940  13.150  42.390  1.00  0.00     0.002 C 
HETATM    3  C3  UNL     1       4.710  13.512  43.863  1.00  0.00     0.028 C 
HETATM    4  C4  UNL     1       3.635  14.553  43.768  1.00  0.00     0.048 C 
HETATM    5  C5  UNL     1       2.950  14.391  42.440  1.00  0.00     0.028 C 
HETATM    6  C6  UNL     1       2.642  14.376  44.879  1.00  0.00     0.045 C 
HETATM    7  C7  UNL     1       2.654  15.722  45.550  1.00  0.00     0.132 C 
HETATM    8  N1  UNL     1       3.561  16.568  44.850  1.00  0.00    -0.148 NA
HETATM    9  N2  UNL     1       4.235  15.845  43.902  1.00  0.00    -0.138 NA
ENDROOT
TORSDOF 0
ENDMDL
MODEL 3
REMARK VINA RESULT: -4.773023143      4.234      5.579
REMARK  0 active torsions:
REMARK  status: ('A' for Active; 'I' for Inactive)
ROOT
HETATM    1  C1  UNL     1       4.800  11.632  42.737  1.00  0.00     0.002 C 
HETATM    2  C2  UNL     1       5.352  12.803  43.559  1.00  0.00     0.002 C 
HETATM    3  C3  UNL     1       6.584  12.120  44.165  1.00  0.00     0.028 C 
HETATM    4  C4  UNL     1       6.032  10.791  44.588  1.00  0.00     0.048 C 
HETATM    5  C5  UNL     1       4.772  10.544  43.807  1.00  0.00     0.028 C 
HETATM    6  C6  UNL     1       7.027   9.704  44.309  1.00  0.00     0.045 C 
HETATM    7  C7  UNL     1       7.203   9.062  45.658  1.00  0.00     0.132 C 
HETATM    8  N1  UNL     1       6.358   9.731  46.589  1.00  0.00    -0.148 NA
HETATM    9  N2  UNL     1       5.784  10.825  45.997  1.00  0.00    -0.138 NA
ENDROOT
TORSDOF 0
ENDMDL
MODEL 4
REMARK VINA RESULT: -4.757548276      2.329      3.887
REMARK  0 active torsions:
REMARK  status: ('A' for Active; 'I' for Inactive)
ROOT
HETATM    1  C1  UNL     1       3.151  14.067  42.542  1.00  0.00     0.002 C 
HETATM    2  C2  UNL     1       3.899  13.305  41.441  1.00  0.00     0.002 C 
HETATM    3  C3  UNL     1       4.261  12.036  42.222  1.00  0.00     0.028 C 
HETATM    4  C4  UNL     1       4.734  12.595  43.531  1.00  0.00     0.048 C 
HETATM    5  C5  UNL     1       4.177  13.984  43.669  1.00  0.00     0.028 C 
HETATM    6  C6  UNL     1       4.253  11.737  44.665  1.00  0.00     0.045 C 
HETATM    7  C7  UNL     1       5.531  11.376  45.371  1.00  0.00     0.132 C 
HETATM    8  N1  UNL     1       6.615  12.001  44.690  1.00  0.00    -0.148 NA
HETATM    9  N2  UNL     1       6.164  12.594  43.541  1.00  0.00    -0.138 NA
ENDROOT
TORSDOF 0
ENDMDL
MODEL 5
REMARK VINA RESULT: -4.753541737      4.112      5.121
REMARK  0 active torsions:
REMARK  status: ('A' for Active; 'I' for Inactive)
ROOT
HETATM    1  C1  UNL     1       7.059  11.428  43.610  1.00  0.00     0.002 C 
HETATM    2  C2  UNL     1       6.873   9.992  44.115  1.00  0.00     0.002 C 
HETATM    3  C3  UNL     1       5.402  10.069  44.539  1.00  0.00     0.028 C 
HETATM    4  C4  UNL     1       5.349  11.383  45.261  1.00  0.00     0.048 C 
HETATM    5  C5  UNL     1       6.524  12.205  44.810  1.00  0.00     0.028 C 
HETATM    6  C6  UNL     1       4.071  12.100  44.940  1.00  0.00     0.045 C 
HETATM    7  C7  UNL     1       3.475  12.338  46.300  1.00  0.00     0.132 C 
HETATM    8  N1  UNL     1       4.365  11.813  47.281  1.00  0.00    -0.148 NA
HETATM    9  N2  UNL     1       5.385  11.134  46.669  1.00  0.00    -0.138 NA
ENDROOT
TORSDOF 0
ENDMDL
