MODEL 1
REMARK VINA RESULT: -3.588929165      0.000      0.000
REMARK  1 active torsions:
REMARK  status: ('A' for Active; 'I' for Inactive)
REMARK    1  A    between atoms: O1_1  and  C1_3 
ROOT
HETATM    1  C1  UNL     1       4.647  11.757  47.027  1.00  0.00     0.183 C 
HETATM    2  C2  UNL     1       3.295  12.262  46.540  1.00  0.00     0.069 C 
HETATM    3  C3  UNL     1       3.522  13.565  45.862  1.00  0.00     0.172 C 
HETATM    4  O2  UNL     1       4.061  13.546  44.642  1.00  0.00    -0.381 OA
HETATM    5  C4  UNL     1       4.948  12.624  44.263  1.00  0.00     0.244 C 
HETATM    6  S1  UNL     1       5.576  11.488  45.476  1.00  0.00    -0.112 SA
ENDROOT
BRANCH   1   7
HETATM    7  O1  UNL     1       5.337  12.760  47.717  1.00  0.00    -0.385 OA
ATOM      8  H1  UNL     1       4.799  13.130  48.407  1.00  0.00     0.211 HD
ENDBRANCH   1   7
TORSDOF 1
ENDMDL
MODEL 2
REMARK VINA RESULT: -3.505024011      9.533     10.235
REMARK  1 active torsions:
REMARK  status: ('A' for Active; 'I' for Inactive)
REMARK    1  A    between atoms: O1_1  and  C1_3 
ROOT
HETATM    1  C1  UNL     1      10.018   6.488  42.316  1.00  0.00     0.183 C 
HETATM    2  C2  UNL     1      10.617   7.230  41.128  1.00  0.00     0.069 C 
HETATM    3  C3  UNL     1      11.331   6.231  40.291  1.00  0.00     0.172 C 
HETATM    4  O2  UNL     1      10.596   5.417  39.532  1.00  0.00    -0.381 OA
HETATM    5  C4  UNL     1       9.388   4.988  39.901  1.00  0.00     0.244 C 
HETATM    6  S1  UNL     1       8.806   5.362  41.536  1.00  0.00    -0.112 SA
ENDROOT
BRANCH   1   7
HETATM    7  O1  UNL     1      10.971   5.663  42.924  1.00  0.00    -0.385 OA
ATOM      8  H1  UNL     1      10.658   5.341  43.761  1.00  0.00     0.211 HD
ENDBRANCH   1   7
TORSDOF 1
ENDMDL
MODEL 3
REMARK VINA RESULT: -3.433209861      7.876      8.497
REMARK  1 active torsions:
REMARK  status: ('A' for Active; 'I' for Inactive)
REMARK    1  A    between atoms: O1_1  and  C1_3 
ROOT
HETATM    1  C1  UNL     1       7.298   6.136  41.867  1.00  0.00     0.183 C 
HETATM    2  C2  UNL     1       7.568   7.241  42.880  1.00  0.00     0.069 C 
HETATM    3  C3  UNL     1       8.357   6.646  43.990  1.00  0.00     0.172 C 
HETATM    4  O2  UNL     1       9.649   6.399  43.773  1.00  0.00    -0.381 OA
HETATM    5  C4  UNL     1      10.121   6.040  42.577  1.00  0.00     0.244 C 
HETATM    6  S1  UNL     1       8.970   5.701  41.268  1.00  0.00    -0.112 SA
ENDROOT
BRANCH   1   7
HETATM    7  O1  UNL     1       6.806   4.988  42.497  1.00  0.00    -0.385 OA
ATOM      8  H1  UNL     1       6.876   4.231  41.927  1.00  0.00     0.211 HD
ENDBRANCH   1   7
TORSDOF 1
ENDMDL
MODEL 4
REMARK VINA RESULT: -3.422679893      7.747      8.276
REMARK  1 active torsions:
REMARK  status: ('A' for Active; 'I' for Inactive)
REMARK    1  A    between atoms: O1_1  and  C1_3 
ROOT
HETATM    1  C1  UNL     1      10.048   5.824  42.343  1.00  0.00     0.183 C 
HETATM    2  C2  UNL     1       8.662   5.617  42.940  1.00  0.00     0.069 C 
HETATM    3  C3  UNL     1       8.393   6.759  43.852  1.00  0.00     0.172 C 
HETATM    4  O2  UNL     1       8.086   7.935  43.304  1.00  0.00    -0.381 OA
HETATM    5  C4  UNL     1       8.592   8.337  42.136  1.00  0.00     0.244 C 
HETATM    6  S1  UNL     1       9.859   7.358  41.368  1.00  0.00    -0.112 SA
ENDROOT
BRANCH   1   7
HETATM    7  O1  UNL     1      10.984   6.117  43.341  1.00  0.00    -0.385 OA
ATOM      8  H1  UNL     1      10.761   6.924  43.790  1.00  0.00     0.211 HD
ENDBRANCH   1   7
TORSDOF 1
ENDMDL
MODEL 5
REMARK VINA RESULT: -3.411786217      6.653      6.997
REMARK  1 active torsions:
REMARK  status: ('A' for Active; 'I' for Inactive)
REMARK    1  A    between atoms: O1_1  and  C1_3 
ROOT
HETATM    1  C1  UNL     1       8.310   6.001  44.370  1.00  0.00     0.183 C 
HETATM    2  C2  UNL     1       7.103   6.917  44.209  1.00  0.00     0.069 C 
HETATM    3  C3  UNL     1       7.609   8.311  44.123  1.00  0.00     0.172 C 
HETATM    4  O2  UNL     1       8.176   8.698  42.979  1.00  0.00    -0.381 OA
HETATM    5  C4  UNL     1       8.874   7.865  42.205  1.00  0.00     0.244 C 
HETATM    6  S1  UNL     1       9.220   6.228  42.802  1.00  0.00    -0.112 SA
ENDROOT
BRANCH   1   7
HETATM    7  O1  UNL     1       9.161   6.468  45.378  1.00  0.00    -0.385 OA
ATOM      8  H1  UNL     1       9.641   7.235  45.090  1.00  0.00     0.211 HD
ENDBRANCH   1   7
TORSDOF 1
ENDMDL
