MODEL 1
REMARK VINA RESULT: -3.240892449      0.000      0.000
REMARK  1 active torsions:
REMARK  status: ('A' for Active; 'I' for Inactive)
REMARK    1  A    between atoms: O1_1  and  C1_3 
ROOT
HETATM    1  C1  UNL     1      10.120   6.045  42.204  1.00  0.00     0.138 C 
HETATM    2  C2  UNL     1      10.952   5.284  41.202  1.00  0.00     0.118 C 
HETATM    3  S1  UNL     1       9.821   4.991  39.777  1.00  0.00    -0.095 SA
HETATM    4  S2  UNL     1       8.008   5.097  40.956  1.00  0.00    -0.095 SA
HETATM    5  C3  UNL     1       8.920   5.216  42.555  1.00  0.00     0.118 C 
ENDROOT
BRANCH   1   6
HETATM    6  O1  UNL     1      10.897   6.165  43.355  1.00  0.00    -0.394 OA
ATOM      7  H1  UNL     1      10.535   5.559  43.990  1.00  0.00     0.210 HD
ENDBRANCH   1   6
TORSDOF 1
ENDMDL
MODEL 2
REMARK VINA RESULT: -3.190599004      2.980      3.605
REMARK  1 active torsions:
REMARK  status: ('A' for Active; 'I' for Inactive)
REMARK    1  A    between atoms: O1_1  and  C1_3 
ROOT
HETATM    1  C1  UNL     1       8.689   6.772  44.603  1.00  0.00     0.138 C 
HETATM    2  C2  UNL     1       8.114   5.648  43.777  1.00  0.00     0.118 C 
HETATM    3  S1  UNL     1       7.353   6.478  42.319  1.00  0.00    -0.095 SA
HETATM    4  S2  UNL     1       7.031   8.366  43.328  1.00  0.00    -0.095 SA
HETATM    5  C3  UNL     1       7.579   7.714  44.965  1.00  0.00     0.118 C 
ENDROOT
BRANCH   1   6
HETATM    6  O1  UNL     1       9.153   6.198  45.786  1.00  0.00    -0.394 OA
ATOM      7  H1  UNL     1       9.756   6.822  46.171  1.00  0.00     0.210 HD
ENDBRANCH   1   6
TORSDOF 1
ENDMDL
MODEL 3
REMARK VINA RESULT: -3.183631391      1.128      1.881
REMARK  1 active torsions:
REMARK  status: ('A' for Active; 'I' for Inactive)
REMARK    1  A    between atoms: O1_1  and  C1_3 
ROOT
HETATM    1  C1  UNL     1      10.188   5.971  42.212  1.00  0.00     0.138 C 
HETATM    2  C2  UNL     1       9.956   7.330  41.599  1.00  0.00     0.118 C 
HETATM    3  S1  UNL     1       9.143   6.983  39.982  1.00  0.00    -0.095 SA
HETATM    4  S2  UNL     1       9.976   4.995  39.780  1.00  0.00    -0.095 SA
HETATM    5  C3  UNL     1      11.041   5.165  41.277  1.00  0.00     0.118 C 
ENDROOT
BRANCH   1   6
HETATM    6  O1  UNL     1      10.928   6.182  43.375  1.00  0.00    -0.394 OA
ATOM      7  H1  UNL     1      10.932   5.357  43.846  1.00  0.00     0.210 HD
ENDBRANCH   1   6
TORSDOF 1
ENDMDL
MODEL 4
REMARK VINA RESULT: -3.139165957      9.660     10.248
REMARK  1 active torsions:
REMARK  status: ('A' for Active; 'I' for Inactive)
REMARK    1  A    between atoms: O1_1  and  C1_3 
ROOT
HETATM    1  C1  UNL     1       3.668  12.400  46.254  1.00  0.00     0.138 C 
HETATM    2  C2  UNL     1       3.534  13.854  45.871  1.00  0.00     0.118 C 
HETATM    3  S1  UNL     1       3.814  13.887  44.050  1.00  0.00    -0.095 SA
HETATM    4  S2  UNL     1       5.006  12.080  44.012  1.00  0.00    -0.095 SA
HETATM    5  C3  UNL     1       5.033  11.925  45.851  1.00  0.00     0.118 C 
ENDROOT
BRANCH   1   6
HETATM    6  O1  UNL     1       3.602  12.350  47.646  1.00  0.00    -0.394 OA
ATOM      7  H1  UNL     1       4.463  12.592  47.966  1.00  0.00     0.210 HD
ENDBRANCH   1   6
TORSDOF 1
ENDMDL
MODEL 5
REMARK VINA RESULT: -3.110961270      3.275      4.124
REMARK  1 active torsions:
REMARK  status: ('A' for Active; 'I' for Inactive)
REMARK    1  A    between atoms: O1_1  and  C1_3 
ROOT
HETATM    1  C1  UNL     1       8.220   6.703  44.816  1.00  0.00     0.138 C 
HETATM    2  C2  UNL     1       7.759   8.101  45.146  1.00  0.00     0.118 C 
HETATM    3  S1  UNL     1       6.566   8.530  43.810  1.00  0.00    -0.095 SA
HETATM    4  S2  UNL     1       7.421   7.174  42.355  1.00  0.00    -0.095 SA
HETATM    5  C3  UNL     1       8.835   6.714  43.448  1.00  0.00     0.118 C 
ENDROOT
BRANCH   1   6
HETATM    6  O1  UNL     1       9.230   6.393  45.727  1.00  0.00    -0.394 OA
ATOM      7  H1  UNL     1       8.861   5.766  46.337  1.00  0.00     0.210 HD
ENDBRANCH   1   6
TORSDOF 1
ENDMDL
