MODEL 1
REMARK VINA RESULT: -2.871251674      0.000      0.000
REMARK  0 active torsions:
REMARK  status: ('A' for Active; 'I' for Inactive)
ROOT
HETATM    1  C1  UNL     1       5.726  11.123  45.590  1.00  0.00     0.307 C 
HETATM    2  N1  UNL     1       5.361  11.971  46.678  1.00  0.00    -0.059 N 
ATOM      3  H11 UNL     1       5.893  12.841  46.657  1.00  0.00     0.278 HD
ATOM      4  H12 UNL     1       5.697  11.592  47.564  1.00  0.00     0.278 HD
HETATM    5  C2  UNL     1       3.950  12.230  46.731  1.00  0.00     0.307 C 
HETATM    6  S1  UNL     1       3.639  13.560  45.513  1.00  0.00    -0.132 SA
HETATM    7  C3  UNL     1       4.236  12.938  43.902  1.00  0.00     0.151 C 
HETATM    8  S2  UNL     1       5.917  12.228  44.131  1.00  0.00    -0.132 SA
ENDROOT
TORSDOF 0
ENDMDL
MODEL 2
REMARK VINA RESULT: -2.854256117      1.776      2.126
REMARK  0 active torsions:
REMARK  status: ('A' for Active; 'I' for Inactive)
ROOT
HETATM    1  C1  UNL     1       3.749  12.471  46.566  1.00  0.00     0.307 C 
HETATM    2  N1  UNL     1       3.761  13.888  46.396  1.00  0.00    -0.059 N 
ATOM      3  H11 UNL     1       4.716  14.246  46.378  1.00  0.00     0.278 HD
ATOM      4  H12 UNL     1       3.424  14.359  47.236  1.00  0.00     0.278 HD
HETATM    5  C2  UNL     1       3.029  14.315  45.237  1.00  0.00     0.307 C 
HETATM    6  S1  UNL     1       4.156  14.076  43.815  1.00  0.00    -0.132 SA
HETATM    7  C3  UNL     1       4.619  12.308  43.812  1.00  0.00     0.151 C 
HETATM    8  S2  UNL     1       5.116  11.826  45.517  1.00  0.00    -0.132 SA
ENDROOT
TORSDOF 0
ENDMDL
MODEL 3
REMARK VINA RESULT: -2.788735027      2.225      2.755
REMARK  0 active torsions:
REMARK  status: ('A' for Active; 'I' for Inactive)
ROOT
HETATM    1  C1  UNL     1       4.278  14.387  43.617  1.00  0.00     0.307 C 
HETATM    2  N1  UNL     1       3.125  14.492  44.451  1.00  0.00    -0.059 N 
ATOM      3  H11 UNL     1       2.438  13.776  44.216  1.00  0.00     0.278 HD
ATOM      4  H12 UNL     1       2.582  15.325  44.220  1.00  0.00     0.278 HD
HETATM    5  C2  UNL     1       3.446  14.458  45.850  1.00  0.00     0.307 C 
HETATM    6  S1  UNL     1       3.663  12.691  46.272  1.00  0.00    -0.132 SA
HETATM    7  C3  UNL     1       4.979  12.054  45.176  1.00  0.00     0.151 C 
HETATM    8  S2  UNL     1       4.619  12.586  43.452  1.00  0.00    -0.132 SA
ENDROOT
TORSDOF 0
ENDMDL
MODEL 4
REMARK VINA RESULT: -2.741764914      8.839      9.690
REMARK  0 active torsions:
REMARK  status: ('A' for Active; 'I' for Inactive)
ROOT
HETATM    1  C1  UNL     1      10.274   6.100  42.516  1.00  0.00     0.307 C 
HETATM    2  N1  UNL     1      10.854   4.988  41.837  1.00  0.00    -0.059 N 
ATOM      3  H11 UNL     1      10.292   4.147  41.965  1.00  0.00     0.278 HD
ATOM      4  H12 UNL     1      11.713   4.685  42.298  1.00  0.00     0.278 HD
HETATM    5  C2  UNL     1      11.083   5.246  40.443  1.00  0.00     0.307 C 
HETATM    6  S1  UNL     1       9.471   4.988  39.614  1.00  0.00    -0.132 SA
HETATM    7  C3  UNL     1       8.289   6.129  40.413  1.00  0.00     0.151 C 
HETATM    8  S2  UNL     1       8.460   5.971  42.238  1.00  0.00    -0.132 SA
ENDROOT
TORSDOF 0
ENDMDL
MODEL 5
REMARK VINA RESULT: -2.738054338      1.761      2.454
REMARK  0 active torsions:
REMARK  status: ('A' for Active; 'I' for Inactive)
ROOT
HETATM    1  C1  UNL     1       5.225  11.780  45.799  1.00  0.00     0.307 C 
HETATM    2  N1  UNL     1       5.107  11.498  44.405  1.00  0.00    -0.059 N 
ATOM      3  H11 UNL     1       4.184  11.125  44.184  1.00  0.00     0.278 HD
ATOM      4  H12 UNL     1       5.677  10.692  44.146  1.00  0.00     0.278 HD
HETATM    5  C2  UNL     1       5.415  12.633  43.581  1.00  0.00     0.307 C 
HETATM    6  S1  UNL     1       3.903  13.663  43.560  1.00  0.00    -0.132 SA
HETATM    7  C3  UNL     1       3.529  14.070  45.302  1.00  0.00     0.151 C 
HETATM    8  S2  UNL     1       3.619  12.526  46.300  1.00  0.00    -0.132 SA
ENDROOT
TORSDOF 0
ENDMDL
