MODEL 1
REMARK VINA RESULT: -5.476138087      0.000      0.000
REMARK  2 active torsions:
REMARK  status: ('A' for Active; 'I' for Inactive)
REMARK    1  A    between atoms: O1_1  and  C1_3 
REMARK    2  A    between atoms: C1_3  and  C2_4 
ROOT
HETATM    1  C2  UNL     1       4.176  13.893  44.109  1.00  0.00     0.012 C 
HETATM    2  C3  UNL     1       4.064  13.597  42.643  1.00  0.00     0.010 C 
HETATM    3  C4  UNL     1       4.524  12.179  42.428  1.00  0.00     0.042 C 
HETATM    4  C5  UNL     1       5.080  11.778  43.754  1.00  0.00     0.099 C 
HETATM    5  C6  UNL     1       5.177  10.316  43.980  1.00  0.00     0.070 C 
HETATM    6  C7  UNL     1       6.672  10.074  43.758  1.00  0.00     0.213 C 
HETATM    7  O2  UNL     1       7.096  11.322  43.277  1.00  0.00    -0.240 OA
HETATM    8  O3  UNL     1       6.390  12.227  43.891  1.00  0.00    -0.230 OA
HETATM    9  C8  UNL     1       4.188  12.503  44.723  1.00  0.00     0.048 C 
ENDROOT
BRANCH   1  10
HETATM   10  C1  UNL     1       3.027  14.722  44.625  1.00  0.00     0.168 C 
BRANCH  10  11
HETATM   11  O1  UNL     1       3.532  16.010  44.864  1.00  0.00    -0.400 OA
ATOM     12  H1  UNL     1       3.879  16.009  45.748  1.00  0.00     0.209 HD
ENDBRANCH  10  11
ENDBRANCH   1  10
TORSDOF 2
ENDMDL
MODEL 2
REMARK VINA RESULT: -5.369143764      1.811      2.370
REMARK  2 active torsions:
REMARK  status: ('A' for Active; 'I' for Inactive)
REMARK    1  A    between atoms: O1_1  and  C1_3 
REMARK    2  A    between atoms: C1_3  and  C2_4 
ROOT
HETATM    1  C2  UNL     1       4.302  13.631  41.993  1.00  0.00     0.012 C 
HETATM    2  C3  UNL     1       4.565  12.203  41.616  1.00  0.00     0.010 C 
HETATM    3  C4  UNL     1       4.655  11.405  42.891  1.00  0.00     0.042 C 
HETATM    4  C5  UNL     1       4.647  12.444  43.964  1.00  0.00     0.099 C 
HETATM    5  C6  UNL     1       4.260  11.956  45.309  1.00  0.00     0.070 C 
HETATM    6  C7  UNL     1       5.622  11.862  46.001  1.00  0.00     0.213 C 
HETATM    7  O2  UNL     1       6.502  12.103  44.935  1.00  0.00    -0.240 OA
HETATM    8  O3  UNL     1       5.923  12.965  44.150  1.00  0.00    -0.230 OA
HETATM    9  C8  UNL     1       3.740  13.501  43.398  1.00  0.00     0.048 C 
ENDROOT
BRANCH   1  10
HETATM   10  C1  UNL     1       3.329  14.308  41.061  1.00  0.00     0.168 C 
BRANCH  10  11
HETATM   11  O1  UNL     1       3.882  15.557  40.735  1.00  0.00    -0.400 OA
ATOM     12  H1  UNL     1       4.657  15.386  40.213  1.00  0.00     0.209 HD
ENDBRANCH  10  11
ENDBRANCH   1  10
TORSDOF 2
ENDMDL
MODEL 3
REMARK VINA RESULT: -5.292238672      1.463      2.064
REMARK  2 active torsions:
REMARK  status: ('A' for Active; 'I' for Inactive)
REMARK    1  A    between atoms: O1_1  and  C1_3 
REMARK    2  A    between atoms: C1_3  and  C2_4 
ROOT
HETATM    1  C2  UNL     1       3.544  13.340  45.043  1.00  0.00     0.012 C 
HETATM    2  C3  UNL     1       4.010  12.683  46.309  1.00  0.00     0.010 C 
HETATM    3  C4  UNL     1       5.294  11.959  46.000  1.00  0.00     0.042 C 
HETATM    4  C5  UNL     1       5.410  12.054  44.514  1.00  0.00     0.099 C 
HETATM    5  C6  UNL     1       6.775  11.848  43.975  1.00  0.00     0.070 C 
HETATM    6  C7  UNL     1       6.679  10.414  43.448  1.00  0.00     0.213 C 
HETATM    7  O2  UNL     1       5.424  10.015  43.932  1.00  0.00    -0.240 OA
HETATM    8  O3  UNL     1       4.652  11.063  43.900  1.00  0.00    -0.230 OA
HETATM    9  C8  UNL     1       4.818  13.405  44.220  1.00  0.00     0.048 C 
ENDROOT
BRANCH   1  10
HETATM   10  C1  UNL     1       2.960  14.710  45.280  1.00  0.00     0.168 C 
BRANCH  10  11
HETATM   11  O1  UNL     1       3.517  15.561  44.311  1.00  0.00    -0.400 OA
ATOM     12  H1  UNL     1       3.846  16.323  44.771  1.00  0.00     0.209 HD
ENDBRANCH  10  11
ENDBRANCH   1  10
TORSDOF 2
ENDMDL
MODEL 4
REMARK VINA RESULT: -5.287441806      1.408      1.986
REMARK  2 active torsions:
REMARK  status: ('A' for Active; 'I' for Inactive)
REMARK    1  A    between atoms: O1_1  and  C1_3 
REMARK    2  A    between atoms: C1_3  and  C2_4 
ROOT
HETATM    1  C2  UNL     1       3.931  12.995  43.637  1.00  0.00     0.012 C 
HETATM    2  C3  UNL     1       3.954  12.968  45.137  1.00  0.00     0.010 C 
HETATM    3  C4  UNL     1       5.253  12.334  45.561  1.00  0.00     0.042 C 
HETATM    4  C5  UNL     1       5.839  11.830  44.284  1.00  0.00     0.099 C 
HETATM    5  C6  UNL     1       7.300  11.582  44.317  1.00  0.00     0.070 C 
HETATM    6  C7  UNL     1       7.346  10.057  44.443  1.00  0.00     0.213 C 
HETATM    7  O2  UNL     1       5.993   9.747  44.650  1.00  0.00    -0.240 OA
HETATM    8  O3  UNL     1       5.296  10.594  43.950  1.00  0.00    -0.230 OA
HETATM    9  C8  UNL     1       5.403  12.867  43.285  1.00  0.00     0.048 C 
ENDROOT
BRANCH   1  10
HETATM   10  C1  UNL     1       3.334  14.266  43.087  1.00  0.00     0.168 C 
BRANCH  10  11
HETATM   11  O1  UNL     1       3.059  15.094  44.187  1.00  0.00    -0.400 OA
ATOM     12  H1  UNL     1       2.300  15.616  43.955  1.00  0.00     0.209 HD
ENDBRANCH  10  11
ENDBRANCH   1  10
TORSDOF 2
ENDMDL
MODEL 5
REMARK VINA RESULT: -5.175180161      2.323      3.487
REMARK  2 active torsions:
REMARK  status: ('A' for Active; 'I' for Inactive)
REMARK    1  A    between atoms: O1_1  and  C1_3 
REMARK    2  A    between atoms: C1_3  and  C2_4 
ROOT
HETATM    1  C2  UNL     1       3.911  12.254  45.770  1.00  0.00     0.012 C 
HETATM    2  C3  UNL     1       5.335  11.969  45.398  1.00  0.00     0.010 C 
HETATM    3  C4  UNL     1       5.688  12.856  44.233  1.00  0.00     0.042 C 
HETATM    4  C5  UNL     1       4.384  13.472  43.845  1.00  0.00     0.099 C 
HETATM    5  C6  UNL     1       4.489  14.719  43.050  1.00  0.00     0.070 C 
HETATM    6  C7  UNL     1       4.180  14.208  41.641  1.00  0.00     0.213 C 
HETATM    7  O2  UNL     1       4.157  12.819  41.840  1.00  0.00    -0.240 OA
HETATM    8  O3  UNL     1       3.661  12.612  43.026  1.00  0.00    -0.230 OA
HETATM    9  C8  UNL     1       3.684  13.629  45.166  1.00  0.00     0.048 C 
ENDROOT
BRANCH   1  10
HETATM   10  C1  UNL     1       3.688  12.255  47.262  1.00  0.00     0.168 C 
BRANCH  10  11
HETATM   11  O1  UNL     1       4.929  12.536  47.856  1.00  0.00    -0.400 OA
ATOM     12  H1  UNL     1       4.785  13.247  48.470  1.00  0.00     0.209 HD
ENDBRANCH  10  11
ENDBRANCH   1  10
TORSDOF 2
ENDMDL
