MODEL 1
REMARK VINA RESULT: -4.932260972      0.000      0.000
REMARK  1 active torsions:
REMARK  status: ('A' for Active; 'I' for Inactive)
REMARK    1  A    between atoms: N1_2  and  C2_4 
ROOT
HETATM    1  C2  UNL     1       9.222   7.862  41.418  1.00  0.00     0.110 C 
HETATM    2  C3  UNL     1       8.383   7.710  42.673  1.00  0.00     0.062 C 
HETATM    3  C4  UNL     1       8.816   6.575  43.544  1.00  0.00     0.162 C 
HETATM    4  C5  UNL     1       8.170   5.312  43.044  1.00  0.00     0.035 C 
HETATM    5  C6  UNL     1       8.474   5.201  41.577  1.00  0.00     0.005 C 
HETATM    6  C7  UNL     1       9.898   5.485  41.226  1.00  0.00     0.037 C 
HETATM    7  C8  UNL     1      10.347   6.887  41.508  1.00  0.00     0.182 C 
HETATM    8  O1  UNL     1      10.899   6.980  42.772  1.00  0.00    -0.233 OA
HETATM    9  O2  UNL     1      10.176   6.468  43.719  1.00  0.00    -0.235 OA
ENDROOT
BRANCH   1  10
HETATM   10  N1  UNL     1       9.580   9.232  41.316  1.00  0.00    -0.419 N 
HETATM   11  C1  UNL     1      10.634   9.568  40.422  1.00  0.00     0.140 C 
ATOM     12  H1  UNL     1       9.101   9.947  41.863  1.00  0.00     0.153 HD
ENDBRANCH   1  10
TORSDOF 1
ENDMDL
MODEL 2
REMARK VINA RESULT: -4.923029203      1.186      1.498
REMARK  1 active torsions:
REMARK  status: ('A' for Active; 'I' for Inactive)
REMARK    1  A    between atoms: N1_2  and  C2_4 
ROOT
HETATM    1  C2  UNL     1       8.945   7.488  41.948  1.00  0.00     0.110 C 
HETATM    2  C3  UNL     1       8.065   8.143  42.997  1.00  0.00     0.062 C 
HETATM    3  C4  UNL     1       7.872   7.306  44.220  1.00  0.00     0.162 C 
HETATM    4  C5  UNL     1       6.741   6.346  43.972  1.00  0.00     0.035 C 
HETATM    5  C6  UNL     1       7.037   5.622  42.689  1.00  0.00     0.005 C 
HETATM    6  C7  UNL     1       8.446   5.141  42.571  1.00  0.00     0.037 C 
HETATM    7  C8  UNL     1       9.480   6.225  42.536  1.00  0.00     0.182 C 
HETATM    8  O1  UNL     1       9.943   6.503  43.809  1.00  0.00    -0.233 OA
HETATM    9  O2  UNL     1       9.015   6.702  44.693  1.00  0.00    -0.235 OA
ENDROOT
BRANCH   1  10
HETATM   10  N1  UNL     1       9.904   8.452  41.544  1.00  0.00    -0.419 N 
HETATM   11  C1  UNL     1      11.049   7.983  40.842  1.00  0.00     0.140 C 
ATOM     12  H1  UNL     1       9.778   9.443  41.748  1.00  0.00     0.153 HD
ENDBRANCH   1  10
TORSDOF 1
ENDMDL
MODEL 3
REMARK VINA RESULT: -4.850777812      1.944      2.894
REMARK  1 active torsions:
REMARK  status: ('A' for Active; 'I' for Inactive)
REMARK    1  A    between atoms: N1_2  and  C2_4 
ROOT
HETATM    1  C2  UNL     1       9.479   5.471  41.778  1.00  0.00     0.110 C 
HETATM    2  C3  UNL     1       9.613   6.961  41.524  1.00  0.00     0.062 C 
HETATM    3  C4  UNL     1       8.767   7.797  42.429  1.00  0.00     0.162 C 
HETATM    4  C5  UNL     1       7.384   7.893  41.843  1.00  0.00     0.035 C 
HETATM    5  C6  UNL     1       6.913   6.493  41.569  1.00  0.00     0.005 C 
HETATM    6  C7  UNL     1       7.173   5.533  42.685  1.00  0.00     0.037 C 
HETATM    7  C8  UNL     1       8.621   5.296  42.986  1.00  0.00     0.182 C 
HETATM    8  O1  UNL     1       9.068   6.168  43.963  1.00  0.00    -0.233 OA
HETATM    9  O2  UNL     1       8.781   7.415  43.750  1.00  0.00    -0.235 OA
ENDROOT
BRANCH   1  10
HETATM   10  N1  UNL     1      10.792   4.939  41.854  1.00  0.00    -0.419 N 
HETATM   11  C1  UNL     1      11.607   5.037  40.693  1.00  0.00     0.140 C 
ATOM     12  H1  UNL     1      11.138   4.503  42.709  1.00  0.00     0.153 HD
ENDBRANCH   1  10
TORSDOF 1
ENDMDL
MODEL 4
REMARK VINA RESULT: -4.803517664      5.290      6.300
REMARK  1 active torsions:
REMARK  status: ('A' for Active; 'I' for Inactive)
REMARK    1  A    between atoms: N1_2  and  C2_4 
ROOT
HETATM    1  C2  UNL     1       5.365  11.948  43.760  1.00  0.00     0.110 C 
HETATM    2  C3  UNL     1       5.054  10.466  43.854  1.00  0.00     0.062 C 
HETATM    3  C4  UNL     1       6.035   9.703  44.685  1.00  0.00     0.162 C 
HETATM    4  C5  UNL     1       7.210   9.331  43.822  1.00  0.00     0.035 C 
HETATM    5  C6  UNL     1       7.703  10.589  43.166  1.00  0.00     0.005 C 
HETATM    6  C7  UNL     1       7.814  11.757  44.091  1.00  0.00     0.037 C 
HETATM    7  C8  UNL     1       6.513  12.225  44.671  1.00  0.00     0.182 C 
HETATM    8  O1  UNL     1       6.264  11.605  45.881  1.00  0.00    -0.233 OA
HETATM    9  O2  UNL     1       6.389  10.314  45.866  1.00  0.00    -0.235 OA
ENDROOT
BRANCH   1  10
HETATM   10  N1  UNL     1       4.160  12.647  44.034  1.00  0.00    -0.419 N 
HETATM   11  C1  UNL     1       3.715  13.588  43.065  1.00  0.00     0.140 C 
ATOM     12  H1  UNL     1       3.634  12.481  44.892  1.00  0.00     0.153 HD
ENDBRANCH   1  10
TORSDOF 1
ENDMDL
MODEL 5
REMARK VINA RESULT: -4.791619453      1.251      1.390
REMARK  1 active torsions:
REMARK  status: ('A' for Active; 'I' for Inactive)
REMARK    1  A    between atoms: N1_2  and  C2_4 
ROOT
HETATM    1  C2  UNL     1      10.542   7.342  40.767  1.00  0.00     0.110 C 
HETATM    2  C3  UNL     1       9.648   7.412  41.991  1.00  0.00     0.062 C 
HETATM    3  C4  UNL     1       9.493   6.101  42.691  1.00  0.00     0.162 C 
HETATM    4  C5  UNL     1       8.394   5.324  42.019  1.00  0.00     0.035 C 
HETATM    5  C6  UNL     1       8.705   5.281  40.550  1.00  0.00     0.005 C 
HETATM    6  C7  UNL     1      10.130   4.956  40.238  1.00  0.00     0.037 C 
HETATM    7  C8  UNL     1      11.125   5.970  40.714  1.00  0.00     0.182 C 
HETATM    8  O1  UNL     1      11.587   5.648  41.977  1.00  0.00    -0.233 OA
HETATM    9  O2  UNL     1      10.659   5.387  42.845  1.00  0.00    -0.235 OA
ENDROOT
BRANCH   1  10
HETATM   10  N1  UNL     1      11.465   8.416  40.859  1.00  0.00    -0.419 N 
HETATM   11  C1  UNL     1      11.028   9.695  40.415  1.00  0.00     0.140 C 
ATOM     12  H1  UNL     1      12.405   8.277  41.230  1.00  0.00     0.153 HD
ENDBRANCH   1  10
TORSDOF 1
ENDMDL
