MODEL 1
REMARK VINA RESULT: -4.542384196      0.000      0.000
REMARK  2 active torsions:
REMARK  status: ('A' for Active; 'I' for Inactive)
REMARK    1  A    between atoms: C2_2  and  C3_3 
REMARK    2  A    between atoms: N1_9  and  N2_10 
ROOT
HETATM    1  C3  UNL     1       3.808  12.709  45.116  1.00  0.00     0.112 C 
HETATM    2  C4  UNL     1       3.771  13.603  43.904  1.00  0.00     0.103 C 
HETATM    3  S1  UNL     1       5.037  12.771  42.859  1.00  0.00    -0.135 SA
HETATM    4  C5  UNL     1       5.669  11.641  44.163  1.00  0.00     0.088 C 
HETATM    5  C6  UNL     1       7.174  11.798  44.299  1.00  0.00     0.052 C 
HETATM    6  C7  UNL     1       5.375  10.222  43.815  1.00  0.00     0.052 C 
HETATM    7  N1  UNL     1       5.049  12.152  45.309  1.00  0.00    -0.309 N 
ENDROOT
BRANCH   7   8
HETATM    8  N2  UNL     1       5.605  12.017  46.505  1.00  0.00    -0.345 N 
ATOM      9  H22 UNL     1       6.217  11.228  46.715  1.00  0.00     0.176 HD
ATOM     10  H21 UNL     1       5.406  12.642  47.287  1.00  0.00     0.176 HD
ENDBRANCH   7   8
BRANCH   1  11
HETATM   11  C2  UNL     1       3.420  13.564  46.315  1.00  0.00     0.023 C 
HETATM   12  C1  UNL     1       2.926  14.916  45.916  1.00  0.00     0.007 C 
ENDBRANCH   1  11
TORSDOF 2
ENDMDL
MODEL 2
REMARK VINA RESULT: -4.443761634      2.405      2.932
REMARK  2 active torsions:
REMARK  status: ('A' for Active; 'I' for Inactive)
REMARK    1  A    between atoms: C2_2  and  C3_3 
REMARK    2  A    between atoms: N1_9  and  N2_10 
ROOT
HETATM    1  C3  UNL     1       5.621  11.077  45.300  1.00  0.00     0.112 C 
HETATM    2  C4  UNL     1       6.576  11.608  44.262  1.00  0.00     0.103 C 
HETATM    3  S1  UNL     1       7.549  10.084  43.918  1.00  0.00    -0.135 SA
HETATM    4  C5  UNL     1       6.875   9.092  45.311  1.00  0.00     0.088 C 
HETATM    5  C6  UNL     1       8.013   8.555  46.162  1.00  0.00     0.052 C 
HETATM    6  C7  UNL     1       6.087   7.936  44.797  1.00  0.00     0.052 C 
HETATM    7  N1  UNL     1       6.175  10.060  46.040  1.00  0.00    -0.309 N 
ENDROOT
BRANCH   7   8
HETATM    8  N2  UNL     1       5.998   9.936  47.348  1.00  0.00    -0.345 N 
ATOM      9  H22 UNL     1       5.181   9.456  47.725  1.00  0.00     0.176 HD
ATOM     10  H21 UNL     1       6.618  10.362  48.037  1.00  0.00     0.176 HD
ENDBRANCH   7   8
BRANCH   1  11
HETATM   11  C2  UNL     1       5.245  12.244  46.202  1.00  0.00     0.023 C 
HETATM   12  C1  UNL     1       3.791  12.579  46.124  1.00  0.00     0.007 C 
ENDBRANCH   1  11
TORSDOF 2
ENDMDL
MODEL 3
REMARK VINA RESULT: -4.309749898      1.865      2.595
REMARK  2 active torsions:
REMARK  status: ('A' for Active; 'I' for Inactive)
REMARK    1  A    between atoms: C2_2  and  C3_3 
REMARK    2  A    between atoms: N1_9  and  N2_10 
ROOT
HETATM    1  C3  UNL     1       4.949  12.990  44.093  1.00  0.00     0.112 C 
HETATM    2  C4  UNL     1       4.603  12.534  45.487  1.00  0.00     0.103 C 
HETATM    3  S1  UNL     1       5.799  11.148  45.673  1.00  0.00    -0.135 SA
HETATM    4  C5  UNL     1       6.336  11.104  43.916  1.00  0.00     0.088 C 
HETATM    5  C6  UNL     1       6.163   9.702  43.357  1.00  0.00     0.052 C 
HETATM    6  C7  UNL     1       7.773  11.482  43.798  1.00  0.00     0.052 C 
HETATM    7  N1  UNL     1       5.406  11.957  43.311  1.00  0.00    -0.309 N 
ENDROOT
BRANCH   7   8
HETATM    8  N2  UNL     1       5.070  11.809  42.037  1.00  0.00    -0.345 N 
ATOM      9  H22 UNL     1       4.195  11.355  41.773  1.00  0.00     0.176 HD
ATOM     10  H21 UNL     1       5.682  12.072  41.264  1.00  0.00     0.176 HD
ENDBRANCH   7   8
BRANCH   1  11
HETATM   11  C2  UNL     1       3.686  13.591  43.492  1.00  0.00     0.023 C 
HETATM   12  C1  UNL     1       3.084  14.644  44.363  1.00  0.00     0.007 C 
ENDBRANCH   1  11
TORSDOF 2
ENDMDL
MODEL 4
REMARK VINA RESULT: -4.235681419      6.955      8.921
REMARK  2 active torsions:
REMARK  status: ('A' for Active; 'I' for Inactive)
REMARK    1  A    between atoms: C2_2  and  C3_3 
REMARK    2  A    between atoms: N1_9  and  N2_10 
ROOT
HETATM    1  C3  UNL     1      10.365   6.081  42.680  1.00  0.00     0.112 C 
HETATM    2  C4  UNL     1      10.452   7.195  41.670  1.00  0.00     0.103 C 
HETATM    3  S1  UNL     1       8.844   8.032  41.981  1.00  0.00    -0.135 SA
HETATM    4  C5  UNL     1       8.143   6.729  43.073  1.00  0.00     0.088 C 
HETATM    5  C6  UNL     1       6.792   6.280  42.542  1.00  0.00     0.052 C 
HETATM    6  C7  UNL     1       7.954   7.251  44.456  1.00  0.00     0.052 C 
HETATM    7  N1  UNL     1       9.067   5.691  42.910  1.00  0.00    -0.309 N 
ENDROOT
BRANCH   7   8
HETATM    8  N2  UNL     1       8.706   4.424  43.057  1.00  0.00    -0.345 N 
ATOM      9  H22 UNL     1       8.500   4.040  43.979  1.00  0.00     0.176 HD
ATOM     10  H21 UNL     1       8.680   3.758  42.284  1.00  0.00     0.176 HD
ENDBRANCH   7   8
BRANCH   1  11
HETATM   11  C2  UNL     1      11.179   4.916  42.136  1.00  0.00     0.023 C 
HETATM   12  C1  UNL     1      11.647   5.151  40.737  1.00  0.00     0.007 C 
ENDBRANCH   1  11
TORSDOF 2
ENDMDL
MODEL 5
REMARK VINA RESULT: -4.181813489      1.061      1.114
REMARK  2 active torsions:
REMARK  status: ('A' for Active; 'I' for Inactive)
REMARK    1  A    between atoms: C2_2  and  C3_3 
REMARK    2  A    between atoms: N1_9  and  N2_10 
ROOT
HETATM    1  C3  UNL     1       4.234  12.172  44.476  1.00  0.00     0.112 C 
HETATM    2  C4  UNL     1       4.252  12.594  43.030  1.00  0.00     0.103 C 
HETATM    3  S1  UNL     1       5.531  11.443  42.379  1.00  0.00    -0.135 SA
HETATM    4  C5  UNL     1       6.100  10.824  44.014  1.00  0.00     0.088 C 
HETATM    5  C6  UNL     1       7.603  11.004  44.141  1.00  0.00     0.052 C 
HETATM    6  C7  UNL     1       5.787   9.375  44.164  1.00  0.00     0.052 C 
HETATM    7  N1  UNL     1       5.457  11.704  44.893  1.00  0.00    -0.309 N 
ENDROOT
BRANCH   7   8
HETATM    8  N2  UNL     1       5.974  11.983  46.081  1.00  0.00    -0.345 N 
ATOM      9  H22 UNL     1       6.471  12.858  46.246  1.00  0.00     0.176 HD
ATOM     10  H21 UNL     1       5.963  11.327  46.862  1.00  0.00     0.176 HD
ENDBRANCH   7   8
BRANCH   1  11
HETATM   11  C2  UNL     1       3.828  13.390  45.294  1.00  0.00     0.023 C 
HETATM   12  C1  UNL     1       3.260  14.482  44.448  1.00  0.00     0.007 C 
ENDBRANCH   1  11
TORSDOF 2
ENDMDL
