MODEL 1
REMARK VINA RESULT: -4.648678146      0.000      0.000
REMARK  3 active torsions:
REMARK  status: ('A' for Active; 'I' for Inactive)
REMARK    1  A    between atoms: C2_2  and  N1_3 
REMARK    2  A    between atoms: C5_9  and  N2_10 
REMARK    3  A    between atoms: N2_10  and  C6_12 
ROOT
HETATM    1  C1  UNL     1       4.831  10.735  43.859  1.00  0.00     0.046 C 
HETATM    2  C2  UNL     1       4.784  12.221  43.804  1.00  0.00     0.122 C 
HETATM    3  C3  UNL     1       4.133  12.727  42.540  1.00  0.00     0.040 C 
HETATM    4  C4  UNL     1       3.725  14.125  42.919  1.00  0.00     0.028 C 
HETATM    5  C5  UNL     1       3.878  14.271  44.396  1.00  0.00     0.084 C 
HETATM    6  C7  UNL     1       3.842  12.807  44.857  1.00  0.00     0.063 C 
ENDROOT
BRANCH   2   7
HETATM    7  N1  UNL     1       6.071  12.849  44.024  1.00  0.00    -0.071 N 
ATOM      8  H13 UNL     1       6.290  12.883  45.019  1.00  0.00     0.275 HD
ATOM      9  H12 UNL     1       6.827  12.244  43.704  1.00  0.00     0.275 HD
ATOM     10  H11 UNL     1       6.149  13.776  43.606  1.00  0.00     0.275 HD
ENDBRANCH   2   7
BRANCH   5  11
HETATM   11  N2  UNL     1       2.896  15.074  45.034  1.00  0.00    -0.386 N 
ATOM     12  H2  UNL     1       1.986  15.135  44.576  1.00  0.00     0.160 HD
BRANCH  11  13
HETATM   13  C6  UNL     1       3.030  15.713  46.100  1.00  0.00     0.166 C 
HETATM   14  S1  UNL     1       3.037  16.820  47.269  1.00  0.00    -0.075 SA
ENDBRANCH  11  13
ENDBRANCH   5  11
TORSDOF 3
ENDMDL
MODEL 2
REMARK VINA RESULT: -4.379468195      1.430      2.108
REMARK  3 active torsions:
REMARK  status: ('A' for Active; 'I' for Inactive)
REMARK    1  A    between atoms: C2_2  and  N1_3 
REMARK    2  A    between atoms: C5_9  and  N2_10 
REMARK    3  A    between atoms: N2_10  and  C6_12 
ROOT
HETATM    1  C1  UNL     1       6.974  11.903  44.163  1.00  0.00     0.046 C 
HETATM    2  C2  UNL     1       5.550  12.038  44.575  1.00  0.00     0.122 C 
HETATM    3  C3  UNL     1       5.379  11.978  46.073  1.00  0.00     0.040 C 
HETATM    4  C4  UNL     1       4.042  12.638  46.276  1.00  0.00     0.028 C 
HETATM    5  C5  UNL     1       3.643  13.287  44.993  1.00  0.00     0.084 C 
HETATM    6  C7  UNL     1       4.997  13.434  44.286  1.00  0.00     0.063 C 
ENDROOT
BRANCH   2   7
HETATM    7  N1  UNL     1       4.663  11.110  43.903  1.00  0.00    -0.071 N 
ATOM      8  H13 UNL     1       5.053  10.823  43.006  1.00  0.00     0.275 HD
ATOM      9  H12 UNL     1       4.655  10.209  44.380  1.00  0.00     0.275 HD
ATOM     10  H11 UNL     1       3.714  11.464  43.787  1.00  0.00     0.275 HD
ENDBRANCH   2   7
BRANCH   5  11
HETATM   11  N2  UNL     1       2.952  14.521  45.123  1.00  0.00    -0.386 N 
ATOM     12  H2  UNL     1       2.303  14.763  44.374  1.00  0.00     0.160 HD
BRANCH  11  13
HETATM   13  C6  UNL     1       3.058  15.341  46.061  1.00  0.00     0.166 C 
HETATM   14  S1  UNL     1       3.002  16.628  47.025  1.00  0.00    -0.075 SA
ENDBRANCH  11  13
ENDBRANCH   5  11
TORSDOF 3
ENDMDL
MODEL 3
REMARK VINA RESULT: -4.306008135      2.268      3.339
REMARK  3 active torsions:
REMARK  status: ('A' for Active; 'I' for Inactive)
REMARK    1  A    between atoms: C2_2  and  N1_3 
REMARK    2  A    between atoms: C5_9  and  N2_10 
REMARK    3  A    between atoms: N2_10  and  C6_12 
ROOT
HETATM    1  C1  UNL     1       6.199   8.451  44.857  1.00  0.00     0.046 C 
HETATM    2  C2  UNL     1       6.317   9.921  45.054  1.00  0.00     0.122 C 
HETATM    3  C3  UNL     1       7.544  10.492  44.387  1.00  0.00     0.040 C 
HETATM    4  C4  UNL     1       7.196  11.949  44.252  1.00  0.00     0.028 C 
HETATM    5  C5  UNL     1       5.744  12.111  44.557  1.00  0.00     0.084 C 
HETATM    6  C7  UNL     1       5.217  10.690  44.319  1.00  0.00     0.063 C 
ENDROOT
BRANCH   2   7
HETATM    7  N1  UNL     1       6.231  10.328  46.442  1.00  0.00    -0.071 N 
ATOM      8  H13 UNL     1       5.920   9.553  47.026  1.00  0.00     0.275 HD
ATOM      9  H12 UNL     1       7.161  10.473  46.833  1.00  0.00     0.275 HD
ATOM     10  H11 UNL     1       5.644  11.149  46.590  1.00  0.00     0.275 HD
ENDBRANCH   2   7
BRANCH   5  11
HETATM   11  N2  UNL     1       5.064  13.088  43.782  1.00  0.00    -0.386 N 
ATOM     12  H2  UNL     1       5.383  13.212  42.821  1.00  0.00     0.160 HD
BRANCH  11  13
HETATM   13  C6  UNL     1       4.115  13.811  44.156  1.00  0.00     0.166 C 
HETATM   14  S1  UNL     1       3.058  14.698  44.984  1.00  0.00    -0.075 SA
ENDBRANCH  11  13
ENDBRANCH   5  11
TORSDOF 3
ENDMDL
MODEL 4
REMARK VINA RESULT: -4.250569113      7.281      8.415
REMARK  3 active torsions:
REMARK  status: ('A' for Active; 'I' for Inactive)
REMARK    1  A    between atoms: C2_2  and  N1_3 
REMARK    2  A    between atoms: C5_9  and  N2_10 
REMARK    3  A    between atoms: N2_10  and  C6_12 
ROOT
HETATM    1  C1  UNL     1       6.659   5.886  40.871  1.00  0.00     0.046 C 
HETATM    2  C2  UNL     1       7.567   5.691  42.034  1.00  0.00     0.122 C 
HETATM    3  C3  UNL     1       8.905   6.362  41.834  1.00  0.00     0.040 C 
HETATM    4  C4  UNL     1       9.416   6.497  43.243  1.00  0.00     0.028 C 
HETATM    5  C5  UNL     1       8.294   6.190  44.178  1.00  0.00     0.084 C 
HETATM    6  C7  UNL     1       7.071   6.425  43.281  1.00  0.00     0.063 C 
ENDROOT
BRANCH   2   7
HETATM    7  N1  UNL     1       7.723   4.304  42.421  1.00  0.00    -0.071 N 
ATOM      8  H13 UNL     1       8.091   3.753  41.647  1.00  0.00     0.275 HD
ATOM      9  H12 UNL     1       8.491   4.199  43.084  1.00  0.00     0.275 HD
ATOM     10  H11 UNL     1       6.869   3.885  42.789  1.00  0.00     0.275 HD
ENDBRANCH   2   7
BRANCH   5  11
HETATM   11  N2  UNL     1       8.263   6.965  45.367  1.00  0.00    -0.386 N 
ATOM     12  H2  UNL     1       8.798   6.610  46.160  1.00  0.00     0.160 HD
BRANCH  11  13
HETATM   13  C6  UNL     1       7.647   8.039  45.543  1.00  0.00     0.166 C 
HETATM   14  S1  UNL     1       6.806   9.281  46.126  1.00  0.00    -0.075 SA
ENDBRANCH  11  13
ENDBRANCH   5  11
TORSDOF 3
ENDMDL
MODEL 5
REMARK VINA RESULT: -4.175712266      2.895      3.791
REMARK  3 active torsions:
REMARK  status: ('A' for Active; 'I' for Inactive)
REMARK    1  A    between atoms: C2_2  and  N1_3 
REMARK    2  A    between atoms: C5_9  and  N2_10 
REMARK    3  A    between atoms: N2_10  and  C6_12 
ROOT
HETATM    1  C1  UNL     1       6.183   8.617  44.689  1.00  0.00     0.046 C 
HETATM    2  C2  UNL     1       6.241  10.066  45.022  1.00  0.00     0.122 C 
HETATM    3  C3  UNL     1       7.395  10.764  44.344  1.00  0.00     0.040 C 
HETATM    4  C4  UNL     1       6.968  12.207  44.374  1.00  0.00     0.028 C 
HETATM    5  C5  UNL     1       5.532  12.259  44.778  1.00  0.00     0.084 C 
HETATM    6  C7  UNL     1       5.061  10.840  44.432  1.00  0.00     0.063 C 
ENDROOT
BRANCH   2   7
HETATM    7  N1  UNL     1       6.223  10.334  46.446  1.00  0.00    -0.071 N 
ATOM      8  H13 UNL     1       5.365   9.982  46.868  1.00  0.00     0.275 HD
ATOM      9  H12 UNL     1       6.903   9.749  46.931  1.00  0.00     0.275 HD
ATOM     10  H11 UNL     1       6.362  11.317  46.678  1.00  0.00     0.275 HD
ENDBRANCH   2   7
BRANCH   5  11
HETATM   11  N2  UNL     1       4.757  13.267  44.144  1.00  0.00    -0.386 N 
ATOM     12  H2  UNL     1       4.496  14.071  44.715  1.00  0.00     0.160 HD
BRANCH  11  13
HETATM   13  C6  UNL     1       4.363  13.270  42.957  1.00  0.00     0.166 C 
HETATM   14  S1  UNL     1       3.919  13.654  41.459  1.00  0.00    -0.075 SA
ENDBRANCH  11  13
ENDBRANCH   5  11
TORSDOF 3
ENDMDL
