MODEL 1
REMARK VINA RESULT: -5.369936694      0.000      0.000
REMARK  2 active torsions:
REMARK  status: ('A' for Active; 'I' for Inactive)
REMARK    1  A    between atoms: C5_5  and  O1_6 
REMARK    2  A    between atoms: C6_8  and  C7_9 
ROOT
HETATM    1  C1  UNL     1       4.992  10.710  43.452  1.00  0.00     0.039 C 
HETATM    2  C2  UNL     1       5.310  12.144  43.008  1.00  0.00     0.118 C 
HETATM    3  C3  UNL     1       4.670  12.468  41.725  1.00  0.00     0.034 C 
HETATM    4  C4  UNL     1       3.613  13.496  41.719  1.00  0.00     0.037 C 
HETATM    5  C5  UNL     1       3.496  14.309  42.969  1.00  0.00     0.147 C 
HETATM    6  C6  UNL     1       3.711  13.387  44.134  1.00  0.00     0.154 C 
HETATM    7  O2  UNL     1       5.032  12.962  44.065  1.00  0.00    -0.378 OA
ENDROOT
BRANCH   6   8
HETATM    8  C7  UNL     1       3.522  14.045  45.464  1.00  0.00     0.009 C 
HETATM    9  C8  UNL     1       2.313  14.906  45.567  1.00  0.00     0.012 C 
HETATM   10  C9  UNL     1       3.409  12.904  46.486  1.00  0.00     0.012 C 
ENDBRANCH   6   8
BRANCH   5  11
HETATM   11  O1  UNL     1       4.489  15.304  42.967  1.00  0.00    -0.393 OA
ATOM     12  H1  UNL     1       4.927  15.308  43.810  1.00  0.00     0.210 HD
ENDBRANCH   5  11
TORSDOF 2
ENDMDL
MODEL 2
REMARK VINA RESULT: -5.234815148      1.450      3.612
REMARK  2 active torsions:
REMARK  status: ('A' for Active; 'I' for Inactive)
REMARK    1  A    between atoms: C5_5  and  O1_6 
REMARK    2  A    between atoms: C6_8  and  C7_9 
ROOT
HETATM    1  C1  UNL     1       4.288  12.475  47.220  1.00  0.00     0.039 C 
HETATM    2  C2  UNL     1       3.524  12.617  45.896  1.00  0.00     0.118 C 
HETATM    3  C3  UNL     1       3.139  14.011  45.641  1.00  0.00     0.034 C 
HETATM    4  C4  UNL     1       3.759  14.702  44.495  1.00  0.00     0.037 C 
HETATM    5  C5  UNL     1       4.503  13.826  43.538  1.00  0.00     0.147 C 
HETATM    6  C6  UNL     1       5.236  12.792  44.344  1.00  0.00     0.154 C 
HETATM    7  O2  UNL     1       4.267  11.991  44.936  1.00  0.00    -0.378 OA
ENDROOT
BRANCH   6   8
HETATM    8  C7  UNL     1       6.111  11.899  43.522  1.00  0.00     0.009 C 
HETATM    9  C8  UNL     1       7.517  11.796  43.999  1.00  0.00     0.012 C 
HETATM   10  C9  UNL     1       5.464  10.507  43.577  1.00  0.00     0.012 C 
ENDBRANCH   6   8
BRANCH   5  11
HETATM   11  O1  UNL     1       3.585  13.192  42.683  1.00  0.00    -0.393 OA
ATOM     12  H1  UNL     1       3.781  12.263  42.648  1.00  0.00     0.210 HD
ENDBRANCH   5  11
TORSDOF 2
ENDMDL
MODEL 3
REMARK VINA RESULT: -5.164057074      1.464      4.102
REMARK  2 active torsions:
REMARK  status: ('A' for Active; 'I' for Inactive)
REMARK    1  A    between atoms: C5_5  and  O1_6 
REMARK    2  A    between atoms: C6_8  and  C7_9 
ROOT
HETATM    1  C1  UNL     1       3.522  13.908  43.038  1.00  0.00     0.039 C 
HETATM    2  C2  UNL     1       4.178  14.027  44.422  1.00  0.00     0.118 C 
HETATM    3  C3  UNL     1       3.179  13.997  45.498  1.00  0.00     0.034 C 
HETATM    4  C4  UNL     1       3.187  12.845  46.419  1.00  0.00     0.037 C 
HETATM    5  C5  UNL     1       4.393  11.963  46.338  1.00  0.00     0.147 C 
HETATM    6  C6  UNL     1       4.768  11.836  44.889  1.00  0.00     0.154 C 
HETATM    7  O2  UNL     1       5.176  13.097  44.473  1.00  0.00    -0.378 OA
ENDROOT
BRANCH   6   8
HETATM    8  C7  UNL     1       5.905  10.895  44.643  1.00  0.00     0.009 C 
HETATM    9  C8  UNL     1       5.602   9.786  43.697  1.00  0.00     0.012 C 
HETATM   10  C9  UNL     1       7.041  11.749  44.061  1.00  0.00     0.012 C 
ENDBRANCH   6   8
BRANCH   5  11
HETATM   11  O1  UNL     1       5.450  12.561  47.046  1.00  0.00    -0.393 OA
ATOM     12  H1  UNL     1       5.100  13.024  47.798  1.00  0.00     0.210 HD
ENDBRANCH   5  11
TORSDOF 2
ENDMDL
MODEL 4
REMARK VINA RESULT: -5.132866992      1.080      4.026
REMARK  2 active torsions:
REMARK  status: ('A' for Active; 'I' for Inactive)
REMARK    1  A    between atoms: C5_5  and  O1_6 
REMARK    2  A    between atoms: C6_8  and  C7_9 
ROOT
HETATM    1  C1  UNL     1       2.089  14.982  45.166  1.00  0.00     0.039 C 
HETATM    2  C2  UNL     1       3.531  14.507  45.396  1.00  0.00     0.118 C 
HETATM    3  C3  UNL     1       3.579  13.329  46.272  1.00  0.00     0.034 C 
HETATM    4  C4  UNL     1       4.043  12.054  45.694  1.00  0.00     0.037 C 
HETATM    5  C5  UNL     1       4.688  12.152  44.348  1.00  0.00     0.147 C 
HETATM    6  C6  UNL     1       3.919  13.164  43.548  1.00  0.00     0.154 C 
HETATM    7  O2  UNL     1       4.115  14.392  44.167  1.00  0.00    -0.378 OA
ENDROOT
BRANCH   6   8
HETATM    8  C7  UNL     1       4.390  13.296  42.134  1.00  0.00     0.009 C 
HETATM    9  C8  UNL     1       4.485  12.013  41.386  1.00  0.00     0.012 C 
HETATM   10  C9  UNL     1       3.371  14.206  41.433  1.00  0.00     0.012 C 
ENDBRANCH   6   8
BRANCH   5  11
HETATM   11  O1  UNL     1       6.016  12.587  44.502  1.00  0.00    -0.393 OA
ATOM     12  H1  UNL     1       6.594  11.991  44.042  1.00  0.00     0.210 HD
ENDBRANCH   5  11
TORSDOF 2
ENDMDL
MODEL 5
REMARK VINA RESULT: -5.016065088      1.753      3.796
REMARK  2 active torsions:
REMARK  status: ('A' for Active; 'I' for Inactive)
REMARK    1  A    between atoms: C5_5  and  O1_6 
REMARK    2  A    between atoms: C6_8  and  C7_9 
ROOT
HETATM    1  C1  UNL     1       4.281  12.470  47.055  1.00  0.00     0.039 C 
HETATM    2  C2  UNL     1       3.808  12.313  45.603  1.00  0.00     0.118 C 
HETATM    3  C3  UNL     1       3.511  13.613  44.987  1.00  0.00     0.034 C 
HETATM    4  C4  UNL     1       4.366  14.063  43.873  1.00  0.00     0.037 C 
HETATM    5  C5  UNL     1       5.273  13.023  43.295  1.00  0.00     0.147 C 
HETATM    6  C6  UNL     1       5.804  12.199  44.432  1.00  0.00     0.154 C 
HETATM    7  O2  UNL     1       4.718  11.518  44.969  1.00  0.00    -0.378 OA
ENDROOT
BRANCH   6   8
HETATM    8  C7  UNL     1       6.811  11.175  44.013  1.00  0.00     0.009 C 
HETATM    9  C8  UNL     1       8.179  11.709  43.772  1.00  0.00     0.012 C 
HETATM   10  C9  UNL     1       6.871  10.151  45.155  1.00  0.00     0.012 C 
ENDBRANCH   6   8
BRANCH   5  11
HETATM   11  O1  UNL     1       4.537  12.202  42.423  1.00  0.00    -0.393 OA
ATOM     12  H1  UNL     1       4.891  12.283  41.545  1.00  0.00     0.210 HD
ENDBRANCH   5  11
TORSDOF 2
ENDMDL
