MODEL 1
REMARK VINA RESULT: -4.896440845      0.000      0.000
REMARK  4 active torsions:
REMARK  status: ('A' for Active; 'I' for Inactive)
REMARK    1  A    between atoms: C2_2  and  C4_4 
REMARK    2  A    between atoms: C4_4  and  O1_5 
REMARK    3  A    between atoms: O1_5  and  C5_6 
REMARK    4  A    between atoms: N2_8  and  C6_10 
ROOT
HETATM    1  C5  UNL     1       9.527   5.758  42.958  1.00  0.00     0.228 C 
HETATM    2  N1  UNL     1      10.726   6.330  43.439  1.00  0.00    -0.056 NA
HETATM    3  N2  UNL     1       9.277   5.444  41.756  1.00  0.00    -0.351 N 
ATOM      4  H2  UNL     1       8.358   5.040  41.575  1.00  0.00     0.163 HD
ENDROOT
BRANCH   1   5
HETATM    5  O1  UNL     1       8.532   5.522  43.905  1.00  0.00    -0.324 OA
BRANCH   5   6
HETATM    6  C4  UNL     1       7.230   6.006  43.813  1.00  0.00     0.182 C 
BRANCH   6   7
HETATM    7  C2  UNL     1       7.213   7.533  43.925  1.00  0.00     0.002 C 
HETATM    8  C1  UNL     1       6.895   8.041  42.516  1.00  0.00     0.011 C 
HETATM    9  C3  UNL     1       6.159   7.993  44.894  1.00  0.00     0.011 C 
ENDBRANCH   6   7
ENDBRANCH   5   6
ENDBRANCH   1   5
BRANCH   3  10
HETATM   10  C6  UNL     1      10.136   5.594  40.627  1.00  0.00     0.022 C 
HETATM   11  C7  UNL     1       9.360   5.145  39.385  1.00  0.00     0.037 C 
HETATM   12  C8  UNL     1      10.449   7.064  40.464  1.00  0.00     0.037 C 
HETATM   13  C9  UNL     1      11.393   4.788  40.684  1.00  0.00     0.037 C 
ENDBRANCH   3  10
TORSDOF 4
ENDMDL
MODEL 2
REMARK VINA RESULT: -4.850962085      6.104      7.729
REMARK  4 active torsions:
REMARK  status: ('A' for Active; 'I' for Inactive)
REMARK    1  A    between atoms: C2_2  and  C4_4 
REMARK    2  A    between atoms: C4_4  and  O1_5 
REMARK    3  A    between atoms: O1_5  and  C5_6 
REMARK    4  A    between atoms: N2_8  and  C6_10 
ROOT
HETATM    1  C5  UNL     1       5.126  11.692  45.275  1.00  0.00     0.228 C 
HETATM    2  N1  UNL     1       5.739  11.457  46.526  1.00  0.00    -0.056 NA
HETATM    3  N2  UNL     1       5.603  11.391  44.140  1.00  0.00    -0.351 N 
ATOM      4  H2  UNL     1       5.032  11.630  43.330  1.00  0.00     0.163 HD
ENDROOT
BRANCH   1   5
HETATM    5  O1  UNL     1       3.879  12.314  45.304  1.00  0.00    -0.324 OA
BRANCH   5   6
HETATM    6  C4  UNL     1       3.516  13.299  46.218  1.00  0.00     0.182 C 
BRANCH   6   7
HETATM    7  C2  UNL     1       2.763  14.434  45.519  1.00  0.00     0.002 C 
HETATM    8  C1  UNL     1       3.035  15.683  46.360  1.00  0.00     0.011 C 
HETATM    9  C3  UNL     1       3.264  14.632  44.115  1.00  0.00     0.011 C 
ENDBRANCH   6   7
ENDBRANCH   5   6
ENDBRANCH   1   5
BRANCH   3  10
HETATM   10  C6  UNL     1       6.851  10.755  43.868  1.00  0.00     0.022 C 
HETATM   11  C7  UNL     1       6.834  10.294  42.407  1.00  0.00     0.037 C 
HETATM   12  C8  UNL     1       7.947  11.786  44.009  1.00  0.00     0.037 C 
HETATM   13  C9  UNL     1       7.140   9.555  44.711  1.00  0.00     0.037 C 
ENDBRANCH   3  10
TORSDOF 4
ENDMDL
MODEL 3
REMARK VINA RESULT: -4.814159068      0.629      1.120
REMARK  4 active torsions:
REMARK  status: ('A' for Active; 'I' for Inactive)
REMARK    1  A    between atoms: C2_2  and  C4_4 
REMARK    2  A    between atoms: C4_4  and  O1_5 
REMARK    3  A    between atoms: O1_5  and  C5_6 
REMARK    4  A    between atoms: N2_8  and  C6_10 
ROOT
HETATM    1  C5  UNL     1       9.592   5.914  42.960  1.00  0.00     0.228 C 
HETATM    2  N1  UNL     1      10.879   6.341  43.357  1.00  0.00    -0.056 NA
HETATM    3  N2  UNL     1       9.231   5.624  41.780  1.00  0.00    -0.351 N 
ATOM      4  H2  UNL     1       8.261   5.332  41.662  1.00  0.00     0.163 HD
ENDROOT
BRANCH   1   5
HETATM    5  O1  UNL     1       8.638   5.806  43.970  1.00  0.00    -0.324 OA
BRANCH   5   6
HETATM    6  C4  UNL     1       8.154   6.881  44.710  1.00  0.00     0.182 C 
BRANCH   6   7
HETATM    7  C2  UNL     1       7.099   7.654  43.913  1.00  0.00     0.002 C 
HETATM    8  C1  UNL     1       6.016   8.028  44.928  1.00  0.00     0.011 C 
HETATM    9  C3  UNL     1       7.686   8.894  43.298  1.00  0.00     0.011 C 
ENDBRANCH   6   7
ENDBRANCH   5   6
ENDBRANCH   1   5
BRANCH   3  10
HETATM   10  C6  UNL     1      10.030   5.661  40.599  1.00  0.00     0.022 C 
HETATM   11  C7  UNL     1       9.191   5.093  39.449  1.00  0.00     0.037 C 
HETATM   12  C8  UNL     1      10.328   7.107  40.276  1.00  0.00     0.037 C 
HETATM   13  C9  UNL     1      11.291   4.862  40.668  1.00  0.00     0.037 C 
ENDBRANCH   3  10
TORSDOF 4
ENDMDL
MODEL 4
REMARK VINA RESULT: -4.735672578      5.092      6.752
REMARK  4 active torsions:
REMARK  status: ('A' for Active; 'I' for Inactive)
REMARK    1  A    between atoms: C2_2  and  C4_4 
REMARK    2  A    between atoms: C4_4  and  O1_5 
REMARK    3  A    between atoms: O1_5  and  C5_6 
REMARK    4  A    between atoms: N2_8  and  C6_10 
ROOT
HETATM    1  C5  UNL     1       6.041  10.906  45.483  1.00  0.00     0.228 C 
HETATM    2  N1  UNL     1       5.841  10.631  46.855  1.00  0.00    -0.056 NA
HETATM    3  N2  UNL     1       6.549  10.120  44.629  1.00  0.00    -0.351 N 
ATOM      4  H2  UNL     1       6.623  10.474  43.675  1.00  0.00     0.163 HD
ENDROOT
BRANCH   1   5
HETATM    5  O1  UNL     1       5.637  12.164  45.040  1.00  0.00    -0.324 OA
BRANCH   5   6
HETATM    6  C4  UNL     1       4.310  12.573  44.944  1.00  0.00     0.182 C 
BRANCH   6   7
HETATM    7  C2  UNL     1       4.191  13.817  44.059  1.00  0.00     0.002 C 
HETATM    8  C1  UNL     1       3.927  13.289  42.647  1.00  0.00     0.011 C 
HETATM    9  C3  UNL     1       3.055  14.695  44.508  1.00  0.00     0.011 C 
ENDBRANCH   6   7
ENDBRANCH   5   6
ENDBRANCH   1   5
BRANCH   3  10
HETATM   10  C6  UNL     1       7.029   8.795  44.852  1.00  0.00     0.022 C 
HETATM   11  C7  UNL     1       5.815   7.863  44.925  1.00  0.00     0.037 C 
HETATM   12  C8  UNL     1       7.850   8.382  43.651  1.00  0.00     0.037 C 
HETATM   13  C9  UNL     1       7.808   8.614  46.114  1.00  0.00     0.037 C 
ENDBRANCH   3  10
TORSDOF 4
ENDMDL
MODEL 5
REMARK VINA RESULT: -4.712127528      2.205      4.244
REMARK  4 active torsions:
REMARK  status: ('A' for Active; 'I' for Inactive)
REMARK    1  A    between atoms: C2_2  and  C4_4 
REMARK    2  A    between atoms: C4_4  and  O1_5 
REMARK    3  A    between atoms: O1_5  and  C5_6 
REMARK    4  A    between atoms: N2_8  and  C6_10 
ROOT
HETATM    1  C5  UNL     1       9.771   6.878  42.591  1.00  0.00     0.228 C 
HETATM    2  N1  UNL     1       9.806   6.408  43.923  1.00  0.00    -0.056 NA
HETATM    3  N2  UNL     1       8.792   6.786  41.791  1.00  0.00    -0.351 N 
ATOM      4  H2  UNL     1       8.930   7.176  40.859  1.00  0.00     0.163 HD
ENDROOT
BRANCH   1   5
HETATM    5  O1  UNL     1      10.928   7.497  42.123  1.00  0.00    -0.324 OA
BRANCH   5   6
HETATM    6  C4  UNL     1      11.100   7.957  40.820  1.00  0.00     0.182 C 
BRANCH   6   7
HETATM    7  C2  UNL     1      10.721   9.436  40.714  1.00  0.00     0.002 C 
HETATM    8  C1  UNL     1      11.990  10.149  40.240  1.00  0.00     0.011 C 
HETATM    9  C3  UNL     1       9.608   9.640  39.722  1.00  0.00     0.011 C 
ENDBRANCH   6   7
ENDBRANCH   5   6
ENDBRANCH   1   5
BRANCH   3  10
HETATM   10  C6  UNL     1       7.519   6.196  42.048  1.00  0.00     0.022 C 
HETATM   11  C7  UNL     1       6.583   6.582  40.898  1.00  0.00     0.037 C 
HETATM   12  C8  UNL     1       7.680   4.693  42.021  1.00  0.00     0.037 C 
HETATM   13  C9  UNL     1       6.869   6.637  43.319  1.00  0.00     0.037 C 
ENDBRANCH   3  10
TORSDOF 4
ENDMDL
