MODEL 1
REMARK VINA RESULT: -5.793761586      0.000      0.000
REMARK  2 active torsions:
REMARK  status: ('A' for Active; 'I' for Inactive)
REMARK    1  A    between atoms: S1_3  and  C2_4 
REMARK    2  A    between atoms: C6_8  and  C7_9 
ROOT
HETATM    1  N1  UNL     1       8.846   8.230  46.439  1.00  0.00    -0.184 NA
HETATM    2  C1  UNL     1       8.096   8.428  45.596  1.00  0.00     0.134 C 
HETATM    3  S1  UNL     1       6.866   8.624  44.372  1.00  0.00    -0.045 SA
ENDROOT
BRANCH   3   4
HETATM    4  C2  UNL     1       5.881  10.101  44.547  1.00  0.00     0.068 C 
HETATM    5  C3  UNL     1       4.995  10.377  43.336  1.00  0.00     0.021 C 
HETATM    6  C4  UNL     1       5.287  11.819  43.036  1.00  0.00    -0.012 C 
HETATM    7  C5  UNL     1       4.740  12.640  44.168  1.00  0.00     0.024 C 
HETATM    8  C9  UNL     1       6.785  11.864  43.331  1.00  0.00     0.012 C 
HETATM    9  C6  UNL     1       5.753  12.458  45.295  1.00  0.00     0.098 C 
HETATM   10  C8  UNL     1       6.652  11.360  44.769  1.00  0.00     0.018 C 
BRANCH   9  11
HETATM   11  C7  UNL     1       5.103  12.129  46.540  1.00  0.00     0.064 C 
HETATM   12  N2  UNL     1       4.767  12.014  47.627  1.00  0.00    -0.197 NA
ENDBRANCH   9  11
ENDBRANCH   3   4
TORSDOF 2
ENDMDL
MODEL 2
REMARK VINA RESULT: -5.465709842      1.386      1.509
REMARK  2 active torsions:
REMARK  status: ('A' for Active; 'I' for Inactive)
REMARK    1  A    between atoms: S1_3  and  C2_4 
REMARK    2  A    between atoms: C6_8  and  C7_9 
ROOT
HETATM    1  N1  UNL     1       8.628   7.489  45.027  1.00  0.00    -0.184 NA
HETATM    2  C1  UNL     1       7.866   8.227  45.462  1.00  0.00     0.134 C 
HETATM    3  S1  UNL     1       6.822   9.434  46.169  1.00  0.00    -0.045 SA
ENDROOT
BRANCH   3   4
HETATM    4  C2  UNL     1       6.005  10.487  44.985  1.00  0.00     0.068 C 
HETATM    5  C3  UNL     1       5.883   9.852  43.603  1.00  0.00     0.021 C 
HETATM    6  C4  UNL     1       6.399  10.933  42.697  1.00  0.00    -0.012 C 
HETATM    7  C5  UNL     1       5.420  12.070  42.739  1.00  0.00     0.024 C 
HETATM    8  C9  UNL     1       7.537  11.489  43.552  1.00  0.00     0.012 C 
HETATM    9  C6  UNL     1       5.700  12.767  44.067  1.00  0.00     0.098 C 
HETATM   10  C8  UNL     1       6.651  11.813  44.757  1.00  0.00     0.018 C 
BRANCH   9  11
HETATM   11  C7  UNL     1       4.483  13.006  44.804  1.00  0.00     0.064 C 
HETATM   12  N2  UNL     1       3.658  13.365  45.510  1.00  0.00    -0.197 NA
ENDBRANCH   9  11
ENDBRANCH   3   4
TORSDOF 2
ENDMDL
MODEL 3
REMARK VINA RESULT: -5.436496429      2.432      3.118
REMARK  2 active torsions:
REMARK  status: ('A' for Active; 'I' for Inactive)
REMARK    1  A    between atoms: S1_3  and  C2_4 
REMARK    2  A    between atoms: C6_8  and  C7_9 
ROOT
HETATM    1  N1  UNL     1       8.165   8.717  43.816  1.00  0.00    -0.184 NA
HETATM    2  C1  UNL     1       8.147   9.849  43.636  1.00  0.00     0.134 C 
HETATM    3  S1  UNL     1       8.086  11.544  43.219  1.00  0.00    -0.045 SA
ENDROOT
BRANCH   3   4
HETATM    4  C2  UNL     1       6.629  12.393  43.799  1.00  0.00     0.068 C 
HETATM    5  C3  UNL     1       6.309  12.103  45.262  1.00  0.00     0.021 C 
HETATM    6  C4  UNL     1       4.852  11.742  45.216  1.00  0.00    -0.012 C 
HETATM    7  C5  UNL     1       4.087  12.979  44.842  1.00  0.00     0.024 C 
HETATM    8  C9  UNL     1       4.804  10.956  43.906  1.00  0.00     0.012 C 
HETATM    9  C6  UNL     1       4.308  13.125  43.340  1.00  0.00     0.098 C 
HETATM   10  C8  UNL     1       5.373  12.089  43.050  1.00  0.00     0.018 C 
BRANCH   9  11
HETATM   11  C7  UNL     1       4.698  14.470  42.993  1.00  0.00     0.064 C 
HETATM   12  N2  UNL     1       4.768  15.590  42.770  1.00  0.00    -0.197 NA
ENDBRANCH   9  11
ENDBRANCH   3   4
TORSDOF 2
ENDMDL
MODEL 4
REMARK VINA RESULT: -5.429025630      1.257      1.257
REMARK  2 active torsions:
REMARK  status: ('A' for Active; 'I' for Inactive)
REMARK    1  A    between atoms: S1_3  and  C2_4 
REMARK    2  A    between atoms: C6_8  and  C7_9 
ROOT
HETATM    1  N1  UNL     1       8.592   7.874  42.939  1.00  0.00    -0.184 NA
HETATM    2  C1  UNL     1       8.035   8.264  43.861  1.00  0.00     0.134 C 
HETATM    3  S1  UNL     1       7.308   8.936  45.300  1.00  0.00    -0.045 SA
ENDROOT
BRANCH   3   4
HETATM    4  C2  UNL     1       6.092  10.202  44.989  1.00  0.00     0.068 C 
HETATM    5  C3  UNL     1       5.444  10.085  43.613  1.00  0.00     0.021 C 
HETATM    6  C4  UNL     1       5.564  11.480  43.071  1.00  0.00    -0.012 C 
HETATM    7  C5  UNL     1       4.675  12.367  43.894  1.00  0.00     0.024 C 
HETATM    8  C9  UNL     1       6.943  11.865  43.604  1.00  0.00     0.012 C 
HETATM    9  C6  UNL     1       5.448  12.585  45.191  1.00  0.00     0.098 C 
HETATM   10  C8  UNL     1       6.596  11.605  45.071  1.00  0.00     0.018 C 
BRANCH   9  11
HETATM   11  C7  UNL     1       4.613  12.362  46.346  1.00  0.00     0.064 C 
HETATM   12  N2  UNL     1       4.090  12.368  47.364  1.00  0.00    -0.197 NA
ENDBRANCH   9  11
ENDBRANCH   3   4
TORSDOF 2
ENDMDL
MODEL 5
REMARK VINA RESULT: -5.250583427      2.180      2.655
REMARK  2 active torsions:
REMARK  status: ('A' for Active; 'I' for Inactive)
REMARK    1  A    between atoms: S1_3  and  C2_4 
REMARK    2  A    between atoms: C6_8  and  C7_9 
ROOT
HETATM    1  N1  UNL     1       7.352   8.879  46.117  1.00  0.00    -0.184 NA
HETATM    2  C1  UNL     1       6.597   9.742  46.113  1.00  0.00     0.134 C 
HETATM    3  S1  UNL     1       5.561  11.147  46.134  1.00  0.00    -0.045 SA
ENDROOT
BRANCH   3   4
HETATM    4  C2  UNL     1       5.003  11.675  44.525  1.00  0.00     0.068 C 
HETATM    5  C3  UNL     1       4.859  10.524  43.534  1.00  0.00     0.021 C 
HETATM    6  C4  UNL     1       5.600  11.030  42.330  1.00  0.00    -0.012 C 
HETATM    7  C5  UNL     1       4.823  12.185  41.768  1.00  0.00     0.024 C 
HETATM    8  C9  UNL     1       6.762  11.755  43.007  1.00  0.00     0.012 C 
HETATM    9  C6  UNL     1       5.137  13.348  42.704  1.00  0.00     0.098 C 
HETATM   10  C8  UNL     1       5.874  12.678  43.844  1.00  0.00     0.018 C 
BRANCH   9  11
HETATM   11  C7  UNL     1       3.937  14.034  43.114  1.00  0.00     0.064 C 
HETATM   12  N2  UNL     1       3.131  14.782  43.430  1.00  0.00    -0.197 NA
ENDBRANCH   9  11
ENDBRANCH   3   4
TORSDOF 2
ENDMDL
