MODEL 1
REMARK VINA RESULT: -4.653652352      0.000      0.000
REMARK  1 active torsions:
REMARK  status: ('A' for Active; 'I' for Inactive)
REMARK    1  A    between atoms: C2_2  and  C3_3 
ROOT
HETATM    1  C3  UNL     1       5.262  13.214  42.744  1.00  0.00     0.176 C 
HETATM    2  S1  UNL     1       4.912  11.678  41.785  1.00  0.00    -0.066 SA
HETATM    3  S2  UNL     1       5.263  10.367  43.474  1.00  0.00    -0.064 SA
HETATM    4  C4  UNL     1       5.789  11.782  44.535  1.00  0.00     0.080 C 
HETATM    5  C5  UNL     1       7.270  11.978  44.219  1.00  0.00     0.051 C 
HETATM    6  C6  UNL     1       5.664  11.455  45.961  1.00  0.00     0.051 C 
HETATM    7  N1  UNL     1       5.108  12.927  44.088  1.00  0.00    -0.382 N 
HETATM    8  C7  UNL     1       3.994  13.388  44.789  1.00  0.00     0.146 C 
ENDROOT
BRANCH   1   9
HETATM    9  C2  UNL     1       4.222  14.196  42.310  1.00  0.00    -0.001 C 
HETATM   10  C1  UNL     1       3.761  14.159  41.074  1.00  0.00     0.010 C 
ENDBRANCH   1   9
TORSDOF 1
ENDMDL
MODEL 2
REMARK VINA RESULT: -4.557805362      1.051      1.177
REMARK  1 active torsions:
REMARK  status: ('A' for Active; 'I' for Inactive)
REMARK    1  A    between atoms: C2_2  and  C3_3 
ROOT
HETATM    1  C3  UNL     1       5.449  12.858  43.352  1.00  0.00     0.176 C 
HETATM    2  S1  UNL     1       5.059  11.707  41.965  1.00  0.00    -0.066 SA
HETATM    3  S2  UNL     1       5.955   9.993  42.941  1.00  0.00    -0.064 SA
HETATM    4  C4  UNL     1       6.553  11.032  44.343  1.00  0.00     0.080 C 
HETATM    5  C5  UNL     1       7.882  11.610  43.862  1.00  0.00     0.051 C 
HETATM    6  C6  UNL     1       6.813  10.219  45.538  1.00  0.00     0.051 C 
HETATM    7  N1  UNL     1       5.657  12.104  44.493  1.00  0.00    -0.382 N 
HETATM    8  C7  UNL     1       4.698  12.069  45.505  1.00  0.00     0.146 C 
ENDROOT
BRANCH   1   9
HETATM    9  C2  UNL     1       4.229  13.705  43.517  1.00  0.00    -0.001 C 
HETATM   10  C1  UNL     1       3.640  14.220  42.454  1.00  0.00     0.010 C 
ENDBRANCH   1   9
TORSDOF 1
ENDMDL
MODEL 3
REMARK VINA RESULT: -4.257498856      2.692      3.481
REMARK  1 active torsions:
REMARK  status: ('A' for Active; 'I' for Inactive)
REMARK    1  A    between atoms: C2_2  and  C3_3 
ROOT
HETATM    1  C3  UNL     1       6.035  12.003  45.323  1.00  0.00     0.176 C 
HETATM    2  S1  UNL     1       4.818  12.198  43.951  1.00  0.00    -0.066 SA
HETATM    3  S2  UNL     1       5.820  10.773  42.663  1.00  0.00    -0.064 SA
HETATM    4  C4  UNL     1       7.203  10.571  43.867  1.00  0.00     0.080 C 
HETATM    5  C5  UNL     1       8.163  11.716  43.555  1.00  0.00     0.051 C 
HETATM    6  C6  UNL     1       7.916   9.306  43.654  1.00  0.00     0.051 C 
HETATM    7  N1  UNL     1       6.685  10.794  45.154  1.00  0.00    -0.382 N 
HETATM    8  C7  UNL     1       6.392   9.710  45.980  1.00  0.00     0.146 C 
ENDROOT
BRANCH   1   9
HETATM    9  C2  UNL     1       5.218  11.972  46.574  1.00  0.00    -0.001 C 
HETATM   10  C1  UNL     1       3.963  12.381  46.548  1.00  0.00     0.010 C 
ENDBRANCH   1   9
TORSDOF 1
ENDMDL
MODEL 4
REMARK VINA RESULT: -4.129603422      3.262      4.848
REMARK  1 active torsions:
REMARK  status: ('A' for Active; 'I' for Inactive)
REMARK    1  A    between atoms: C2_2  and  C3_3 
ROOT
HETATM    1  C3  UNL     1       6.665   8.656  43.759  1.00  0.00     0.176 C 
HETATM    2  S1  UNL     1       8.035   9.344  42.733  1.00  0.00    -0.066 SA
HETATM    3  S2  UNL     1       7.772  11.364  43.474  1.00  0.00    -0.064 SA
HETATM    4  C4  UNL     1       6.285  10.873  44.448  1.00  0.00     0.080 C 
HETATM    5  C5  UNL     1       5.126  10.953  43.457  1.00  0.00     0.051 C 
HETATM    6  C6  UNL     1       6.023  11.823  45.536  1.00  0.00     0.051 C 
HETATM    7  N1  UNL     1       6.437   9.524  44.811  1.00  0.00    -0.382 N 
HETATM    8  C7  UNL     1       6.847   9.197  46.103  1.00  0.00     0.146 C 
ENDROOT
BRANCH   1   9
HETATM    9  C2  UNL     1       7.177   7.352  44.277  1.00  0.00    -0.001 C 
HETATM   10  C1  UNL     1       7.090   6.269  43.527  1.00  0.00     0.010 C 
ENDBRANCH   1   9
TORSDOF 1
ENDMDL
MODEL 5
REMARK VINA RESULT: -4.031155908      1.905      3.483
REMARK  1 active torsions:
REMARK  status: ('A' for Active; 'I' for Inactive)
REMARK    1  A    between atoms: C2_2  and  C3_3 
ROOT
HETATM    1  C3  UNL     1       4.736  11.778  44.844  1.00  0.00     0.176 C 
HETATM    2  S1  UNL     1       6.560  11.754  45.119  1.00  0.00    -0.066 SA
HETATM    3  S2  UNL     1       7.026  11.701  43.003  1.00  0.00    -0.064 SA
HETATM    4  C4  UNL     1       5.241  11.568  42.556  1.00  0.00     0.080 C 
HETATM    5  C5  UNL     1       4.924  10.078  42.651  1.00  0.00     0.051 C 
HETATM    6  C6  UNL     1       5.004  11.999  41.173  1.00  0.00     0.051 C 
HETATM    7  N1  UNL     1       4.500  12.221  43.555  1.00  0.00    -0.382 N 
HETATM    8  C7  UNL     1       4.009  13.506  43.326  1.00  0.00     0.146 C 
ENDROOT
BRANCH   1   9
HETATM    9  C2  UNL     1       4.201  12.766  45.829  1.00  0.00    -0.001 C 
HETATM   10  C1  UNL     1       3.766  12.351  47.004  1.00  0.00     0.010 C 
ENDBRANCH   1   9
TORSDOF 1
ENDMDL
