MODEL 1
REMARK VINA RESULT: -6.277920054      0.000      0.000
REMARK  3 active torsions:
REMARK  status: ('A' for Active; 'I' for Inactive)
REMARK    1  A    between atoms: C2_2  and  O2_4 
REMARK    2  A    between atoms: O2_4  and  C3_5 
REMARK    3  A    between atoms: C3_5  and  C4_7 
ROOT
HETATM    1  C4  UNL     1       3.880  13.382  44.298  1.00  0.00     0.086 C 
HETATM    2  C5  UNL     1       3.660  13.610  45.776  1.00  0.00     0.014 C 
HETATM    3  C6  UNL     1       4.092  12.458  46.606  1.00  0.00     0.001 C 
HETATM    4  C7  UNL     1       5.434  11.900  46.263  1.00  0.00     0.000 C 
HETATM    5  C8  UNL     1       5.397  11.542  44.769  1.00  0.00     0.001 C 
HETATM    6  C9  UNL     1       5.302  12.864  44.037  1.00  0.00     0.014 C 
ENDROOT
BRANCH   1   7
HETATM    7  C3  UNL     1       3.778  14.647  43.532  1.00  0.00     0.270 C 
HETATM    8  O3  UNL     1       4.291  15.675  44.037  1.00  0.00    -0.264 OA
BRANCH   7   9
HETATM    9  O2  UNL     1       3.156  14.749  42.309  1.00  0.00    -0.245 OA
BRANCH   9  10
HETATM   10  C2  UNL     1       3.785  14.562  41.090  1.00  0.00     0.262 C 
HETATM   11  C1  UNL     1       4.108  13.215  40.547  1.00  0.00     0.126 C 
HETATM   12  O1  UNL     1       4.094  15.571  40.425  1.00  0.00    -0.265 OA
ENDBRANCH   9  10
ENDBRANCH   7   9
ENDBRANCH   1   7
TORSDOF 3
ENDMDL
MODEL 2
REMARK VINA RESULT: -6.257641221      2.354      4.336
REMARK  3 active torsions:
REMARK  status: ('A' for Active; 'I' for Inactive)
REMARK    1  A    between atoms: C2_2  and  O2_4 
REMARK    2  A    between atoms: O2_4  and  C3_5 
REMARK    3  A    between atoms: C3_5  and  C4_7 
ROOT
HETATM    1  C4  UNL     1       3.721  14.300  44.173  1.00  0.00     0.086 C 
HETATM    2  C5  UNL     1       4.464  13.161  44.832  1.00  0.00     0.014 C 
HETATM    3  C6  UNL     1       4.662  12.004  43.925  1.00  0.00     0.001 C 
HETATM    4  C7  UNL     1       5.153  12.349  42.557  1.00  0.00     0.000 C 
HETATM    5  C8  UNL     1       4.159  13.365  41.973  1.00  0.00     0.001 C 
HETATM    6  C9  UNL     1       4.330  14.621  42.801  1.00  0.00     0.014 C 
ENDROOT
BRANCH   1   7
HETATM    7  C3  UNL     1       3.841  15.553  44.957  1.00  0.00     0.270 C 
HETATM    8  O3  UNL     1       4.417  16.526  44.412  1.00  0.00    -0.264 OA
BRANCH   7   9
HETATM    9  O2  UNL     1       3.359  15.700  46.238  1.00  0.00    -0.245 OA
BRANCH   9  10
HETATM   10  C2  UNL     1       3.543  16.827  47.020  1.00  0.00     0.262 C 
HETATM   11  C1  UNL     1       2.633  18.003  46.969  1.00  0.00     0.126 C 
HETATM   12  O1  UNL     1       4.517  16.851  47.800  1.00  0.00    -0.265 OA
ENDBRANCH   9  10
ENDBRANCH   7   9
ENDBRANCH   1   7
TORSDOF 3
ENDMDL
MODEL 3
REMARK VINA RESULT: -6.099576079      3.369      5.182
REMARK  3 active torsions:
REMARK  status: ('A' for Active; 'I' for Inactive)
REMARK    1  A    between atoms: C2_2  and  O2_4 
REMARK    2  A    between atoms: O2_4  and  C3_5 
REMARK    3  A    between atoms: C3_5  and  C4_7 
ROOT
HETATM    1  C4  UNL     1       4.294  12.411  45.394  1.00  0.00     0.086 C 
HETATM    2  C5  UNL     1       4.839  12.553  43.991  1.00  0.00     0.014 C 
HETATM    3  C6  UNL     1       4.054  13.501  43.163  1.00  0.00     0.001 C 
HETATM    4  C7  UNL     1       3.723  14.797  43.828  1.00  0.00     0.000 C 
HETATM    5  C8  UNL     1       2.997  14.451  45.137  1.00  0.00     0.001 C 
HETATM    6  C9  UNL     1       4.038  13.791  46.016  1.00  0.00     0.014 C 
ENDROOT
BRANCH   1   7
HETATM    7  C3  UNL     1       5.271  11.752  46.293  1.00  0.00     0.270 C 
HETATM    8  O3  UNL     1       4.991  11.698  47.515  1.00  0.00    -0.264 OA
BRANCH   7   9
HETATM    9  O2  UNL     1       6.457  11.203  45.859  1.00  0.00    -0.245 OA
BRANCH   9  10
HETATM   10  C2  UNL     1       6.704   9.844  45.766  1.00  0.00     0.262 C 
HETATM   11  C1  UNL     1       6.363   9.042  44.560  1.00  0.00     0.126 C 
HETATM   12  O1  UNL     1       7.236   9.273  46.740  1.00  0.00    -0.265 OA
ENDBRANCH   9  10
ENDBRANCH   7   9
ENDBRANCH   1   7
TORSDOF 3
ENDMDL
MODEL 4
REMARK VINA RESULT: -6.051482012      2.859      5.121
REMARK  3 active torsions:
REMARK  status: ('A' for Active; 'I' for Inactive)
REMARK    1  A    between atoms: C2_2  and  O2_4 
REMARK    2  A    between atoms: O2_4  and  C3_5 
REMARK    3  A    between atoms: C3_5  and  C4_7 
ROOT
HETATM    1  C4  UNL     1       4.930  12.171  43.882  1.00  0.00     0.086 C 
HETATM    2  C5  UNL     1       5.383  11.652  42.537  1.00  0.00     0.014 C 
HETATM    3  C6  UNL     1       4.593  12.209  41.411  1.00  0.00     0.001 C 
HETATM    4  C7  UNL     1       4.377  13.686  41.459  1.00  0.00     0.000 C 
HETATM    5  C8  UNL     1       3.727  13.994  42.816  1.00  0.00     0.001 C 
HETATM    6  C9  UNL     1       4.790  13.700  43.853  1.00  0.00     0.014 C 
ENDROOT
BRANCH   1   7
HETATM    7  C3  UNL     1       5.931  11.890  44.938  1.00  0.00     0.270 C 
HETATM    8  O3  UNL     1       7.127  12.189  44.700  1.00  0.00    -0.264 OA
BRANCH   7   9
HETATM    9  O2  UNL     1       5.618  11.324  46.153  1.00  0.00    -0.245 OA
BRANCH   9  10
HETATM   10  C2  UNL     1       4.792  11.904  47.100  1.00  0.00     0.262 C 
HETATM   11  C1  UNL     1       3.359  12.210  46.842  1.00  0.00     0.126 C 
HETATM   12  O1  UNL     1       5.277  12.181  48.216  1.00  0.00    -0.265 OA
ENDBRANCH   9  10
ENDBRANCH   7   9
ENDBRANCH   1   7
TORSDOF 3
ENDMDL
MODEL 5
REMARK VINA RESULT: -5.999972992      3.369      4.787
REMARK  3 active torsions:
REMARK  status: ('A' for Active; 'I' for Inactive)
REMARK    1  A    between atoms: C2_2  and  O2_4 
REMARK    2  A    between atoms: O2_4  and  C3_5 
REMARK    3  A    between atoms: C3_5  and  C4_7 
ROOT
HETATM    1  C4  UNL     1       4.559  12.178  44.634  1.00  0.00     0.086 C 
HETATM    2  C5  UNL     1       4.873  12.853  43.320  1.00  0.00     0.014 C 
HETATM    3  C6  UNL     1       3.947  13.970  43.011  1.00  0.00     0.001 C 
HETATM    4  C7  UNL     1       3.695  14.913  44.142  1.00  0.00     0.000 C 
HETATM    5  C8  UNL     1       3.191  14.066  45.321  1.00  0.00     0.001 C 
HETATM    6  C9  UNL     1       4.372  13.220  45.746  1.00  0.00     0.014 C 
ENDROOT
BRANCH   1   7
HETATM    7  C3  UNL     1       5.679  11.319  45.087  1.00  0.00     0.270 C 
HETATM    8  O3  UNL     1       6.046  11.425  46.283  1.00  0.00    -0.264 OA
BRANCH   7   9
HETATM    9  O2  UNL     1       6.330  10.422  44.270  1.00  0.00    -0.245 OA
BRANCH   9  10
HETATM   10  C2  UNL     1       7.693  10.429  44.028  1.00  0.00     0.262 C 
HETATM   11  C1  UNL     1       8.406  11.606  43.461  1.00  0.00     0.126 C 
HETATM   12  O1  UNL     1       8.345   9.400  44.298  1.00  0.00    -0.265 OA
ENDBRANCH   9  10
ENDBRANCH   7   9
ENDBRANCH   1   7
TORSDOF 3
ENDMDL
