MODEL 1
REMARK VINA RESULT: -5.484791821      0.000      0.000
REMARK  1 active torsions:
REMARK  status: ('A' for Active; 'I' for Inactive)
REMARK    1  A    between atoms: C2_2  and  C3_3 
ROOT
HETATM    1  C3  UNL     1       9.643   6.151  40.937  1.00  0.00     0.092 C 
HETATM    2  C4  UNL     1       8.726   5.117  41.436  1.00  0.00     0.043 C 
HETATM    3  C5  UNL     1       8.652   4.939  42.913  1.00  0.00     0.038 C 
HETATM    4  C6  UNL     1       8.571   6.226  43.685  1.00  0.00     0.163 C 
HETATM    5  C7  UNL     1       8.101   7.376  42.852  1.00  0.00     0.070 C 
HETATM    6  C8  UNL     1       9.207   7.772  41.917  1.00  0.00     0.160 C 
HETATM    7  O1  UNL     1       8.923   7.306  40.613  1.00  0.00    -0.369 OA
HETATM    8  C9  UNL     1      10.404   6.912  41.967  1.00  0.00     0.223 C 
HETATM    9  O2  UNL     1      10.667   6.263  43.122  1.00  0.00    -0.230 OA
HETATM   10  O3  UNL     1       9.876   6.547  44.122  1.00  0.00    -0.235 OA
ENDROOT
BRANCH   1  11
HETATM   11  C2  UNL     1      10.542   5.728  39.797  1.00  0.00     0.036 C 
HETATM   12  C1  UNL     1      11.541   4.705  40.249  1.00  0.00     0.008 C 
ENDBRANCH   1  11
TORSDOF 1
ENDMDL
MODEL 2
REMARK VINA RESULT: -5.392554882      4.688      6.844
REMARK  1 active torsions:
REMARK  status: ('A' for Active; 'I' for Inactive)
REMARK    1  A    between atoms: C2_2  and  C3_3 
ROOT
HETATM    1  C3  UNL     1       5.958  11.255  44.789  1.00  0.00     0.092 C 
HETATM    2  C4  UNL     1       6.879  12.187  44.123  1.00  0.00     0.043 C 
HETATM    3  C5  UNL     1       8.165  11.622  43.627  1.00  0.00     0.038 C 
HETATM    4  C6  UNL     1       8.025  10.311  42.907  1.00  0.00     0.163 C 
HETATM    5  C7  UNL     1       6.636  10.067  42.408  1.00  0.00     0.070 C 
HETATM    6  C8  UNL     1       5.756   9.746  43.581  1.00  0.00     0.160 C 
HETATM    7  O1  UNL     1       4.953  10.865  43.898  1.00  0.00    -0.369 OA
HETATM    8  C9  UNL     1       6.413   9.841  44.897  1.00  0.00     0.223 C 
HETATM    9  O2  UNL     1       7.748   9.642  44.952  1.00  0.00    -0.230 OA
HETATM   10  O3  UNL     1       8.312   9.281  43.831  1.00  0.00    -0.235 OA
ENDROOT
BRANCH   1  11
HETATM   11  C2  UNL     1       5.373  11.742  46.096  1.00  0.00     0.036 C 
HETATM   12  C1  UNL     1       4.102  12.505  45.866  1.00  0.00     0.008 C 
ENDBRANCH   1  11
TORSDOF 1
ENDMDL
MODEL 3
REMARK VINA RESULT: -5.360365070      1.446      3.706
REMARK  1 active torsions:
REMARK  status: ('A' for Active; 'I' for Inactive)
REMARK    1  A    between atoms: C2_2  and  C3_3 
ROOT
HETATM    1  C3  UNL     1       7.537   6.689  43.212  1.00  0.00     0.092 C 
HETATM    2  C4  UNL     1       7.933   7.663  42.185  1.00  0.00     0.043 C 
HETATM    3  C5  UNL     1       9.392   7.823  41.937  1.00  0.00     0.038 C 
HETATM    4  C6  UNL     1      10.149   6.528  41.848  1.00  0.00     0.163 C 
HETATM    5  C7  UNL     1       9.266   5.359  41.543  1.00  0.00     0.070 C 
HETATM    6  C8  UNL     1       8.460   5.038  42.768  1.00  0.00     0.160 C 
HETATM    7  O1  UNL     1       7.133   5.496  42.604  1.00  0.00    -0.369 OA
HETATM    8  C9  UNL     1       8.644   5.967  43.898  1.00  0.00     0.223 C 
HETATM    9  O2  UNL     1       9.823   6.621  43.991  1.00  0.00    -0.230 OA
HETATM   10  O3  UNL     1      10.728   6.282  43.113  1.00  0.00    -0.235 OA
ENDROOT
BRANCH   1  11
HETATM   11  C2  UNL     1       6.505   7.174  44.205  1.00  0.00     0.036 C 
HETATM   12  C1  UNL     1       7.007   8.364  44.968  1.00  0.00     0.008 C 
ENDBRANCH   1  11
TORSDOF 1
ENDMDL
MODEL 4
REMARK VINA RESULT: -5.348967312      4.294      5.887
REMARK  1 active torsions:
REMARK  status: ('A' for Active; 'I' for Inactive)
REMARK    1  A    between atoms: C2_2  and  C3_3 
ROOT
HETATM    1  C3  UNL     1       6.470   9.188  44.202  1.00  0.00     0.092 C 
HETATM    2  C4  UNL     1       5.360   9.890  43.543  1.00  0.00     0.043 C 
HETATM    3  C5  UNL     1       4.998  11.232  44.081  1.00  0.00     0.038 C 
HETATM    4  C6  UNL     1       6.177  12.120  44.364  1.00  0.00     0.163 C 
HETATM    5  C7  UNL     1       7.409  11.704  43.625  1.00  0.00     0.070 C 
HETATM    6  C8  UNL     1       7.945  10.452  44.258  1.00  0.00     0.160 C 
HETATM    7  O1  UNL     1       7.638   9.335  43.447  1.00  0.00    -0.369 OA
HETATM    8  C9  UNL     1       7.115   9.897  45.342  1.00  0.00     0.223 C 
HETATM    9  O2  UNL     1       6.334  10.751  46.040  1.00  0.00    -0.230 OA
HETATM   10  O3  UNL     1       6.472  12.014  45.741  1.00  0.00    -0.235 OA
ENDROOT
BRANCH   1  11
HETATM   11  C2  UNL     1       6.214   7.736  44.537  1.00  0.00     0.036 C 
HETATM   12  C1  UNL     1       7.075   6.831  43.706  1.00  0.00     0.008 C 
ENDBRANCH   1  11
TORSDOF 1
ENDMDL
MODEL 5
REMARK VINA RESULT: -5.325369546      5.192      6.944
REMARK  1 active torsions:
REMARK  status: ('A' for Active; 'I' for Inactive)
REMARK    1  A    between atoms: C2_2  and  C3_3 
ROOT
HETATM    1  C3  UNL     1       5.460  11.785  43.555  1.00  0.00     0.092 C 
HETATM    2  C4  UNL     1       5.122  10.396  43.216  1.00  0.00     0.043 C 
HETATM    3  C5  UNL     1       6.234   9.405  43.250  1.00  0.00     0.038 C 
HETATM    4  C6  UNL     1       7.127   9.522  44.453  1.00  0.00     0.163 C 
HETATM    5  C7  UNL     1       6.479  10.247  45.589  1.00  0.00     0.070 C 
HETATM    6  C8  UNL     1       6.412  11.708  45.247  1.00  0.00     0.160 C 
HETATM    7  O1  UNL     1       5.092  12.054  44.878  1.00  0.00    -0.369 OA
HETATM    8  C9  UNL     1       6.885  12.054  43.895  1.00  0.00     0.223 C 
HETATM    9  O2  UNL     1       7.804  11.245  43.321  1.00  0.00    -0.230 OA
HETATM   10  O3  UNL     1       8.257  10.281  44.076  1.00  0.00    -0.235 OA
ENDROOT
BRANCH   1  11
HETATM   11  C2  UNL     1       4.917  12.835  42.612  1.00  0.00     0.036 C 
HETATM   12  C1  UNL     1       3.958  13.749  43.317  1.00  0.00     0.008 C 
ENDBRANCH   1  11
TORSDOF 1
ENDMDL
