MODEL 1
REMARK VINA RESULT: -4.327675144      0.000      0.000
REMARK  1 active torsions:
REMARK  status: ('A' for Active; 'I' for Inactive)
REMARK    1  A    between atoms: N3_8  and  C4_10 
ROOT
HETATM    1  C1  UNL     1       7.038   8.825  46.001  1.00  0.00     0.078 C 
HETATM    2  C2  UNL     1       6.463  10.043  45.322  1.00  0.00     0.066 A 
HETATM    3  N1  UNL     1       6.602  11.320  45.638  1.00  0.00    -0.296 N 
ATOM      4  H1  UNL     1       7.165  11.583  46.446  1.00  0.00     0.187 HD
HETATM    5  N2  UNL     1       6.038  12.221  44.945  1.00  0.00    -0.279 N 
ATOM      6  H2  UNL     1       6.142  13.207  45.186  1.00  0.00     0.189 HD
HETATM    7  C3  UNL     1       5.302  11.850  43.890  1.00  0.00     0.161 A 
HETATM    8  N3  UNL     1       4.644  12.618  43.052  1.00  0.00    -0.365 N 
ATOM      9  H3  UNL     1       4.113  12.221  42.277  1.00  0.00     0.162 HD
HETATM   10  S1  UNL     1       5.457  10.150  43.939  1.00  0.00    -0.039 SA
ENDROOT
BRANCH   8  11
HETATM   11  C4  UNL     1       4.701  14.042  43.269  1.00  0.00     0.075 C 
HETATM   12  C5  UNL     1       4.680  14.776  41.937  1.00  0.00     0.032 C 
HETATM   13  C6  UNL     1       3.517  14.429  44.122  1.00  0.00     0.032 C 
ENDBRANCH   8  11
TORSDOF 1
ENDMDL
MODEL 2
REMARK VINA RESULT: -4.282177761      1.919      2.378
REMARK  1 active torsions:
REMARK  status: ('A' for Active; 'I' for Inactive)
REMARK    1  A    between atoms: N3_8  and  C4_10 
ROOT
HETATM    1  C1  UNL     1       8.058   8.074  45.671  1.00  0.00     0.078 C 
HETATM    2  C2  UNL     1       7.131   9.261  45.739  1.00  0.00     0.066 A 
HETATM    3  N1  UNL     1       6.648   9.885  46.801  1.00  0.00    -0.296 N 
ATOM      4  H1  UNL     1       6.901   9.564  47.735  1.00  0.00     0.187 HD
HETATM    5  N2  UNL     1       5.870  10.879  46.667  1.00  0.00    -0.279 N 
ATOM      6  H2  UNL     1       5.496  11.363  47.484  1.00  0.00     0.189 HD
HETATM    7  C3  UNL     1       5.552  11.280  45.431  1.00  0.00     0.161 A 
HETATM    8  N3  UNL     1       4.773  12.278  45.078  1.00  0.00    -0.365 N 
ATOM      9  H3  UNL     1       4.601  12.493  44.097  1.00  0.00     0.162 HD
HETATM   10  S1  UNL     1       6.419  10.166  44.470  1.00  0.00    -0.039 SA
ENDROOT
BRANCH   8  11
HETATM   11  C4  UNL     1       4.170  13.055  46.133  1.00  0.00     0.075 C 
HETATM   12  C5  UNL     1       3.443  14.256  45.547  1.00  0.00     0.032 C 
HETATM   13  C6  UNL     1       3.218  12.157  46.886  1.00  0.00     0.032 C 
ENDBRANCH   8  11
TORSDOF 1
ENDMDL
MODEL 3
REMARK VINA RESULT: -4.224212132      2.660      3.884
REMARK  1 active torsions:
REMARK  status: ('A' for Active; 'I' for Inactive)
REMARK    1  A    between atoms: N3_8  and  C4_10 
ROOT
HETATM    1  C1  UNL     1       3.371  12.451  47.168  1.00  0.00     0.078 C 
HETATM    2  C2  UNL     1       4.508  12.142  46.228  1.00  0.00     0.066 A 
HETATM    3  N1  UNL     1       5.638  11.498  46.466  1.00  0.00    -0.296 N 
ATOM      4  H1  UNL     1       5.825  11.132  47.399  1.00  0.00     0.187 HD
HETATM    5  N2  UNL     1       6.493  11.330  45.542  1.00  0.00    -0.279 N 
ATOM      6  H2  UNL     1       7.365  10.833  45.722  1.00  0.00     0.189 HD
HETATM    7  C3  UNL     1       6.224  11.819  44.326  1.00  0.00     0.161 A 
HETATM    8  N3  UNL     1       6.966  11.753  43.244  1.00  0.00    -0.365 N 
ATOM      9  H3  UNL     1       6.657  12.165  42.365  1.00  0.00     0.162 HD
HETATM   10  S1  UNL     1       4.690  12.531  44.568  1.00  0.00    -0.039 SA
ENDROOT
BRANCH   8  11
HETATM   11  C4  UNL     1       8.235  11.076  43.349  1.00  0.00     0.075 C 
HETATM   12  C5  UNL     1       8.391  10.077  42.213  1.00  0.00     0.032 C 
HETATM   13  C6  UNL     1       9.324  12.121  43.307  1.00  0.00     0.032 C 
ENDBRANCH   8  11
TORSDOF 1
ENDMDL
MODEL 4
REMARK VINA RESULT: -4.223348403      1.621      1.948
REMARK  1 active torsions:
REMARK  status: ('A' for Active; 'I' for Inactive)
REMARK    1  A    between atoms: N3_8  and  C4_10 
ROOT
HETATM    1  C1  UNL     1       7.710   8.397  44.252  1.00  0.00     0.078 C 
HETATM    2  C2  UNL     1       6.881   9.617  43.940  1.00  0.00     0.066 A 
HETATM    3  N1  UNL     1       5.574   9.715  43.757  1.00  0.00    -0.296 N 
ATOM      4  H1  UNL     1       4.990   8.882  43.823  1.00  0.00     0.187 HD
HETATM    5  N2  UNL     1       5.042  10.838  43.499  1.00  0.00    -0.279 N 
ATOM      6  H2  UNL     1       4.035  10.918  43.357  1.00  0.00     0.189 HD
HETATM    7  C3  UNL     1       5.831  11.916  43.416  1.00  0.00     0.161 A 
HETATM    8  N3  UNL     1       5.482  13.157  43.162  1.00  0.00    -0.365 N 
ATOM      9  H3  UNL     1       6.175  13.904  43.124  1.00  0.00     0.162 HD
HETATM   10  S1  UNL     1       7.370  11.246  43.726  1.00  0.00    -0.039 SA
ENDROOT
BRANCH   8  11
HETATM   11  C4  UNL     1       4.082  13.422  42.939  1.00  0.00     0.075 C 
HETATM   12  C5  UNL     1       3.576  14.444  43.946  1.00  0.00     0.032 C 
HETATM   13  C6  UNL     1       3.925  13.927  41.525  1.00  0.00     0.032 C 
ENDBRANCH   8  11
TORSDOF 1
ENDMDL
MODEL 5
REMARK VINA RESULT: -4.222055100      2.305      2.768
REMARK  1 active torsions:
REMARK  status: ('A' for Active; 'I' for Inactive)
REMARK    1  A    between atoms: N3_8  and  C4_10 
ROOT
HETATM    1  C1  UNL     1       8.552   9.962  41.970  1.00  0.00     0.078 C 
HETATM    2  C2  UNL     1       7.552  10.614  42.891  1.00  0.00     0.066 A 
HETATM    3  N1  UNL     1       7.735  11.578  43.778  1.00  0.00    -0.296 N 
ATOM      4  H1  UNL     1       8.663  11.979  43.904  1.00  0.00     0.187 HD
HETATM    5  N2  UNL     1       6.764  12.007  44.474  1.00  0.00    -0.279 N 
ATOM      6  H2  UNL     1       6.902  12.750  45.159  1.00  0.00     0.189 HD
HETATM    7  C3  UNL     1       5.556  11.463  44.291  1.00  0.00     0.161 A 
HETATM    8  N3  UNL     1       4.432  11.761  44.903  1.00  0.00    -0.365 N 
ATOM      9  H3  UNL     1       3.563  11.277  44.679  1.00  0.00     0.162 HD
HETATM   10  S1  UNL     1       5.875  10.308  43.074  1.00  0.00    -0.039 SA
ENDROOT
BRANCH   8  11
HETATM   11  C4  UNL     1       4.474  12.800  45.902  1.00  0.00     0.075 C 
HETATM   12  C5  UNL     1       3.544  13.939  45.514  1.00  0.00     0.032 C 
HETATM   13  C6  UNL     1       4.068  12.191  47.222  1.00  0.00     0.032 C 
ENDBRANCH   8  11
TORSDOF 1
ENDMDL
