MODEL 1
REMARK VINA RESULT: -4.744870684      0.000      0.000
REMARK  3 active torsions:
REMARK  status: ('A' for Active; 'I' for Inactive)
REMARK       I    between atoms: C2_2  and  N1_4 
REMARK    1  A    between atoms: N1_4  and  N2_6 
REMARK    2  A    between atoms: N3_8  and  O2_9 
REMARK    3  A    between atoms: N3_8  and  C3_11 
ROOT
HETATM    1  N2  UNL     1       3.586  14.532  45.115  1.00  0.00    -0.218 N 
ATOM      2  H2  UNL     1       3.334  13.760  45.732  1.00  0.00     0.210 HD
HETATM    3  N3  UNL     1       4.322  14.242  44.151  1.00  0.00    -0.178 N 
ENDROOT
BRANCH   1   4
HETATM    4  N1  UNL     1       3.072  15.755  45.449  1.00  0.00    -0.254 N 
HETATM    5  C2  UNL     1       3.276  16.383  46.698  1.00  0.00     0.233 C 
HETATM    6  C1  UNL     1       2.696  17.704  47.000  1.00  0.00     0.119 C 
HETATM    7  O1  UNL     1       3.968  15.787  47.552  1.00  0.00    -0.272 OA
ATOM      8  H1  UNL     1       2.508  16.244  44.754  1.00  0.00     0.191 HD
ENDBRANCH   1   4
BRANCH   3   9
HETATM    9  O2  UNL     1       4.652  15.297  43.328  1.00  0.00    -0.270 OA
ATOM     10  H2  UNL     1       5.579  15.391  43.145  1.00  0.00     0.246 HD
ENDBRANCH   3   9
BRANCH   3  11
HETATM   11  C3  UNL     1       4.848  12.962  43.816  1.00  0.00     0.067 C 
HETATM   12  C4  UNL     1       4.392  11.903  44.829  1.00  0.00     0.042 C 
HETATM   13  C5  UNL     1       6.345  12.912  43.713  1.00  0.00     0.042 C 
HETATM   14  C6  UNL     1       4.318  12.600  42.428  1.00  0.00     0.042 C 
ENDBRANCH   3  11
TORSDOF 3
ENDMDL
MODEL 2
REMARK VINA RESULT: -4.633797509      2.631      3.390
REMARK  3 active torsions:
REMARK  status: ('A' for Active; 'I' for Inactive)
REMARK       I    between atoms: C2_2  and  N1_4 
REMARK    1  A    between atoms: N1_4  and  N2_6 
REMARK    2  A    between atoms: N3_8  and  O2_9 
REMARK    3  A    between atoms: N3_8  and  C3_11 
ROOT
HETATM    1  N2  UNL     1       5.248  12.423  44.146  1.00  0.00    -0.218 N 
ATOM      2  H2  UNL     1       5.123  12.457  43.134  1.00  0.00     0.210 HD
HETATM    3  N3  UNL     1       6.197  11.724  44.554  1.00  0.00    -0.178 N 
ENDROOT
BRANCH   1   4
HETATM    4  N1  UNL     1       4.354  13.149  44.883  1.00  0.00    -0.254 N 
HETATM    5  C2  UNL     1       3.712  14.319  44.418  1.00  0.00     0.233 C 
HETATM    6  C1  UNL     1       2.756  15.060  45.261  1.00  0.00     0.119 C 
HETATM    7  O1  UNL     1       3.976  14.718  43.263  1.00  0.00    -0.272 OA
ATOM      8  H1  UNL     1       4.136  12.826  45.826  1.00  0.00     0.191 HD
ENDBRANCH   1   4
BRANCH   3   9
HETATM    9  O2  UNL     1       6.351  11.689  45.923  1.00  0.00    -0.270 OA
ATOM     10  H2  UNL     1       6.947  11.022  46.244  1.00  0.00     0.246 HD
ENDBRANCH   3   9
BRANCH   3  11
HETATM   11  C3  UNL     1       7.120  10.974  43.772  1.00  0.00     0.067 C 
HETATM   12  C4  UNL     1       7.420   9.620  44.431  1.00  0.00     0.042 C 
HETATM   13  C5  UNL     1       8.421  11.673  43.504  1.00  0.00     0.042 C 
HETATM   14  C6  UNL     1       6.478  10.742  42.404  1.00  0.00     0.042 C 
ENDBRANCH   3  11
TORSDOF 3
ENDMDL
MODEL 3
REMARK VINA RESULT: -4.593945255      2.588      3.448
REMARK  3 active torsions:
REMARK  status: ('A' for Active; 'I' for Inactive)
REMARK       I    between atoms: C2_2  and  N1_4 
REMARK    1  A    between atoms: N1_4  and  N2_6 
REMARK    2  A    between atoms: N3_8  and  O2_9 
REMARK    3  A    between atoms: N3_8  and  C3_11 
ROOT
HETATM    1  N2  UNL     1       4.910  12.390  44.406  1.00  0.00    -0.218 N 
ATOM      2  H2  UNL     1       4.653  12.293  43.423  1.00  0.00     0.210 HD
HETATM    3  N3  UNL     1       5.912  11.744  44.774  1.00  0.00    -0.178 N 
ENDROOT
BRANCH   1   4
HETATM    4  N1  UNL     1       4.112  13.212  45.153  1.00  0.00    -0.254 N 
HETATM    5  C2  UNL     1       3.570  14.429  44.682  1.00  0.00     0.233 C 
HETATM    6  C1  UNL     1       2.715  15.273  45.537  1.00  0.00     0.119 C 
HETATM    7  O1  UNL     1       3.834  14.778  43.511  1.00  0.00    -0.272 OA
ATOM      8  H1  UNL     1       3.895  12.929  46.109  1.00  0.00     0.191 HD
ENDBRANCH   1   4
BRANCH   3   9
HETATM    9  O2  UNL     1       6.244  11.887  46.103  1.00  0.00    -0.270 OA
ATOM     10  H2  UNL     1       5.537  12.178  46.667  1.00  0.00     0.246 HD
ENDBRANCH   3   9
BRANCH   3  11
HETATM   11  C3  UNL     1       6.733  10.892  43.982  1.00  0.00     0.067 C 
HETATM   12  C4  UNL     1       8.054  11.587  43.624  1.00  0.00     0.042 C 
HETATM   13  C5  UNL     1       6.089  10.408  42.715  1.00  0.00     0.042 C 
HETATM   14  C6  UNL     1       7.025   9.640  44.810  1.00  0.00     0.042 C 
ENDBRANCH   3  11
TORSDOF 3
ENDMDL
MODEL 4
REMARK VINA RESULT: -4.587722089      2.561      3.258
REMARK  3 active torsions:
REMARK  status: ('A' for Active; 'I' for Inactive)
REMARK       I    between atoms: C2_2  and  N1_4 
REMARK    1  A    between atoms: N1_4  and  N2_6 
REMARK    2  A    between atoms: N3_8  and  O2_9 
REMARK    3  A    between atoms: N3_8  and  C3_11 
ROOT
HETATM    1  N2  UNL     1       4.758  12.420  44.628  1.00  0.00    -0.218 N 
ATOM      2  H2  UNL     1       4.514  12.311  43.643  1.00  0.00     0.210 HD
HETATM    3  N3  UNL     1       5.703  11.716  45.036  1.00  0.00    -0.178 N 
ENDROOT
BRANCH   1   4
HETATM    4  N1  UNL     1       4.007  13.320  45.333  1.00  0.00    -0.254 N 
HETATM    5  C2  UNL     1       3.504  14.525  44.793  1.00  0.00     0.233 C 
HETATM    6  C1  UNL     1       2.699  15.456  45.605  1.00  0.00     0.119 C 
HETATM    7  O1  UNL     1       3.760  14.788  43.598  1.00  0.00    -0.272 OA
ATOM      8  H1  UNL     1       3.796  13.107  46.308  1.00  0.00     0.191 HD
ENDBRANCH   1   4
BRANCH   3   9
HETATM    9  O2  UNL     1       6.019  11.876  46.368  1.00  0.00    -0.270 OA
ATOM     10  H2  UNL     1       6.652  12.560  46.553  1.00  0.00     0.246 HD
ENDBRANCH   3   9
BRANCH   3  11
HETATM   11  C3  UNL     1       6.476  10.784  44.288  1.00  0.00     0.067 C 
HETATM   12  C4  UNL     1       5.621  10.113  43.203  1.00  0.00     0.042 C 
HETATM   13  C5  UNL     1       7.128   9.712  45.113  1.00  0.00     0.042 C 
HETATM   14  C6  UNL     1       7.616  11.561  43.629  1.00  0.00     0.042 C 
ENDBRANCH   3  11
TORSDOF 3
ENDMDL
MODEL 5
REMARK VINA RESULT: -4.536382281      7.534      9.642
REMARK  3 active torsions:
REMARK  status: ('A' for Active; 'I' for Inactive)
REMARK       I    between atoms: C2_2  and  N1_4 
REMARK    1  A    between atoms: N1_4  and  N2_6 
REMARK    2  A    between atoms: N3_8  and  O2_9 
REMARK    3  A    between atoms: N3_8  and  C3_11 
ROOT
HETATM    1  N2  UNL     1       8.354   6.811  43.381  1.00  0.00    -0.218 N 
ATOM      2  H2  UNL     1       7.995   6.129  44.049  1.00  0.00     0.210 HD
HETATM    3  N3  UNL     1       8.100   8.006  43.631  1.00  0.00    -0.178 N 
ENDROOT
BRANCH   1   4
HETATM    4  N1  UNL     1       9.053   6.299  42.322  1.00  0.00    -0.254 N 
HETATM    5  C2  UNL     1      10.431   5.989  42.361  1.00  0.00     0.233 C 
HETATM    6  C1  UNL     1      11.130   5.438  41.186  1.00  0.00     0.119 C 
HETATM    7  O1  UNL     1      11.052   6.194  43.426  1.00  0.00    -0.272 OA
ATOM      8  H1  UNL     1       8.549   6.130  41.452  1.00  0.00     0.191 HD
ENDBRANCH   1   4
BRANCH   3   9
HETATM    9  O2  UNL     1       8.593   8.913  42.718  1.00  0.00    -0.270 OA
ATOM     10  H2  UNL     1       9.260   8.574  42.132  1.00  0.00     0.246 HD
ENDBRANCH   3   9
BRANCH   3  11
HETATM   11  C3  UNL     1       7.371   8.524  44.739  1.00  0.00     0.067 C 
HETATM   12  C4  UNL     1       6.960   9.981  44.489  1.00  0.00     0.042 C 
HETATM   13  C5  UNL     1       8.097   8.451  46.051  1.00  0.00     0.042 C 
HETATM   14  C6  UNL     1       6.118   7.662  44.903  1.00  0.00     0.042 C 
ENDBRANCH   3  11
TORSDOF 3
ENDMDL
