MODEL 1
REMARK VINA RESULT: -4.701665451      0.000      0.000
REMARK  2 active torsions:
REMARK  status: ('A' for Active; 'I' for Inactive)
REMARK    1  A    between atoms: O1_2  and  C2_3 
REMARK    2  A    between atoms: C2_3  and  C3_5 
ROOT
HETATM    1  C3  UNL     1       6.414  11.799  43.733  1.00  0.00     0.126 C 
HETATM    2  C4  UNL     1       6.392  11.689  45.234  1.00  0.00     0.023 C 
HETATM    3  C5  UNL     1       5.112  12.075  45.869  1.00  0.00     0.012 C 
HETATM    4  C6  UNL     1       6.790  10.250  45.449  1.00  0.00     0.238 C 
HETATM    5  N1  UNL     1       7.723   9.951  44.411  1.00  0.00    -0.066 N 
ATOM      6  H11 UNL     1       7.615   9.003  44.052  1.00  0.00     0.278 HD
ATOM      7  H12 UNL     1       8.678   9.863  44.759  1.00  0.00     0.278 HD
HETATM    8  C7  UNL     1       7.606  10.944  43.380  1.00  0.00     0.131 C 
HETATM    9  C8  UNL     1       7.480  10.274  42.047  1.00  0.00     0.046 C 
HETATM   10  C9  UNL     1       8.834  11.826  43.438  1.00  0.00     0.046 C 
ENDROOT
BRANCH   1  11
HETATM   11  C2  UNL     1       5.172  11.365  43.093  1.00  0.00     0.265 C 
HETATM   12  O2  UNL     1       4.708  10.198  43.130  1.00  0.00    -0.265 OA
BRANCH  11  13
HETATM   13  O1  UNL     1       4.442  12.312  42.387  1.00  0.00    -0.326 OA
HETATM   14  C1  UNL     1       4.822  13.693  42.429  1.00  0.00     0.213 C 
ENDBRANCH  11  13
ENDBRANCH   1  11
TORSDOF 2
ENDMDL
MODEL 2
REMARK VINA RESULT: -4.524289001      1.803      2.812
REMARK  2 active torsions:
REMARK  status: ('A' for Active; 'I' for Inactive)
REMARK    1  A    between atoms: O1_2  and  C2_3 
REMARK    2  A    between atoms: C2_3  and  C3_5 
ROOT
HETATM    1  C3  UNL     1       6.938  11.084  45.022  1.00  0.00     0.126 C 
HETATM    2  C4  UNL     1       7.238   9.615  45.166  1.00  0.00     0.023 C 
HETATM    3  C5  UNL     1       6.803   9.012  46.445  1.00  0.00     0.012 C 
HETATM    4  C6  UNL     1       6.572   9.038  43.941  1.00  0.00     0.238 C 
HETATM    5  N1  UNL     1       6.727  10.023  42.920  1.00  0.00    -0.066 N 
ATOM      6  H11 UNL     1       5.907  10.091  42.318  1.00  0.00     0.278 HD
ATOM      7  H12 UNL     1       7.403   9.744  42.209  1.00  0.00     0.278 HD
HETATM    8  C7  UNL     1       7.063  11.278  43.532  1.00  0.00     0.131 C 
HETATM    9  C8  UNL     1       6.171  12.354  42.998  1.00  0.00     0.046 C 
HETATM   10  C9  UNL     1       8.517  11.571  43.230  1.00  0.00     0.046 C 
ENDROOT
BRANCH   1  11
HETATM   11  C2  UNL     1       5.632  11.471  45.556  1.00  0.00     0.265 C 
HETATM   12  O2  UNL     1       4.529  11.263  44.993  1.00  0.00    -0.265 OA
BRANCH  11  13
HETATM   13  O1  UNL     1       5.601  12.123  46.782  1.00  0.00    -0.326 OA
HETATM   14  C1  UNL     1       4.386  12.171  47.542  1.00  0.00     0.213 C 
ENDBRANCH  11  13
ENDBRANCH   1  11
TORSDOF 2
ENDMDL
MODEL 3
REMARK VINA RESULT: -4.511977840      1.986      3.380
REMARK  2 active torsions:
REMARK  status: ('A' for Active; 'I' for Inactive)
REMARK    1  A    between atoms: O1_2  and  C2_3 
REMARK    2  A    between atoms: C2_3  and  C3_5 
ROOT
HETATM    1  C3  UNL     1       5.854  10.022  44.681  1.00  0.00     0.126 C 
HETATM    2  C4  UNL     1       5.697  10.244  43.201  1.00  0.00     0.023 C 
HETATM    3  C5  UNL     1       5.009  11.500  42.828  1.00  0.00     0.012 C 
HETATM    4  C6  UNL     1       7.121  10.141  42.714  1.00  0.00     0.238 C 
HETATM    5  N1  UNL     1       7.740   9.159  43.546  1.00  0.00    -0.066 N 
ATOM      6  H11 UNL     1       8.707   9.392  43.770  1.00  0.00     0.278 HD
ATOM      7  H12 UNL     1       7.916   8.285  43.051  1.00  0.00     0.278 HD
HETATM    8  C7  UNL     1       6.935   8.970  44.720  1.00  0.00     0.131 C 
HETATM    9  C8  UNL     1       7.797   9.053  45.941  1.00  0.00     0.046 C 
HETATM   10  C9  UNL     1       6.262   7.619  44.614  1.00  0.00     0.046 C 
ENDROOT
BRANCH   1  11
HETATM   11  C2  UNL     1       6.190  11.236  45.425  1.00  0.00     0.265 C 
HETATM   12  O2  UNL     1       7.048  12.085  45.076  1.00  0.00    -0.265 OA
BRANCH  11  13
HETATM   13  O1  UNL     1       5.514  11.476  46.614  1.00  0.00    -0.326 OA
HETATM   14  C1  UNL     1       4.314  12.260  46.615  1.00  0.00     0.213 C 
ENDBRANCH  11  13
ENDBRANCH   1  11
TORSDOF 2
ENDMDL
MODEL 4
REMARK VINA RESULT: -4.429703492      2.185      3.549
REMARK  2 active torsions:
REMARK  status: ('A' for Active; 'I' for Inactive)
REMARK    1  A    between atoms: O1_2  and  C2_3 
REMARK    2  A    between atoms: C2_3  and  C3_5 
ROOT
HETATM    1  C3  UNL     1       5.284  11.172  44.388  1.00  0.00     0.126 C 
HETATM    2  C4  UNL     1       4.326  12.331  44.457  1.00  0.00     0.023 C 
HETATM    3  C5  UNL     1       3.967  12.763  45.827  1.00  0.00     0.012 C 
HETATM    4  C6  UNL     1       5.039  13.377  43.636  1.00  0.00     0.238 C 
HETATM    5  N1  UNL     1       5.709  12.659  42.600  1.00  0.00    -0.066 N 
ATOM      6  H11 UNL     1       6.624  13.055  42.383  1.00  0.00     0.278 HD
ATOM      7  H12 UNL     1       5.275  12.796  41.688  1.00  0.00     0.278 HD
HETATM    8  C7  UNL     1       5.786  11.273  42.969  1.00  0.00     0.131 C 
HETATM    9  C8  UNL     1       7.190  10.783  42.801  1.00  0.00     0.046 C 
HETATM   10  C9  UNL     1       4.826  10.502  42.089  1.00  0.00     0.046 C 
ENDROOT
BRANCH   1  11
HETATM   11  C2  UNL     1       6.346  11.227  45.391  1.00  0.00     0.265 C 
HETATM   12  O2  UNL     1       7.253  12.096  45.439  1.00  0.00    -0.265 OA
BRANCH  11  13
HETATM   13  O1  UNL     1       6.364  10.244  46.371  1.00  0.00    -0.326 OA
HETATM   14  C1  UNL     1       7.170   9.070  46.201  1.00  0.00     0.213 C 
ENDBRANCH  11  13
ENDBRANCH   1  11
TORSDOF 2
ENDMDL
MODEL 5
REMARK VINA RESULT: -4.372554573      1.308      1.637
REMARK  2 active torsions:
REMARK  status: ('A' for Active; 'I' for Inactive)
REMARK    1  A    between atoms: O1_2  and  C2_3 
REMARK    2  A    between atoms: C2_3  and  C3_5 
ROOT
HETATM    1  C3  UNL     1       6.278  11.601  43.039  1.00  0.00     0.126 C 
HETATM    2  C4  UNL     1       5.760  12.627  44.011  1.00  0.00     0.023 C 
HETATM    3  C5  UNL     1       4.388  13.109  43.737  1.00  0.00     0.012 C 
HETATM    4  C6  UNL     1       5.924  11.918  45.332  1.00  0.00     0.238 C 
HETATM    5  N1  UNL     1       7.109  11.133  45.202  1.00  0.00    -0.066 N 
ATOM      6  H11 UNL     1       7.031  10.230  45.669  1.00  0.00     0.278 HD
ATOM      7  H12 UNL     1       7.886  11.507  45.746  1.00  0.00     0.278 HD
HETATM    8  C7  UNL     1       7.430  11.003  43.808  1.00  0.00     0.131 C 
HETATM    9  C8  UNL     1       7.678   9.565  43.480  1.00  0.00     0.046 C 
HETATM   10  C9  UNL     1       8.653  11.850  43.529  1.00  0.00     0.046 C 
ENDROOT
BRANCH   1  11
HETATM   11  C2  UNL     1       5.274  10.619  42.630  1.00  0.00     0.265 C 
HETATM   12  O2  UNL     1       4.626   9.878  43.411  1.00  0.00    -0.265 OA
BRANCH  11  13
HETATM   13  O1  UNL     1       5.010  10.487  41.273  1.00  0.00    -0.326 OA
HETATM   14  C1  UNL     1       4.764  11.649  40.471  1.00  0.00     0.213 C 
ENDBRANCH  11  13
ENDBRANCH   1  11
TORSDOF 2
ENDMDL
