MODEL 1
REMARK VINA RESULT: -4.354345112      0.000      0.000
REMARK  2 active torsions:
REMARK  status: ('A' for Active; 'I' for Inactive)
REMARK    1  A    between atoms: C2_2  and  N1_4 
REMARK    2  A    between atoms: C4_5  and  N2_6 
ROOT
HETATM    1  N1  UNL     1       7.095  11.052  44.381  1.00  0.00    -0.208 N 
HETATM    2  C4  UNL     1       6.719  10.134  45.401  1.00  0.00     0.674 C 
HETATM    3  N3  UNL     1       5.946  10.737  46.264  1.00  0.00    -0.224 N 
ATOM      4  H3  UNL     1       5.544  10.291  47.089  1.00  0.00     0.177 HD
HETATM    5  C7  UNL     1       5.736  12.106  45.901  1.00  0.00     0.163 C 
HETATM    6  C8  UNL     1       6.130  12.124  44.439  1.00  0.00     0.117 C 
HETATM    7  C9  UNL     1       4.906  11.859  43.617  1.00  0.00     0.034 C 
ENDROOT
BRANCH   1   8
HETATM    8  C2  UNL     1       8.233  10.850  43.520  1.00  0.00     0.094 C 
HETATM    9  C1  UNL     1       7.853  10.333  42.168  1.00  0.00     0.032 C 
HETATM   10  C3  UNL     1       9.017  12.146  43.320  1.00  0.00     0.032 C 
ENDBRANCH   1   8
BRANCH   2  11
HETATM   11  N2  UNL     1       7.110   8.768  45.489  1.00  0.00    -0.227 N 
HETATM   12  C5  UNL     1       6.395   7.734  44.777  1.00  0.00     0.168 C 
HETATM   13  C6  UNL     1       8.243   8.383  46.299  1.00  0.00     0.168 C 
ENDBRANCH   2  11
TORSDOF 2
ENDMDL
MODEL 2
REMARK VINA RESULT: -4.117202146      1.156      3.255
REMARK  2 active torsions:
REMARK  status: ('A' for Active; 'I' for Inactive)
REMARK    1  A    between atoms: C2_2  and  N1_4 
REMARK    2  A    between atoms: C4_5  and  N2_6 
ROOT
HETATM    1  N1  UNL     1       6.862  10.584  43.649  1.00  0.00    -0.208 N 
HETATM    2  C4  UNL     1       7.390   9.285  43.891  1.00  0.00     0.674 C 
HETATM    3  N3  UNL     1       8.213   8.965  42.929  1.00  0.00    -0.224 N 
ATOM      4  H3  UNL     1       8.720   8.082  42.874  1.00  0.00     0.177 HD
HETATM    5  C7  UNL     1       8.310  10.016  41.961  1.00  0.00     0.163 C 
HETATM    6  C8  UNL     1       7.769  11.211  42.716  1.00  0.00     0.117 C 
HETATM    7  C9  UNL     1       8.914  11.906  43.385  1.00  0.00     0.034 C 
ENDROOT
BRANCH   1   8
HETATM    8  C2  UNL     1       5.655  11.073  44.267  1.00  0.00     0.094 C 
HETATM    9  C1  UNL     1       5.919  11.868  45.506  1.00  0.00     0.032 C 
HETATM   10  C3  UNL     1       4.856  11.953  43.308  1.00  0.00     0.032 C 
ENDBRANCH   1   8
BRANCH   2  11
HETATM   11  N2  UNL     1       7.085   8.448  45.000  1.00  0.00    -0.227 N 
HETATM   12  C5  UNL     1       7.609   8.724  46.318  1.00  0.00     0.168 C 
HETATM   13  C6  UNL     1       6.235   7.291  44.831  1.00  0.00     0.168 C 
ENDBRANCH   2  11
TORSDOF 2
ENDMDL
MODEL 3
REMARK VINA RESULT: -4.073738077      5.225      7.094
REMARK  2 active torsions:
REMARK  status: ('A' for Active; 'I' for Inactive)
REMARK    1  A    between atoms: C2_2  and  N1_4 
REMARK    2  A    between atoms: C4_5  and  N2_6 
ROOT
HETATM    1  N1  UNL     1      10.072   7.525  40.261  1.00  0.00    -0.208 N 
HETATM    2  C4  UNL     1       9.232   6.624  39.551  1.00  0.00     0.674 C 
HETATM    3  N3  UNL     1       9.778   5.438  39.541  1.00  0.00    -0.224 N 
ATOM      4  H3  UNL     1       9.368   4.618  39.093  1.00  0.00     0.177 HD
HETATM    5  C7  UNL     1      11.028   5.438  40.239  1.00  0.00     0.163 C 
HETATM    6  C8  UNL     1      10.941   6.702  41.069  1.00  0.00     0.117 C 
HETATM    7  C9  UNL     1      10.352   6.354  42.401  1.00  0.00     0.034 C 
ENDROOT
BRANCH   1   8
HETATM    8  C2  UNL     1       9.986   8.958  40.125  1.00  0.00     0.094 C 
HETATM    9  C1  UNL     1       9.135   9.591  41.180  1.00  0.00     0.032 C 
HETATM   10  C3  UNL     1      11.367   9.607  40.188  1.00  0.00     0.032 C 
ENDBRANCH   1   8
BRANCH   2  11
HETATM   11  N2  UNL     1       7.985   6.941  38.941  1.00  0.00    -0.227 N 
HETATM   12  C5  UNL     1       6.765   7.003  39.711  1.00  0.00     0.168 C 
HETATM   13  C6  UNL     1       7.914   7.211  37.523  1.00  0.00     0.168 C 
ENDBRANCH   2  11
TORSDOF 2
ENDMDL
MODEL 4
REMARK VINA RESULT: -4.071562172      1.863      3.368
REMARK  2 active torsions:
REMARK  status: ('A' for Active; 'I' for Inactive)
REMARK    1  A    between atoms: C2_2  and  N1_4 
REMARK    2  A    between atoms: C4_5  and  N2_6 
ROOT
HETATM    1  N1  UNL     1       4.867  12.757  45.171  1.00  0.00    -0.208 N 
HETATM    2  C4  UNL     1       5.760  11.659  45.324  1.00  0.00     0.674 C 
HETATM    3  N3  UNL     1       5.911  11.397  46.594  1.00  0.00    -0.224 N 
ATOM      4  H3  UNL     1       6.503  10.652  46.963  1.00  0.00     0.177 HD
HETATM    5  C7  UNL     1       5.137  12.291  47.402  1.00  0.00     0.163 C 
HETATM    6  C8  UNL     1       4.135  12.846  46.412  1.00  0.00     0.117 C 
HETATM    7  C9  UNL     1       2.914  11.981  46.439  1.00  0.00     0.034 C 
ENDROOT
BRANCH   1   8
HETATM    8  C2  UNL     1       4.793  13.552  43.971  1.00  0.00     0.094 C 
HETATM    9  C1  UNL     1       4.232  12.795  42.807  1.00  0.00     0.032 C 
HETATM   10  C3  UNL     1       3.931  14.795  44.179  1.00  0.00     0.032 C 
ENDBRANCH   1   8
BRANCH   2  11
HETATM   11  N2  UNL     1       6.399  10.943  44.273  1.00  0.00    -0.227 N 
HETATM   12  C5  UNL     1       5.822   9.737  43.726  1.00  0.00     0.168 C 
HETATM   13  C6  UNL     1       7.650  11.413  43.724  1.00  0.00     0.168 C 
ENDBRANCH   2  11
TORSDOF 2
ENDMDL
MODEL 5
REMARK VINA RESULT: -4.055050422      2.306      4.211
REMARK  2 active torsions:
REMARK  status: ('A' for Active; 'I' for Inactive)
REMARK    1  A    between atoms: C2_2  and  N1_4 
REMARK    2  A    between atoms: C4_5  and  N2_6 
ROOT
HETATM    1  N1  UNL     1       5.688  12.139  43.530  1.00  0.00    -0.208 N 
HETATM    2  C4  UNL     1       4.507  12.897  43.758  1.00  0.00     0.674 C 
HETATM    3  N3  UNL     1       3.943  13.177  42.613  1.00  0.00    -0.224 N 
ATOM      4  H3  UNL     1       3.081  13.713  42.510  1.00  0.00     0.177 HD
HETATM    5  C7  UNL     1       4.693  12.633  41.521  1.00  0.00     0.163 C 
HETATM    6  C8  UNL     1       5.556  11.590  42.201  1.00  0.00     0.117 C 
HETATM    7  C9  UNL     1       4.826  10.283  42.173  1.00  0.00     0.034 C 
ENDROOT
BRANCH   1   8
HETATM    8  C2  UNL     1       6.744  12.012  44.503  1.00  0.00     0.094 C 
HETATM    9  C1  UNL     1       6.620  10.774  45.335  1.00  0.00     0.032 C 
HETATM   10  C3  UNL     1       8.117  11.990  43.836  1.00  0.00     0.032 C 
ENDBRANCH   1   8
BRANCH   2  11
HETATM   11  N2  UNL     1       3.997  13.299  45.025  1.00  0.00    -0.227 N 
HETATM   12  C5  UNL     1       3.868  12.361  46.115  1.00  0.00     0.168 C 
HETATM   13  C6  UNL     1       3.596  14.669  45.249  1.00  0.00     0.168 C 
ENDBRANCH   2  11
TORSDOF 2
ENDMDL
