MODEL 1
REMARK VINA RESULT: -5.924267773      0.000      0.000
REMARK  1 active torsions:
REMARK  status: ('A' for Active; 'I' for Inactive)
REMARK    1  A    between atoms: C3_3  and  N1_4 
ROOT
HETATM    1  C1  UNL     1       3.806  13.860  41.927  1.00  0.00     0.052 C 
HETATM    2  C2  UNL     1       4.329  13.100  43.070  1.00  0.00    -0.010 A 
HETATM    3  C3  UNL     1       4.342  13.521  44.384  1.00  0.00     0.075 A 
HETATM    4  C6  UNL     1       4.927  12.484  45.119  1.00  0.00     0.143 A 
HETATM    5  C7  UNL     1       5.117  12.547  46.540  1.00  0.00     0.120 C 
HETATM    6  N2  UNL     1       5.270  12.595  47.689  1.00  0.00    -0.190 NA
HETATM    7  N3  UNL     1       5.251  11.483  44.282  1.00  0.00    -0.344 N 
HETATM    8  C8  UNL     1       5.877  10.249  44.707  1.00  0.00     0.157 C 
HETATM    9  C9  UNL     1       4.900  11.831  43.032  1.00  0.00     0.016 A 
HETATM   10  C10 UNL     1       5.066  11.040  41.790  1.00  0.00     0.069 C 
ENDROOT
BRANCH   3  11
HETATM   11  N1  UNL     1       3.854  14.762  44.877  1.00  0.00    -0.387 N 
HETATM   12  C4  UNL     1       4.703  15.946  44.794  1.00  0.00     0.149 C 
HETATM   13  C5  UNL     1       2.542  14.900  45.460  1.00  0.00     0.149 C 
ENDBRANCH   3  11
TORSDOF 1
ENDMDL
MODEL 2
REMARK VINA RESULT: -5.756129296      1.668      2.283
REMARK  1 active torsions:
REMARK  status: ('A' for Active; 'I' for Inactive)
REMARK    1  A    between atoms: C3_3  and  N1_4 
ROOT
HETATM    1  C1  UNL     1       4.000  13.509  43.332  1.00  0.00     0.052 C 
HETATM    2  C2  UNL     1       4.764  12.300  43.669  1.00  0.00    -0.010 A 
HETATM    3  C3  UNL     1       5.177  11.931  44.933  1.00  0.00     0.075 A 
HETATM    4  C6  UNL     1       5.865  10.722  44.779  1.00  0.00     0.143 A 
HETATM    5  C7  UNL     1       6.451  10.014  45.881  1.00  0.00     0.120 C 
HETATM    6  N2  UNL     1       6.923   9.438  46.771  1.00  0.00    -0.190 NA
HETATM    7  N3  UNL     1       5.864  10.380  43.479  1.00  0.00    -0.344 N 
HETATM    8  C8  UNL     1       6.489   9.181  42.962  1.00  0.00     0.157 C 
HETATM    9  C9  UNL     1       5.203  11.321  42.783  1.00  0.00     0.016 A 
HETATM   10  C10 UNL     1       4.953  11.361  41.323  1.00  0.00     0.069 C 
ENDROOT
BRANCH   3  11
HETATM   11  N1  UNL     1       4.943  12.646  46.139  1.00  0.00    -0.387 N 
HETATM   12  C4  UNL     1       5.870  13.701  46.535  1.00  0.00     0.149 C 
HETATM   13  C5  UNL     1       3.815  12.368  46.995  1.00  0.00     0.149 C 
ENDBRANCH   3  11
TORSDOF 1
ENDMDL
MODEL 3
REMARK VINA RESULT: -5.737979865      1.539      2.430
REMARK  1 active torsions:
REMARK  status: ('A' for Active; 'I' for Inactive)
REMARK    1  A    between atoms: C3_3  and  N1_4 
ROOT
HETATM    1  C1  UNL     1       3.918  13.992  43.659  1.00  0.00     0.052 C 
HETATM    2  C2  UNL     1       4.641  12.727  43.849  1.00  0.00    -0.010 A 
HETATM    3  C3  UNL     1       5.101  12.232  45.052  1.00  0.00     0.075 A 
HETATM    4  C6  UNL     1       5.721  11.012  44.759  1.00  0.00     0.143 A 
HETATM    5  C7  UNL     1       6.329  10.186  45.762  1.00  0.00     0.120 C 
HETATM    6  N2  UNL     1       6.819   9.515  46.572  1.00  0.00    -0.190 NA
HETATM    7  N3  UNL     1       5.638  10.786  43.436  1.00  0.00    -0.344 N 
HETATM    8  C8  UNL     1       6.178   9.611  42.785  1.00  0.00     0.157 C 
HETATM    9  C9  UNL     1       4.987  11.812  42.860  1.00  0.00     0.016 A 
HETATM   10  C10 UNL     1       4.664  11.990  41.425  1.00  0.00     0.069 C 
ENDROOT
BRANCH   3  11
HETATM   11  N1  UNL     1       4.962  12.847  46.326  1.00  0.00    -0.387 N 
HETATM   12  C4  UNL     1       3.876  12.429  47.206  1.00  0.00     0.149 C 
HETATM   13  C5  UNL     1       5.861  13.876  46.789  1.00  0.00     0.149 C 
ENDBRANCH   3  11
TORSDOF 1
ENDMDL
MODEL 4
REMARK VINA RESULT: -5.585965551      1.328      2.458
REMARK  1 active torsions:
REMARK  status: ('A' for Active; 'I' for Inactive)
REMARK    1  A    between atoms: C3_3  and  N1_4 
ROOT
HETATM    1  C1  UNL     1       3.625  14.575  44.064  1.00  0.00     0.052 C 
HETATM    2  C2  UNL     1       4.298  13.281  43.884  1.00  0.00    -0.010 A 
HETATM    3  C3  UNL     1       4.844  12.508  44.887  1.00  0.00     0.075 A 
HETATM    4  C6  UNL     1       5.372  11.373  44.260  1.00  0.00     0.143 A 
HETATM    5  C7  UNL     1       6.030  10.320  44.979  1.00  0.00     0.120 C 
HETATM    6  N2  UNL     1       6.560   9.467  45.559  1.00  0.00    -0.190 NA
HETATM    7  N3  UNL     1       5.152  11.463  42.936  1.00  0.00    -0.344 N 
HETATM    8  C8  UNL     1       5.567  10.458  41.981  1.00  0.00     0.157 C 
HETATM    9  C9  UNL     1       4.501  12.611  42.681  1.00  0.00     0.016 A 
HETATM   10  C10 UNL     1       4.053  13.127  41.366  1.00  0.00     0.069 C 
ENDROOT
BRANCH   3  11
HETATM   11  N1  UNL     1       4.859  12.814  46.275  1.00  0.00    -0.387 N 
HETATM   12  C4  UNL     1       5.876  13.724  46.794  1.00  0.00     0.149 C 
HETATM   13  C5  UNL     1       3.902  12.258  47.200  1.00  0.00     0.149 C 
ENDBRANCH   3  11
TORSDOF 1
ENDMDL
MODEL 5
REMARK VINA RESULT: -5.553355575      1.307      1.658
REMARK  1 active torsions:
REMARK  status: ('A' for Active; 'I' for Inactive)
REMARK    1  A    between atoms: C3_3  and  N1_4 
ROOT
HETATM    1  C1  UNL     1       4.739  15.362  43.148  1.00  0.00     0.052 C 
HETATM    2  C2  UNL     1       4.810  14.128  43.942  1.00  0.00    -0.010 A 
HETATM    3  C3  UNL     1       4.841  14.055  45.320  1.00  0.00     0.075 A 
HETATM    4  C6  UNL     1       4.908  12.693  45.635  1.00  0.00     0.143 A 
HETATM    5  C7  UNL     1       4.955  12.207  46.985  1.00  0.00     0.120 C 
HETATM    6  N2  UNL     1       4.990  11.812  48.075  1.00  0.00    -0.190 NA
HETATM    7  N3  UNL     1       4.917  11.980  44.495  1.00  0.00    -0.344 N 
HETATM    8  C8  UNL     1       4.981  10.534  44.451  1.00  0.00     0.157 C 
HETATM    9  C9  UNL     1       4.859  12.827  43.453  1.00  0.00     0.016 A 
HETATM   10  C10 UNL     1       4.846  12.489  42.010  1.00  0.00     0.069 C 
ENDROOT
BRANCH   3  11
HETATM   11  N1  UNL     1       4.808  15.151  46.224  1.00  0.00    -0.387 N 
HETATM   12  C4  UNL     1       3.549  15.854  46.449  1.00  0.00     0.149 C 
HETATM   13  C5  UNL     1       5.979  15.601  46.937  1.00  0.00     0.149 C 
ENDBRANCH   3  11
TORSDOF 1
ENDMDL
