MODEL 1
REMARK VINA RESULT: -5.810654379      0.000      0.000
REMARK  2 active torsions:
REMARK  status: ('A' for Active; 'I' for Inactive)
REMARK    1  A    between atoms: C4_7  and  S1_8 
REMARK    2  A    between atoms: S1_8  and  C5_9 
ROOT
HETATM    1  C1  UNL     1       6.508  14.924  47.080  1.00  0.00     0.151 C 
HETATM    2  N1  UNL     1       5.154  15.293  46.723  1.00  0.00    -0.365 N 
HETATM    3  C2  UNL     1       4.470  16.435  47.286  1.00  0.00     0.144 A 
HETATM    4  C3  UNL     1       3.184  16.471  46.532  1.00  0.00     0.141 A 
HETATM    5  N2  UNL     1       3.183  15.309  45.703  1.00  0.00    -0.369 N 
ATOM      6  H2  UNL     1       2.406  15.037  45.101  1.00  0.00     0.161 HD
HETATM    7  C4  UNL     1       4.284  14.647  45.806  1.00  0.00     0.138 A 
ENDROOT
BRANCH   7   8
HETATM    8  S1  UNL     1       4.718  13.123  44.944  1.00  0.00    -0.089 SA
BRANCH   8   9
HETATM    9  C5  UNL     1       4.179  13.172  43.232  1.00  0.00     0.055 C 
HETATM   10  C6  UNL     1       4.580  14.420  42.502  1.00  0.00     0.015 C 
HETATM   11  C7  UNL     1       4.202  14.045  41.066  1.00  0.00     0.001 C 
HETATM   12  C8  UNL     1       4.395  12.541  40.991  1.00  0.00     0.001 C 
HETATM   13  C9  UNL     1       4.757  12.086  42.394  1.00  0.00     0.015 C 
ENDBRANCH   8   9
ENDBRANCH   7   8
TORSDOF 2
ENDMDL
MODEL 2
REMARK VINA RESULT: -5.720799641      1.057      2.315
REMARK  2 active torsions:
REMARK  status: ('A' for Active; 'I' for Inactive)
REMARK    1  A    between atoms: C4_7  and  S1_8 
REMARK    2  A    between atoms: S1_8  and  C5_9 
ROOT
HETATM    1  C1  UNL     1       3.168  15.192  45.703  1.00  0.00     0.151 C 
HETATM    2  N1  UNL     1       4.515  14.912  46.155  1.00  0.00    -0.365 N 
HETATM    3  C2  UNL     1       5.319  15.867  46.885  1.00  0.00     0.144 A 
HETATM    4  C3  UNL     1       6.545  15.090  47.228  1.00  0.00     0.141 A 
HETATM    5  N2  UNL     1       6.401  13.824  46.585  1.00  0.00    -0.369 N 
ATOM      6  H2  UNL     1       7.110  13.090  46.600  1.00  0.00     0.161 HD
HETATM    7  C4  UNL     1       5.266  13.720  45.983  1.00  0.00     0.138 A 
ENDROOT
BRANCH   7   8
HETATM    8  S1  UNL     1       4.660  12.302  45.046  1.00  0.00    -0.089 SA
BRANCH   8   9
HETATM    9  C5  UNL     1       4.936  12.523  43.286  1.00  0.00     0.055 C 
HETATM   10  C6  UNL     1       4.877  11.251  42.495  1.00  0.00     0.015 C 
HETATM   11  C7  UNL     1       4.899  11.802  41.065  1.00  0.00     0.001 C 
HETATM   12  C8  UNL     1       4.204  13.148  41.155  1.00  0.00     0.001 C 
HETATM   13  C9  UNL     1       3.915  13.383  42.627  1.00  0.00     0.015 C 
ENDBRANCH   8   9
ENDBRANCH   7   8
TORSDOF 2
ENDMDL
MODEL 3
REMARK VINA RESULT: -5.717462883      0.432      1.174
REMARK  2 active torsions:
REMARK  status: ('A' for Active; 'I' for Inactive)
REMARK    1  A    between atoms: C4_7  and  S1_8 
REMARK    2  A    between atoms: S1_8  and  C5_9 
ROOT
HETATM    1  C1  UNL     1       6.451  14.832  47.000  1.00  0.00     0.151 C 
HETATM    2  N1  UNL     1       5.097  15.223  46.664  1.00  0.00    -0.365 N 
HETATM    3  C2  UNL     1       4.476  16.429  47.161  1.00  0.00     0.144 A 
HETATM    4  C3  UNL     1       3.164  16.456  46.453  1.00  0.00     0.141 A 
HETATM    5  N2  UNL     1       3.091  15.236  45.716  1.00  0.00    -0.369 N 
ATOM      6  H2  UNL     1       2.282  14.947  45.164  1.00  0.00     0.161 HD
HETATM    7  C4  UNL     1       4.171  14.543  45.831  1.00  0.00     0.138 A 
ENDROOT
BRANCH   7   8
HETATM    8  S1  UNL     1       4.520  12.942  45.074  1.00  0.00    -0.089 SA
BRANCH   8   9
HETATM    9  C5  UNL     1       4.766  13.105  43.303  1.00  0.00     0.055 C 
HETATM   10  C6  UNL     1       4.782  11.798  42.567  1.00  0.00     0.015 C 
HETATM   11  C7  UNL     1       4.757  12.287  41.116  1.00  0.00     0.001 C 
HETATM   12  C8  UNL     1       3.978  13.589  41.155  1.00  0.00     0.001 C 
HETATM   13  C9  UNL     1       3.686  13.869  42.619  1.00  0.00     0.015 C 
ENDBRANCH   8   9
ENDBRANCH   7   8
TORSDOF 2
ENDMDL
MODEL 4
REMARK VINA RESULT: -5.420517113      1.998      5.277
REMARK  2 active torsions:
REMARK  status: ('A' for Active; 'I' for Inactive)
REMARK    1  A    between atoms: C4_7  and  S1_8 
REMARK    2  A    between atoms: S1_8  and  C5_9 
ROOT
HETATM    1  C1  UNL     1       5.432  10.578  42.380  1.00  0.00     0.151 C 
HETATM    2  N1  UNL     1       4.809  11.854  42.096  1.00  0.00    -0.365 N 
HETATM    3  C2  UNL     1       4.529  12.318  40.756  1.00  0.00     0.144 A 
HETATM    4  C3  UNL     1       3.789  13.593  40.982  1.00  0.00     0.141 A 
HETATM    5  N2  UNL     1       3.807  13.813  42.393  1.00  0.00    -0.369 N 
ATOM      6  H2  UNL     1       3.416  14.637  42.849  1.00  0.00     0.161 HD
HETATM    7  C4  UNL     1       4.377  12.842  43.020  1.00  0.00     0.138 A 
ENDROOT
BRANCH   7   8
HETATM    8  S1  UNL     1       4.620  12.695  44.802  1.00  0.00    -0.089 SA
BRANCH   8   9
HETATM    9  C5  UNL     1       5.077  14.274  45.524  1.00  0.00     0.055 C 
HETATM   10  C6  UNL     1       3.952  14.971  46.229  1.00  0.00     0.015 C 
HETATM   11  C7  UNL     1       4.708  16.113  46.916  1.00  0.00     0.001 C 
HETATM   12  C8  UNL     1       6.088  15.550  47.203  1.00  0.00     0.001 C 
HETATM   13  C9  UNL     1       6.125  14.167  46.577  1.00  0.00     0.015 C 
ENDBRANCH   8   9
ENDBRANCH   7   8
TORSDOF 2
ENDMDL
MODEL 5
REMARK VINA RESULT: -5.419905609      1.001      2.204
REMARK  2 active torsions:
REMARK  status: ('A' for Active; 'I' for Inactive)
REMARK    1  A    between atoms: C4_7  and  S1_8 
REMARK    2  A    between atoms: S1_8  and  C5_9 
ROOT
HETATM    1  C1  UNL     1       3.256  16.751  46.848  1.00  0.00     0.151 C 
HETATM    2  N1  UNL     1       4.424  15.903  46.719  1.00  0.00    -0.365 N 
HETATM    3  C2  UNL     1       5.558  15.978  47.612  1.00  0.00     0.144 A 
HETATM    4  C3  UNL     1       6.423  14.849  47.162  1.00  0.00     0.141 A 
HETATM    5  N2  UNL     1       5.789  14.306  46.004  1.00  0.00    -0.369 N 
ATOM      6  H2  UNL     1       6.175  13.546  45.443  1.00  0.00     0.161 HD
HETATM    7  C4  UNL     1       4.669  14.893  45.753  1.00  0.00     0.138 A 
ENDROOT
BRANCH   7   8
HETATM    8  S1  UNL     1       3.536  14.533  44.395  1.00  0.00    -0.089 SA
BRANCH   8   9
HETATM    9  C5  UNL     1       4.386  13.711  43.044  1.00  0.00     0.055 C 
HETATM   10  C6  UNL     1       4.608  12.244  43.266  1.00  0.00     0.015 C 
HETATM   11  C7  UNL     1       5.105  11.817  41.881  1.00  0.00     0.001 C 
HETATM   12  C8  UNL     1       4.409  12.754  40.910  1.00  0.00     0.001 C 
HETATM   13  C9  UNL     1       3.639  13.752  41.757  1.00  0.00     0.015 C 
ENDBRANCH   8   9
ENDBRANCH   7   8
TORSDOF 2
ENDMDL
