MODEL 1
REMARK VINA RESULT: -5.412266878      0.000      0.000
REMARK  1 active torsions:
REMARK  status: ('A' for Active; 'I' for Inactive)
REMARK    1  A    between atoms: C5_7  and  C6_8 
ROOT
HETATM    1  N1  UNL     1       4.623  16.650  44.534  1.00  0.00    -0.172 NA
HETATM    2  C1  UNL     1       4.626  15.529  44.843  1.00  0.00     0.180 C 
HETATM    3  N2  UNL     1       4.639  14.179  45.200  1.00  0.00    -0.314 N 
HETATM    4  C2  UNL     1       4.984  13.676  46.515  1.00  0.00     0.135 C 
HETATM    5  C3  UNL     1       4.180  12.377  46.550  1.00  0.00     0.023 C 
HETATM    6  C4  UNL     1       4.582  11.823  45.182  1.00  0.00     0.029 C 
HETATM    7  C5  UNL     1       4.319  13.043  44.355  1.00  0.00     0.109 C 
ENDROOT
BRANCH   7   8
HETATM    8  C6  UNL     1       4.988  13.084  43.034  1.00  0.00     0.071 C 
HETATM    9  C7  UNL     1       5.494  11.841  42.463  1.00  0.00     0.018 C 
HETATM   10  C8  UNL     1       4.733  11.394  41.276  1.00  0.00     0.011 C 
HETATM   11  C9  UNL     1       4.181  12.539  40.513  1.00  0.00     0.074 C 
HETATM   12  S1  UNL     1       3.841  13.763  41.801  1.00  0.00    -0.162 SA
ENDBRANCH   7   8
TORSDOF 1
ENDMDL
MODEL 2
REMARK VINA RESULT: -5.339381292      2.062      2.912
REMARK  1 active torsions:
REMARK  status: ('A' for Active; 'I' for Inactive)
REMARK    1  A    between atoms: C5_7  and  C6_8 
ROOT
HETATM    1  N1  UNL     1       2.291  16.793  46.915  1.00  0.00    -0.172 NA
HETATM    2  C1  UNL     1       3.295  16.209  46.845  1.00  0.00     0.180 C 
HETATM    3  N2  UNL     1       4.494  15.500  46.749  1.00  0.00    -0.314 N 
HETATM    4  C2  UNL     1       5.812  16.078  46.926  1.00  0.00     0.135 C 
HETATM    5  C3  UNL     1       6.598  14.865  47.419  1.00  0.00     0.023 C 
HETATM    6  C4  UNL     1       6.136  13.852  46.371  1.00  0.00     0.029 C 
HETATM    7  C5  UNL     1       4.660  14.087  46.461  1.00  0.00     0.109 C 
ENDROOT
BRANCH   7   8
HETATM    8  C6  UNL     1       3.860  13.624  45.304  1.00  0.00     0.071 C 
HETATM    9  C7  UNL     1       3.683  14.519  44.167  1.00  0.00     0.018 C 
HETATM   10  C8  UNL     1       4.399  14.067  42.953  1.00  0.00     0.011 C 
HETATM   11  C9  UNL     1       4.492  12.589  42.889  1.00  0.00     0.074 C 
HETATM   12  S1  UNL     1       4.601  12.109  44.630  1.00  0.00    -0.162 SA
ENDBRANCH   7   8
TORSDOF 1
ENDMDL
MODEL 3
REMARK VINA RESULT: -5.305966189      2.462      3.504
REMARK  1 active torsions:
REMARK  status: ('A' for Active; 'I' for Inactive)
REMARK    1  A    between atoms: C5_7  and  C6_8 
ROOT
HETATM    1  N1  UNL     1       4.891  11.978  48.122  1.00  0.00    -0.172 NA
HETATM    2  C1  UNL     1       4.710  12.410  47.057  1.00  0.00     0.180 C 
HETATM    3  N2  UNL     1       4.491  12.913  45.774  1.00  0.00    -0.314 N 
HETATM    4  C2  UNL     1       3.601  14.014  45.458  1.00  0.00     0.135 C 
HETATM    5  C3  UNL     1       4.259  14.567  44.195  1.00  0.00     0.023 C 
HETATM    6  C4  UNL     1       4.451  13.251  43.440  1.00  0.00     0.029 C 
HETATM    7  C5  UNL     1       5.089  12.452  44.534  1.00  0.00     0.109 C 
ENDROOT
BRANCH   7   8
HETATM    8  C6  UNL     1       5.044  10.980  44.369  1.00  0.00     0.071 C 
HETATM    9  C7  UNL     1       4.989  10.424  43.022  1.00  0.00     0.018 C 
HETATM   10  C8  UNL     1       6.232   9.722  42.632  1.00  0.00     0.011 C 
HETATM   11  C9  UNL     1       6.904   9.105  43.800  1.00  0.00     0.074 C 
HETATM   12  S1  UNL     1       6.509  10.243  45.149  1.00  0.00    -0.162 SA
ENDBRANCH   7   8
TORSDOF 1
ENDMDL
MODEL 4
REMARK VINA RESULT: -5.192633150      1.658      2.942
REMARK  1 active torsions:
REMARK  status: ('A' for Active; 'I' for Inactive)
REMARK    1  A    between atoms: C5_7  and  C6_8 
ROOT
HETATM    1  N1  UNL     1       4.922  11.599  47.426  1.00  0.00    -0.172 NA
HETATM    2  C1  UNL     1       4.806  12.618  46.878  1.00  0.00     0.180 C 
HETATM    3  N2  UNL     1       4.660  13.835  46.209  1.00  0.00    -0.314 N 
HETATM    4  C2  UNL     1       4.271  15.082  46.837  1.00  0.00     0.135 C 
HETATM    5  C3  UNL     1       4.939  16.096  45.911  1.00  0.00     0.023 C 
HETATM    6  C4  UNL     1       4.479  15.521  44.571  1.00  0.00     0.029 C 
HETATM    7  C5  UNL     1       4.859  14.090  44.794  1.00  0.00     0.109 C 
ENDROOT
BRANCH   7   8
HETATM    8  C6  UNL     1       4.193  13.100  43.916  1.00  0.00     0.071 C 
HETATM    9  C7  UNL     1       3.772  13.513  42.583  1.00  0.00     0.018 C 
HETATM   10  C8  UNL     1       4.564  12.886  41.502  1.00  0.00     0.011 C 
HETATM   11  C9  UNL     1       5.040  11.534  41.883  1.00  0.00     0.074 C 
HETATM   12  S1  UNL     1       5.295  11.678  43.669  1.00  0.00    -0.162 SA
ENDBRANCH   7   8
TORSDOF 1
ENDMDL
MODEL 5
REMARK VINA RESULT: -5.167661361      2.856      4.648
REMARK  1 active torsions:
REMARK  status: ('A' for Active; 'I' for Inactive)
REMARK    1  A    between atoms: C5_7  and  C6_8 
ROOT
HETATM    1  N1  UNL     1       6.787   9.696  46.586  1.00  0.00    -0.172 NA
HETATM    2  C1  UNL     1       6.408  10.027  45.537  1.00  0.00     0.180 C 
HETATM    3  N2  UNL     1       5.953  10.440  44.284  1.00  0.00    -0.314 N 
HETATM    4  C2  UNL     1       6.444   9.932  43.018  1.00  0.00     0.135 C 
HETATM    5  C3  UNL     1       5.219  10.132  42.128  1.00  0.00     0.023 C 
HETATM    6  C4  UNL     1       4.890  11.575  42.512  1.00  0.00     0.029 C 
HETATM    7  C5  UNL     1       4.929  11.430  44.001  1.00  0.00     0.109 C 
ENDROOT
BRANCH   7   8
HETATM    8  C6  UNL     1       5.096  12.686  44.768  1.00  0.00     0.071 C 
HETATM    9  C7  UNL     1       4.896  13.959  44.086  1.00  0.00     0.018 C 
HETATM   10  C8  UNL     1       3.682  14.675  44.534  1.00  0.00     0.011 C 
HETATM   11  C9  UNL     1       3.371  14.394  45.956  1.00  0.00     0.074 C 
HETATM   12  S1  UNL     1       3.943  12.691  46.171  1.00  0.00    -0.162 SA
ENDBRANCH   7   8
TORSDOF 1
ENDMDL
