MODEL 1
REMARK VINA RESULT: -4.984146387      0.000      0.000
REMARK  2 active torsions:
REMARK  status: ('A' for Active; 'I' for Inactive)
REMARK    1  A    between atoms: C2_3  and  N2_4 
REMARK    2  A    between atoms: N2_4  and  C3_6 
ROOT
HETATM    1  C1  UNL     1       3.196  13.885  45.426  1.00  0.00     0.169 C 
HETATM    2  N1  UNL     1       4.342  14.342  46.178  1.00  0.00    -0.212 N 
HETATM    3  C2  UNL     1       5.295  13.538  46.824  1.00  0.00     0.676 C 
HETATM    4  N3  UNL     1       6.267  14.247  47.290  1.00  0.00    -0.224 N 
ATOM      5  H3  UNL     1       7.065  13.862  47.796  1.00  0.00     0.177 HD
HETATM    6  C4  UNL     1       6.089  15.644  47.013  1.00  0.00     0.168 C 
HETATM    7  C5  UNL     1       4.707  15.709  46.397  1.00  0.00     0.058 C 
HETATM    8  C6  UNL     1       3.790  16.419  47.365  1.00  0.00     0.040 C 
HETATM    9  C7  UNL     1       4.725  16.405  45.046  1.00  0.00     0.040 C 
ENDROOT
BRANCH   3  10
HETATM   10  N2  UNL     1       5.228  12.132  46.963  1.00  0.00    -0.193 N 
ATOM     11  H2  UNL     1       4.719  11.746  47.758  1.00  0.00     0.184 HD
BRANCH  10  12
HETATM   12  C3  UNL     1       5.771  11.326  46.144  1.00  0.00     0.188 C 
HETATM   13  S1  UNL     1       6.567  10.066  45.541  1.00  0.00    -0.074 SA
ENDBRANCH  10  12
ENDBRANCH   3  10
TORSDOF 2
ENDMDL
MODEL 2
REMARK VINA RESULT: -4.827714116      0.743      2.192
REMARK  2 active torsions:
REMARK  status: ('A' for Active; 'I' for Inactive)
REMARK    1  A    between atoms: C2_3  and  N2_4 
REMARK    2  A    between atoms: N2_4  and  C3_6 
ROOT
HETATM    1  C1  UNL     1       6.382  15.292  47.231  1.00  0.00     0.169 C 
HETATM    2  N1  UNL     1       5.244  14.794  46.492  1.00  0.00    -0.212 N 
HETATM    3  C2  UNL     1       4.935  13.448  46.235  1.00  0.00     0.676 C 
HETATM    4  N3  UNL     1       3.783  13.332  45.668  1.00  0.00    -0.224 N 
ATOM      5  H3  UNL     1       3.367  12.442  45.395  1.00  0.00     0.177 HD
HETATM    6  C4  UNL     1       3.156  14.608  45.467  1.00  0.00     0.168 C 
HETATM    7  C5  UNL     1       4.224  15.596  45.887  1.00  0.00     0.058 C 
HETATM    8  C6  UNL     1       4.700  16.330  44.655  1.00  0.00     0.040 C 
HETATM    9  C7  UNL     1       3.711  16.564  46.941  1.00  0.00     0.040 C 
ENDROOT
BRANCH   3  10
HETATM   10  N2  UNL     1       5.760  12.341  46.546  1.00  0.00    -0.193 N 
ATOM     11  H2  UNL     1       6.323  12.378  47.396  1.00  0.00     0.184 HD
BRANCH  10  12
HETATM   12  C3  UNL     1       5.832  11.302  45.818  1.00  0.00     0.188 C 
HETATM   13  S1  UNL     1       6.381   9.966  45.113  1.00  0.00    -0.074 SA
ENDBRANCH  10  12
ENDBRANCH   3  10
TORSDOF 2
ENDMDL
MODEL 3
REMARK VINA RESULT: -4.642144342      2.915      3.977
REMARK  2 active torsions:
REMARK  status: ('A' for Active; 'I' for Inactive)
REMARK    1  A    between atoms: C2_3  and  N2_4 
REMARK    2  A    between atoms: N2_4  and  C3_6 
ROOT
HETATM    1  C1  UNL     1       4.010  15.243  44.986  1.00  0.00     0.169 C 
HETATM    2  N1  UNL     1       4.372  13.847  44.877  1.00  0.00    -0.212 N 
HETATM    3  C2  UNL     1       4.353  13.066  43.710  1.00  0.00     0.676 C 
HETATM    4  N3  UNL     1       4.861  11.899  43.920  1.00  0.00    -0.224 N 
ATOM      5  H3  UNL     1       4.944  11.174  43.207  1.00  0.00     0.177 HD
HETATM    6  C4  UNL     1       5.295  11.743  45.280  1.00  0.00     0.168 C 
HETATM    7  C5  UNL     1       4.815  13.012  45.951  1.00  0.00     0.058 C 
HETATM    8  C6  UNL     1       3.710  12.649  46.915  1.00  0.00     0.040 C 
HETATM    9  C7  UNL     1       5.948  13.735  46.662  1.00  0.00     0.040 C 
ENDROOT
BRANCH   3  10
HETATM   10  N2  UNL     1       3.850  13.475  42.453  1.00  0.00    -0.193 N 
ATOM     11  H2  UNL     1       3.158  14.225  42.427  1.00  0.00     0.184 HD
BRANCH  10  12
HETATM   12  C3  UNL     1       4.218  12.954  41.354  1.00  0.00     0.188 C 
HETATM   13  S1  UNL     1       4.559  11.872  40.215  1.00  0.00    -0.074 SA
ENDBRANCH  10  12
ENDBRANCH   3  10
TORSDOF 2
ENDMDL
MODEL 4
REMARK VINA RESULT: -4.626969083      2.487      3.177
REMARK  2 active torsions:
REMARK  status: ('A' for Active; 'I' for Inactive)
REMARK    1  A    between atoms: C2_3  and  N2_4 
REMARK    2  A    between atoms: N2_4  and  C3_6 
ROOT
HETATM    1  C1  UNL     1       3.971  13.118  46.783  1.00  0.00     0.169 C 
HETATM    2  N1  UNL     1       4.320  14.197  45.887  1.00  0.00    -0.212 N 
HETATM    3  C2  UNL     1       4.432  14.123  44.489  1.00  0.00     0.676 C 
HETATM    4  N3  UNL     1       4.624  15.289  43.972  1.00  0.00    -0.224 N 
ATOM      5  H3  UNL     1       4.733  15.461  42.973  1.00  0.00     0.177 HD
HETATM    6  C4  UNL     1       4.666  16.316  44.974  1.00  0.00     0.168 C 
HETATM    7  C5  UNL     1       4.615  15.543  46.275  1.00  0.00     0.058 C 
HETATM    8  C6  UNL     1       5.954  15.682  46.962  1.00  0.00     0.040 C 
HETATM    9  C7  UNL     1       3.485  16.025  47.171  1.00  0.00     0.040 C 
ENDROOT
BRANCH   3  10
HETATM   10  N2  UNL     1       4.350  12.939  43.718  1.00  0.00    -0.193 N 
ATOM     11  H2  UNL     1       4.271  12.047  44.206  1.00  0.00     0.184 HD
BRANCH  10  12
HETATM   12  C3  UNL     1       4.370  12.935  42.448  1.00  0.00     0.188 C 
HETATM   13  S1  UNL     1       4.055  13.298  40.914  1.00  0.00    -0.074 SA
ENDBRANCH  10  12
ENDBRANCH   3  10
TORSDOF 2
ENDMDL
MODEL 5
REMARK VINA RESULT: -4.603367099      3.228      4.341
REMARK  2 active torsions:
REMARK  status: ('A' for Active; 'I' for Inactive)
REMARK    1  A    between atoms: C2_3  and  N2_4 
REMARK    2  A    between atoms: N2_4  and  C3_6 
ROOT
HETATM    1  C1  UNL     1       5.239  11.215  44.649  1.00  0.00     0.169 C 
HETATM    2  N1  UNL     1       4.683  12.544  44.772  1.00  0.00    -0.212 N 
HETATM    3  C2  UNL     1       4.197  13.349  43.728  1.00  0.00     0.676 C 
HETATM    4  N3  UNL     1       3.644  14.421  44.183  1.00  0.00    -0.224 N 
ATOM      5  H3  UNL     1       3.227  15.143  43.596  1.00  0.00     0.177 HD
HETATM    6  C4  UNL     1       3.687  14.477  45.617  1.00  0.00     0.168 C 
HETATM    7  C5  UNL     1       4.530  13.276  45.992  1.00  0.00     0.058 C 
HETATM    8  C6  UNL     1       5.842  13.776  46.552  1.00  0.00     0.040 C 
HETATM    9  C7  UNL     1       3.815  12.376  46.987  1.00  0.00     0.040 C 
ENDROOT
BRANCH   3  10
HETATM   10  N2  UNL     1       4.286  13.050  42.349  1.00  0.00    -0.193 N 
ATOM     11  H2  UNL     1       4.772  12.199  42.067  1.00  0.00     0.184 HD
BRANCH  10  12
HETATM   12  C3  UNL     1       3.789  13.791  41.443  1.00  0.00     0.188 C 
HETATM   13  S1  UNL     1       3.071  14.274  40.089  1.00  0.00    -0.074 SA
ENDBRANCH  10  12
ENDBRANCH   3  10
TORSDOF 2
ENDMDL
