MODEL 1
REMARK VINA RESULT: -5.772101902      0.000      0.000
REMARK  2 active torsions:
REMARK  status: ('A' for Active; 'I' for Inactive)
REMARK    1  A    between atoms: C2_2  and  O1_4 
REMARK    2  A    between atoms: O1_4  and  C4_5 
ROOT
HETATM    1  C4  UNL     1       4.568  14.296  44.643  1.00  0.00     0.217 C 
HETATM    2  N1  UNL     1       3.667  15.207  44.541  1.00  0.00    -0.356 N 
ATOM      3  H1  UNL     1       3.305  15.498  43.633  1.00  0.00     0.163 HD
HETATM    4  C5  UNL     1       3.187  15.801  45.773  1.00  0.00     0.129 C 
HETATM    5  C6  UNL     1       4.335  16.153  46.695  1.00  0.00     0.022 C 
HETATM    6  C7  UNL     1       3.723  16.663  47.996  1.00  0.00     0.014 C 
HETATM    7  C8  UNL     1       5.175  14.940  46.965  1.00  0.00     0.088 C 
HETATM    8  C9  UNL     1       6.651  15.272  47.048  1.00  0.00     0.033 C 
HETATM    9  N2  UNL     1       5.021  13.945  45.939  1.00  0.00    -0.347 N 
HETATM   10  C10 UNL     1       5.335  12.527  46.197  1.00  0.00     0.153 C 
ENDROOT
BRANCH   1  11
HETATM   11  O1  UNL     1       5.077  13.679  43.499  1.00  0.00    -0.318 OA
BRANCH  11  12
HETATM   12  C2  UNL     1       4.285  12.864  42.673  1.00  0.00     0.123 C 
HETATM   13  C1  UNL     1       4.096  13.622  41.361  1.00  0.00     0.040 C 
HETATM   14  C3  UNL     1       4.961  11.550  42.352  1.00  0.00     0.040 C 
ENDBRANCH  11  12
ENDBRANCH   1  11
TORSDOF 2
ENDMDL
MODEL 2
REMARK VINA RESULT: -5.674810878      1.617      4.610
REMARK  2 active torsions:
REMARK  status: ('A' for Active; 'I' for Inactive)
REMARK    1  A    between atoms: C2_2  and  O1_4 
REMARK    2  A    between atoms: O1_4  and  C4_5 
ROOT
HETATM    1  C4  UNL     1       4.711  15.336  45.463  1.00  0.00     0.217 C 
HETATM    2  N1  UNL     1       4.355  15.168  44.239  1.00  0.00    -0.356 N 
ATOM      3  H1  UNL     1       3.831  15.883  43.734  1.00  0.00     0.163 HD
HETATM    4  C5  UNL     1       4.729  13.918  43.609  1.00  0.00     0.129 C 
HETATM    5  C6  UNL     1       4.442  12.740  44.516  1.00  0.00     0.022 C 
HETATM    6  C7  UNL     1       4.971  11.495  43.810  1.00  0.00     0.014 C 
HETATM    7  C8  UNL     1       5.137  12.917  45.833  1.00  0.00     0.088 C 
HETATM    8  C9  UNL     1       4.304  12.409  46.993  1.00  0.00     0.033 C 
HETATM    9  N2  UNL     1       5.436  14.298  46.098  1.00  0.00    -0.347 N 
HETATM   10  C10 UNL     1       6.501  14.680  47.043  1.00  0.00     0.153 C 
ENDROOT
BRANCH   1  11
HETATM   11  O1  UNL     1       4.385  16.517  46.134  1.00  0.00    -0.318 OA
BRANCH  11  12
HETATM   12  C2  UNL     1       3.364  16.572  47.098  1.00  0.00     0.123 C 
HETATM   13  C1  UNL     1       4.045  16.776  48.448  1.00  0.00     0.040 C 
HETATM   14  C3  UNL     1       2.431  17.740  46.870  1.00  0.00     0.040 C 
ENDBRANCH  11  12
ENDBRANCH   1  11
TORSDOF 2
ENDMDL
MODEL 3
REMARK VINA RESULT: -5.380740340      2.054      2.961
REMARK  2 active torsions:
REMARK  status: ('A' for Active; 'I' for Inactive)
REMARK    1  A    between atoms: C2_2  and  O1_4 
REMARK    2  A    between atoms: O1_4  and  C4_5 
ROOT
HETATM    1  C4  UNL     1       4.609  12.223  44.903  1.00  0.00     0.217 C 
HETATM    2  N1  UNL     1       4.359  12.870  43.821  1.00  0.00    -0.356 N 
ATOM      3  H1  UNL     1       4.403  12.417  42.908  1.00  0.00     0.163 HD
HETATM    4  C5  UNL     1       4.011  14.270  43.956  1.00  0.00     0.129 C 
HETATM    5  C6  UNL     1       4.949  14.979  44.909  1.00  0.00     0.022 C 
HETATM    6  C7  UNL     1       4.433  16.406  45.065  1.00  0.00     0.014 C 
HETATM    7  C8  UNL     1       4.956  14.288  46.240  1.00  0.00     0.088 C 
HETATM    8  C9  UNL     1       6.332  14.278  46.874  1.00  0.00     0.033 C 
HETATM    9  N2  UNL     1       4.527  12.920  46.134  1.00  0.00    -0.347 N 
HETATM   10  C10 UNL     1       3.995  12.194  47.302  1.00  0.00     0.153 C 
ENDROOT
BRANCH   1  11
HETATM   11  O1  UNL     1       4.951  10.870  44.851  1.00  0.00    -0.318 OA
BRANCH  11  12
HETATM   12  C2  UNL     1       6.286  10.438  44.771  1.00  0.00     0.123 C 
HETATM   13  C1  UNL     1       6.584   9.697  46.071  1.00  0.00     0.040 C 
HETATM   14  C3  UNL     1       6.503   9.471  43.629  1.00  0.00     0.040 C 
ENDBRANCH  11  12
ENDBRANCH   1  11
TORSDOF 2
ENDMDL
MODEL 4
REMARK VINA RESULT: -5.315554268      2.798      4.127
REMARK  2 active torsions:
REMARK  status: ('A' for Active; 'I' for Inactive)
REMARK    1  A    between atoms: C2_2  and  O1_4 
REMARK    2  A    between atoms: O1_4  and  C4_5 
ROOT
HETATM    1  C4  UNL     1       5.604  11.241  45.690  1.00  0.00     0.217 C 
HETATM    2  N1  UNL     1       5.402  11.308  44.422  1.00  0.00    -0.356 N 
ATOM      3  H1  UNL     1       5.758  10.594  43.787  1.00  0.00     0.163 HD
HETATM    4  C5  UNL     1       4.645  12.445  43.935  1.00  0.00     0.129 C 
HETATM    5  C6  UNL     1       5.127  13.734  44.565  1.00  0.00     0.022 C 
HETATM    6  C7  UNL     1       4.201  14.843  44.075  1.00  0.00     0.014 C 
HETATM    7  C8  UNL     1       5.063  13.637  46.060  1.00  0.00     0.088 C 
HETATM    8  C9  UNL     1       6.226  14.340  46.730  1.00  0.00     0.033 C 
HETATM    9  N2  UNL     1       5.078  12.270  46.507  1.00  0.00    -0.347 N 
HETATM   10  C10 UNL     1       4.553  11.896  47.834  1.00  0.00     0.153 C 
ENDROOT
BRANCH   1  11
HETATM   11  O1  UNL     1       6.325  10.174  46.231  1.00  0.00    -0.318 OA
BRANCH  11  12
HETATM   12  C2  UNL     1       7.065   9.288  45.429  1.00  0.00     0.123 C 
HETATM   13  C1  UNL     1       8.156   8.700  46.320  1.00  0.00     0.040 C 
HETATM   14  C3  UNL     1       6.220   8.142  44.918  1.00  0.00     0.040 C 
ENDBRANCH  11  12
ENDBRANCH   1  11
TORSDOF 2
ENDMDL
MODEL 5
REMARK VINA RESULT: -5.129548450      1.633      3.050
REMARK  2 active torsions:
REMARK  status: ('A' for Active; 'I' for Inactive)
REMARK    1  A    between atoms: C2_2  and  O1_4 
REMARK    2  A    between atoms: O1_4  and  C4_5 
ROOT
HETATM    1  C4  UNL     1       5.093  12.490  44.968  1.00  0.00     0.217 C 
HETATM    2  N1  UNL     1       5.732  12.483  46.083  1.00  0.00    -0.356 N 
ATOM      3  H1  UNL     1       6.010  11.611  46.532  1.00  0.00     0.163 HD
HETATM    4  C5  UNL     1       6.040  13.770  46.674  1.00  0.00     0.129 C 
HETATM    5  C6  UNL     1       4.837  14.690  46.644  1.00  0.00     0.022 C 
HETATM    6  C7  UNL     1       5.296  16.042  47.182  1.00  0.00     0.014 C 
HETATM    7  C8  UNL     1       4.336  14.840  45.239  1.00  0.00     0.088 C 
HETATM    8  C9  UNL     1       2.823  14.915  45.175  1.00  0.00     0.033 C 
HETATM    9  N2  UNL     1       4.742  13.742  44.405  1.00  0.00    -0.347 N 
HETATM   10  C10 UNL     1       4.800  13.878  42.938  1.00  0.00     0.153 C 
ENDROOT
BRANCH   1  11
HETATM   11  O1  UNL     1       4.762  11.287  44.340  1.00  0.00    -0.318 OA
BRANCH  11  12
HETATM   12  C2  UNL     1       5.682  10.579  43.548  1.00  0.00     0.123 C 
HETATM   13  C1  UNL     1       5.935   9.250  44.254  1.00  0.00     0.040 C 
HETATM   14  C3  UNL     1       5.131  10.273  42.173  1.00  0.00     0.040 C 
ENDBRANCH  11  12
ENDBRANCH   1  11
TORSDOF 2
ENDMDL
