MODEL 1
REMARK VINA RESULT: -5.330869043      0.000      0.000
REMARK  1 active torsions:
REMARK  status: ('A' for Active; 'I' for Inactive)
REMARK    1  A    between atoms: C8_9  and  O1_10 
ROOT
HETATM    1  C1  UNL     1       3.374  13.777  46.121  1.00  0.00     0.018 C 
HETATM    2  C2  UNL     1       3.728  13.151  44.768  1.00  0.00     0.049 C 
HETATM    3  C3  UNL     1       5.116  12.603  44.823  1.00  0.00     0.064 C 
HETATM    4  N1  UNL     1       5.667  12.354  43.550  1.00  0.00    -0.397 N 
HETATM    5  C4  UNL     1       6.673  11.369  43.453  1.00  0.00     0.148 C 
HETATM    6  C5  UNL     1       4.734  12.398  42.456  1.00  0.00     0.128 C 
HETATM    7  C6  UNL     1       4.274  13.862  42.420  1.00  0.00     0.029 C 
HETATM    8  C7  UNL     1       3.542  14.080  41.139  1.00  0.00     0.014 C 
HETATM    9  C8  UNL     1       3.458  14.086  43.651  1.00  0.00     0.132 C 
ENDROOT
BRANCH   9  10
HETATM   10  O1  UNL     1       3.659  15.388  44.078  1.00  0.00    -0.394 OA
ATOM     11  H1  UNL     1       3.860  15.939  43.331  1.00  0.00     0.210 HD
ENDBRANCH   9  10
TORSDOF 1
ENDMDL
MODEL 2
REMARK VINA RESULT: -5.194997969      1.138      1.262
REMARK  1 active torsions:
REMARK  status: ('A' for Active; 'I' for Inactive)
REMARK    1  A    between atoms: C8_9  and  O1_10 
ROOT
HETATM    1  C1  UNL     1       3.585  12.427  47.076  1.00  0.00     0.018 C 
HETATM    2  C2  UNL     1       4.081  12.244  45.637  1.00  0.00     0.049 C 
HETATM    3  C3  UNL     1       5.560  12.041  45.645  1.00  0.00     0.064 C 
HETATM    4  N1  UNL     1       6.156  12.240  44.383  1.00  0.00    -0.397 N 
HETATM    5  C4  UNL     1       7.370  11.572  44.119  1.00  0.00     0.148 C 
HETATM    6  C5  UNL     1       5.240  12.324  43.276  1.00  0.00     0.128 C 
HETATM    7  C6  UNL     1       4.439  13.604  43.555  1.00  0.00     0.029 C 
HETATM    8  C7  UNL     1       3.677  13.944  42.319  1.00  0.00     0.014 C 
HETATM    9  C8  UNL     1       3.593  13.329  44.755  1.00  0.00     0.132 C 
ENDROOT
BRANCH   9  10
HETATM   10  O1  UNL     1       3.473  14.500  45.483  1.00  0.00    -0.394 OA
ATOM     11  H1  UNL     1       2.903  15.104  45.022  1.00  0.00     0.210 HD
ENDBRANCH   9  10
TORSDOF 1
ENDMDL
MODEL 3
REMARK VINA RESULT: -5.093048649      1.981      3.243
REMARK  1 active torsions:
REMARK  status: ('A' for Active; 'I' for Inactive)
REMARK    1  A    between atoms: C8_9  and  O1_10 
ROOT
HETATM    1  C1  UNL     1       7.389  11.169  44.158  1.00  0.00     0.018 C 
HETATM    2  C2  UNL     1       6.248  12.164  44.394  1.00  0.00     0.049 C 
HETATM    3  C3  UNL     1       5.411  11.697  45.539  1.00  0.00     0.064 C 
HETATM    4  N1  UNL     1       4.148  12.318  45.595  1.00  0.00    -0.397 N 
HETATM    5  C4  UNL     1       3.515  12.404  46.853  1.00  0.00     0.148 C 
HETATM    6  C5  UNL     1       3.987  13.465  44.740  1.00  0.00     0.128 C 
HETATM    7  C6  UNL     1       4.093  12.887  43.322  1.00  0.00     0.029 C 
HETATM    8  C7  UNL     1       3.640  13.937  42.366  1.00  0.00     0.014 C 
HETATM    9  C8  UNL     1       5.511  12.449  43.142  1.00  0.00     0.132 C 
ENDROOT
BRANCH   9  10
HETATM   10  O1  UNL     1       5.521  11.325  42.333  1.00  0.00    -0.394 OA
ATOM     11  H1  UNL     1       5.068  10.615  42.771  1.00  0.00     0.210 HD
ENDBRANCH   9  10
TORSDOF 1
ENDMDL
MODEL 4
REMARK VINA RESULT: -5.010410167      1.035      1.058
REMARK  1 active torsions:
REMARK  status: ('A' for Active; 'I' for Inactive)
REMARK    1  A    between atoms: C8_9  and  O1_10 
ROOT
HETATM    1  C1  UNL     1       2.986  14.859  46.191  1.00  0.00     0.018 C 
HETATM    2  C2  UNL     1       3.387  13.761  45.201  1.00  0.00     0.049 C 
HETATM    3  C3  UNL     1       4.571  13.022  45.733  1.00  0.00     0.064 C 
HETATM    4  N1  UNL     1       5.241  12.264  44.753  1.00  0.00    -0.397 N 
HETATM    5  C4  UNL     1       5.976  11.139  45.183  1.00  0.00     0.148 C 
HETATM    6  C5  UNL     1       4.535  12.104  43.509  1.00  0.00     0.128 C 
HETATM    7  C6  UNL     1       4.460  13.528  42.940  1.00  0.00     0.029 C 
HETATM    8  C7  UNL     1       4.020  13.430  41.519  1.00  0.00     0.014 C 
HETATM    9  C8  UNL     1       3.538  14.297  43.829  1.00  0.00     0.132 C 
ENDROOT
BRANCH   9  10
HETATM   10  O1  UNL     1       3.981  15.608  43.890  1.00  0.00    -0.394 OA
ATOM     11  H1  UNL     1       4.171  15.920  43.013  1.00  0.00     0.210 HD
ENDBRANCH   9  10
TORSDOF 1
ENDMDL
MODEL 5
REMARK VINA RESULT: -4.880724642      1.918      3.081
REMARK  1 active torsions:
REMARK  status: ('A' for Active; 'I' for Inactive)
REMARK    1  A    between atoms: C8_9  and  O1_10 
ROOT
HETATM    1  C1  UNL     1       6.300  11.154  44.787  1.00  0.00     0.018 C 
HETATM    2  C2  UNL     1       5.582  12.420  44.308  1.00  0.00     0.049 C 
HETATM    3  C3  UNL     1       4.525  12.793  45.294  1.00  0.00     0.064 C 
HETATM    4  N1  UNL     1       3.574  13.695  44.777  1.00  0.00    -0.397 N 
HETATM    5  C4  UNL     1       2.896  14.529  45.692  1.00  0.00     0.148 C 
HETATM    6  C5  UNL     1       3.925  14.307  43.523  1.00  0.00     0.128 C 
HETATM    7  C6  UNL     1       3.951  13.133  42.533  1.00  0.00     0.029 C 
HETATM    8  C7  UNL     1       4.005  13.699  41.155  1.00  0.00     0.014 C 
HETATM    9  C8  UNL     1       5.123  12.284  42.906  1.00  0.00     0.132 C 
ENDROOT
BRANCH   9  10
HETATM   10  O1  UNL     1       4.804  10.962  42.649  1.00  0.00    -0.394 OA
ATOM     11  H1  UNL     1       4.210  10.917  41.909  1.00  0.00     0.210 HD
ENDBRANCH   9  10
TORSDOF 1
ENDMDL
