MODEL 1
REMARK VINA RESULT: -5.244279241      0.000      0.000
REMARK  1 active torsions:
REMARK  status: ('A' for Active; 'I' for Inactive)
REMARK    1  A    between atoms: O1_1  and  C1_3 
ROOT
HETATM    1  C1  UNL     1       3.956  14.417  43.873  1.00  0.00     0.258 C 
HETATM    2  C2  UNL     1       3.096  14.094  42.679  1.00  0.00     0.071 C 
HETATM    3  C3  UNL     1       4.053  13.640  41.570  1.00  0.00     0.007 C 
HETATM    4  C4  UNL     1       4.636  12.318  42.067  1.00  0.00     0.030 C 
HETATM    5  C5  UNL     1       5.450  12.611  43.282  1.00  0.00     0.276 C 
HETATM    6  N1  UNL     1       4.839  13.399  44.272  1.00  0.00     0.123 N 
HETATM    7  C6  UNL     1       4.242  12.624  45.328  1.00  0.00     0.276 C 
HETATM    8  C7  UNL     1       3.184  13.480  45.971  1.00  0.00     0.035 C 
HETATM    9  C8  UNL     1       3.082  14.694  45.092  1.00  0.00     0.073 C 
ENDROOT
BRANCH   1  10
HETATM   10  O1  UNL     1       4.606  15.629  43.589  1.00  0.00    -0.363 OA
ATOM     11  H1  UNL     1       3.940  16.233  43.284  1.00  0.00     0.212 HD
ENDBRANCH   1  10
TORSDOF 1
ENDMDL
MODEL 2
REMARK VINA RESULT: -4.689203843      1.432      3.588
REMARK  1 active torsions:
REMARK  status: ('A' for Active; 'I' for Inactive)
REMARK    1  A    between atoms: O1_1  and  C1_3 
ROOT
HETATM    1  C1  UNL     1       5.209  12.383  43.786  1.00  0.00     0.258 C 
HETATM    2  C2  UNL     1       4.289  11.829  44.843  1.00  0.00     0.071 C 
HETATM    3  C3  UNL     1       4.047  12.967  45.842  1.00  0.00     0.007 C 
HETATM    4  C4  UNL     1       3.250  14.014  45.065  1.00  0.00     0.030 C 
HETATM    5  C5  UNL     1       4.129  14.537  43.980  1.00  0.00     0.276 C 
HETATM    6  N1  UNL     1       4.783  13.581  43.185  1.00  0.00     0.123 N 
HETATM    7  C6  UNL     1       4.090  13.290  41.958  1.00  0.00     0.276 C 
HETATM    8  C7  UNL     1       4.535  11.926  41.503  1.00  0.00     0.035 C 
HETATM    9  C8  UNL     1       5.355  11.387  42.641  1.00  0.00     0.073 C 
ENDROOT
BRANCH   1  10
HETATM   10  O1  UNL     1       6.483  12.482  44.369  1.00  0.00    -0.363 OA
ATOM     11  H1  UNL     1       7.104  12.163  43.725  1.00  0.00     0.212 HD
ENDBRANCH   1  10
TORSDOF 1
ENDMDL
MODEL 3
REMARK VINA RESULT: -4.625176636      8.080      9.685
REMARK  1 active torsions:
REMARK  status: ('A' for Active; 'I' for Inactive)
REMARK    1  A    between atoms: O1_1  and  C1_3 
ROOT
HETATM    1  C1  UNL     1      10.037   6.155  42.620  1.00  0.00     0.258 C 
HETATM    2  C2  UNL     1       8.789   5.384  42.962  1.00  0.00     0.071 C 
HETATM    3  C3  UNL     1       7.858   6.369  43.679  1.00  0.00     0.007 C 
HETATM    4  C4  UNL     1       7.469   7.394  42.614  1.00  0.00     0.030 C 
HETATM    5  C5  UNL     1       8.704   8.132  42.225  1.00  0.00     0.276 C 
HETATM    6  N1  UNL     1       9.831   7.352  41.913  1.00  0.00     0.123 N 
HETATM    7  C6  UNL     1       9.987   7.117  40.502  1.00  0.00     0.276 C 
HETATM    8  C7  UNL     1      10.820   5.874  40.343  1.00  0.00     0.035 C 
HETATM    9  C8  UNL     1      10.948   5.314  41.731  1.00  0.00     0.073 C 
ENDROOT
BRANCH   1  10
HETATM   10  O1  UNL     1      10.742   6.339  43.820  1.00  0.00    -0.363 OA
ATOM     11  H1  UNL     1      10.094   6.454  44.505  1.00  0.00     0.212 HD
ENDBRANCH   1  10
TORSDOF 1
ENDMDL
MODEL 4
REMARK VINA RESULT: -4.593842480      2.342      3.578
REMARK  1 active torsions:
REMARK  status: ('A' for Active; 'I' for Inactive)
REMARK    1  A    between atoms: O1_1  and  C1_3 
ROOT
HETATM    1  C1  UNL     1       5.152  11.936  43.949  1.00  0.00     0.258 C 
HETATM    2  C2  UNL     1       6.603  12.225  44.232  1.00  0.00     0.071 C 
HETATM    3  C3  UNL     1       7.338  10.885  44.115  1.00  0.00     0.007 C 
HETATM    4  C4  UNL     1       7.242  10.508  42.637  1.00  0.00     0.030 C 
HETATM    5  C5  UNL     1       5.804  10.269  42.325  1.00  0.00     0.276 C 
HETATM    6  N1  UNL     1       4.897  11.257  42.745  1.00  0.00     0.123 N 
HETATM    7  C6  UNL     1       4.568  12.204  41.712  1.00  0.00     0.276 C 
HETATM    8  C7  UNL     1       4.093  13.461  42.389  1.00  0.00     0.035 C 
HETATM    9  C8  UNL     1       4.366  13.240  43.850  1.00  0.00     0.073 C 
ENDROOT
BRANCH   1  10
HETATM   10  O1  UNL     1       4.642  11.270  45.075  1.00  0.00    -0.363 OA
ATOM     11  H1  UNL     1       3.707  11.177  44.939  1.00  0.00     0.212 HD
ENDBRANCH   1  10
TORSDOF 1
ENDMDL
MODEL 5
REMARK VINA RESULT: -4.562397179      2.154      3.460
REMARK  1 active torsions:
REMARK  status: ('A' for Active; 'I' for Inactive)
REMARK    1  A    between atoms: O1_1  and  C1_3 
ROOT
HETATM    1  C1  UNL     1       5.335  11.730  43.181  1.00  0.00     0.258 C 
HETATM    2  C2  UNL     1       5.048  13.062  42.537  1.00  0.00     0.071 C 
HETATM    3  C3  UNL     1       3.658  13.485  43.026  1.00  0.00     0.007 C 
HETATM    4  C4  UNL     1       3.826  13.743  44.523  1.00  0.00     0.030 C 
HETATM    5  C5  UNL     1       4.163  12.444  45.171  1.00  0.00     0.276 C 
HETATM    6  N1  UNL     1       5.195  11.695  44.579  1.00  0.00     0.123 N 
HETATM    7  C6  UNL     1       6.475  11.900  45.202  1.00  0.00     0.276 C 
HETATM    8  C7  UNL     1       7.530  11.537  44.192  1.00  0.00     0.035 C 
HETATM    9  C8  UNL     1       6.778  11.315  42.910  1.00  0.00     0.073 C 
ENDROOT
BRANCH   1  10
HETATM   10  O1  UNL     1       4.537  10.781  42.523  1.00  0.00    -0.363 OA
ATOM     11  H1  UNL     1       4.286  10.136  43.173  1.00  0.00     0.212 HD
ENDBRANCH   1  10
TORSDOF 1
ENDMDL
