MODEL 1
REMARK VINA RESULT: -6.510173772      0.000      0.000
REMARK  11 active torsions:
REMARK  status: ('A' for Active; 'I' for Inactive)
REMARK    1  A    between atoms: C5_7  and  O3_8 
REMARK    2  A    between atoms: C7_12  and  O5_13 
REMARK    3  A    between atoms: C7_12  and  C8_15 
REMARK    4  A    between atoms: C8_15  and  O6_16 
REMARK    5  A    between atoms: C8_15  and  C9_18 
REMARK    6  A    between atoms: C9_18  and  O7_19 
REMARK    7  A    between atoms: C9_18  and  O8_21 
REMARK    8  A    between atoms: C9_18  and  C10_23 
REMARK    9  A    between atoms: C10_23  and  O9_24 
REMARK   10  A    between atoms: C11_26  and  O10_27 
REMARK   11  A    between atoms: C11_26  and  O11_29 
ROOT
HETATM    1  C1  UNL     1      30.004 -30.621   5.447  1.00  0.00     0.028 C 
HETATM    2  C2  UNL     1      29.511 -31.813   5.691  1.00  0.00     0.022 A 
HETATM    3  C3  UNL     1      29.315 -32.780   4.587  1.00  0.00     0.234 A 
HETATM    4  O1  UNL     1      29.644 -32.399   3.428  1.00  0.00    -0.283 OA
HETATM    5  C4  UNL     1      28.773 -34.083   4.862  1.00  0.00     0.258 A 
HETATM    6  O2  UNL     1      28.608 -34.901   3.930  1.00  0.00    -0.281 OA
HETATM    7  C5  UNL     1      28.417 -34.456   6.199  1.00  0.00     0.155 A 
HETATM    8  C6  UNL     1      28.573 -33.624   7.219  1.00  0.00     0.121 A 
HETATM    9  O4  UNL     1      28.228 -33.965   8.536  1.00  0.00    -0.302 OA
HETATM   10  C7  UNL     1      27.780 -32.861   9.328  1.00  0.00     0.261 C 
HETATM   11  C11 UNL     1      28.909 -31.921   9.446  1.00  0.00     0.242 C 
HETATM   12  C12 UNL     1      29.293 -31.466   8.053  1.00  0.00     0.061 C 
HETATM   13  C13 UNL     1      29.125 -32.269   7.030  1.00  0.00     0.015 A 
ENDROOT
BRANCH  10  14
HETATM   14  O5  UNL     1      26.792 -32.183   8.533  1.00  0.00    -0.358 OA
ATOM     15  H5  UNL     1      27.044 -31.267   8.531  1.00  0.00     0.213 HD
ENDBRANCH  10  14
BRANCH  10  16
HETATM   16  C8  UNL     1      27.039 -33.271  10.550  1.00  0.00     0.251 C 
BRANCH  16  17
HETATM   17  O6  UNL     1      25.660 -33.083  10.173  1.00  0.00    -0.384 OA
ATOM     18  H6  UNL     1      25.194 -33.644  10.782  1.00  0.00     0.210 HD
ENDBRANCH  16  17
BRANCH  16  19
HETATM   19  C9  UNL     1      27.243 -34.629  11.082  1.00  0.00     0.213 C 
BRANCH  19  20
HETATM   20  O7  UNL     1      28.584 -34.877  11.312  1.00  0.00    -0.362 OA
ATOM     21  H7  UNL     1      28.823 -35.750  11.025  1.00  0.00     0.213 HD
ENDBRANCH  19  20
BRANCH  19  22
HETATM   22  O8  UNL     1      26.839 -35.639  10.177  1.00  0.00    -0.362 OA
ATOM     23  H8  UNL     1      26.012 -35.444   9.752  1.00  0.00     0.213 HD
ENDBRANCH  19  22
BRANCH  19  24
HETATM   24  C10 UNL     1      26.514 -34.925  12.362  1.00  0.00     0.235 C 
BRANCH  24  25
HETATM   25  O9  UNL     1      26.020 -33.816  13.003  1.00  0.00    -0.395 OA
ATOM     26  H9  UNL     1      26.581 -33.051  12.951  1.00  0.00     0.209 HD
ENDBRANCH  24  25
ENDBRANCH  19  24
ENDBRANCH  16  19
ENDBRANCH  10  16
BRANCH  11  27
HETATM   27  O10 UNL     1      28.663 -30.796  10.192  1.00  0.00    -0.358 OA
ATOM     28  H10 UNL     1      29.296 -30.615  10.877  1.00  0.00     0.213 HD
ENDBRANCH  11  27
BRANCH  11  29
HETATM   29  O11 UNL     1      30.101 -32.499   9.918  1.00  0.00    -0.358 OA
ATOM     30  H11 UNL     1      30.885 -32.001   9.720  1.00  0.00     0.213 HD
ENDBRANCH  11  29
BRANCH   7  31
HETATM   31  O3  UNL     1      27.885 -35.731   6.465  1.00  0.00    -0.355 OA
ATOM     32  H3  UNL     1      27.787 -36.034   7.360  1.00  0.00     0.218 HD
ENDBRANCH   7  31
TORSDOF 11
ENDMDL
MODEL 2
REMARK VINA RESULT: -6.243903630      0.452      1.176
REMARK  11 active torsions:
REMARK  status: ('A' for Active; 'I' for Inactive)
REMARK    1  A    between atoms: C5_7  and  O3_8 
REMARK    2  A    between atoms: C7_12  and  O5_13 
REMARK    3  A    between atoms: C7_12  and  C8_15 
REMARK    4  A    between atoms: C8_15  and  O6_16 
REMARK    5  A    between atoms: C8_15  and  C9_18 
REMARK    6  A    between atoms: C9_18  and  O7_19 
REMARK    7  A    between atoms: C9_18  and  O8_21 
REMARK    8  A    between atoms: C9_18  and  C10_23 
REMARK    9  A    between atoms: C10_23  and  O9_24 
REMARK   10  A    between atoms: C11_26  and  O10_27 
REMARK   11  A    between atoms: C11_26  and  O11_29 
ROOT
HETATM    1  C1  UNL     1      29.968 -30.828   5.392  1.00  0.00     0.028 C 
HETATM    2  C2  UNL     1      29.451 -31.995   5.699  1.00  0.00     0.022 A 
HETATM    3  C3  UNL     1      29.215 -33.008   4.646  1.00  0.00     0.234 A 
HETATM    4  O1  UNL     1      29.533 -32.690   3.465  1.00  0.00    -0.283 OA
HETATM    5  C4  UNL     1      28.648 -34.283   4.991  1.00  0.00     0.258 A 
HETATM    6  O2  UNL     1      28.449 -35.141   4.101  1.00  0.00    -0.281 OA
HETATM    7  C5  UNL     1      28.306 -34.585   6.349  1.00  0.00     0.155 A 
HETATM    8  C6  UNL     1      28.499 -33.711   7.327  1.00  0.00     0.121 A 
HETATM    9  O4  UNL     1      28.169 -33.981   8.663  1.00  0.00    -0.302 OA
HETATM   10  C7  UNL     1      27.760 -32.831   9.409  1.00  0.00     0.261 C 
HETATM   11  C11 UNL     1      28.912 -31.913   9.464  1.00  0.00     0.242 C 
HETATM   12  C12 UNL     1      29.282 -31.533   8.046  1.00  0.00     0.061 C 
HETATM   13  C13 UNL     1      29.078 -32.379   7.064  1.00  0.00     0.015 A 
ENDROOT
BRANCH  10  14
HETATM   14  O5  UNL     1      26.774 -32.168   8.599  1.00  0.00    -0.358 OA
ATOM     15  H5  UNL     1      27.139 -32.133   7.723  1.00  0.00     0.213 HD
ENDBRANCH  10  14
BRANCH  10  16
HETATM   16  C8  UNL     1      27.031 -33.165  10.661  1.00  0.00     0.251 C 
BRANCH  16  17
HETATM   17  O6  UNL     1      25.649 -32.983  10.292  1.00  0.00    -0.384 OA
ATOM     18  H6  UNL     1      25.319 -32.412  10.976  1.00  0.00     0.210 HD
ENDBRANCH  16  17
BRANCH  16  19
HETATM   19  C9  UNL     1      27.228 -34.494  11.264  1.00  0.00     0.213 C 
BRANCH  19  20
HETATM   20  O7  UNL     1      26.803 -34.511  12.579  1.00  0.00    -0.362 OA
ATOM     21  H7  UNL     1      26.899 -35.377  12.957  1.00  0.00     0.213 HD
ENDBRANCH  19  20
BRANCH  19  22
HETATM   22  O8  UNL     1      28.591 -34.875  11.319  1.00  0.00    -0.362 OA
ATOM     23  H8  UNL     1      28.752 -35.726  10.929  1.00  0.00     0.213 HD
ENDBRANCH  19  22
BRANCH  19  24
HETATM   24  C10 UNL     1      26.528 -35.621  10.559  1.00  0.00     0.235 C 
BRANCH  24  25
HETATM   25  O9  UNL     1      27.344 -36.384   9.760  1.00  0.00    -0.395 OA
ATOM     26  H9  UNL     1      28.243 -36.079   9.713  1.00  0.00     0.209 HD
ENDBRANCH  24  25
ENDBRANCH  19  24
ENDBRANCH  16  19
ENDBRANCH  10  16
BRANCH  11  27
HETATM   27  O10 UNL     1      28.704 -30.749  10.160  1.00  0.00    -0.358 OA
ATOM     28  H10 UNL     1      29.204 -29.999   9.859  1.00  0.00     0.213 HD
ENDBRANCH  11  27
BRANCH  11  29
HETATM   29  O11 UNL     1      30.099 -32.496   9.945  1.00  0.00    -0.358 OA
ATOM     30  H11 UNL     1      29.980 -33.071  10.691  1.00  0.00     0.213 HD
ENDBRANCH  11  29
BRANCH   7  31
HETATM   31  O3  UNL     1      27.751 -35.833   6.684  1.00  0.00    -0.355 OA
ATOM     32  H3  UNL     1      26.989 -36.161   6.222  1.00  0.00     0.218 HD
ENDBRANCH   7  31
TORSDOF 11
ENDMDL
MODEL 3
REMARK VINA RESULT: -6.175202383      0.906      1.307
REMARK  11 active torsions:
REMARK  status: ('A' for Active; 'I' for Inactive)
REMARK    1  A    between atoms: C5_7  and  O3_8 
REMARK    2  A    between atoms: C7_12  and  O5_13 
REMARK    3  A    between atoms: C7_12  and  C8_15 
REMARK    4  A    between atoms: C8_15  and  O6_16 
REMARK    5  A    between atoms: C8_15  and  C9_18 
REMARK    6  A    between atoms: C9_18  and  O7_19 
REMARK    7  A    between atoms: C9_18  and  O8_21 
REMARK    8  A    between atoms: C9_18  and  C10_23 
REMARK    9  A    between atoms: C10_23  and  O9_24 
REMARK   10  A    between atoms: C11_26  and  O10_27 
REMARK   11  A    between atoms: C11_26  and  O11_29 
ROOT
HETATM    1  C1  UNL     1      29.892 -30.747   5.115  1.00  0.00     0.028 C 
HETATM    2  C2  UNL     1      29.477 -31.945   5.455  1.00  0.00     0.022 A 
HETATM    3  C3  UNL     1      29.276 -32.987   4.423  1.00  0.00     0.234 A 
HETATM    4  O1  UNL     1      29.523 -32.662   3.227  1.00  0.00    -0.283 OA
HETATM    5  C4  UNL     1      28.821 -34.296   4.804  1.00  0.00     0.258 A 
HETATM    6  O2  UNL     1      28.652 -35.178   3.932  1.00  0.00    -0.281 OA
HETATM    7  C5  UNL     1      28.556 -34.604   6.178  1.00  0.00     0.155 A 
HETATM    8  C6  UNL     1      28.721 -33.704   7.138  1.00  0.00     0.121 A 
HETATM    9  O4  UNL     1      28.465 -33.979   8.490  1.00  0.00    -0.302 OA
HETATM   10  C7  UNL     1      28.000 -32.853   9.239  1.00  0.00     0.261 C 
HETATM   11  C11 UNL     1      29.081 -31.852   9.238  1.00  0.00     0.242 C 
HETATM   12  C12 UNL     1      29.366 -31.464   7.801  1.00  0.00     0.061 C 
HETATM   13  C13 UNL     1      29.188 -32.336   6.838  1.00  0.00     0.015 A 
ENDROOT
BRANCH  10  14
HETATM   14  O5  UNL     1      26.936 -32.277   8.462  1.00  0.00    -0.358 OA
ATOM     15  H5  UNL     1      26.891 -32.789   7.663  1.00  0.00     0.213 HD
ENDBRANCH  10  14
BRANCH  10  16
HETATM   16  C8  UNL     1      27.348 -33.223  10.522  1.00  0.00     0.251 C 
BRANCH  16  17
HETATM   17  O6  UNL     1      27.664 -32.109  11.381  1.00  0.00    -0.384 OA
ATOM     18  H6  UNL     1      26.833 -31.656  11.460  1.00  0.00     0.210 HD
ENDBRANCH  16  17
BRANCH  16  19
HETATM   19  C9  UNL     1      25.898 -33.482  10.534  1.00  0.00     0.213 C 
BRANCH  19  20
HETATM   20  O7  UNL     1      25.514 -34.212   9.425  1.00  0.00    -0.362 OA
ATOM     21  H7  UNL     1      24.951 -34.936   9.671  1.00  0.00     0.213 HD
ENDBRANCH  19  20
BRANCH  19  22
HETATM   22  O8  UNL     1      25.129 -32.295  10.469  1.00  0.00    -0.362 OA
ATOM     23  H8  UNL     1      24.787 -32.125   9.600  1.00  0.00     0.213 HD
ENDBRANCH  19  22
BRANCH  19  24
HETATM   24  C10 UNL     1      25.395 -34.217  11.744  1.00  0.00     0.235 C 
BRANCH  24  25
HETATM   25  O9  UNL     1      26.078 -33.939  12.902  1.00  0.00    -0.395 OA
ATOM     26  H9  UNL     1      26.918 -33.516  12.769  1.00  0.00     0.209 HD
ENDBRANCH  24  25
ENDBRANCH  19  24
ENDBRANCH  16  19
ENDBRANCH  10  16
BRANCH  11  27
HETATM   27  O10 UNL     1      28.814 -30.696   9.929  1.00  0.00    -0.358 OA
ATOM     28  H10 UNL     1      28.030 -30.714  10.464  1.00  0.00     0.213 HD
ENDBRANCH  11  27
BRANCH  11  29
HETATM   29  O11 UNL     1      30.326 -32.338   9.676  1.00  0.00    -0.358 OA
ATOM     30  H11 UNL     1      30.804 -31.742  10.240  1.00  0.00     0.213 HD
ENDBRANCH  11  29
BRANCH   7  31
HETATM   31  O3  UNL     1      28.109 -35.885   6.549  1.00  0.00    -0.355 OA
ATOM     32  H3  UNL     1      28.688 -36.483   7.006  1.00  0.00     0.218 HD
ENDBRANCH   7  31
TORSDOF 11
ENDMDL
MODEL 4
REMARK VINA RESULT: -5.788601649      1.955      3.497
REMARK  11 active torsions:
REMARK  status: ('A' for Active; 'I' for Inactive)
REMARK    1  A    between atoms: C5_7  and  O3_8 
REMARK    2  A    between atoms: C7_12  and  O5_13 
REMARK    3  A    between atoms: C7_12  and  C8_15 
REMARK    4  A    between atoms: C8_15  and  O6_16 
REMARK    5  A    between atoms: C8_15  and  C9_18 
REMARK    6  A    between atoms: C9_18  and  O7_19 
REMARK    7  A    between atoms: C9_18  and  O8_21 
REMARK    8  A    between atoms: C9_18  and  C10_23 
REMARK    9  A    between atoms: C10_23  and  O9_24 
REMARK   10  A    between atoms: C11_26  and  O10_27 
REMARK   11  A    between atoms: C11_26  and  O11_29 
ROOT
HETATM    1  C1  UNL     1      25.945 -32.447   6.318  1.00  0.00     0.028 C 
HETATM    2  C2  UNL     1      26.950 -32.405   7.160  1.00  0.00     0.022 A 
HETATM    3  C3  UNL     1      28.283 -31.943   6.710  1.00  0.00     0.234 A 
HETATM    4  O1  UNL     1      28.389 -31.599   5.499  1.00  0.00    -0.283 OA
HETATM    5  C4  UNL     1      29.379 -31.901   7.639  1.00  0.00     0.258 A 
HETATM    6  O2  UNL     1      30.506 -31.509   7.259  1.00  0.00    -0.281 OA
HETATM    7  C5  UNL     1      29.196 -32.305   9.001  1.00  0.00     0.155 A 
HETATM    8  C6  UNL     1      28.023 -32.727   9.450  1.00  0.00     0.121 A 
HETATM    9  O4  UNL     1      27.819 -33.133  10.778  1.00  0.00    -0.302 OA
HETATM   10  C7  UNL     1      26.837 -34.162  10.932  1.00  0.00     0.261 C 
HETATM   11  C11 UNL     1      25.547 -33.604  10.487  1.00  0.00     0.242 C 
HETATM   12  C12 UNL     1      25.683 -33.200   9.033  1.00  0.00     0.061 C 
HETATM   13  C13 UNL     1      26.842 -32.800   8.568  1.00  0.00     0.015 A 
ENDROOT
BRANCH  10  14
HETATM   14  O5  UNL     1      27.175 -35.175   9.969  1.00  0.00    -0.358 OA
ATOM     15  H5  UNL     1      26.355 -35.429   9.562  1.00  0.00     0.213 HD
ENDBRANCH  10  14
BRANCH  10  16
HETATM   16  C8  UNL     1      26.917 -34.866  12.238  1.00  0.00     0.251 C 
BRANCH  16  17
HETATM   17  O6  UNL     1      25.925 -34.187  13.035  1.00  0.00    -0.384 OA
ATOM     18  H6  UNL     1      25.339 -33.822  12.383  1.00  0.00     0.210 HD
ENDBRANCH  16  17
BRANCH  16  19
HETATM   19  C9  UNL     1      26.693 -36.321  12.276  1.00  0.00     0.213 C 
BRANCH  19  20
HETATM   20  O7  UNL     1      27.805 -37.007  11.825  1.00  0.00    -0.362 OA
ATOM     21  H7  UNL     1      28.604 -36.538  12.037  1.00  0.00     0.213 HD
ENDBRANCH  19  20
BRANCH  19  22
HETATM   22  O8  UNL     1      25.642 -36.736  11.422  1.00  0.00    -0.362 OA
ATOM     23  H8  UNL     1      25.635 -36.271  10.594  1.00  0.00     0.213 HD
ENDBRANCH  19  22
BRANCH  19  24
HETATM   24  C10 UNL     1      26.349 -36.876  13.628  1.00  0.00     0.235 C 
BRANCH  24  25
HETATM   25  O9  UNL     1      27.021 -36.287  14.671  1.00  0.00    -0.395 OA
ATOM     26  H9  UNL     1      27.130 -36.845  15.432  1.00  0.00     0.209 HD
ENDBRANCH  24  25
ENDBRANCH  19  24
ENDBRANCH  16  19
ENDBRANCH  10  16
BRANCH  11  27
HETATM   27  O10 UNL     1      24.475 -34.456  10.578  1.00  0.00    -0.358 OA
ATOM     28  H10 UNL     1      24.177 -34.642  11.461  1.00  0.00     0.213 HD
ENDBRANCH  11  27
BRANCH  11  29
HETATM   29  O11 UNL     1      25.190 -32.394  11.109  1.00  0.00    -0.358 OA
ATOM     30  H11 UNL     1      25.495 -31.615  10.658  1.00  0.00     0.213 HD
ENDBRANCH  11  29
BRANCH   7  31
HETATM   31  O3  UNL     1      30.271 -32.265   9.908  1.00  0.00    -0.355 OA
ATOM     32  H3  UNL     1      31.006 -32.858   9.810  1.00  0.00     0.218 HD
ENDBRANCH   7  31
TORSDOF 11
ENDMDL
MODEL 5
REMARK VINA RESULT: -5.631862778      1.762      5.522
REMARK  11 active torsions:
REMARK  status: ('A' for Active; 'I' for Inactive)
REMARK    1  A    between atoms: C5_7  and  O3_8 
REMARK    2  A    between atoms: C7_12  and  O5_13 
REMARK    3  A    between atoms: C7_12  and  C8_15 
REMARK    4  A    between atoms: C8_15  and  O6_16 
REMARK    5  A    between atoms: C8_15  and  C9_18 
REMARK    6  A    between atoms: C9_18  and  O7_19 
REMARK    7  A    between atoms: C9_18  and  O8_21 
REMARK    8  A    between atoms: C9_18  and  C10_23 
REMARK    9  A    between atoms: C10_23  and  O9_24 
REMARK   10  A    between atoms: C11_26  and  O10_27 
REMARK   11  A    between atoms: C11_26  and  O11_29 
ROOT
HETATM    1  C1  UNL     1      26.256 -35.070  12.784  1.00  0.00     0.028 C 
HETATM    2  C2  UNL     1      26.575 -35.301  11.532  1.00  0.00     0.022 A 
HETATM    3  C3  UNL     1      26.485 -36.671  10.978  1.00  0.00     0.234 A 
HETATM    4  O1  UNL     1      26.093 -37.581  11.764  1.00  0.00    -0.283 OA
HETATM    5  C4  UNL     1      26.836 -36.916   9.606  1.00  0.00     0.258 A 
HETATM    6  O2  UNL     1      26.760 -38.074   9.137  1.00  0.00    -0.281 OA
HETATM    7  C5  UNL     1      27.277 -35.843   8.765  1.00  0.00     0.155 A 
HETATM    8  C6  UNL     1      27.374 -34.599   9.215  1.00  0.00     0.121 A 
HETATM    9  O4  UNL     1      27.806 -33.533   8.412  1.00  0.00    -0.302 OA
HETATM   10  C7  UNL     1      28.514 -32.514   9.124  1.00  0.00     0.261 C 
HETATM   11  C11 UNL     1      27.572 -31.924  10.093  1.00  0.00     0.242 C 
HETATM   12  C12 UNL     1      27.112 -33.019  11.033  1.00  0.00     0.061 C 
HETATM   13  C13 UNL     1      27.031 -34.257  10.609  1.00  0.00     0.015 A 
ENDROOT
BRANCH  10  14
HETATM   14  O5  UNL     1      29.502 -33.199   9.912  1.00  0.00    -0.358 OA
ATOM     15  H5  UNL     1      30.030 -33.692   9.294  1.00  0.00     0.213 HD
ENDBRANCH  10  14
BRANCH  10  16
HETATM   16  C8  UNL     1      29.312 -31.621   8.244  1.00  0.00     0.251 C 
BRANCH  16  17
HETATM   17  O6  UNL     1      30.630 -31.686   8.823  1.00  0.00    -0.384 OA
ATOM     18  H6  UNL     1      30.686 -32.584   9.129  1.00  0.00     0.210 HD
ENDBRANCH  16  17
BRANCH  16  19
HETATM   19  C9  UNL     1      29.373 -31.915   6.802  1.00  0.00     0.213 C 
BRANCH  19  20
HETATM   20  O7  UNL     1      30.069 -30.933   6.123  1.00  0.00    -0.362 OA
ATOM     21  H7  UNL     1      29.726 -30.816   5.245  1.00  0.00     0.213 HD
ENDBRANCH  19  20
BRANCH  19  22
HETATM   22  O8  UNL     1      28.094 -31.938   6.193  1.00  0.00    -0.362 OA
ATOM     23  H8  UNL     1      27.387 -32.000   6.823  1.00  0.00     0.213 HD
ENDBRANCH  19  22
BRANCH  19  24
HETATM   24  C10 UNL     1      30.006 -33.231   6.449  1.00  0.00     0.235 C 
BRANCH  24  25
HETATM   25  O9  UNL     1      29.134 -34.162   5.941  1.00  0.00    -0.395 OA
ATOM     26  H9  UNL     1      29.138 -34.994   6.399  1.00  0.00     0.209 HD
ENDBRANCH  24  25
ENDBRANCH  19  24
ENDBRANCH  16  19
ENDBRANCH  10  16
BRANCH  11  27
HETATM   27  O10 UNL     1      28.081 -30.908  10.863  1.00  0.00    -0.358 OA
ATOM     28  H10 UNL     1      27.470 -30.211  11.072  1.00  0.00     0.213 HD
ENDBRANCH  11  27
BRANCH  11  29
HETATM   29  O11 UNL     1      26.364 -31.474   9.530  1.00  0.00    -0.358 OA
ATOM     30  H11 UNL     1      26.116 -30.593   9.783  1.00  0.00     0.213 HD
ENDBRANCH  11  29
BRANCH   7  31
HETATM   31  O3  UNL     1      27.621 -36.084   7.423  1.00  0.00    -0.355 OA
ATOM     32  H3  UNL     1      28.088 -35.428   6.920  1.00  0.00     0.218 HD
ENDBRANCH   7  31
TORSDOF 11
ENDMDL
