MODEL 1
REMARK VINA RESULT: -5.460579390      0.000      0.000
REMARK  10 active torsions:
REMARK  status: ('A' for Active; 'I' for Inactive)
REMARK    1  A    between atoms: C2_3  and  C3_4 
REMARK    2  A    between atoms: C3_4  and  N2_5 
REMARK    3  A    between atoms: C3_4  and  O1_9 
REMARK    4  A    between atoms: C3_4  and  C4_11 
REMARK    5  A    between atoms: C4_11  and  O2_12 
REMARK    6  A    between atoms: C4_11  and  O3_14 
REMARK    7  A    between atoms: C9_28  and  O5_29 
REMARK    8  A    between atoms: C10_31  and  C11_32 
REMARK    9  A    between atoms: C11_32  and  O6_33 
REMARK   10  A    between atoms: C11_32  and  O7_35 
ROOT
HETATM    1  C1  UNL     1      26.850 -32.419   7.204  1.00  0.00     0.156 C 
HETATM    2  N1  UNL     1      27.484 -33.647   7.425  1.00  0.00    -0.345 N 
HETATM    3  C2  UNL     1      27.487 -34.058   8.732  1.00  0.00     0.126 C 
HETATM    4  C5  UNL     1      27.312 -35.427   9.027  1.00  0.00     0.160 A 
HETATM    5  N3  UNL     1      26.799 -35.779  10.242  1.00  0.00    -0.334 N 
ATOM      6  H3  UNL     1      26.514 -35.147  10.990  1.00  0.00     0.168 HD
HETATM    7  C6  UNL     1      26.741 -37.122  10.261  1.00  0.00     0.199 A 
HETATM    8  N4  UNL     1      27.216 -37.582   9.065  1.00  0.00    -0.285 N 
ATOM      9  H4  UNL     1      27.291 -38.561   8.791  1.00  0.00     0.188 HD
HETATM   10  N5  UNL     1      27.557 -36.551   8.329  1.00  0.00    -0.199 N 
HETATM   11  C7  UNL     1      28.069 -36.635   7.111  1.00  0.00     0.297 C 
HETATM   12  O4  UNL     1      28.377 -37.775   6.650  1.00  0.00    -0.264 OA
HETATM   13  C8  UNL     1      28.329 -35.611   6.225  1.00  0.00     0.133 A 
HETATM   14  N6  UNL     1      28.938 -35.766   5.043  1.00  0.00    -0.330 N 
ATOM     15  H6  UNL     1      29.292 -36.650   4.680  1.00  0.00     0.168 HD
HETATM   16  C9  UNL     1      29.014 -34.602   4.415  1.00  0.00     0.154 A 
HETATM   17  C10 UNL     1      28.421 -33.566   5.199  1.00  0.00     0.076 A 
HETATM   18  C12 UNL     1      28.017 -34.244   6.316  1.00  0.00     0.083 A 
ENDROOT
BRANCH   3  19
HETATM   19  C3  UNL     1      27.648 -33.109   9.794  1.00  0.00     0.318 C 
BRANCH  19  20
HETATM   20  N2  UNL     1      26.632 -33.044  10.835  1.00  0.00    -0.036 N 
ATOM     21  H23 UNL     1      25.976 -32.296  10.610  1.00  0.00     0.278 HD
ATOM     22  H22 UNL     1      26.029 -33.864  10.759  1.00  0.00     0.278 HD
ATOM     23  H21 UNL     1      26.929 -32.941  11.805  1.00  0.00     0.278 HD
ENDBRANCH  19  20
BRANCH  19  24
HETATM   24  O1  UNL     1      28.528 -33.956  10.677  1.00  0.00    -0.356 OA
ATOM     25  H1  UNL     1      29.295 -33.397  10.656  1.00  0.00     0.213 HD
ENDBRANCH  19  24
BRANCH  19  26
HETATM   26  C4  UNL     1      28.566 -31.950   9.733  1.00  0.00     0.324 C 
BRANCH  26  27
HETATM   27  O2  UNL     1      29.931 -32.215   9.721  1.00  0.00    -0.367 OA
ATOM     28  H2  UNL     1      30.515 -31.516   9.992  1.00  0.00     0.212 HD
ENDBRANCH  26  27
BRANCH  26  29
HETATM   29  O3  UNL     1      28.233 -30.976  10.687  1.00  0.00    -0.367 OA
ATOM     30  H3  UNL     1      27.962 -31.370  11.509  1.00  0.00     0.212 HD
ENDBRANCH  26  29
ENDBRANCH  19  26
ENDBRANCH   3  19
BRANCH  17  31
HETATM   31  C11 UNL     1      28.389 -32.185   4.861  1.00  0.00     0.295 C 
BRANCH  31  32
HETATM   32  O6  UNL     1      27.942 -31.775   3.593  1.00  0.00    -0.367 OA
ATOM     33  H6  UNL     1      27.027 -31.864   3.355  1.00  0.00     0.213 HD
ENDBRANCH  31  32
BRANCH  31  34
HETATM   34  O7  UNL     1      29.706 -31.730   4.785  1.00  0.00    -0.367 OA
ATOM     35  H7  UNL     1      30.107 -31.853   5.638  1.00  0.00     0.213 HD
ENDBRANCH  31  34
ENDBRANCH  17  31
BRANCH  16  36
HETATM   36  O5  UNL     1      29.574 -34.356   3.174  1.00  0.00    -0.345 OA
ATOM     37  H5  UNL     1      30.465 -34.540   2.898  1.00  0.00     0.219 HD
ENDBRANCH  16  36
TORSDOF 10
ENDMDL
MODEL 2
REMARK VINA RESULT: -5.356751802      2.085      3.556
REMARK  10 active torsions:
REMARK  status: ('A' for Active; 'I' for Inactive)
REMARK    1  A    between atoms: C2_3  and  C3_4 
REMARK    2  A    between atoms: C3_4  and  N2_5 
REMARK    3  A    between atoms: C3_4  and  O1_9 
REMARK    4  A    between atoms: C3_4  and  C4_11 
REMARK    5  A    between atoms: C4_11  and  O2_12 
REMARK    6  A    between atoms: C4_11  and  O3_14 
REMARK    7  A    between atoms: C9_28  and  O5_29 
REMARK    8  A    between atoms: C10_31  and  C11_32 
REMARK    9  A    between atoms: C11_32  and  O6_33 
REMARK   10  A    between atoms: C11_32  and  O7_35 
ROOT
HETATM    1  C1  UNL     1      27.128 -33.222  10.869  1.00  0.00     0.156 C 
HETATM    2  N1  UNL     1      27.261 -34.306   9.994  1.00  0.00    -0.345 N 
HETATM    3  C2  UNL     1      26.856 -35.508  10.511  1.00  0.00     0.126 C 
HETATM    4  C5  UNL     1      26.183 -36.428   9.679  1.00  0.00     0.160 A 
HETATM    5  N3  UNL     1      25.340 -37.339  10.249  1.00  0.00    -0.334 N 
ATOM      6  H3  UNL     1      25.129 -37.436  11.242  1.00  0.00     0.168 HD
HETATM    7  C6  UNL     1      24.842 -38.081   9.246  1.00  0.00     0.199 A 
HETATM    8  N4  UNL     1      25.378 -37.624   8.075  1.00  0.00    -0.285 N 
ATOM      9  H4  UNL     1      25.183 -37.996   7.145  1.00  0.00     0.188 HD
HETATM   10  N5  UNL     1      26.185 -36.627   8.348  1.00  0.00    -0.199 N 
HETATM   11  C7  UNL     1      26.883 -35.958   7.445  1.00  0.00     0.297 C 
HETATM   12  O4  UNL     1      26.889 -36.365   6.245  1.00  0.00    -0.264 OA
HETATM   13  C8  UNL     1      27.645 -34.823   7.628  1.00  0.00     0.133 A 
HETATM   14  N6  UNL     1      28.402 -34.256   6.681  1.00  0.00    -0.330 N 
ATOM     15  H6  UNL     1      28.513 -34.610   5.732  1.00  0.00     0.168 HD
HETATM   16  C9  UNL     1      28.987 -33.167   7.158  1.00  0.00     0.154 A 
HETATM   17  C10 UNL     1      28.617 -32.953   8.521  1.00  0.00     0.076 A 
HETATM   18  C12 UNL     1      27.788 -34.012   8.767  1.00  0.00     0.083 A 
ENDROOT
BRANCH   3  19
HETATM   19  C3  UNL     1      27.094 -35.827  11.889  1.00  0.00     0.318 C 
BRANCH  19  20
HETATM   20  N2  UNL     1      27.707 -37.107  12.215  1.00  0.00    -0.036 N 
ATOM     21  H23 UNL     1      28.018 -37.553  11.352  1.00  0.00     0.278 HD
ATOM     22  H22 UNL     1      28.597 -36.938  12.683  1.00  0.00     0.278 HD
ATOM     23  H21 UNL     1      27.170 -37.782  12.760  1.00  0.00     0.278 HD
ENDBRANCH  19  20
BRANCH  19  24
HETATM   24  O1  UNL     1      28.426 -35.133  12.018  1.00  0.00    -0.356 OA
ATOM     25  H1  UNL     1      28.097 -34.295  12.321  1.00  0.00     0.213 HD
ENDBRANCH  19  24
BRANCH  19  26
HETATM   26  C4  UNL     1      26.448 -35.127  13.021  1.00  0.00     0.324 C 
BRANCH  26  27
HETATM   27  O2  UNL     1      26.945 -35.378  14.295  1.00  0.00    -0.367 OA
ATOM     28  H2  UNL     1      27.856 -35.163  14.460  1.00  0.00     0.212 HD
ENDBRANCH  26  27
BRANCH  26  29
HETATM   29  O3  UNL     1      25.051 -35.249  12.973  1.00  0.00    -0.367 OA
ATOM     30  H3  UNL     1      24.722 -35.158  12.086  1.00  0.00     0.212 HD
ENDBRANCH  26  29
ENDBRANCH  19  26
ENDBRANCH   3  19
BRANCH  17  31
HETATM   31  C11 UNL     1      29.113 -31.917   9.362  1.00  0.00     0.295 C 
BRANCH  31  32
HETATM   32  O6  UNL     1      29.604 -30.724   8.804  1.00  0.00    -0.367 OA
ATOM     33  H6  UNL     1      30.174 -30.749   8.045  1.00  0.00     0.213 HD
ENDBRANCH  31  32
BRANCH  31  34
HETATM   34  O7  UNL     1      30.285 -32.377   9.963  1.00  0.00    -0.367 OA
ATOM     35  H7  UNL     1      30.997 -32.255   9.345  1.00  0.00     0.213 HD
ENDBRANCH  31  34
ENDBRANCH  17  31
BRANCH  16  36
HETATM   36  O5  UNL     1      29.843 -32.314   6.485  1.00  0.00    -0.345 OA
ATOM     37  H5  UNL     1      29.974 -31.386   6.645  1.00  0.00     0.219 HD
ENDBRANCH  16  36
TORSDOF 10
ENDMDL
MODEL 3
REMARK VINA RESULT: -5.292309607      3.015      4.293
REMARK  10 active torsions:
REMARK  status: ('A' for Active; 'I' for Inactive)
REMARK    1  A    between atoms: C2_3  and  C3_4 
REMARK    2  A    between atoms: C3_4  and  N2_5 
REMARK    3  A    between atoms: C3_4  and  O1_9 
REMARK    4  A    between atoms: C3_4  and  C4_11 
REMARK    5  A    between atoms: C4_11  and  O2_12 
REMARK    6  A    between atoms: C4_11  and  O3_14 
REMARK    7  A    between atoms: C9_28  and  O5_29 
REMARK    8  A    between atoms: C10_31  and  C11_32 
REMARK    9  A    between atoms: C11_32  and  O6_33 
REMARK   10  A    between atoms: C11_32  and  O7_35 
ROOT
HETATM    1  C1  UNL     1      28.385 -32.204   9.998  1.00  0.00     0.156 C 
HETATM    2  N1  UNL     1      27.135 -32.473   9.427  1.00  0.00    -0.345 N 
HETATM    3  C2  UNL     1      26.229 -33.040  10.284  1.00  0.00     0.126 C 
HETATM    4  C5  UNL     1      24.873 -32.659  10.207  1.00  0.00     0.160 A 
HETATM    5  N3  UNL     1      24.090 -32.781  11.320  1.00  0.00    -0.334 N 
ATOM      6  H3  UNL     1      24.380 -33.126  12.235  1.00  0.00     0.168 HD
HETATM    7  C6  UNL     1      22.862 -32.357  10.974  1.00  0.00     0.199 A 
HETATM    8  N4  UNL     1      22.899 -31.980   9.661  1.00  0.00    -0.285 N 
ATOM      9  H4  UNL     1      22.113 -31.614   9.124  1.00  0.00     0.188 HD
HETATM   10  N5  UNL     1      24.116 -32.167   9.209  1.00  0.00    -0.199 N 
HETATM   11  C7  UNL     1      24.503 -31.916   7.968  1.00  0.00     0.297 C 
HETATM   12  O4  UNL     1      23.632 -31.594   7.105  1.00  0.00    -0.264 OA
HETATM   13  C8  UNL     1      25.780 -31.958   7.450  1.00  0.00     0.133 A 
HETATM   14  N6  UNL     1      26.081 -31.784   6.158  1.00  0.00    -0.330 N 
ATOM     15  H6  UNL     1      25.400 -31.622   5.416  1.00  0.00     0.168 HD
HETATM   16  C9  UNL     1      27.392 -31.853   5.983  1.00  0.00     0.154 A 
HETATM   17  C10 UNL     1      28.055 -32.086   7.226  1.00  0.00     0.076 A 
HETATM   18  C12 UNL     1      27.008 -32.150   8.105  1.00  0.00     0.083 A 
ENDROOT
BRANCH   3  19
HETATM   19  C3  UNL     1      26.652 -33.999  11.262  1.00  0.00     0.318 C 
BRANCH  19  20
HETATM   20  N2  UNL     1      26.308 -33.772  12.659  1.00  0.00    -0.036 N 
ATOM     21  H23 UNL     1      26.714 -32.885  12.959  1.00  0.00     0.278 HD
ATOM     22  H22 UNL     1      25.311 -33.564  12.724  1.00  0.00     0.278 HD
ATOM     23  H21 UNL     1      26.541 -34.490  13.344  1.00  0.00     0.278 HD
ENDBRANCH  19  20
BRANCH  19  24
HETATM   24  O1  UNL     1      25.495 -34.952  11.110  1.00  0.00    -0.356 OA
ATOM     25  H1  UNL     1      25.747 -35.315  10.269  1.00  0.00     0.213 HD
ENDBRANCH  19  24
BRANCH  19  26
HETATM   26  C4  UNL     1      27.710 -35.006  11.027  1.00  0.00     0.324 C 
BRANCH  26  27
HETATM   27  O2  UNL     1      27.347 -36.172  10.362  1.00  0.00    -0.367 OA
ATOM     28  H2  UNL     1      27.111 -36.924  10.893  1.00  0.00     0.212 HD
ENDBRANCH  26  27
BRANCH  26  29
HETATM   29  O3  UNL     1      28.433 -35.278  12.199  1.00  0.00    -0.367 OA
ATOM     30  H3  UNL     1      29.109 -35.929  12.049  1.00  0.00     0.212 HD
ENDBRANCH  26  29
ENDBRANCH  19  26
ENDBRANCH   3  19
BRANCH  17  31
HETATM   31  C11 UNL     1      29.454 -32.282   7.397  1.00  0.00     0.295 C 
BRANCH  31  32
HETATM   32  O6  UNL     1      30.370 -31.355   6.870  1.00  0.00    -0.367 OA
ATOM     33  H6  UNL     1      31.134 -31.655   6.393  1.00  0.00     0.213 HD
ENDBRANCH  31  32
BRANCH  31  34
HETATM   34  O7  UNL     1      29.824 -33.402   6.652  1.00  0.00    -0.367 OA
ATOM     35  H7  UNL     1      30.621 -33.754   7.031  1.00  0.00     0.213 HD
ENDBRANCH  31  34
ENDBRANCH  17  31
BRANCH  16  36
HETATM   36  O5  UNL     1      28.085 -31.724   4.792  1.00  0.00    -0.345 OA
ATOM     37  H5  UNL     1      28.705 -32.341   4.418  1.00  0.00     0.219 HD
ENDBRANCH  16  36
TORSDOF 10
ENDMDL
MODEL 4
REMARK VINA RESULT: -5.203035068      2.096      3.503
REMARK  10 active torsions:
REMARK  status: ('A' for Active; 'I' for Inactive)
REMARK    1  A    between atoms: C2_3  and  C3_4 
REMARK    2  A    between atoms: C3_4  and  N2_5 
REMARK    3  A    between atoms: C3_4  and  O1_9 
REMARK    4  A    between atoms: C3_4  and  C4_11 
REMARK    5  A    between atoms: C4_11  and  O2_12 
REMARK    6  A    between atoms: C4_11  and  O3_14 
REMARK    7  A    between atoms: C9_28  and  O5_29 
REMARK    8  A    between atoms: C10_31  and  C11_32 
REMARK    9  A    between atoms: C11_32  and  O6_33 
REMARK   10  A    between atoms: C11_32  and  O7_35 
ROOT
HETATM    1  C1  UNL     1      26.787 -33.210  10.512  1.00  0.00     0.156 C 
HETATM    2  N1  UNL     1      26.997 -34.229   9.575  1.00  0.00    -0.345 N 
HETATM    3  C2  UNL     1      26.440 -35.434   9.912  1.00  0.00     0.126 C 
HETATM    4  C5  UNL     1      25.859 -36.233   8.905  1.00  0.00     0.160 A 
HETATM    5  N3  UNL     1      24.879 -37.120   9.249  1.00  0.00    -0.334 N 
ATOM      6  H3  UNL     1      24.501 -37.279  10.183  1.00  0.00     0.168 HD
HETATM    7  C6  UNL     1      24.509 -37.743   8.117  1.00  0.00     0.199 A 
HETATM    8  N4  UNL     1      25.258 -37.238   7.093  1.00  0.00    -0.285 N 
ATOM      9  H4  UNL     1      25.197 -37.520   6.114  1.00  0.00     0.188 HD
HETATM   10  N5  UNL     1      26.069 -36.328   7.579  1.00  0.00    -0.199 N 
HETATM   11  C7  UNL     1      26.946 -35.644   6.862  1.00  0.00     0.297 C 
HETATM   12  O4  UNL     1      27.125 -35.956   5.647  1.00  0.00    -0.264 OA
HETATM   13  C8  UNL     1      27.735 -34.587   7.265  1.00  0.00     0.133 A 
HETATM   14  N6  UNL     1      28.671 -34.006   6.506  1.00  0.00    -0.330 N 
ATOM     15  H6  UNL     1      28.916 -34.293   5.558  1.00  0.00     0.168 HD
HETATM   16  C9  UNL     1      29.234 -33.004   7.164  1.00  0.00     0.154 A 
HETATM   17  C10 UNL     1      28.658 -32.870   8.465  1.00  0.00     0.076 A 
HETATM   18  C12 UNL     1      27.737 -33.881   8.479  1.00  0.00     0.083 A 
ENDROOT
BRANCH   3  19
HETATM   19  C3  UNL     1      26.427 -35.876  11.276  1.00  0.00     0.318 C 
BRANCH  19  20
HETATM   20  N2  UNL     1      25.212 -36.479  11.805  1.00  0.00    -0.036 N 
ATOM     21  H23 UNL     1      24.453 -36.331  11.140  1.00  0.00     0.278 HD
ATOM     22  H22 UNL     1      25.306 -37.494  11.774  1.00  0.00     0.278 HD
ATOM     23  H21 UNL     1      24.893 -36.205  12.734  1.00  0.00     0.278 HD
ENDBRANCH  19  20
BRANCH  19  24
HETATM   24  O1  UNL     1      27.027 -37.238  11.042  1.00  0.00    -0.356 OA
ATOM     25  H1  UNL     1      26.924 -37.569  11.926  1.00  0.00     0.213 HD
ENDBRANCH  19  24
BRANCH  19  26
HETATM   26  C4  UNL     1      27.414 -35.448  12.291  1.00  0.00     0.324 C 
BRANCH  26  27
HETATM   27  O2  UNL     1      28.491 -36.293  12.533  1.00  0.00    -0.367 OA
ATOM     28  H2  UNL     1      29.341 -36.026  12.201  1.00  0.00     0.212 HD
ENDBRANCH  26  27
BRANCH  26  29
HETATM   29  O3  UNL     1      26.790 -35.046  13.482  1.00  0.00    -0.367 OA
ATOM     30  H3  UNL     1      26.166 -34.345  13.331  1.00  0.00     0.212 HD
ENDBRANCH  26  29
ENDBRANCH  19  26
ENDBRANCH   3  19
BRANCH  17  31
HETATM   31  C11 UNL     1      29.070 -31.943   9.463  1.00  0.00     0.295 C 
BRANCH  31  32
HETATM   32  O6  UNL     1      29.427 -30.631   9.108  1.00  0.00    -0.367 OA
ATOM     33  H6  UNL     1      29.390 -29.933   9.752  1.00  0.00     0.213 HD
ENDBRANCH  31  32
BRANCH  31  34
HETATM   34  O7  UNL     1      30.297 -32.374   9.968  1.00  0.00    -0.367 OA
ATOM     35  H7  UNL     1      30.619 -31.706  10.562  1.00  0.00     0.213 HD
ENDBRANCH  31  34
ENDBRANCH  17  31
BRANCH  16  36
HETATM   36  O5  UNL     1      30.241 -32.167   6.715  1.00  0.00    -0.345 OA
ATOM     37  H5  UNL     1      30.438 -31.937   5.814  1.00  0.00     0.219 HD
ENDBRANCH  16  36
TORSDOF 10
ENDMDL
MODEL 5
REMARK VINA RESULT: -5.089896142      1.329      1.455
REMARK  10 active torsions:
REMARK  status: ('A' for Active; 'I' for Inactive)
REMARK    1  A    between atoms: C2_3  and  C3_4 
REMARK    2  A    between atoms: C3_4  and  N2_5 
REMARK    3  A    between atoms: C3_4  and  O1_9 
REMARK    4  A    between atoms: C3_4  and  C4_11 
REMARK    5  A    between atoms: C4_11  and  O2_12 
REMARK    6  A    between atoms: C4_11  and  O3_14 
REMARK    7  A    between atoms: C9_28  and  O5_29 
REMARK    8  A    between atoms: C10_31  and  C11_32 
REMARK    9  A    between atoms: C11_32  and  O6_33 
REMARK   10  A    between atoms: C11_32  and  O7_35 
ROOT
HETATM    1  C1  UNL     1      27.092 -32.569   6.473  1.00  0.00     0.156 C 
HETATM    2  N1  UNL     1      27.582 -33.745   7.055  1.00  0.00    -0.345 N 
HETATM    3  C2  UNL     1      27.825 -33.655   8.400  1.00  0.00     0.126 C 
HETATM    4  C5  UNL     1      27.532 -34.757   9.231  1.00  0.00     0.160 A 
HETATM    5  N3  UNL     1      27.264 -34.534  10.552  1.00  0.00    -0.334 N 
ATOM      6  H3  UNL     1      27.247 -33.632  11.027  1.00  0.00     0.168 HD
HETATM    7  C6  UNL     1      27.026 -35.737  11.103  1.00  0.00     0.199 A 
HETATM    8  N4  UNL     1      27.148 -36.682  10.125  1.00  0.00    -0.285 N 
ATOM      9  H4  UNL     1      27.022 -37.687  10.248  1.00  0.00     0.188 HD
HETATM   10  N5  UNL     1      27.453 -36.080   9.000  1.00  0.00    -0.199 N 
HETATM   11  C7  UNL     1      27.658 -36.700   7.848  1.00  0.00     0.297 C 
HETATM   12  O4  UNL     1      27.692 -37.967   7.828  1.00  0.00    -0.264 OA
HETATM   13  C8  UNL     1      27.851 -36.139   6.603  1.00  0.00     0.133 A 
HETATM   14  N6  UNL     1      28.148 -36.832   5.497  1.00  0.00    -0.330 N 
ATOM     15  H6  UNL     1      28.283 -37.842   5.458  1.00  0.00     0.168 HD
HETATM   16  C9  UNL     1      28.241 -36.013   4.460  1.00  0.00     0.154 A 
HETATM   17  C10 UNL     1      27.992 -34.664   4.858  1.00  0.00     0.076 A 
HETATM   18  C12 UNL     1      27.761 -34.797   6.200  1.00  0.00     0.083 A 
ENDROOT
BRANCH   3  19
HETATM   19  C3  UNL     1      28.354 -32.448   8.966  1.00  0.00     0.318 C 
BRANCH  19  20
HETATM   20  N2  UNL     1      27.610 -31.792  10.033  1.00  0.00    -0.036 N 
ATOM     21  H23 UNL     1      28.244 -31.182  10.550  1.00  0.00     0.278 HD
ATOM     22  H22 UNL     1      26.973 -31.110   9.620  1.00  0.00     0.278 HD
ATOM     23  H21 UNL     1      27.093 -32.368  10.696  1.00  0.00     0.278 HD
ENDBRANCH  19  20
BRANCH  19  24
HETATM   24  O1  UNL     1      29.270 -33.094   9.973  1.00  0.00    -0.356 OA
ATOM     25  H1  UNL     1      28.751 -32.908  10.746  1.00  0.00     0.213 HD
ENDBRANCH  19  24
BRANCH  19  26
HETATM   26  C4  UNL     1      29.397 -31.622   8.320  1.00  0.00     0.324 C 
BRANCH  26  27
HETATM   27  O2  UNL     1      30.517 -32.279   7.825  1.00  0.00    -0.367 OA
ATOM     28  H2  UNL     1      31.227 -31.743   7.491  1.00  0.00     0.212 HD
ENDBRANCH  26  27
BRANCH  26  29
HETATM   29  O3  UNL     1      29.748 -30.519   9.114  1.00  0.00    -0.367 OA
ATOM     30  H3  UNL     1      30.488 -30.047   8.750  1.00  0.00     0.212 HD
ENDBRANCH  26  29
ENDBRANCH  19  26
ENDBRANCH   3  19
BRANCH  17  31
HETATM   31  C11 UNL     1      28.076 -33.521   4.015  1.00  0.00     0.295 C 
BRANCH  31  32
HETATM   32  O6  UNL     1      27.413 -33.503   2.776  1.00  0.00    -0.367 OA
ATOM     33  H6  UNL     1      27.777 -33.018   2.045  1.00  0.00     0.213 HD
ENDBRANCH  31  32
BRANCH  31  34
HETATM   34  O7  UNL     1      29.391 -33.419   3.561  1.00  0.00    -0.367 OA
ATOM     35  H7  UNL     1      29.699 -34.295   3.359  1.00  0.00     0.213 HD
ENDBRANCH  31  34
ENDBRANCH  17  31
BRANCH  16  36
HETATM   36  O5  UNL     1      28.533 -36.352   3.150  1.00  0.00    -0.345 OA
ATOM     37  H5  UNL     1      27.915 -36.548   2.455  1.00  0.00     0.219 HD
ENDBRANCH  16  36
TORSDOF 10
ENDMDL
