MODEL 1
REMARK VINA RESULT: -7.211016558      0.000      0.000
REMARK  6 active torsions:
REMARK  status: ('A' for Active; 'I' for Inactive)
REMARK    1  A    between atoms: N1_1  and  S1_4 
REMARK    2  A    between atoms: S1_4  and  C1_7 
REMARK    3  A    between atoms: C1_7  and  C2_8 
REMARK    4  A    between atoms: C3_9  and  C4_10 
REMARK    5  A    between atoms: C6_12  and  C7_13 
REMARK    6  A    between atoms: C7_13  and  C8_14 
ROOT
HETATM    1  C4  UNL     1      20.335 -22.438  31.273  1.00  0.00     0.021 A 
HETATM    2  C5  UNL     1      19.327 -21.498  31.119  1.00  0.00     0.030 A 
HETATM    3  C6  UNL     1      18.441 -21.308  32.162  1.00  0.00    -0.020 A 
HETATM    4  C9  UNL     1      18.552 -22.027  33.315  1.00  0.00     0.111 A 
HETATM    5  C10 UNL     1      19.552 -22.971  33.494  1.00  0.00     0.106 A 
HETATM    6  C11 UNL     1      20.433 -23.161  32.457  1.00  0.00     0.060 A 
HETATM    7  O3  UNL     1      19.458 -23.564  34.738  1.00  0.00    -0.323 OA
HETATM    8  C12 UNL     1      18.280 -23.088  35.340  1.00  0.00     0.352 C 
HETATM    9  O4  UNL     1      17.827 -22.046  34.494  1.00  0.00    -0.322 OA
ENDROOT
BRANCH   1  10
HETATM   10  C3  UNL     1      21.263 -22.644  30.191  1.00  0.00    -0.066 C 
HETATM   11  C2  UNL     1      22.041 -22.837  29.271  1.00  0.00    -0.084 C 
BRANCH  11  12
HETATM   12  C1  UNL     1      22.963 -23.094  28.163  1.00  0.00     0.256 C 
BRANCH  12  13
HETATM   13  S1  UNL     1      22.421 -24.606  27.402  1.00  0.00     0.234 S 
HETATM   14  O1  UNL     1      20.971 -24.391  27.019  1.00  0.00    -0.205 OA
HETATM   15  O2  UNL     1      22.460 -25.871  28.506  1.00  0.00    -0.205 OA
BRANCH  13  16
HETATM   16  N1  UNL     1      23.206 -24.934  26.121  1.00  0.00    -0.328 N 
ATOM     17  H12 UNL     1      23.680 -25.817  25.931  1.00  0.00     0.168 HD
ATOM     18  H11 UNL     1      23.165 -24.118  25.510  1.00  0.00     0.168 HD
ENDBRANCH  13  16
ENDBRANCH  12  13
ENDBRANCH  11  12
ENDBRANCH   1  10
BRANCH   3  19
HETATM   19  C7  UNL     1      17.366 -20.318  32.021  1.00  0.00     0.052 C 
BRANCH  19  20
HETATM   20  C8  UNL     1      16.061 -20.917  31.565  1.00  0.00     0.089 C 
HETATM   21 BR1  UNL     1      14.674 -19.571  31.826  1.00  0.00    -0.096 Br
ENDBRANCH  19  20
ENDBRANCH   3  19
TORSDOF 6
ENDMDL
MODEL 2
REMARK VINA RESULT: -6.894984593      2.032      2.127
REMARK  6 active torsions:
REMARK  status: ('A' for Active; 'I' for Inactive)
REMARK    1  A    between atoms: N1_1  and  S1_4 
REMARK    2  A    between atoms: S1_4  and  C1_7 
REMARK    3  A    between atoms: C1_7  and  C2_8 
REMARK    4  A    between atoms: C3_9  and  C4_10 
REMARK    5  A    between atoms: C6_12  and  C7_13 
REMARK    6  A    between atoms: C7_13  and  C8_14 
ROOT
HETATM    1  C4  UNL     1      20.317 -22.087  31.157  1.00  0.00     0.021 A 
HETATM    2  C5  UNL     1      19.243 -21.210  31.116  1.00  0.00     0.030 A 
HETATM    3  C6  UNL     1      18.388 -21.169  32.201  1.00  0.00    -0.020 A 
HETATM    4  C9  UNL     1      18.592 -21.970  33.284  1.00  0.00     0.111 A 
HETATM    5  C10 UNL     1      19.658 -22.855  33.349  1.00  0.00     0.106 A 
HETATM    6  C11 UNL     1      20.509 -22.897  32.271  1.00  0.00     0.060 A 
HETATM    7  O3  UNL     1      19.652 -23.554  34.541  1.00  0.00    -0.323 OA
HETATM    8  C12 UNL     1      18.469 -23.211  35.220  1.00  0.00     0.352 C 
HETATM    9  O4  UNL     1      17.915 -22.137  34.481  1.00  0.00    -0.322 OA
ENDROOT
BRANCH   1  10
HETATM   10  C3  UNL     1      21.214 -22.138  30.031  1.00  0.00    -0.066 C 
HETATM   11  C2  UNL     1      21.967 -22.163  29.071  1.00  0.00    -0.084 C 
BRANCH  11  12
HETATM   12  C1  UNL     1      22.858 -22.169  27.909  1.00  0.00     0.256 C 
BRANCH  12  13
HETATM   13  S1  UNL     1      22.103 -21.115  26.694  1.00  0.00     0.234 S 
HETATM   14  O1  UNL     1      20.703 -21.654  26.477  1.00  0.00    -0.205 OA
HETATM   15  O2  UNL     1      22.911 -21.230  25.226  1.00  0.00    -0.205 OA
BRANCH  13  16
HETATM   16  N1  UNL     1      21.981 -19.659  27.173  1.00  0.00    -0.328 N 
ATOM     17  H12 UNL     1      21.596 -18.889  26.625  1.00  0.00     0.168 HD
ATOM     18  H11 UNL     1      22.351 -19.609  28.122  1.00  0.00     0.168 HD
ENDBRANCH  13  16
ENDBRANCH  12  13
ENDBRANCH  11  12
ENDBRANCH   1  10
BRANCH   3  19
HETATM   19  C7  UNL     1      17.245 -20.247  32.180  1.00  0.00     0.052 C 
BRANCH  19  20
HETATM   20  C8  UNL     1      15.966 -20.896  31.718  1.00  0.00     0.089 C 
HETATM   21 BR1  UNL     1      14.556 -19.552  31.822  1.00  0.00    -0.096 Br
ENDBRANCH  19  20
ENDBRANCH   3  19
TORSDOF 6
ENDMDL
MODEL 3
REMARK VINA RESULT: -6.812922256      1.399      1.609
REMARK  6 active torsions:
REMARK  status: ('A' for Active; 'I' for Inactive)
REMARK    1  A    between atoms: N1_1  and  S1_4 
REMARK    2  A    between atoms: S1_4  and  C1_7 
REMARK    3  A    between atoms: C1_7  and  C2_8 
REMARK    4  A    between atoms: C3_9  and  C4_10 
REMARK    5  A    between atoms: C6_12  and  C7_13 
REMARK    6  A    between atoms: C7_13  and  C8_14 
ROOT
HETATM    1  C4  UNL     1      20.232 -22.106  31.185  1.00  0.00     0.021 A 
HETATM    2  C5  UNL     1      19.163 -21.222  31.149  1.00  0.00     0.030 A 
HETATM    3  C6  UNL     1      18.312 -21.176  32.237  1.00  0.00    -0.020 A 
HETATM    4  C9  UNL     1      18.515 -21.979  33.319  1.00  0.00     0.111 A 
HETATM    5  C10 UNL     1      19.577 -22.870  33.380  1.00  0.00     0.106 A 
HETATM    6  C11 UNL     1      20.423 -22.917  32.298  1.00  0.00     0.060 A 
HETATM    7  O3  UNL     1      19.571 -23.568  34.571  1.00  0.00    -0.323 OA
HETATM    8  C12 UNL     1      18.394 -23.219  35.255  1.00  0.00     0.352 C 
HETATM    9  O4  UNL     1      17.843 -22.142  34.519  1.00  0.00    -0.322 OA
ENDROOT
BRANCH   1  10
HETATM   10  C3  UNL     1      21.124 -22.162  30.056  1.00  0.00    -0.066 C 
HETATM   11  C2  UNL     1      21.870 -22.226  29.092  1.00  0.00    -0.084 C 
BRANCH  11  12
HETATM   12  C1  UNL     1      22.752 -22.327  27.927  1.00  0.00     0.256 C 
BRANCH  12  13
HETATM   13  S1  UNL     1      21.729 -22.052  26.500  1.00  0.00     0.234 S 
HETATM   14  O1  UNL     1      21.190 -20.641  26.630  1.00  0.00    -0.205 OA
HETATM   15  O2  UNL     1      20.408 -23.090  26.511  1.00  0.00    -0.205 OA
BRANCH  13  16
HETATM   16  N1  UNL     1      22.519 -22.139  25.184  1.00  0.00    -0.328 N 
ATOM     17  H12 UNL     1      22.117 -22.333  24.267  1.00  0.00     0.168 HD
ATOM     18  H11 UNL     1      23.503 -21.970  25.397  1.00  0.00     0.168 HD
ENDBRANCH  13  16
ENDBRANCH  12  13
ENDBRANCH  11  12
ENDBRANCH   1  10
BRANCH   3  19
HETATM   19  C7  UNL     1      17.175 -20.248  32.221  1.00  0.00     0.052 C 
BRANCH  19  20
HETATM   20  C8  UNL     1      15.902 -20.874  31.710  1.00  0.00     0.089 C 
HETATM   21 BR1  UNL     1      14.493 -19.533  31.844  1.00  0.00    -0.096 Br
ENDBRANCH  19  20
ENDBRANCH   3  19
TORSDOF 6
ENDMDL
MODEL 4
REMARK VINA RESULT: -6.783708026      4.661      6.057
REMARK  6 active torsions:
REMARK  status: ('A' for Active; 'I' for Inactive)
REMARK    1  A    between atoms: N1_1  and  S1_4 
REMARK    2  A    between atoms: S1_4  and  C1_7 
REMARK    3  A    between atoms: C1_7  and  C2_8 
REMARK    4  A    between atoms: C3_9  and  C4_10 
REMARK    5  A    between atoms: C6_12  and  C7_13 
REMARK    6  A    between atoms: C7_13  and  C8_14 
ROOT
HETATM    1  C4  UNL     1      20.986 -21.400  27.491  1.00  0.00     0.021 A 
HETATM    2  C5  UNL     1      20.979 -21.087  28.842  1.00  0.00     0.030 A 
HETATM    3  C6  UNL     1      20.854 -22.118  29.754  1.00  0.00    -0.020 A 
HETATM    4  C9  UNL     1      20.740 -23.411  29.338  1.00  0.00     0.111 A 
HETATM    5  C10 UNL     1      20.745 -23.749  27.993  1.00  0.00     0.106 A 
HETATM    6  C11 UNL     1      20.868 -22.725  27.085  1.00  0.00     0.060 A 
HETATM    7  O3  UNL     1      20.617 -25.114  27.824  1.00  0.00    -0.323 OA
HETATM    8  C12 UNL     1      20.387 -25.673  29.094  1.00  0.00     0.352 C 
HETATM    9  O4  UNL     1      20.606 -24.614  30.009  1.00  0.00    -0.322 OA
ENDROOT
BRANCH   1  10
HETATM   10  C3  UNL     1      21.115 -20.333  26.532  1.00  0.00    -0.066 C 
HETATM   11  C2  UNL     1      21.214 -19.415  25.733  1.00  0.00    -0.084 C 
BRANCH  11  12
HETATM   12  C1  UNL     1      21.318 -18.298  24.792  1.00  0.00     0.256 C 
BRANCH  12  13
HETATM   13  S1  UNL     1      19.879 -17.288  25.053  1.00  0.00     0.234 S 
HETATM   14  O1  UNL     1      19.625 -16.568  23.744  1.00  0.00    -0.205 OA
HETATM   15  O2  UNL     1      20.184 -16.114  26.214  1.00  0.00    -0.205 OA
BRANCH  13  16
HETATM   16  N1  UNL     1      18.630 -18.120  25.387  1.00  0.00    -0.328 N 
ATOM     17  H12 UNL     1      17.667 -17.797  25.295  1.00  0.00     0.168 HD
ATOM     18  H11 UNL     1      18.940 -19.036  25.713  1.00  0.00     0.168 HD
ENDBRANCH  13  16
ENDBRANCH  12  13
ENDBRANCH  11  12
ENDBRANCH   1  10
BRANCH   3  19
HETATM   19  C7  UNL     1      20.845 -21.810  31.190  1.00  0.00     0.052 C 
BRANCH  19  20
HETATM   20  C8  UNL     1      19.675 -20.957  31.608  1.00  0.00     0.089 C 
HETATM   21 BR1  UNL     1      18.201 -22.157  32.044  1.00  0.00    -0.096 Br
ENDBRANCH  19  20
ENDBRANCH   3  19
TORSDOF 6
ENDMDL
MODEL 5
REMARK VINA RESULT: -6.732410126      3.835      6.816
REMARK  6 active torsions:
REMARK  status: ('A' for Active; 'I' for Inactive)
REMARK    1  A    between atoms: N1_1  and  S1_4 
REMARK    2  A    between atoms: S1_4  and  C1_7 
REMARK    3  A    between atoms: C1_7  and  C2_8 
REMARK    4  A    between atoms: C3_9  and  C4_10 
REMARK    5  A    between atoms: C6_12  and  C7_13 
REMARK    6  A    between atoms: C7_13  and  C8_14 
ROOT
HETATM    1  C4  UNL     1      21.147 -22.934  29.755  1.00  0.00     0.021 A 
HETATM    2  C5  UNL     1      21.210 -21.730  29.070  1.00  0.00     0.030 A 
HETATM    3  C6  UNL     1      21.404 -21.763  27.702  1.00  0.00    -0.020 A 
HETATM    4  C9  UNL     1      21.530 -22.948  27.041  1.00  0.00     0.111 A 
HETATM    5  C10 UNL     1      21.470 -24.165  27.704  1.00  0.00     0.106 A 
HETATM    6  C11 UNL     1      21.278 -24.133  29.064  1.00  0.00     0.060 A 
HETATM    7  O3  UNL     1      21.625 -25.218  26.824  1.00  0.00    -0.323 OA
HETATM    8  C12 UNL     1      21.928 -24.670  25.565  1.00  0.00     0.352 C 
HETATM    9  O4  UNL     1      21.726 -23.275  25.710  1.00  0.00    -0.322 OA
ENDROOT
BRANCH   1  10
HETATM   10  C3  UNL     1      20.946 -22.910  31.182  1.00  0.00    -0.066 C 
HETATM   11  C2  UNL     1      20.788 -22.908  32.392  1.00  0.00    -0.084 C 
BRANCH  11  12
HETATM   12  C1  UNL     1      20.613 -22.929  33.845  1.00  0.00     0.256 C 
BRANCH  12  13
HETATM   13  S1  UNL     1      18.878 -22.679  34.143  1.00  0.00     0.234 S 
HETATM   14  O1  UNL     1      18.729 -21.240  34.595  1.00  0.00    -0.205 OA
HETATM   15  O2  UNL     1      18.349 -23.652  35.406  1.00  0.00    -0.205 OA
BRANCH  13  16
HETATM   16  N1  UNL     1      18.031 -22.868  32.875  1.00  0.00    -0.328 N 
ATOM     17  H12 UNL     1      17.755 -23.767  32.479  1.00  0.00     0.168 HD
ATOM     18  H11 UNL     1      17.801 -21.943  32.510  1.00  0.00     0.168 HD
ENDBRANCH  13  16
ENDBRANCH  12  13
ENDBRANCH  11  12
ENDBRANCH   1  10
BRANCH   3  19
HETATM   19  C7  UNL     1      21.473 -20.500  26.955  1.00  0.00     0.052 C 
BRANCH  19  20
HETATM   20  C8  UNL     1      20.544 -19.441  27.491  1.00  0.00     0.089 C 
HETATM   21 BR1  UNL     1      19.288 -18.989  26.069  1.00  0.00    -0.096 Br
ENDBRANCH  19  20
ENDBRANCH   3  19
TORSDOF 6
ENDMDL
