MODEL 1
REMARK VINA RESULT: -7.220928357      0.000      0.000
REMARK  4 active torsions:
REMARK  status: ('A' for Active; 'I' for Inactive)
REMARK    1  A    between atoms: C4_4  and  N1_5 
REMARK    2  A    between atoms: N1_5  and  C5_7 
REMARK    3  A    between atoms: C8_15  and  C9_16 
REMARK       I    between atoms: C9_16  and  N4_18 
REMARK    4  A    between atoms: N4_18  and  C10_20 
ROOT
HETATM    1  C10 UNL     1      20.986 -23.655  28.737  1.00  0.00     0.115 C 
HETATM    2  C11 UNL     1      20.917 -23.358  30.235  1.00  0.00     0.055 C 
HETATM    3  C12 UNL     1      19.727 -24.386  28.358  1.00  0.00     0.055 C 
HETATM    4  C13 UNL     1      22.116 -24.563  28.556  1.00  0.00     0.090 C 
HETATM    5  N5  UNL     1      23.004 -25.295  28.420  1.00  0.00    -0.195 NA
ENDROOT
BRANCH   1   6
HETATM    6  N4  UNL     1      21.189 -22.455  27.973  1.00  0.00    -0.334 N 
HETATM    7  C9  UNL     1      20.909 -22.366  26.577  1.00  0.00     0.273 C 
HETATM    8  O1  UNL     1      20.464 -23.341  25.922  1.00  0.00    -0.266 OA
ATOM      9  H4  UNL     1      21.550 -21.629  28.450  1.00  0.00     0.164 HD
BRANCH   7  10
HETATM   10  C8  UNL     1      21.135 -21.125  25.860  1.00  0.00     0.146 A 
HETATM   11  C5  UNL     1      21.977 -21.060  24.731  1.00  0.00     0.134 A 
HETATM   12  N2  UNL     1      22.155 -19.878  24.095  1.00  0.00    -0.347 N 
HETATM   13  C6  UNL     1      21.532 -18.772  24.541  1.00  0.00     0.132 A 
ATOM     14  H2  UNL     1      22.762 -19.825  23.278  1.00  0.00     0.167 HD
HETATM   15  C7  UNL     1      20.707 -18.816  25.642  1.00  0.00     0.119 A 
HETATM   16 CL1  UNL     1      19.901 -17.374  26.214  1.00  0.00    -0.063 Cl
HETATM   17  N3  UNL     1      20.537 -20.013  26.270  1.00  0.00    -0.338 N 
ATOM     18  H3  UNL     1      19.927 -20.056  27.087  1.00  0.00     0.167 HD
BRANCH  11  19
HETATM   19  N1  UNL     1      22.521 -22.091  24.362  1.00  0.00    -0.367 N 
ATOM     20  H1  UNL     1      21.759 -22.713  24.095  1.00  0.00     0.161 HD
BRANCH  19  21
HETATM   21  C4  UNL     1      23.658 -22.806  24.139  1.00  0.00     0.114 C 
HETATM   22  C3  UNL     1      23.905 -23.789  25.316  1.00  0.00     0.059 C 
HETATM   23  C2  UNL     1      25.406 -23.909  25.275  1.00  0.00     0.120 C 
HETATM   24  C1  UNL     1      25.874 -25.344  25.255  1.00  0.00     0.039 C 
HETATM   25  O2  UNL     1      25.836 -23.283  24.107  1.00  0.00    -0.379 OA
HETATM   26  C14 UNL     1      25.001 -22.121  24.126  1.00  0.00     0.140 C 
HETATM   27  C15 UNL     1      25.315 -21.399  22.854  1.00  0.00     0.041 C 
ENDBRANCH  19  21
ENDBRANCH  11  19
ENDBRANCH   7  10
ENDBRANCH   1   6
TORSDOF 4
ENDMDL
MODEL 2
REMARK VINA RESULT: -7.193667719      1.805      4.784
REMARK  4 active torsions:
REMARK  status: ('A' for Active; 'I' for Inactive)
REMARK    1  A    between atoms: C4_4  and  N1_5 
REMARK    2  A    between atoms: N1_5  and  C5_7 
REMARK    3  A    between atoms: C8_15  and  C9_16 
REMARK       I    between atoms: C9_16  and  N4_18 
REMARK    4  A    between atoms: N4_18  and  C10_20 
ROOT
HETATM    1  C10 UNL     1      24.761 -23.309  24.100  1.00  0.00     0.115 C 
HETATM    2  C11 UNL     1      26.212 -23.159  24.557  1.00  0.00     0.055 C 
HETATM    3  C12 UNL     1      24.265 -24.642  24.592  1.00  0.00     0.055 C 
HETATM    4  C13 UNL     1      24.797 -23.343  22.641  1.00  0.00     0.090 C 
HETATM    5  N5  UNL     1      24.833 -23.383  21.483  1.00  0.00    -0.195 NA
ENDROOT
BRANCH   1   6
HETATM    6  N4  UNL     1      23.952 -22.210  24.550  1.00  0.00    -0.334 N 
HETATM    7  C9  UNL     1      22.534 -22.177  24.402  1.00  0.00     0.273 C 
HETATM    8  O1  UNL     1      21.897 -23.117  23.863  1.00  0.00    -0.266 OA
ATOM      9  H4  UNL     1      24.413 -21.417  24.995  1.00  0.00     0.164 HD
BRANCH   7  10
HETATM   10  C8  UNL     1      21.771 -21.038  24.877  1.00  0.00     0.146 A 
HETATM   11  C5  UNL     1      20.838 -21.153  25.928  1.00  0.00     0.134 A 
HETATM   12  N2  UNL     1      20.151 -20.060  26.336  1.00  0.00    -0.347 N 
HETATM   13  C6  UNL     1      20.359 -18.871  25.740  1.00  0.00     0.132 A 
ATOM     14  H2  UNL     1      19.475 -20.137  27.096  1.00  0.00     0.167 HD
HETATM   15  C7  UNL     1      21.265 -18.740  24.713  1.00  0.00     0.119 A 
HETATM   16 CL1  UNL     1      21.529 -17.192  23.945  1.00  0.00    -0.063 Cl
HETATM   17  N3  UNL     1      21.949 -19.849  24.314  1.00  0.00    -0.338 N 
ATOM     18  H3  UNL     1      22.623 -19.763  23.554  1.00  0.00     0.167 HD
BRANCH  11  19
HETATM   19  N1  UNL     1      20.683 -22.253  26.439  1.00  0.00    -0.367 N 
ATOM     20  H1  UNL     1      19.762 -22.562  26.130  1.00  0.00     0.161 HD
BRANCH  19  21
HETATM   21  C4  UNL     1      21.152 -23.262  27.224  1.00  0.00     0.114 C 
HETATM   22  C3  UNL     1      19.969 -23.959  27.951  1.00  0.00     0.059 C 
HETATM   23  C2  UNL     1      20.656 -24.457  29.196  1.00  0.00     0.120 C 
HETATM   24  C1  UNL     1      20.406 -25.924  29.450  1.00  0.00     0.039 C 
HETATM   25  O2  UNL     1      22.023 -24.263  29.016  1.00  0.00    -0.379 OA
HETATM   26  C14 UNL     1      22.013 -22.960  28.423  1.00  0.00     0.140 C 
HETATM   27  C15 UNL     1      23.445 -22.672  28.099  1.00  0.00     0.041 C 
ENDBRANCH  19  21
ENDBRANCH  11  19
ENDBRANCH   7  10
ENDBRANCH   1   6
TORSDOF 4
ENDMDL
MODEL 3
REMARK VINA RESULT: -7.180280716      1.786      5.117
REMARK  4 active torsions:
REMARK  status: ('A' for Active; 'I' for Inactive)
REMARK    1  A    between atoms: C4_4  and  N1_5 
REMARK    2  A    between atoms: N1_5  and  C5_7 
REMARK    3  A    between atoms: C8_15  and  C9_16 
REMARK       I    between atoms: C9_16  and  N4_18 
REMARK    4  A    between atoms: N4_18  and  C10_20 
ROOT
HETATM    1  C10 UNL     1      24.597 -23.220  24.156  1.00  0.00     0.115 C 
HETATM    2  C11 UNL     1      26.045 -23.221  24.646  1.00  0.00     0.055 C 
HETATM    3  C12 UNL     1      23.962 -24.506  24.612  1.00  0.00     0.055 C 
HETATM    4  C13 UNL     1      24.662 -23.233  22.697  1.00  0.00     0.090 C 
HETATM    5  N5  UNL     1      24.721 -23.258  21.540  1.00  0.00    -0.195 NA
ENDROOT
BRANCH   1   6
HETATM    6  N4  UNL     1      23.889 -22.054  24.609  1.00  0.00    -0.334 N 
HETATM    7  C9  UNL     1      22.466 -21.970  24.633  1.00  0.00     0.273 C 
HETATM    8  O1  UNL     1      21.734 -22.919  24.256  1.00  0.00    -0.266 OA
ATOM      9  H4  UNL     1      24.430 -21.250  24.928  1.00  0.00     0.164 HD
BRANCH   7  10
HETATM   10  C8  UNL     1      21.809 -20.764  25.103  1.00  0.00     0.146 A 
HETATM   11  C5  UNL     1      21.309 -20.652  26.416  1.00  0.00     0.134 A 
HETATM   12  N2  UNL     1      20.704 -19.506  26.807  1.00  0.00    -0.347 N 
HETATM   13  C6  UNL     1      20.582 -18.480  25.945  1.00  0.00     0.132 A 
ATOM     14  H2  UNL     1      20.340 -19.419  27.756  1.00  0.00     0.167 HD
HETATM   15  C7  UNL     1      21.064 -18.571  24.659  1.00  0.00     0.119 A 
HETATM   16 CL1  UNL     1      20.900 -17.233  23.545  1.00  0.00    -0.063 Cl
HETATM   17  N3  UNL     1      21.670 -19.732  24.281  1.00  0.00    -0.338 N 
ATOM     18  H3  UNL     1      22.031 -19.809  23.330  1.00  0.00     0.167 HD
BRANCH  11  19
HETATM   19  N1  UNL     1      21.443 -21.610  27.164  1.00  0.00    -0.367 N 
ATOM     20  H1  UNL     1      22.383 -21.961  26.980  1.00  0.00     0.161 HD
BRANCH  19  21
HETATM   21  C4  UNL     1      20.939 -22.433  28.124  1.00  0.00     0.114 C 
HETATM   22  C3  UNL     1      21.167 -21.810  29.529  1.00  0.00     0.059 C 
HETATM   23  C2  UNL     1      21.241 -23.049  30.381  1.00  0.00     0.120 C 
HETATM   24  C1  UNL     1      20.319 -22.990  31.575  1.00  0.00     0.039 C 
HETATM   25  O2  UNL     1      20.863 -24.123  29.578  1.00  0.00    -0.379 OA
HETATM   26  C14 UNL     1      21.556 -23.786  28.372  1.00  0.00     0.140 C 
HETATM   27  C15 UNL     1      21.151 -24.839  27.388  1.00  0.00     0.041 C 
ENDBRANCH  19  21
ENDBRANCH  11  19
ENDBRANCH   7  10
ENDBRANCH   1   6
TORSDOF 4
ENDMDL
MODEL 4
REMARK VINA RESULT: -7.130690576      2.874      6.102
REMARK  4 active torsions:
REMARK  status: ('A' for Active; 'I' for Inactive)
REMARK    1  A    between atoms: C4_4  and  N1_5 
REMARK    2  A    between atoms: N1_5  and  C5_7 
REMARK    3  A    between atoms: C8_15  and  C9_16 
REMARK       I    between atoms: C9_16  and  N4_18 
REMARK    4  A    between atoms: N4_18  and  C10_20 
ROOT
HETATM    1  C10 UNL     1      22.354 -24.345  26.784  1.00  0.00     0.115 C 
HETATM    2  C11 UNL     1      22.095 -25.127  25.496  1.00  0.00     0.055 C 
HETATM    3  C12 UNL     1      23.844 -24.209  26.941  1.00  0.00     0.055 C 
HETATM    4  C13 UNL     1      21.853 -25.181  27.872  1.00  0.00     0.090 C 
HETATM    5  N5  UNL     1      21.466 -25.854  28.732  1.00  0.00    -0.195 NA
ENDROOT
BRANCH   1   6
HETATM    6  N4  UNL     1      21.673 -23.080  26.778  1.00  0.00    -0.334 N 
HETATM    7  C9  UNL     1      21.893 -22.075  27.765  1.00  0.00     0.273 C 
HETATM    8  O1  UNL     1      22.703 -22.234  28.712  1.00  0.00    -0.266 OA
ATOM      9  H4  UNL     1      21.002 -22.893  26.033  1.00  0.00     0.164 HD
BRANCH   7  10
HETATM   10  C8  UNL     1      21.174 -20.816  27.704  1.00  0.00     0.146 A 
HETATM   11  C5  UNL     1      20.466 -20.308  28.813  1.00  0.00     0.134 A 
HETATM   12  N2  UNL     1      19.811 -19.128  28.707  1.00  0.00    -0.347 N 
HETATM   13  C6  UNL     1      19.835 -18.445  27.547  1.00  0.00     0.132 A 
ATOM     14  H2  UNL     1      19.298 -18.756  29.506  1.00  0.00     0.167 HD
HETATM   15  C7  UNL     1      20.520 -18.926  26.454  1.00  0.00     0.119 A 
HETATM   16 CL1  UNL     1      20.546 -18.032  24.952  1.00  0.00    -0.063 Cl
HETATM   17  N3  UNL     1      21.175 -20.114  26.577  1.00  0.00    -0.338 N 
ATOM     18  H3  UNL     1      21.685 -20.478  25.773  1.00  0.00     0.167 HD
BRANCH  11  19
HETATM   19  N1  UNL     1      20.473 -20.963  29.846  1.00  0.00    -0.367 N 
ATOM     20  H1  UNL     1      20.953 -21.830  29.607  1.00  0.00     0.161 HD
BRANCH  19  21
HETATM   21  C4  UNL     1      20.146 -21.089  31.161  1.00  0.00     0.114 C 
HETATM   22  C3  UNL     1      20.732 -22.412  31.727  1.00  0.00     0.059 C 
HETATM   23  C2  UNL     1      19.742 -22.716  32.821  1.00  0.00     0.120 C 
HETATM   24  C1  UNL     1      20.408 -22.989  34.149  1.00  0.00     0.039 C 
HETATM   25  O2  UNL     1      18.923 -21.597  32.955  1.00  0.00    -0.379 OA
HETATM   26  C14 UNL     1      18.710 -21.279  31.577  1.00  0.00     0.140 C 
HETATM   27  C15 UNL     1      17.900 -20.020  31.591  1.00  0.00     0.041 C 
ENDBRANCH  19  21
ENDBRANCH  11  19
ENDBRANCH   7  10
ENDBRANCH   1   6
TORSDOF 4
ENDMDL
MODEL 5
REMARK VINA RESULT: -7.108383128      0.717      1.242
REMARK  4 active torsions:
REMARK  status: ('A' for Active; 'I' for Inactive)
REMARK    1  A    between atoms: C4_4  and  N1_5 
REMARK    2  A    between atoms: N1_5  and  C5_7 
REMARK    3  A    between atoms: C8_15  and  C9_16 
REMARK       I    between atoms: C9_16  and  N4_18 
REMARK    4  A    between atoms: N4_18  and  C10_20 
ROOT
HETATM    1  C10 UNL     1      21.056 -23.579  28.798  1.00  0.00     0.115 C 
HETATM    2  C11 UNL     1      19.734 -24.267  28.456  1.00  0.00     0.055 C 
HETATM    3  C12 UNL     1      22.155 -24.589  28.613  1.00  0.00     0.055 C 
HETATM    4  C13 UNL     1      20.981 -23.238  30.216  1.00  0.00     0.090 C 
HETATM    5  N5  UNL     1      20.920 -22.983  31.345  1.00  0.00    -0.195 NA
ENDROOT
BRANCH   1   6
HETATM    6  N4  UNL     1      21.249 -22.391  28.013  1.00  0.00    -0.334 N 
HETATM    7  C9  UNL     1      20.921 -22.314  26.627  1.00  0.00     0.273 C 
HETATM    8  O1  UNL     1      20.439 -23.290  25.999  1.00  0.00    -0.266 OA
ATOM      9  H4  UNL     1      21.638 -21.565  28.468  1.00  0.00     0.164 HD
BRANCH   7  10
HETATM   10  C8  UNL     1      21.138 -21.085  25.888  1.00  0.00     0.146 A 
HETATM   11  C5  UNL     1      21.968 -21.038  24.748  1.00  0.00     0.134 A 
HETATM   12  N2  UNL     1      22.140 -19.866  24.092  1.00  0.00    -0.347 N 
HETATM   13  C6  UNL     1      21.521 -18.753  24.527  1.00  0.00     0.132 A 
ATOM     14  H2  UNL     1      22.738 -19.827  23.267  1.00  0.00     0.167 HD
HETATM   15  C7  UNL     1      20.708 -18.780  25.637  1.00  0.00     0.119 A 
HETATM   16 CL1  UNL     1      19.907 -17.328  26.194  1.00  0.00    -0.063 Cl
HETATM   17  N3  UNL     1      20.545 -19.967  26.286  1.00  0.00    -0.338 N 
ATOM     18  H3  UNL     1      19.944 -19.997  27.110  1.00  0.00     0.167 HD
BRANCH  11  19
HETATM   19  N1  UNL     1      22.509 -22.075  24.391  1.00  0.00    -0.367 N 
ATOM     20  H1  UNL     1      21.745 -22.698  24.134  1.00  0.00     0.161 HD
BRANCH  19  21
HETATM   21  C4  UNL     1      23.644 -22.795  24.172  1.00  0.00     0.114 C 
HETATM   22  C3  UNL     1      23.887 -23.771  25.356  1.00  0.00     0.059 C 
HETATM   23  C2  UNL     1      25.387 -23.897  25.317  1.00  0.00     0.120 C 
HETATM   24  C1  UNL     1      25.850 -25.334  25.306  1.00  0.00     0.039 C 
HETATM   25  O2  UNL     1      25.820 -23.280  24.145  1.00  0.00    -0.379 OA
HETATM   26  C14 UNL     1      24.989 -22.115  24.156  1.00  0.00     0.140 C 
HETATM   27  C15 UNL     1      25.305 -21.403  22.878  1.00  0.00     0.041 C 
ENDBRANCH  19  21
ENDBRANCH  11  19
ENDBRANCH   7  10
ENDBRANCH   1   6
TORSDOF 4
ENDMDL
