MODEL 1
REMARK VINA RESULT: -7.770513172      0.000      0.000
REMARK  4 active torsions:
REMARK  status: ('A' for Active; 'I' for Inactive)
REMARK    1  A    between atoms: C3_3  and  C4_4 
REMARK       I    between atoms: C4_4  and  N1_6 
REMARK    2  A    between atoms: N1_6  and  N2_8 
REMARK       I    between atoms: N2_8  and  C5_10 
REMARK    3  A    between atoms: C5_10  and  C6_12 
REMARK    4  A    between atoms: C6_12  and  C9_15 
ROOT
HETATM    1  C1  UNL     1      23.747 -20.511  27.801  1.00  0.00     0.071 C 
HETATM    2  C2  UNL     1      22.691 -21.428  27.298  1.00  0.00     0.041 A 
HETATM    3  C3  UNL     1      21.529 -21.824  27.890  1.00  0.00     0.126 A 
HETATM    4  N3  UNL     1      20.933 -22.666  27.007  1.00  0.00    -0.338 N 
ATOM      5  H3  UNL     1      20.040 -23.137  27.151  1.00  0.00     0.167 HD
HETATM    6  C10 UNL     1      21.707 -22.779  25.913  1.00  0.00     0.108 A 
HETATM    7  N4  UNL     1      22.794 -22.019  26.080  1.00  0.00    -0.334 N 
HETATM    8  C11 UNL     1      23.807 -21.949  25.047  1.00  0.00     0.167 C 
HETATM    9  C12 UNL     1      23.682 -23.175  24.182  1.00  0.00     0.070 C 
HETATM   10  C13 UNL     1      24.223 -24.379  24.893  1.00  0.00     0.047 C 
HETATM   11  C14 UNL     1      24.568 -22.977  22.943  1.00  0.00     0.047 C 
HETATM   12  O3  UNL     1      22.399 -23.334  23.705  1.00  0.00    -0.372 OA
HETATM   13  C15 UNL     1      21.469 -23.590  24.675  1.00  0.00     0.245 C 
ENDROOT
BRANCH   3  14
HETATM   14  C4  UNL     1      21.012 -21.442  29.199  1.00  0.00     0.288 C 
HETATM   15  O1  UNL     1      20.602 -20.289  29.427  1.00  0.00    -0.264 OA
HETATM   16  N1  UNL     1      20.969 -22.396  30.250  1.00  0.00    -0.262 N 
ATOM     17  H1  UNL     1      21.306 -23.340  30.060  1.00  0.00     0.190 HD
BRANCH  16  18
HETATM   18  N2  UNL     1      20.487 -22.109  31.536  1.00  0.00    -0.267 N 
HETATM   19  C5  UNL     1      19.174 -22.426  31.935  1.00  0.00     0.245 C 
HETATM   20  O2  UNL     1      18.340 -22.987  31.164  1.00  0.00    -0.271 OA
ATOM     21  H2  UNL     1      21.109 -21.654  32.205  1.00  0.00     0.190 HD
BRANCH  19  22
HETATM   22  C6  UNL     1      18.694 -22.113  33.302  1.00  0.00     0.048 C 
HETATM   23  C7  UNL     1      18.189 -20.662  33.286  1.00  0.00     0.026 C 
HETATM   24  C8  UNL     1      19.769 -22.211  34.331  1.00  0.00     0.026 C 
BRANCH  22  25
HETATM   25  C9  UNL     1      17.534 -22.964  33.742  1.00  0.00     0.133 C 
HETATM   26 CL1  UNL     1      17.941 -23.579  35.377  1.00  0.00    -0.129 Cl
ENDBRANCH  22  25
ENDBRANCH  19  22
ENDBRANCH  16  18
ENDBRANCH   3  14
TORSDOF 4
ENDMDL
MODEL 2
REMARK VINA RESULT: -7.643573442      0.933      1.301
REMARK  4 active torsions:
REMARK  status: ('A' for Active; 'I' for Inactive)
REMARK    1  A    between atoms: C3_3  and  C4_4 
REMARK       I    between atoms: C4_4  and  N1_6 
REMARK    2  A    between atoms: N1_6  and  N2_8 
REMARK       I    between atoms: N2_8  and  C5_10 
REMARK    3  A    between atoms: C5_10  and  C6_12 
REMARK    4  A    between atoms: C6_12  and  C9_15 
ROOT
HETATM    1  C1  UNL     1      23.666 -20.509  27.830  1.00  0.00     0.071 C 
HETATM    2  C2  UNL     1      22.618 -21.444  27.344  1.00  0.00     0.041 A 
HETATM    3  C3  UNL     1      21.471 -21.858  27.955  1.00  0.00     0.126 A 
HETATM    4  N3  UNL     1      20.875 -22.711  27.082  1.00  0.00    -0.338 N 
ATOM      5  H3  UNL     1      19.992 -23.196  27.240  1.00  0.00     0.167 HD
HETATM    6  C10 UNL     1      21.635 -22.814  25.977  1.00  0.00     0.108 A 
HETATM    7  N4  UNL     1      22.713 -22.037  26.127  1.00  0.00    -0.334 N 
HETATM    8  C11 UNL     1      23.709 -21.954  25.078  1.00  0.00     0.167 C 
HETATM    9  C12 UNL     1      23.591 -23.184  24.218  1.00  0.00     0.070 C 
HETATM   10  C13 UNL     1      24.162 -24.378  24.924  1.00  0.00     0.047 C 
HETATM   11  C14 UNL     1      24.455 -22.976  22.967  1.00  0.00     0.047 C 
HETATM   12  O3  UNL     1      22.304 -23.365  23.761  1.00  0.00    -0.372 OA
HETATM   13  C15 UNL     1      21.393 -23.633  24.745  1.00  0.00     0.245 C 
ENDROOT
BRANCH   3  14
HETATM   14  C4  UNL     1      20.967 -21.480  29.270  1.00  0.00     0.288 C 
HETATM   15  O1  UNL     1      20.574 -20.324  29.510  1.00  0.00    -0.264 OA
HETATM   16  N1  UNL     1      20.919 -22.442  30.313  1.00  0.00    -0.262 N 
ATOM     17  H1  UNL     1      21.243 -23.389  30.113  1.00  0.00     0.190 HD
BRANCH  16  18
HETATM   18  N2  UNL     1      20.449 -22.160  31.605  1.00  0.00    -0.267 N 
HETATM   19  C5  UNL     1      19.152 -22.512  32.027  1.00  0.00     0.245 C 
HETATM   20  O2  UNL     1      18.322 -23.103  31.272  1.00  0.00    -0.271 OA
ATOM     21  H2  UNL     1      21.068 -21.683  32.261  1.00  0.00     0.190 HD
BRANCH  19  22
HETATM   22  C6  UNL     1      18.684 -22.204  33.399  1.00  0.00     0.048 C 
HETATM   23  C7  UNL     1      19.830 -22.554  34.359  1.00  0.00     0.026 C 
HETATM   24  C8  UNL     1      17.493 -23.006  33.799  1.00  0.00     0.026 C 
BRANCH  22  25
HETATM   25  C9  UNL     1      18.374 -20.748  33.616  1.00  0.00     0.133 C 
HETATM   26 CL1  UNL     1      17.021 -20.342  32.510  1.00  0.00    -0.129 Cl
ENDBRANCH  22  25
ENDBRANCH  19  22
ENDBRANCH  16  18
ENDBRANCH   3  14
TORSDOF 4
ENDMDL
MODEL 3
REMARK VINA RESULT: -7.615849327      1.653      2.032
REMARK  4 active torsions:
REMARK  status: ('A' for Active; 'I' for Inactive)
REMARK    1  A    between atoms: C3_3  and  C4_4 
REMARK       I    between atoms: C4_4  and  N1_6 
REMARK    2  A    between atoms: N1_6  and  N2_8 
REMARK       I    between atoms: N2_8  and  C5_10 
REMARK    3  A    between atoms: C5_10  and  C6_12 
REMARK    4  A    between atoms: C6_12  and  C9_15 
ROOT
HETATM    1  C1  UNL     1      23.298 -25.043  28.357  1.00  0.00     0.071 C 
HETATM    2  C2  UNL     1      22.839 -23.688  27.953  1.00  0.00     0.041 A 
HETATM    3  C3  UNL     1      21.864 -22.903  28.493  1.00  0.00     0.126 A 
HETATM    4  N3  UNL     1      21.849 -21.768  27.749  1.00  0.00    -0.338 N 
ATOM      5  H3  UNL     1      21.227 -20.973  27.896  1.00  0.00     0.167 HD
HETATM    6  C10 UNL     1      22.785 -21.858  26.787  1.00  0.00     0.108 A 
HETATM    7  N4  UNL     1      23.402 -23.038  26.903  1.00  0.00    -0.334 N 
HETATM    8  C11 UNL     1      24.466 -23.403  25.989  1.00  0.00     0.167 C 
HETATM    9  C12 UNL     1      24.317 -22.577  24.740  1.00  0.00     0.070 C 
HETATM   10  C13 UNL     1      23.175 -23.082  23.908  1.00  0.00     0.047 C 
HETATM   11  C14 UNL     1      25.580 -22.767  23.888  1.00  0.00     0.047 C 
HETATM   12  O3  UNL     1      24.252 -21.230  25.022  1.00  0.00    -0.372 OA
HETATM   13  C15 UNL     1      23.142 -20.858  25.728  1.00  0.00     0.245 C 
ENDROOT
BRANCH   3  14
HETATM   14  C4  UNL     1      21.000 -23.199  29.630  1.00  0.00     0.288 C 
HETATM   15  O1  UNL     1      20.052 -24.000  29.538  1.00  0.00    -0.264 OA
HETATM   16  N1  UNL     1      21.231 -22.564  30.880  1.00  0.00    -0.262 N 
ATOM     17  H1  UNL     1      22.009 -21.908  30.951  1.00  0.00     0.190 HD
BRANCH  16  18
HETATM   18  N2  UNL     1      20.447 -22.793  32.021  1.00  0.00    -0.267 N 
HETATM   19  C5  UNL     1      19.449 -21.891  32.440  1.00  0.00     0.245 C 
HETATM   20  O2  UNL     1      19.194 -20.815  31.820  1.00  0.00    -0.271 OA
ATOM     21  H2  UNL     1      20.605 -23.641  32.565  1.00  0.00     0.190 HD
BRANCH  19  22
HETATM   22  C6  UNL     1      18.634 -22.160  33.647  1.00  0.00     0.048 C 
HETATM   23  C7  UNL     1      18.225 -20.800  34.233  1.00  0.00     0.026 C 
HETATM   24  C8  UNL     1      19.384 -22.903  34.700  1.00  0.00     0.026 C 
BRANCH  22  25
HETATM   25  C9  UNL     1      17.358 -22.901  33.359  1.00  0.00     0.133 C 
HETATM   26 CL1  UNL     1      16.848 -23.665  34.900  1.00  0.00    -0.129 Cl
ENDBRANCH  22  25
ENDBRANCH  19  22
ENDBRANCH  16  18
ENDBRANCH   3  14
TORSDOF 4
ENDMDL
MODEL 4
REMARK VINA RESULT: -7.598284475      1.926      2.406
REMARK  4 active torsions:
REMARK  status: ('A' for Active; 'I' for Inactive)
REMARK    1  A    between atoms: C3_3  and  C4_4 
REMARK       I    between atoms: C4_4  and  N1_6 
REMARK    2  A    between atoms: N1_6  and  N2_8 
REMARK       I    between atoms: N2_8  and  C5_10 
REMARK    3  A    between atoms: C5_10  and  C6_12 
REMARK    4  A    between atoms: C6_12  and  C9_15 
ROOT
HETATM    1  C1  UNL     1      22.092 -25.524  28.632  1.00  0.00     0.071 C 
HETATM    2  C2  UNL     1      22.367 -24.088  28.362  1.00  0.00     0.041 A 
HETATM    3  C3  UNL     1      21.964 -22.981  29.049  1.00  0.00     0.126 A 
HETATM    4  N3  UNL     1      22.486 -21.921  28.381  1.00  0.00    -0.338 N 
ATOM      5  H3  UNL     1      22.368 -20.942  28.641  1.00  0.00     0.167 HD
HETATM    6  C10 UNL     1      23.183 -22.367  27.321  1.00  0.00     0.108 A 
HETATM    7  N4  UNL     1      23.117 -23.702  27.299  1.00  0.00    -0.334 N 
HETATM    8  C11 UNL     1      23.787 -24.454  26.256  1.00  0.00     0.167 C 
HETATM    9  C12 UNL     1      24.004 -23.538  25.081  1.00  0.00     0.070 C 
HETATM   10  C13 UNL     1      22.716 -23.307  24.348  1.00  0.00     0.047 C 
HETATM   11  C14 UNL     1      24.938 -24.246  24.090  1.00  0.00     0.047 C 
HETATM   12  O3  UNL     1      24.654 -22.380  25.450  1.00  0.00    -0.372 OA
HETATM   13  C15 UNL     1      23.935 -21.577  26.292  1.00  0.00     0.245 C 
ENDROOT
BRANCH   3  14
HETATM   14  C4  UNL     1      21.142 -22.921  30.252  1.00  0.00     0.288 C 
HETATM   15  O1  UNL     1      21.650 -22.911  31.389  1.00  0.00    -0.264 OA
HETATM   16  N1  UNL     1      19.727 -22.873  30.142  1.00  0.00    -0.262 N 
ATOM     17  H1  UNL     1      19.315 -22.881  29.209  1.00  0.00     0.190 HD
BRANCH  16  18
HETATM   18  N2  UNL     1      18.866 -22.814  31.249  1.00  0.00    -0.267 N 
HETATM   19  C5  UNL     1      18.533 -21.598  31.878  1.00  0.00     0.245 C 
HETATM   20  O2  UNL     1      18.986 -20.480  31.491  1.00  0.00    -0.271 OA
ATOM     21  H2  UNL     1      18.469 -23.681  31.611  1.00  0.00     0.190 HD
BRANCH  19  22
HETATM   22  C6  UNL     1      17.618 -21.566  33.043  1.00  0.00     0.048 C 
HETATM   23  C7  UNL     1      16.213 -21.246  32.510  1.00  0.00     0.026 C 
HETATM   24  C8  UNL     1      17.980 -20.514  34.036  1.00  0.00     0.026 C 
BRANCH  22  25
HETATM   25  C9  UNL     1      17.512 -22.884  33.761  1.00  0.00     0.133 C 
HETATM   26 CL1  UNL     1      19.008 -23.058  34.736  1.00  0.00    -0.129 Cl
ENDBRANCH  22  25
ENDBRANCH  19  22
ENDBRANCH  16  18
ENDBRANCH   3  14
TORSDOF 4
ENDMDL
MODEL 5
REMARK VINA RESULT: -7.573408810      5.629      7.546
REMARK  4 active torsions:
REMARK  status: ('A' for Active; 'I' for Inactive)
REMARK    1  A    between atoms: C3_3  and  C4_4 
REMARK       I    between atoms: C4_4  and  N1_6 
REMARK    2  A    between atoms: N1_6  and  N2_8 
REMARK       I    between atoms: N2_8  and  C5_10 
REMARK    3  A    between atoms: C5_10  and  C6_12 
REMARK    4  A    between atoms: C6_12  and  C9_15 
ROOT
HETATM    1  C1  UNL     1      20.088 -21.877  24.755  1.00  0.00     0.071 C 
HETATM    2  C2  UNL     1      20.477 -21.332  26.082  1.00  0.00     0.041 A 
HETATM    3  C3  UNL     1      20.612 -20.036  26.484  1.00  0.00     0.126 A 
HETATM    4  N3  UNL     1      20.987 -20.090  27.788  1.00  0.00    -0.338 N 
ATOM      5  H3  UNL     1      21.171 -19.284  28.384  1.00  0.00     0.167 HD
HETATM    6  C10 UNL     1      21.077 -21.377  28.167  1.00  0.00     0.108 A 
HETATM    7  N4  UNL     1      20.765 -22.153  27.124  1.00  0.00    -0.334 N 
HETATM    8  C11 UNL     1      20.778 -23.596  27.251  1.00  0.00     0.167 C 
HETATM    9  C12 UNL     1      21.659 -23.958  28.417  1.00  0.00     0.070 C 
HETATM   10  C13 UNL     1      23.105 -23.789  28.056  1.00  0.00     0.047 C 
HETATM   11  C14 UNL     1      21.466 -25.450  28.716  1.00  0.00     0.047 C 
HETATM   12  O3  UNL     1      21.286 -23.292  29.565  1.00  0.00    -0.372 OA
HETATM   13  C15 UNL     1      21.455 -21.937  29.506  1.00  0.00     0.245 C 
ENDROOT
BRANCH   3  14
HETATM   14  C4  UNL     1      20.406 -18.825  25.697  1.00  0.00     0.288 C 
HETATM   15  O1  UNL     1      21.238 -18.447  24.852  1.00  0.00    -0.264 OA
HETATM   16  N1  UNL     1      19.233 -18.047  25.889  1.00  0.00    -0.262 N 
ATOM     17  H1  UNL     1      18.554 -18.359  26.583  1.00  0.00     0.190 HD
BRANCH  16  18
HETATM   18  N2  UNL     1      18.960 -16.870  25.174  1.00  0.00    -0.267 N 
HETATM   19  C5  UNL     1      19.342 -15.599  25.646  1.00  0.00     0.245 C 
HETATM   20  O2  UNL     1      19.953 -15.430  26.743  1.00  0.00    -0.271 OA
ATOM     21  H2  UNL     1      18.468 -16.938  24.283  1.00  0.00     0.190 HD
BRANCH  19  22
HETATM   22  C6  UNL     1      19.044 -14.374  24.867  1.00  0.00     0.048 C 
HETATM   23  C7  UNL     1      19.430 -14.657  23.408  1.00  0.00     0.026 C 
HETATM   24  C8  UNL     1      19.827 -13.191  25.326  1.00  0.00     0.026 C 
BRANCH  22  25
HETATM   25  C9  UNL     1      17.585 -14.006  24.859  1.00  0.00     0.133 C 
HETATM   26 CL1  UNL     1      17.195 -13.422  26.510  1.00  0.00    -0.129 Cl
ENDBRANCH  22  25
ENDBRANCH  19  22
ENDBRANCH  16  18
ENDBRANCH   3  14
TORSDOF 4
ENDMDL
