MODEL 1
REMARK VINA RESULT: -7.115499119      0.000      0.000
REMARK  3 active torsions:
REMARK  status: ('A' for Active; 'I' for Inactive)
REMARK    1  A    between atoms: C3_3  and  N1_4 
REMARK    2  A    between atoms: C6_13  and  N3_14 
REMARK       I    between atoms: N3_14  and  C7_16 
REMARK    3  A    between atoms: C7_16  and  C8_18 
ROOT
HETATM    1  C1  UNL     1      20.904 -17.090  23.913  1.00  0.00     0.103 C 
HETATM    2  C2  UNL     1      21.916 -17.916  23.975  1.00  0.00    -0.143 C 
HETATM    3  C3  UNL     1      22.843 -18.831  24.085  1.00  0.00     0.140 C 
ENDROOT
BRANCH   3   4
HETATM    4  N1  UNL     1      22.442 -20.110  24.461  1.00  0.00    -0.347 N 
HETATM    5  C4  UNL     1      23.114 -21.195  24.235  1.00  0.00     0.115 C 
HETATM    6  N2  UNL     1      24.337 -21.199  23.579  1.00  0.00    -0.271 N 
HETATM    7  C6  UNL     1      22.611 -22.495  24.674  1.00  0.00     0.168 C 
HETATM    8  S1  UNL     1      24.740 -22.845  23.257  1.00  0.00     0.234 S 
ATOM      9  H2  UNL     1      24.894 -20.380  23.333  1.00  0.00     0.180 HD
HETATM   10  O1  UNL     1      24.570 -23.153  21.797  1.00  0.00    -0.206 OA
HETATM   11  O2  UNL     1      26.104 -23.209  23.748  1.00  0.00    -0.206 OA
HETATM   12  C5  UNL     1      23.441 -23.606  24.184  1.00  0.00     0.196 C 
ATOM     13  H1  UNL     1      21.553 -20.200  24.952  1.00  0.00     0.167 HD
BRANCH   7  14
HETATM   14  N3  UNL     1      22.550 -22.582  26.147  1.00  0.00    -0.344 N 
HETATM   15  C7  UNL     1      21.297 -22.662  26.747  1.00  0.00     0.253 C 
HETATM   16  O3  UNL     1      20.274 -22.668  25.965  1.00  0.00    -0.268 OA
ATOM     17  H3  UNL     1      23.402 -22.584  26.709  1.00  0.00     0.163 HD
BRANCH  15  18
HETATM   18  C8  UNL     1      21.046 -22.746  28.221  1.00  0.00     0.046 A 
HETATM   19  C9  UNL     1      20.841 -21.624  28.975  1.00  0.00     0.049 A 
HETATM   20  C10 UNL     1      20.576 -21.786  30.292  1.00  0.00     0.076 A 
HETATM   21 CL1  UNL     1      20.269 -20.515  31.495  1.00  0.00    -0.076 Cl
HETATM   22  S2  UNL     1      20.605 -23.472  30.502  1.00  0.00    -0.082 SA
HETATM   23  C11 UNL     1      20.960 -23.934  28.890  1.00  0.00    -0.004 A 
HETATM   24  C12 UNL     1      21.146 -25.352  28.416  1.00  0.00     0.057 C 
ENDBRANCH  15  18
ENDBRANCH   7  14
ENDBRANCH   3   4
TORSDOF 3
ENDMDL
MODEL 2
REMARK VINA RESULT: -6.814123623      1.232      1.265
REMARK  3 active torsions:
REMARK  status: ('A' for Active; 'I' for Inactive)
REMARK    1  A    between atoms: C3_3  and  N1_4 
REMARK    2  A    between atoms: C6_13  and  N3_14 
REMARK       I    between atoms: N3_14  and  C7_16 
REMARK    3  A    between atoms: C7_16  and  C8_18 
ROOT
HETATM    1  C1  UNL     1      24.345 -16.945  23.420  1.00  0.00     0.103 C 
HETATM    2  C2  UNL     1      24.722 -17.934  24.189  1.00  0.00    -0.143 C 
HETATM    3  C3  UNL     1      24.975 -18.969  24.945  1.00  0.00     0.140 C 
ENDROOT
BRANCH   3   4
HETATM    4  N1  UNL     1      23.979 -19.935  25.068  1.00  0.00    -0.347 N 
HETATM    5  C4  UNL     1      24.057 -21.144  24.607  1.00  0.00     0.115 C 
HETATM    6  N2  UNL     1      25.170 -21.619  23.927  1.00  0.00    -0.271 N 
HETATM    7  C6  UNL     1      22.957 -22.089  24.790  1.00  0.00     0.168 C 
HETATM    8  S1  UNL     1      24.749 -23.156  23.268  1.00  0.00     0.234 S 
ATOM      9  H2  UNL     1      26.069 -21.146  23.835  1.00  0.00     0.180 HD
HETATM   10  O1  UNL     1      24.558 -23.057  21.782  1.00  0.00    -0.206 OA
HETATM   11  O2  UNL     1      25.727 -24.225  23.634  1.00  0.00    -0.206 OA
HETATM   12  C5  UNL     1      23.180 -23.347  24.061  1.00  0.00     0.196 C 
ATOM     13  H1  UNL     1      23.124 -19.671  25.557  1.00  0.00     0.167 HD
BRANCH   7  14
HETATM   14  N3  UNL     1      22.755 -22.415  26.216  1.00  0.00    -0.344 N 
HETATM   15  C7  UNL     1      21.480 -22.252  26.749  1.00  0.00     0.253 C 
HETATM   16  O3  UNL     1      20.560 -21.839  25.950  1.00  0.00    -0.268 OA
ATOM     17  H3  UNL     1      23.528 -22.749  26.793  1.00  0.00     0.163 HD
BRANCH  15  18
HETATM   18  C8  UNL     1      21.095 -22.523  28.172  1.00  0.00     0.046 A 
HETATM   19  C9  UNL     1      20.950 -21.509  29.077  1.00  0.00     0.049 A 
HETATM   20  C10 UNL     1      20.556 -21.830  30.330  1.00  0.00     0.076 A 
HETATM   21 CL1  UNL     1      20.287 -20.724  31.694  1.00  0.00    -0.076 Cl
HETATM   22  S2  UNL     1      20.384 -23.520  30.274  1.00  0.00    -0.082 SA
HETATM   23  C11 UNL     1      20.823 -23.777  28.638  1.00  0.00    -0.004 A 
HETATM   24  C12 UNL     1      20.894 -25.121  27.961  1.00  0.00     0.057 C 
ENDBRANCH  15  18
ENDBRANCH   7  14
ENDBRANCH   3   4
TORSDOF 3
ENDMDL
MODEL 3
REMARK VINA RESULT: -6.629777199      2.640      3.325
REMARK  3 active torsions:
REMARK  status: ('A' for Active; 'I' for Inactive)
REMARK    1  A    between atoms: C3_3  and  N1_4 
REMARK    2  A    between atoms: C6_13  and  N3_14 
REMARK       I    between atoms: N3_14  and  C7_16 
REMARK    3  A    between atoms: C7_16  and  C8_18 
ROOT
HETATM    1  C1  UNL     1      19.454 -19.708  25.644  1.00  0.00     0.103 C 
HETATM    2  C2  UNL     1      19.705 -20.927  25.242  1.00  0.00    -0.143 C 
HETATM    3  C3  UNL     1      20.004 -22.167  24.961  1.00  0.00     0.140 C 
ENDROOT
BRANCH   3   4
HETATM    4  N1  UNL     1      20.473 -22.967  26.000  1.00  0.00    -0.347 N 
HETATM    5  C4  UNL     1      21.690 -23.399  26.113  1.00  0.00     0.115 C 
HETATM    6  N2  UNL     1      22.681 -23.103  25.188  1.00  0.00    -0.271 N 
HETATM    7  C6  UNL     1      22.089 -24.232  27.246  1.00  0.00     0.168 C 
HETATM    8  S1  UNL     1      24.047 -24.085  25.571  1.00  0.00     0.234 S 
ATOM      9  H2  UNL     1      22.614 -22.431  24.424  1.00  0.00     0.180 HD
HETATM   10  O1  UNL     1      24.198 -25.191  24.567  1.00  0.00    -0.206 OA
HETATM   11  O2  UNL     1      25.304 -23.289  25.715  1.00  0.00    -0.206 OA
HETATM   12  C5  UNL     1      23.460 -24.743  27.103  1.00  0.00     0.196 C 
ATOM     13  H1  UNL     1      19.809 -23.232  26.728  1.00  0.00     0.167 HD
BRANCH   7  14
HETATM   14  N3  UNL     1      22.006 -23.489  28.519  1.00  0.00    -0.344 N 
HETATM   15  C7  UNL     1      20.774 -23.433  29.165  1.00  0.00     0.253 C 
HETATM   16  O3  UNL     1      19.793 -24.050  28.606  1.00  0.00    -0.268 OA
ATOM     17  H3  UNL     1      22.827 -23.030  28.914  1.00  0.00     0.163 HD
BRANCH  15  18
HETATM   18  C8  UNL     1      20.504 -22.719  30.453  1.00  0.00     0.046 A 
HETATM   19  C9  UNL     1      20.376 -23.398  31.633  1.00  0.00     0.049 A 
HETATM   20  C10 UNL     1      20.178 -22.677  32.760  1.00  0.00     0.076 A 
HETATM   21 CL1  UNL     1      19.984 -23.294  34.415  1.00  0.00    -0.076 Cl
HETATM   22  S2  UNL     1      20.166 -21.069  32.211  1.00  0.00    -0.082 SA
HETATM   23  C11 UNL     1      20.415 -21.359  30.540  1.00  0.00    -0.004 A 
HETATM   24  C12 UNL     1      20.477 -20.293  29.477  1.00  0.00     0.057 C 
ENDBRANCH  15  18
ENDBRANCH   7  14
ENDBRANCH   3   4
TORSDOF 3
ENDMDL
MODEL 4
REMARK VINA RESULT: -6.554314949      3.559      5.424
REMARK  3 active torsions:
REMARK  status: ('A' for Active; 'I' for Inactive)
REMARK    1  A    between atoms: C3_3  and  N1_4 
REMARK    2  A    between atoms: C6_13  and  N3_14 
REMARK       I    between atoms: N3_14  and  C7_16 
REMARK    3  A    between atoms: C7_16  and  C8_18 
ROOT
HETATM    1  C1  UNL     1      22.540 -25.064  25.355  1.00  0.00     0.103 C 
HETATM    2  C2  UNL     1      21.592 -24.836  26.227  1.00  0.00    -0.143 C 
HETATM    3  C3  UNL     1      20.728 -24.522  27.155  1.00  0.00     0.140 C 
ENDROOT
BRANCH   3   4
HETATM    4  N1  UNL     1      21.067 -23.492  28.028  1.00  0.00    -0.347 N 
HETATM    5  C4  UNL     1      21.263 -22.259  27.681  1.00  0.00     0.115 C 
HETATM    6  N2  UNL     1      21.151 -21.821  26.369  1.00  0.00    -0.271 N 
HETATM    7  C6  UNL     1      21.614 -21.245  28.674  1.00  0.00     0.168 C 
HETATM    8  S1  UNL     1      21.750 -20.203  26.316  1.00  0.00     0.234 S 
ATOM      9  H2  UNL     1      20.783 -22.355  25.582  1.00  0.00     0.180 HD
HETATM   10  O1  UNL     1      23.092 -20.161  25.644  1.00  0.00    -0.206 OA
HETATM   11  O2  UNL     1      20.782 -19.253  25.690  1.00  0.00    -0.206 OA
HETATM   12  C5  UNL     1      21.945 -19.953  28.056  1.00  0.00     0.196 C 
ATOM     13  H1  UNL     1      21.169 -23.725  29.016  1.00  0.00     0.167 HD
BRANCH   7  14
HETATM   14  N3  UNL     1      20.513 -21.026  29.634  1.00  0.00    -0.344 N 
HETATM   15  C7  UNL     1      20.510 -21.774  30.808  1.00  0.00     0.253 C 
HETATM   16  O3  UNL     1      21.483 -22.600  30.978  1.00  0.00    -0.268 OA
ATOM     17  H3  UNL     1      19.776 -20.346  29.443  1.00  0.00     0.163 HD
BRANCH  15  18
HETATM   18  C8  UNL     1      19.472 -21.692  31.885  1.00  0.00     0.046 A 
HETATM   19  C9  UNL     1      19.414 -22.614  32.892  1.00  0.00     0.049 A 
HETATM   20  C10 UNL     1      18.476 -22.445  33.852  1.00  0.00     0.076 A 
HETATM   21 CL1  UNL     1      18.180 -23.479  35.266  1.00  0.00    -0.076 Cl
HETATM   22  S2  UNL     1      17.672 -21.024  33.380  1.00  0.00    -0.082 SA
HETATM   23  C11 UNL     1      18.560 -20.678  31.956  1.00  0.00    -0.004 A 
HETATM   24  C12 UNL     1      18.301 -19.514  31.036  1.00  0.00     0.057 C 
ENDBRANCH  15  18
ENDBRANCH   7  14
ENDBRANCH   3   4
TORSDOF 3
ENDMDL
MODEL 5
REMARK VINA RESULT: -6.484464003      4.433      7.155
REMARK  3 active torsions:
REMARK  status: ('A' for Active; 'I' for Inactive)
REMARK    1  A    between atoms: C3_3  and  N1_4 
REMARK    2  A    between atoms: C6_13  and  N3_14 
REMARK       I    between atoms: N3_14  and  C7_16 
REMARK    3  A    between atoms: C7_16  and  C8_18 
ROOT
HETATM    1  C1  UNL     1      19.564 -24.808  28.338  1.00  0.00     0.103 C 
HETATM    2  C2  UNL     1      20.862 -24.865  28.485  1.00  0.00    -0.143 C 
HETATM    3  C3  UNL     1      22.168 -24.889  28.504  1.00  0.00     0.140 C 
ENDROOT
BRANCH   3   4
HETATM    4  N1  UNL     1      22.835 -24.476  27.353  1.00  0.00    -0.347 N 
HETATM    5  C4  UNL     1      23.184 -23.255  27.096  1.00  0.00     0.115 C 
HETATM    6  N2  UNL     1      22.924 -22.201  27.961  1.00  0.00    -0.271 N 
HETATM    7  C6  UNL     1      23.887 -22.920  25.859  1.00  0.00     0.168 C 
HETATM    8  S1  UNL     1      23.305 -20.743  27.120  1.00  0.00     0.234 S 
ATOM      9  H2  UNL     1      22.573 -22.274  28.916  1.00  0.00     0.180 HD
HETATM   10  O1  UNL     1      22.049 -20.019  26.728  1.00  0.00    -0.206 OA
HETATM   11  O2  UNL     1      24.239 -19.865  27.888  1.00  0.00    -0.206 OA
HETATM   12  C5  UNL     1      24.049 -21.468  25.689  1.00  0.00     0.196 C 
ATOM     13  H1  UNL     1      23.068 -25.189  26.662  1.00  0.00     0.167 HD
BRANCH   7  14
HETATM   14  N3  UNL     1      25.226 -23.539  25.814  1.00  0.00    -0.344 N 
HETATM   15  C7  UNL     1      25.356 -24.770  25.176  1.00  0.00     0.253 C 
HETATM   16  O3  UNL     1      24.293 -25.274  24.657  1.00  0.00    -0.268 OA
ATOM     17  H3  UNL     1      26.033 -23.079  26.237  1.00  0.00     0.163 HD
BRANCH  15  18
HETATM   18  C8  UNL     1      26.631 -25.546  25.044  1.00  0.00     0.046 A 
HETATM   19  C9  UNL     1      26.897 -26.623  25.842  1.00  0.00     0.049 A 
HETATM   20  C10 UNL     1      28.049 -27.300  25.630  1.00  0.00     0.076 A 
HETATM   21 CL1  UNL     1      28.640 -28.726  26.509  1.00  0.00    -0.076 Cl
HETATM   22  S2  UNL     1      28.772 -26.464  24.339  1.00  0.00    -0.082 SA
HETATM   23  C11 UNL     1      27.575 -25.261  24.099  1.00  0.00    -0.004 A 
HETATM   24  C12 UNL     1      27.648 -24.159  23.074  1.00  0.00     0.057 C 
ENDBRANCH  15  18
ENDBRANCH   7  14
ENDBRANCH   3   4
TORSDOF 3
ENDMDL
