MODEL 1
REMARK VINA RESULT: -6.031096640      0.000      0.000
REMARK  6 active torsions:
REMARK  status: ('A' for Active; 'I' for Inactive)
REMARK    1  A    between atoms: O1_2  and  C2_3 
REMARK    2  A    between atoms: C2_3  and  O2_4 
REMARK    3  A    between atoms: C2_3  and  C3_6 
REMARK    4  A    between atoms: C4_7  and  C5_8 
REMARK    5  A    between atoms: C5_8  and  O4_10 
REMARK    6  A    between atoms: O4_10  and  C6_11 
ROOT
HETATM    1  C3  UNL     1      22.959 -23.891  25.478  1.00  0.00     0.080 A 
HETATM    2  C4  UNL     1      23.416 -24.555  26.567  1.00  0.00     0.123 A 
HETATM    3  N1  UNL     1      24.645 -25.149  26.566  1.00  0.00    -0.353 N 
ATOM      4  H1  UNL     1      24.954 -25.638  27.406  1.00  0.00     0.166 HD
HETATM    5  C9  UNL     1      25.462 -25.115  25.508  1.00  0.00     0.027 A 
HETATM    6  C10 UNL     1      26.787 -25.782  25.571  1.00  0.00     0.070 C 
HETATM    7  C11 UNL     1      25.032 -24.455  24.389  1.00  0.00     0.084 A 
HETATM    8 BR1  UNL     1      26.193 -24.407  22.880  1.00  0.00    -0.045 Br
HETATM    9  C12 UNL     1      23.807 -23.843  24.345  1.00  0.00     0.204 A 
HETATM   10  O5  UNL     1      23.409 -23.239  23.324  1.00  0.00    -0.286 OA
ENDROOT
BRANCH   2  11
HETATM   11  C5  UNL     1      22.643 -24.718  27.778  1.00  0.00     0.311 C 
HETATM   12  O3  UNL     1      21.952 -25.726  28.000  1.00  0.00    -0.258 OA
BRANCH  11  13
HETATM   13  O4  UNL     1      22.655 -23.711  28.764  1.00  0.00    -0.312 OA
BRANCH  13  14
HETATM   14  C6  UNL     1      21.441 -23.049  29.023  1.00  0.00     0.124 C 
HETATM   15  C7  UNL     1      21.594 -21.555  28.724  1.00  0.00     0.040 C 
HETATM   16  C8  UNL     1      21.038 -23.250  30.458  1.00  0.00     0.040 C 
ENDBRANCH  13  14
ENDBRANCH  11  13
ENDBRANCH   2  11
BRANCH   1  17
HETATM   17  C2  UNL     1      21.681 -23.160  25.404  1.00  0.00     0.297 C 
BRANCH  17  18
HETATM   18  O1  UNL     1      21.948 -21.762  25.291  1.00  0.00    -0.362 OA
HETATM   19  C1  UNL     1      20.799 -21.153  24.819  1.00  0.00     0.205 C 
ENDBRANCH  17  18
BRANCH  17  20
HETATM   20  O2  UNL     1      20.909 -23.551  24.310  1.00  0.00    -0.367 OA
ATOM     21  H2  UNL     1      20.652 -24.457  24.432  1.00  0.00     0.213 HD
ENDBRANCH  17  20
ENDBRANCH   1  17
TORSDOF 6
ENDMDL
MODEL 2
REMARK VINA RESULT: -5.857287395      3.188      5.423
REMARK  6 active torsions:
REMARK  status: ('A' for Active; 'I' for Inactive)
REMARK    1  A    between atoms: O1_2  and  C2_3 
REMARK    2  A    between atoms: C2_3  and  O2_4 
REMARK    3  A    between atoms: C2_3  and  C3_6 
REMARK    4  A    between atoms: C4_7  and  C5_8 
REMARK    5  A    between atoms: C5_8  and  O4_10 
REMARK    6  A    between atoms: O4_10  and  C6_11 
ROOT
HETATM    1  C3  UNL     1      20.912 -21.527  27.109  1.00  0.00     0.080 A 
HETATM    2  C4  UNL     1      20.645 -22.701  26.488  1.00  0.00     0.123 A 
HETATM    3  N1  UNL     1      20.457 -23.850  27.203  1.00  0.00    -0.353 N 
ATOM      4  H1  UNL     1      20.256 -24.714  26.699  1.00  0.00     0.166 HD
HETATM    5  C9  UNL     1      20.526 -23.888  28.538  1.00  0.00     0.027 A 
HETATM    6  C10 UNL     1      20.312 -25.170  29.256  1.00  0.00     0.070 C 
HETATM    7  C11 UNL     1      20.797 -22.721  29.198  1.00  0.00     0.084 A 
HETATM    8 BR1  UNL     1      20.897 -22.774  31.099  1.00  0.00    -0.045 Br
HETATM    9  C12 UNL     1      20.991 -21.545  28.523  1.00  0.00     0.204 A 
HETATM   10  O5  UNL     1      21.239 -20.474  29.122  1.00  0.00    -0.286 OA
ENDROOT
BRANCH   2  11
HETATM   11  C5  UNL     1      20.575 -22.840  25.051  1.00  0.00     0.311 C 
HETATM   12  O3  UNL     1      19.568 -22.524  24.396  1.00  0.00    -0.258 OA
BRANCH  11  13
HETATM   13  O4  UNL     1      21.678 -23.350  24.337  1.00  0.00    -0.312 OA
BRANCH  13  14
HETATM   14  C6  UNL     1      22.941 -23.256  24.950  1.00  0.00     0.124 C 
HETATM   15  C7  UNL     1      23.745 -22.125  24.303  1.00  0.00     0.040 C 
HETATM   16  C8  UNL     1      23.680 -24.559  24.815  1.00  0.00     0.040 C 
ENDBRANCH  13  14
ENDBRANCH  11  13
ENDBRANCH   2  11
BRANCH   1  17
HETATM   17  C2  UNL     1      21.062 -20.225  26.434  1.00  0.00     0.297 C 
BRANCH  17  18
HETATM   18  O1  UNL     1      19.963 -19.385  26.791  1.00  0.00    -0.362 OA
HETATM   19  C1  UNL     1      20.152 -18.163  26.171  1.00  0.00     0.205 C 
ENDBRANCH  17  18
BRANCH  17  20
HETATM   20  O2  UNL     1      22.245 -19.576  26.787  1.00  0.00    -0.367 OA
ATOM     21  H2  UNL     1      22.933 -19.867  26.201  1.00  0.00     0.213 HD
ENDBRANCH  17  20
ENDBRANCH   1  17
TORSDOF 6
ENDMDL
MODEL 3
REMARK VINA RESULT: -5.815980805      3.171      5.367
REMARK  6 active torsions:
REMARK  status: ('A' for Active; 'I' for Inactive)
REMARK    1  A    between atoms: O1_2  and  C2_3 
REMARK    2  A    between atoms: C2_3  and  O2_4 
REMARK    3  A    between atoms: C2_3  and  C3_6 
REMARK    4  A    between atoms: C4_7  and  C5_8 
REMARK    5  A    between atoms: C5_8  and  O4_10 
REMARK    6  A    between atoms: O4_10  and  C6_11 
ROOT
HETATM    1  C3  UNL     1      21.585 -21.939  27.545  1.00  0.00     0.080 A 
HETATM    2  C4  UNL     1      21.924 -23.141  28.069  1.00  0.00     0.123 A 
HETATM    3  N1  UNL     1      21.694 -23.427  29.385  1.00  0.00    -0.353 N 
ATOM      4  H1  UNL     1      21.962 -24.345  29.741  1.00  0.00     0.166 HD
HETATM    5  C9  UNL     1      21.132 -22.552  30.225  1.00  0.00     0.027 A 
HETATM    6  C10 UNL     1      20.909 -22.925  31.645  1.00  0.00     0.070 C 
HETATM    7  C11 UNL     1      20.779 -21.326  29.731  1.00  0.00     0.084 A 
HETATM    8 BR1  UNL     1      19.979 -20.078  30.927  1.00  0.00    -0.045 Br
HETATM    9  C12 UNL     1      20.989 -20.996  28.418  1.00  0.00     0.204 A 
HETATM   10  O5  UNL     1      20.669 -19.876  27.961  1.00  0.00    -0.286 OA
ENDROOT
BRANCH   2  11
HETATM   11  C5  UNL     1      22.575 -24.183  27.307  1.00  0.00     0.311 C 
HETATM   12  O3  UNL     1      21.952 -25.135  26.807  1.00  0.00    -0.258 OA
BRANCH  11  13
HETATM   13  O4  UNL     1      23.969 -24.144  27.105  1.00  0.00    -0.312 OA
BRANCH  13  14
HETATM   14  C6  UNL     1      24.437 -24.380  25.799  1.00  0.00     0.124 C 
HETATM   15  C7  UNL     1      25.666 -25.291  25.850  1.00  0.00     0.040 C 
HETATM   16  C8  UNL     1      24.786 -23.078  25.132  1.00  0.00     0.040 C 
ENDBRANCH  13  14
ENDBRANCH  11  13
ENDBRANCH   2  11
BRANCH   1  17
HETATM   17  C2  UNL     1      21.728 -21.560  26.127  1.00  0.00     0.297 C 
BRANCH  17  18
HETATM   18  O1  UNL     1      20.429 -21.410  25.551  1.00  0.00    -0.362 OA
HETATM   19  C1  UNL     1      20.142 -22.573  24.859  1.00  0.00     0.205 C 
ENDBRANCH  17  18
BRANCH  17  20
HETATM   20  O2  UNL     1      22.423 -20.362  25.965  1.00  0.00    -0.367 OA
ATOM     21  H2  UNL     1      23.265 -20.555  25.569  1.00  0.00     0.213 HD
ENDBRANCH  17  20
ENDBRANCH   1  17
TORSDOF 6
ENDMDL
MODEL 4
REMARK VINA RESULT: -5.801484938      2.052      3.798
REMARK  6 active torsions:
REMARK  status: ('A' for Active; 'I' for Inactive)
REMARK    1  A    between atoms: O1_2  and  C2_3 
REMARK    2  A    between atoms: C2_3  and  O2_4 
REMARK    3  A    between atoms: C2_3  and  C3_6 
REMARK    4  A    between atoms: C4_7  and  C5_8 
REMARK    5  A    between atoms: C5_8  and  O4_10 
REMARK    6  A    between atoms: O4_10  and  C6_11 
ROOT
HETATM    1  C3  UNL     1      22.404 -23.426  25.999  1.00  0.00     0.080 A 
HETATM    2  C4  UNL     1      22.020 -22.736  24.898  1.00  0.00     0.123 A 
HETATM    3  N1  UNL     1      22.821 -22.667  23.794  1.00  0.00    -0.353 N 
ATOM      4  H1  UNL     1      22.495 -22.138  22.984  1.00  0.00     0.166 HD
HETATM    5  C9  UNL     1      24.016 -23.263  23.732  1.00  0.00     0.027 A 
HETATM    6  C10 UNL     1      24.839 -23.148  22.501  1.00  0.00     0.070 C 
HETATM    7  C11 UNL     1      24.438 -23.967  24.826  1.00  0.00     0.084 A 
HETATM    8 BR1  UNL     1      26.141 -24.815  24.740  1.00  0.00    -0.045 Br
HETATM    9  C12 UNL     1      23.667 -24.065  25.955  1.00  0.00     0.204 A 
HETATM   10  O5  UNL     1      24.049 -24.707  26.959  1.00  0.00    -0.286 OA
ENDROOT
BRANCH   2  11
HETATM   11  C5  UNL     1      20.776 -22.003  24.816  1.00  0.00     0.311 C 
HETATM   12  O3  UNL     1      19.700 -22.544  24.514  1.00  0.00    -0.258 OA
BRANCH  11  13
HETATM   13  O4  UNL     1      20.753 -20.620  25.085  1.00  0.00    -0.312 OA
BRANCH  13  14
HETATM   14  C6  UNL     1      20.197 -20.213  26.312  1.00  0.00     0.124 C 
HETATM   15  C7  UNL     1      19.275 -19.011  26.085  1.00  0.00     0.040 C 
HETATM   16  C8  UNL     1      21.289 -19.851  27.281  1.00  0.00     0.040 C 
ENDBRANCH  13  14
ENDBRANCH  11  13
ENDBRANCH   2  11
BRANCH   1  17
HETATM   17  C2  UNL     1      21.585 -23.619  27.209  1.00  0.00     0.297 C 
BRANCH  17  18
HETATM   18  O1  UNL     1      21.210 -24.993  27.305  1.00  0.00    -0.362 OA
HETATM   19  C1  UNL     1      20.292 -25.105  28.334  1.00  0.00     0.205 C 
ENDBRANCH  17  18
BRANCH  17  20
HETATM   20  O2  UNL     1      22.267 -23.265  28.373  1.00  0.00    -0.367 OA
ATOM     21  H2  UNL     1      21.870 -22.478  28.726  1.00  0.00     0.213 HD
ENDBRANCH  17  20
ENDBRANCH   1  17
TORSDOF 6
ENDMDL
MODEL 5
REMARK VINA RESULT: -5.774880829      1.175      1.597
REMARK  6 active torsions:
REMARK  status: ('A' for Active; 'I' for Inactive)
REMARK    1  A    between atoms: O1_2  and  C2_3 
REMARK    2  A    between atoms: C2_3  and  O2_4 
REMARK    3  A    between atoms: C2_3  and  C3_6 
REMARK    4  A    between atoms: C4_7  and  C5_8 
REMARK    5  A    between atoms: C5_8  and  O4_10 
REMARK    6  A    between atoms: O4_10  and  C6_11 
ROOT
HETATM    1  C3  UNL     1      23.404 -23.815  25.264  1.00  0.00     0.080 A 
HETATM    2  C4  UNL     1      23.910 -24.486  26.327  1.00  0.00     0.123 A 
HETATM    3  N1  UNL     1      25.119 -25.116  26.252  1.00  0.00    -0.353 N 
ATOM      4  H1  UNL     1      25.466 -25.610  27.075  1.00  0.00     0.166 HD
HETATM    5  C9  UNL     1      25.867 -25.113  25.144  1.00  0.00     0.027 A 
HETATM    6  C10 UNL     1      27.173 -25.818  25.128  1.00  0.00     0.070 C 
HETATM    7  C11 UNL     1      25.386 -24.447  24.050  1.00  0.00     0.084 A 
HETATM    8 BR1  UNL     1      26.449 -24.442  22.469  1.00  0.00    -0.045 Br
HETATM    9  C12 UNL     1      24.179 -23.799  24.079  1.00  0.00     0.204 A 
HETATM   10  O5  UNL     1      23.735 -23.189  23.081  1.00  0.00    -0.286 OA
ENDROOT
BRANCH   2  11
HETATM   11  C5  UNL     1      23.212 -24.619  27.586  1.00  0.00     0.311 C 
HETATM   12  O3  UNL     1      23.638 -24.124  28.643  1.00  0.00    -0.258 OA
BRANCH  11  13
HETATM   13  O4  UNL     1      21.997 -25.331  27.648  1.00  0.00    -0.312 OA
BRANCH  13  14
HETATM   14  C6  UNL     1      21.008 -24.842  28.522  1.00  0.00     0.124 C 
HETATM   15  C7  UNL     1      20.520 -25.973  29.431  1.00  0.00     0.040 C 
HETATM   16  C8  UNL     1      19.857 -24.276  27.737  1.00  0.00     0.040 C 
ENDBRANCH  13  14
ENDBRANCH  11  13
ENDBRANCH   2  11
BRANCH   1  17
HETATM   17  C2  UNL     1      22.146 -23.046  25.266  1.00  0.00     0.297 C 
BRANCH  17  18
HETATM   18  O1  UNL     1      22.444 -21.661  25.091  1.00  0.00    -0.362 OA
HETATM   19  C1  UNL     1      21.261 -21.014  24.785  1.00  0.00     0.205 C 
ENDBRANCH  17  18
BRANCH  17  20
HETATM   20  O2  UNL     1      21.280 -23.443  24.247  1.00  0.00    -0.367 OA
ATOM     21  H2  UNL     1      21.401 -22.860  23.507  1.00  0.00     0.213 HD
ENDBRANCH  17  20
ENDBRANCH   1  17
TORSDOF 6
ENDMDL
