MODEL 1
REMARK VINA RESULT: -7.312089404      0.000      0.000
REMARK  5 active torsions:
REMARK  status: ('A' for Active; 'I' for Inactive)
REMARK    1  A    between atoms: C2_2  and  C3_3 
REMARK    2  A    between atoms: C3_3  and  N1_4 
REMARK    3  A    between atoms: N1_4  and  C4_6 
REMARK    4  A    between atoms: C4_6  and  N2_8 
REMARK    5  A    between atoms: N2_8  and  C5_10 
ROOT
HETATM    1  C5  UNL     1      21.191 -22.494  29.275  1.00  0.00     0.059 A 
HETATM    2  C6  UNL     1      21.488 -21.343  28.611  1.00  0.00     0.070 A 
HETATM    3  C7  UNL     1      21.375 -21.175  27.221  1.00  0.00     0.102 A 
HETATM    4  C8  UNL     1      20.933 -22.268  26.526  1.00  0.00     0.115 A 
HETATM    5  C9  UNL     1      20.624 -23.454  27.183  1.00  0.00     0.054 A 
HETATM    6  C10 UNL     1      20.737 -23.602  28.531  1.00  0.00     0.062 A 
HETATM    7 CL1  UNL     1      20.341 -25.131  29.311  1.00  0.00    -0.082 Cl
HETATM    8  S2  UNL     1      20.750 -22.151  24.786  1.00  0.00     0.266 S 
HETATM    9  O1  UNL     1      19.314 -22.424  24.402  1.00  0.00    -0.200 OA
HETATM   10  O2  UNL     1      21.623 -23.207  24.162  1.00  0.00    -0.200 OA
HETATM   11  N3  UNL     1      21.217 -20.554  24.347  1.00  0.00    -0.270 N 
ATOM     12  H3  UNL     1      21.190 -20.262  23.371  1.00  0.00     0.180 HD
HETATM   13  C11 UNL     1      21.595 -19.743  25.245  1.00  0.00     0.244 A 
HETATM   14  O3  UNL     1      21.677 -20.006  26.581  1.00  0.00    -0.304 OA
ENDROOT
BRANCH   1  15
HETATM   15  N2  UNL     1      21.188 -22.672  30.664  1.00  0.00    -0.332 N 
ATOM     16  H2  UNL     1      21.976 -23.201  31.036  1.00  0.00     0.168 HD
BRANCH  15  17
HETATM   17  C4  UNL     1      20.275 -22.237  31.605  1.00  0.00     0.172 C 
HETATM   18  S1  UNL     1      20.536 -22.806  33.170  1.00  0.00    -0.041 SA
BRANCH  17  19
HETATM   19  N1  UNL     1      19.150 -21.386  31.474  1.00  0.00    -0.364 N 
ATOM     20  H1  UNL     1      19.230 -20.485  31.003  1.00  0.00     0.162 HD
BRANCH  19  21
HETATM   21  C3  UNL     1      17.866 -21.829  32.033  1.00  0.00     0.148 C 
BRANCH  21  22
HETATM   22  C2  UNL     1      16.858 -20.781  32.098  1.00  0.00    -0.018 C 
HETATM   23  C1  UNL     1      15.618 -20.815  31.590  1.00  0.00     0.008 C 
ENDBRANCH  21  22
ENDBRANCH  19  21
ENDBRANCH  17  19
ENDBRANCH  15  17
ENDBRANCH   1  15
TORSDOF 5
ENDMDL
MODEL 2
REMARK VINA RESULT: -7.211420515      1.567      1.741
REMARK  5 active torsions:
REMARK  status: ('A' for Active; 'I' for Inactive)
REMARK    1  A    between atoms: C2_2  and  C3_3 
REMARK    2  A    between atoms: C3_3  and  N1_4 
REMARK    3  A    between atoms: N1_4  and  C4_6 
REMARK    4  A    between atoms: C4_6  and  N2_8 
REMARK    5  A    between atoms: N2_8  and  C5_10 
ROOT
HETATM    1  C5  UNL     1      20.982 -22.214  29.281  1.00  0.00     0.059 A 
HETATM    2  C6  UNL     1      21.294 -21.098  28.566  1.00  0.00     0.070 A 
HETATM    3  C7  UNL     1      21.264 -21.018  27.164  1.00  0.00     0.102 A 
HETATM    4  C8  UNL     1      20.891 -22.163  26.512  1.00  0.00     0.115 A 
HETATM    5  C9  UNL     1      20.568 -23.315  27.222  1.00  0.00     0.054 A 
HETATM    6  C10 UNL     1      20.601 -23.378  28.581  1.00  0.00     0.062 A 
HETATM    7 CL1  UNL     1      20.192 -24.866  29.430  1.00  0.00    -0.082 Cl
HETATM    8  S2  UNL     1      20.814 -22.157  24.761  1.00  0.00     0.266 S 
HETATM    9  O1  UNL     1      19.411 -22.491  24.308  1.00  0.00    -0.200 OA
HETATM   10  O2  UNL     1      21.748 -23.225  24.258  1.00  0.00    -0.200 OA
HETATM   11  N3  UNL     1      21.271 -20.578  24.252  1.00  0.00    -0.270 N 
ATOM     12  H3  UNL     1      21.298 -20.347  23.259  1.00  0.00     0.180 HD
HETATM   13  C11 UNL     1      21.574 -19.704  25.119  1.00  0.00     0.244 A 
HETATM   14  O3  UNL     1      21.578 -19.883  26.471  1.00  0.00    -0.304 OA
ENDROOT
BRANCH   1  15
HETATM   15  N2  UNL     1      20.897 -22.307  30.675  1.00  0.00    -0.332 N 
ATOM     16  H2  UNL     1      21.715 -22.707  31.135  1.00  0.00     0.168 HD
BRANCH  15  17
HETATM   17  C4  UNL     1      19.869 -21.939  31.520  1.00  0.00     0.172 C 
HETATM   18  S1  UNL     1      19.314 -20.360  31.324  1.00  0.00    -0.041 SA
BRANCH  17  19
HETATM   19  N1  UNL     1      19.197 -22.671  32.530  1.00  0.00    -0.364 N 
ATOM     20  H1  UNL     1      18.381 -23.240  32.306  1.00  0.00     0.162 HD
BRANCH  19  21
HETATM   21  C3  UNL     1      19.702 -22.593  33.908  1.00  0.00     0.148 C 
BRANCH  21  22
HETATM   22  C2  UNL     1      18.847 -23.249  34.886  1.00  0.00    -0.018 C 
HETATM   23  C1  UNL     1      17.507 -23.272  34.908  1.00  0.00     0.008 C 
ENDBRANCH  21  22
ENDBRANCH  19  21
ENDBRANCH  17  19
ENDBRANCH  15  17
ENDBRANCH   1  15
TORSDOF 5
ENDMDL
MODEL 3
REMARK VINA RESULT: -7.146227678      2.487      3.294
REMARK  5 active torsions:
REMARK  status: ('A' for Active; 'I' for Inactive)
REMARK    1  A    between atoms: C2_2  and  C3_3 
REMARK    2  A    between atoms: C3_3  and  N1_4 
REMARK    3  A    between atoms: N1_4  and  C4_6 
REMARK    4  A    between atoms: C4_6  and  N2_8 
REMARK    5  A    between atoms: N2_8  and  C5_10 
ROOT
HETATM    1  C5  UNL     1      20.492 -21.670  31.076  1.00  0.00     0.059 A 
HETATM    2  C6  UNL     1      21.200 -22.776  30.717  1.00  0.00     0.070 A 
HETATM    3  C7  UNL     1      21.795 -22.965  29.458  1.00  0.00     0.102 A 
HETATM    4  C8  UNL     1      21.625 -21.943  28.563  1.00  0.00     0.115 A 
HETATM    5  C9  UNL     1      20.906 -20.805  28.908  1.00  0.00     0.054 A 
HETATM    6  C10 UNL     1      20.336 -20.634  30.132  1.00  0.00     0.062 A 
HETATM    7 CL1  UNL     1      19.426 -19.175  30.513  1.00  0.00    -0.082 Cl
HETATM    8  S2  UNL     1      22.339 -22.085  26.968  1.00  0.00     0.266 S 
HETATM    9  O1  UNL     1      23.310 -20.950  26.739  1.00  0.00    -0.200 OA
HETATM   10  O2  UNL     1      21.229 -21.978  25.957  1.00  0.00    -0.200 OA
HETATM   11  N3  UNL     1      23.141 -23.607  26.920  1.00  0.00    -0.270 N 
ATOM     12  H3  UNL     1      23.631 -23.902  26.075  1.00  0.00     0.180 HD
HETATM   13  C11 UNL     1      23.120 -24.359  27.940  1.00  0.00     0.244 A 
HETATM   14  O3  UNL     1      22.504 -24.085  29.126  1.00  0.00    -0.304 OA
ENDROOT
BRANCH   1  15
HETATM   15  N2  UNL     1      19.975 -21.394  32.348  1.00  0.00    -0.332 N 
ATOM     16  H2  UNL     1      20.459 -20.660  32.864  1.00  0.00     0.168 HD
BRANCH  15  17
HETATM   17  C4  UNL     1      18.908 -21.970  33.007  1.00  0.00     0.172 C 
HETATM   18  S1  UNL     1      19.311 -22.867  34.376  1.00  0.00    -0.041 SA
BRANCH  17  19
HETATM   19  N1  UNL     1      17.520 -21.933  32.725  1.00  0.00    -0.364 N 
ATOM     20  H1  UNL     1      16.970 -22.792  32.698  1.00  0.00     0.162 HD
BRANCH  19  21
HETATM   21  C3  UNL     1      16.889 -20.630  32.471  1.00  0.00     0.148 C 
BRANCH  21  22
HETATM   22  C2  UNL     1      15.673 -20.709  31.675  1.00  0.00    -0.018 C 
HETATM   23  C1  UNL     1      14.643 -19.851  31.680  1.00  0.00     0.008 C 
ENDBRANCH  21  22
ENDBRANCH  19  21
ENDBRANCH  17  19
ENDBRANCH  15  17
ENDBRANCH   1  15
TORSDOF 5
ENDMDL
MODEL 4
REMARK VINA RESULT: -7.088255954      2.163      2.894
REMARK  5 active torsions:
REMARK  status: ('A' for Active; 'I' for Inactive)
REMARK    1  A    between atoms: C2_2  and  C3_3 
REMARK    2  A    between atoms: C3_3  and  N1_4 
REMARK    3  A    between atoms: N1_4  and  C4_6 
REMARK    4  A    between atoms: C4_6  and  N2_8 
REMARK    5  A    between atoms: N2_8  and  C5_10 
ROOT
HETATM    1  C5  UNL     1      20.620 -22.590  30.643  1.00  0.00     0.059 A 
HETATM    2  C6  UNL     1      20.873 -23.702  29.899  1.00  0.00     0.070 A 
HETATM    3  C7  UNL     1      21.149 -23.692  28.522  1.00  0.00     0.102 A 
HETATM    4  C8  UNL     1      21.154 -22.458  27.928  1.00  0.00     0.115 A 
HETATM    5  C9  UNL     1      20.898 -21.309  28.667  1.00  0.00     0.054 A 
HETATM    6  C10 UNL     1      20.633 -21.334  30.002  1.00  0.00     0.062 A 
HETATM    7 CL1  UNL     1      20.306 -19.848  30.889  1.00  0.00    -0.082 Cl
HETATM    8  S2  UNL     1      21.498 -22.344  26.212  1.00  0.00     0.266 S 
HETATM    9  O1  UNL     1      22.720 -21.481  25.991  1.00  0.00    -0.200 OA
HETATM   10  O2  UNL     1      20.318 -21.683  25.551  1.00  0.00    -0.200 OA
HETATM   11  N3  UNL     1      21.764 -23.950  25.654  1.00  0.00    -0.270 N 
ATOM     12  H3  UNL     1      21.981 -24.122  24.673  1.00  0.00     0.180 HD
HETATM   13  C11 UNL     1      21.686 -24.917  26.469  1.00  0.00     0.244 A 
HETATM   14  O3  UNL     1      21.404 -24.824  27.800  1.00  0.00    -0.304 OA
ENDROOT
BRANCH   1  15
HETATM   15  N2  UNL     1      20.446 -22.544  32.032  1.00  0.00    -0.332 N 
ATOM     16  H2  UNL     1      21.306 -22.542  32.578  1.00  0.00     0.168 HD
BRANCH  15  17
HETATM   17  C4  UNL     1      19.280 -22.501  32.770  1.00  0.00     0.172 C 
HETATM   18  S1  UNL     1      19.461 -22.841  34.411  1.00  0.00    -0.041 SA
BRANCH  17  19
HETATM   19  N1  UNL     1      17.949 -22.215  32.378  1.00  0.00    -0.364 N 
ATOM     20  H1  UNL     1      17.415 -22.883  31.823  1.00  0.00     0.162 HD
BRANCH  19  21
HETATM   21  C3  UNL     1      17.356 -20.935  32.788  1.00  0.00     0.148 C 
BRANCH  21  22
HETATM   22  C2  UNL     1      16.481 -20.343  31.787  1.00  0.00    -0.018 C 
HETATM   23  C1  UNL     1      15.232 -20.719  31.476  1.00  0.00     0.008 C 
ENDBRANCH  21  22
ENDBRANCH  19  21
ENDBRANCH  17  19
ENDBRANCH  15  17
ENDBRANCH   1  15
TORSDOF 5
ENDMDL
MODEL 5
REMARK VINA RESULT: -7.040207541      2.351      2.978
REMARK  5 active torsions:
REMARK  status: ('A' for Active; 'I' for Inactive)
REMARK    1  A    between atoms: C2_2  and  C3_3 
REMARK    2  A    between atoms: C3_3  and  N1_4 
REMARK    3  A    between atoms: N1_4  and  C4_6 
REMARK    4  A    between atoms: C4_6  and  N2_8 
REMARK    5  A    between atoms: N2_8  and  C5_10 
ROOT
HETATM    1  C5  UNL     1      20.032 -21.049  31.607  1.00  0.00     0.059 A 
HETATM    2  C6  UNL     1      19.949 -20.251  30.508  1.00  0.00     0.070 A 
HETATM    3  C7  UNL     1      20.564 -20.530  29.276  1.00  0.00     0.102 A 
HETATM    4  C8  UNL     1      21.285 -21.692  29.222  1.00  0.00     0.115 A 
HETATM    5  C9  UNL     1      21.384 -22.522  30.333  1.00  0.00     0.054 A 
HETATM    6  C10 UNL     1      20.782 -22.240  31.521  1.00  0.00     0.062 A 
HETATM    7 CL1  UNL     1      20.948 -23.323  32.900  1.00  0.00    -0.082 Cl
HETATM    8  S2  UNL     1      22.081 -22.129  27.722  1.00  0.00     0.266 S 
HETATM    9  O1  UNL     1      21.561 -23.462  27.236  1.00  0.00    -0.200 OA
HETATM   10  O2  UNL     1      23.553 -22.263  28.006  1.00  0.00    -0.200 OA
HETATM   11  N3  UNL     1      21.730 -20.877  26.595  1.00  0.00    -0.270 N 
ATOM     12  H3  UNL     1      22.098 -20.925  25.644  1.00  0.00     0.180 HD
HETATM   13  C11 UNL     1      21.012 -19.896  26.951  1.00  0.00     0.244 A 
HETATM   14  O3  UNL     1      20.461 -19.712  28.186  1.00  0.00    -0.304 OA
ENDROOT
BRANCH   1  15
HETATM   15  N2  UNL     1      19.352 -20.865  32.818  1.00  0.00    -0.332 N 
ATOM     16  H2  UNL     1      19.931 -20.562  33.600  1.00  0.00     0.168 HD
BRANCH  15  17
HETATM   17  C4  UNL     1      18.013 -21.034  33.109  1.00  0.00     0.172 C 
HETATM   18  S1  UNL     1      17.631 -22.463  33.917  1.00  0.00    -0.041 SA
BRANCH  17  19
HETATM   19  N1  UNL     1      16.898 -20.201  32.842  1.00  0.00    -0.364 N 
ATOM     20  H1  UNL     1      16.548 -19.557  33.551  1.00  0.00     0.162 HD
BRANCH  19  21
HETATM   21  C3  UNL     1      16.258 -20.285  31.523  1.00  0.00     0.148 C 
BRANCH  21  22
HETATM   22  C2  UNL     1      14.804 -20.230  31.569  1.00  0.00    -0.018 C 
HETATM   23  C1  UNL     1      14.043 -19.190  31.935  1.00  0.00     0.008 C 
ENDBRANCH  21  22
ENDBRANCH  19  21
ENDBRANCH  17  19
ENDBRANCH  15  17
ENDBRANCH   1  15
TORSDOF 5
ENDMDL
