MODEL 1
REMARK VINA RESULT: -5.575964006      0.000      0.000
REMARK  10 active torsions:
REMARK  status: ('A' for Active; 'I' for Inactive)
REMARK    1  A    between atoms: C1_2  and  C2_4 
REMARK    2  A    between atoms: C2_4  and  O2_5 
REMARK    3  A    between atoms: C2_4  and  C3_7 
REMARK    4  A    between atoms: C3_7  and  N2_8 
REMARK    5  A    between atoms: C3_7  and  C4_12 
REMARK    6  A    between atoms: C4_12  and  N3_13 
REMARK    7  A    between atoms: C4_12  and  C5_17 
REMARK    8  A    between atoms: C5_17  and  C6_18 
REMARK    9  A    between atoms: C6_18  and  C7_19 
REMARK   10  A    between atoms: C7_19  and  C8_21 
ROOT
HETATM    1  C4  UNL     1      10.468  -6.283 -36.178  1.00  0.00     0.217 C 
ENDROOT
BRANCH   1   2
HETATM    2  C3  UNL     1      11.375  -7.491 -36.118  1.00  0.00     0.251 C 
BRANCH   2   3
HETATM    3  C2  UNL     1      11.368  -7.999 -34.682  1.00  0.00     0.239 C 
BRANCH   3   4
HETATM    4  C1  UNL     1      12.609  -7.612 -33.994  1.00  0.00     0.262 C 
HETATM    5  N1  UNL     1      12.765  -6.303 -33.500  1.00  0.00    -0.060 NA
HETATM    6  O1  UNL     1      13.522  -8.444 -33.850  1.00  0.00    -0.274 OA
ENDBRANCH   3   4
BRANCH   3   7
HETATM    7  O2  UNL     1      10.229  -7.565 -34.004  1.00  0.00    -0.384 OA
ATOM      8  H2  UNL     1       9.430  -7.745 -34.486  1.00  0.00     0.210 HD
ENDBRANCH   3   7
ENDBRANCH   2   3
BRANCH   2   9
HETATM    9  N2  UNL     1      12.723  -7.151 -36.491  1.00  0.00    -0.070 N 
ATOM     10  H23 UNL     1      13.401  -7.410 -35.774  1.00  0.00     0.274 HD
ATOM     11  H22 UNL     1      13.078  -7.741 -37.243  1.00  0.00     0.274 HD
ATOM     12  H21 UNL     1      12.765  -6.159 -36.724  1.00  0.00     0.274 HD
ENDBRANCH   2   9
ENDBRANCH   1   2
BRANCH   1  13
HETATM   13  N3  UNL     1      11.250  -5.064 -36.102  1.00  0.00    -0.073 N 
ATOM     14  H33 UNL     1      12.139  -5.150 -36.595  1.00  0.00     0.274 HD
ATOM     15  H32 UNL     1      10.841  -4.314 -36.660  1.00  0.00     0.274 HD
ATOM     16  H31 UNL     1      11.379  -4.787 -35.128  1.00  0.00     0.274 HD
ENDBRANCH   1  13
BRANCH   1  17
HETATM   17  C5  UNL     1       9.534  -6.271 -37.344  1.00  0.00     0.043 C 
BRANCH  17  18
HETATM   18  C6  UNL     1      10.144  -5.630 -38.554  1.00  0.00     0.086 C 
BRANCH  18  19
HETATM   19  C7  UNL     1       9.441  -4.384 -38.942  1.00  0.00     0.166 C 
HETATM   20  O3  UNL     1       9.582  -3.367 -38.257  1.00  0.00    -0.292 OA
BRANCH  19  21
HETATM   21  C8  UNL     1       8.587  -4.362 -40.133  1.00  0.00     0.050 A 
HETATM   22  C9  UNL     1       8.829  -4.903 -41.361  1.00  0.00     0.023 A 
HETATM   23  C10 UNL     1       7.889  -4.752 -42.303  1.00  0.00     0.009 A 
HETATM   24  C11 UNL     1       6.755  -4.064 -41.957  1.00  0.00     0.050 A 
HETATM   25  S1  UNL     1       7.047  -3.655 -40.325  1.00  0.00    -0.098 SA
ENDBRANCH  19  21
ENDBRANCH  18  19
ENDBRANCH  17  18
ENDBRANCH   1  17
TORSDOF 10
ENDMDL
MODEL 2
REMARK VINA RESULT: -5.526774885      0.960      1.075
REMARK  10 active torsions:
REMARK  status: ('A' for Active; 'I' for Inactive)
REMARK    1  A    between atoms: C1_2  and  C2_4 
REMARK    2  A    between atoms: C2_4  and  O2_5 
REMARK    3  A    between atoms: C2_4  and  C3_7 
REMARK    4  A    between atoms: C3_7  and  N2_8 
REMARK    5  A    between atoms: C3_7  and  C4_12 
REMARK    6  A    between atoms: C4_12  and  N3_13 
REMARK    7  A    between atoms: C4_12  and  C5_17 
REMARK    8  A    between atoms: C5_17  and  C6_18 
REMARK    9  A    between atoms: C6_18  and  C7_19 
REMARK   10  A    between atoms: C7_19  and  C8_21 
ROOT
HETATM    1  C4  UNL     1      10.621  -6.111 -36.161  1.00  0.00     0.217 C 
ENDROOT
BRANCH   1   2
HETATM    2  C3  UNL     1      11.384  -7.417 -36.178  1.00  0.00     0.251 C 
BRANCH   2   3
HETATM    3  C2  UNL     1      11.328  -7.998 -34.771  1.00  0.00     0.239 C 
BRANCH   3   4
HETATM    4  C1  UNL     1      12.557  -7.669 -34.032  1.00  0.00     0.262 C 
HETATM    5  N1  UNL     1      12.727  -6.386 -33.479  1.00  0.00    -0.060 NA
HETATM    6  O1  UNL     1      13.446  -8.528 -33.895  1.00  0.00    -0.274 OA
ENDBRANCH   3   4
BRANCH   3   7
HETATM    7  O2  UNL     1      10.179  -7.579 -34.102  1.00  0.00    -0.384 OA
ATOM      8  H2  UNL     1      10.118  -7.942 -33.225  1.00  0.00     0.210 HD
ENDBRANCH   3   7
ENDBRANCH   2   3
BRANCH   2   9
HETATM    9  N2  UNL     1      12.759  -7.213 -36.550  1.00  0.00    -0.070 N 
ATOM     10  H23 UNL     1      13.203  -8.071 -36.877  1.00  0.00     0.274 HD
ATOM     11  H22 UNL     1      12.852  -6.669 -37.408  1.00  0.00     0.274 HD
ATOM     12  H21 UNL     1      13.259  -6.791 -35.767  1.00  0.00     0.274 HD
ENDBRANCH   2   9
ENDBRANCH   1   2
BRANCH   1  13
HETATM   13  N3  UNL     1      11.542  -4.991 -36.194  1.00  0.00    -0.073 N 
ATOM     14  H33 UNL     1      12.268  -5.117 -36.899  1.00  0.00     0.274 HD
ATOM     15  H32 UNL     1      11.106  -4.151 -36.574  1.00  0.00     0.274 HD
ATOM     16  H31 UNL     1      11.935  -4.830 -35.266  1.00  0.00     0.274 HD
ENDBRANCH   1  13
BRANCH   1  17
HETATM   17  C5  UNL     1       9.572  -5.998 -37.219  1.00  0.00     0.043 C 
BRANCH  17  18
HETATM   18  C6  UNL     1      10.147  -6.072 -38.600  1.00  0.00     0.086 C 
BRANCH  18  19
HETATM   19  C7  UNL     1       9.983  -4.801 -39.346  1.00  0.00     0.166 C 
HETATM   20  O3  UNL     1      10.573  -3.789 -38.960  1.00  0.00    -0.292 OA
BRANCH  19  21
HETATM   21  C8  UNL     1       9.125  -4.750 -40.533  1.00  0.00     0.050 A 
HETATM   22  C9  UNL     1       7.861  -4.249 -40.645  1.00  0.00     0.023 A 
HETATM   23  C10 UNL     1       7.271  -4.315 -41.846  1.00  0.00     0.009 A 
HETATM   24  C11 UNL     1       7.986  -4.882 -42.869  1.00  0.00     0.050 A 
HETATM   25  S1  UNL     1       9.458  -5.301 -42.112  1.00  0.00    -0.098 SA
ENDBRANCH  19  21
ENDBRANCH  18  19
ENDBRANCH  17  18
ENDBRANCH   1  17
TORSDOF 10
ENDMDL
MODEL 3
REMARK VINA RESULT: -5.427656853      1.821      2.050
REMARK  10 active torsions:
REMARK  status: ('A' for Active; 'I' for Inactive)
REMARK    1  A    between atoms: C1_2  and  C2_4 
REMARK    2  A    between atoms: C2_4  and  O2_5 
REMARK    3  A    between atoms: C2_4  and  C3_7 
REMARK    4  A    between atoms: C3_7  and  N2_8 
REMARK    5  A    between atoms: C3_7  and  C4_12 
REMARK    6  A    between atoms: C4_12  and  N3_13 
REMARK    7  A    between atoms: C4_12  and  C5_17 
REMARK    8  A    between atoms: C5_17  and  C6_18 
REMARK    9  A    between atoms: C6_18  and  C7_19 
REMARK   10  A    between atoms: C7_19  and  C8_21 
ROOT
HETATM    1  C4  UNL     1      10.506  -6.334 -36.255  1.00  0.00     0.217 C 
ENDROOT
BRANCH   1   2
HETATM    2  C3  UNL     1      11.407  -7.543 -36.139  1.00  0.00     0.251 C 
BRANCH   2   3
HETATM    3  C2  UNL     1      11.360  -8.011 -34.690  1.00  0.00     0.239 C 
BRANCH   3   4
HETATM    4  C1  UNL     1      12.591  -7.622 -33.985  1.00  0.00     0.262 C 
HETATM    5  N1  UNL     1      12.731  -6.316 -33.479  1.00  0.00    -0.060 NA
HETATM    6  O1  UNL     1      13.507  -8.449 -33.835  1.00  0.00    -0.274 OA
ENDBRANCH   3   4
BRANCH   3   7
HETATM    7  O2  UNL     1      10.212  -7.545 -34.051  1.00  0.00    -0.384 OA
ATOM      8  H2  UNL     1       9.461  -7.515 -34.632  1.00  0.00     0.210 HD
ENDBRANCH   3   7
ENDBRANCH   2   3
BRANCH   2   9
HETATM    9  N2  UNL     1      12.766  -7.217 -36.485  1.00  0.00    -0.070 N 
ATOM     10  H23 UNL     1      12.918  -6.210 -36.553  1.00  0.00     0.274 HD
ATOM     11  H22 UNL     1      13.416  -7.408 -35.724  1.00  0.00     0.274 HD
ATOM     12  H21 UNL     1      13.019  -7.706 -37.343  1.00  0.00     0.274 HD
ENDBRANCH   2   9
ENDBRANCH   1   2
BRANCH   1  13
HETATM   13  N3  UNL     1      11.265  -5.119 -36.029  1.00  0.00    -0.073 N 
ATOM     14  H33 UNL     1      10.736  -4.436 -35.486  1.00  0.00     0.274 HD
ATOM     15  H32 UNL     1      12.035  -5.266 -35.376  1.00  0.00     0.274 HD
ATOM     16  H31 UNL     1      11.587  -4.732 -36.917  1.00  0.00     0.274 HD
ENDBRANCH   1  13
BRANCH   1  17
HETATM   17  C5  UNL     1       9.724  -6.270 -37.527  1.00  0.00     0.043 C 
BRANCH  17  18
HETATM   18  C6  UNL     1      10.168  -5.145 -38.411  1.00  0.00     0.086 C 
BRANCH  18  19
HETATM   19  C7  UNL     1      11.177  -5.579 -39.407  1.00  0.00     0.166 C 
HETATM   20  O3  UNL     1      12.365  -5.645 -39.080  1.00  0.00    -0.292 OA
BRANCH  19  21
HETATM   21  C8  UNL     1      10.765  -5.927 -40.769  1.00  0.00     0.050 A 
HETATM   22  C9  UNL     1      11.043  -7.059 -41.477  1.00  0.00     0.023 A 
HETATM   23  C10 UNL     1      10.551  -7.152 -42.719  1.00  0.00     0.009 A 
HETATM   24  C11 UNL     1       9.806  -6.099 -43.182  1.00  0.00     0.050 A 
HETATM   25  S1  UNL     1       9.820  -5.019 -41.860  1.00  0.00    -0.098 SA
ENDBRANCH  19  21
ENDBRANCH  18  19
ENDBRANCH  17  18
ENDBRANCH   1  17
TORSDOF 10
ENDMDL
MODEL 4
REMARK VINA RESULT: -5.424391217      2.277      3.185
REMARK  10 active torsions:
REMARK  status: ('A' for Active; 'I' for Inactive)
REMARK    1  A    between atoms: C1_2  and  C2_4 
REMARK    2  A    between atoms: C2_4  and  O2_5 
REMARK    3  A    between atoms: C2_4  and  C3_7 
REMARK    4  A    between atoms: C3_7  and  N2_8 
REMARK    5  A    between atoms: C3_7  and  C4_12 
REMARK    6  A    between atoms: C4_12  and  N3_13 
REMARK    7  A    between atoms: C4_12  and  C5_17 
REMARK    8  A    between atoms: C5_17  and  C6_18 
REMARK    9  A    between atoms: C6_18  and  C7_19 
REMARK   10  A    between atoms: C7_19  and  C8_21 
ROOT
HETATM    1  C4  UNL     1      10.487  -6.271 -36.113  1.00  0.00     0.217 C 
ENDROOT
BRANCH   1   2
HETATM    2  C3  UNL     1      11.398  -7.477 -36.063  1.00  0.00     0.251 C 
BRANCH   2   3
HETATM    3  C2  UNL     1      11.400  -7.990 -34.629  1.00  0.00     0.239 C 
BRANCH   3   4
HETATM    4  C1  UNL     1      12.648  -7.611 -33.950  1.00  0.00     0.262 C 
HETATM    5  N1  UNL     1      12.810  -6.307 -33.446  1.00  0.00    -0.060 NA
HETATM    6  O1  UNL     1      13.561  -8.446 -33.821  1.00  0.00    -0.274 OA
ENDBRANCH   3   4
BRANCH   3   7
HETATM    7  O2  UNL     1      10.268  -7.556 -33.940  1.00  0.00    -0.384 OA
ATOM      8  H2  UNL     1      10.368  -7.625 -32.998  1.00  0.00     0.210 HD
ENDBRANCH   3   7
ENDBRANCH   2   3
BRANCH   2   9
HETATM    9  N2  UNL     1      12.743  -7.132 -36.442  1.00  0.00    -0.070 N 
ATOM     10  H23 UNL     1      13.270  -7.938 -36.776  1.00  0.00     0.274 HD
ATOM     11  H22 UNL     1      12.774  -6.576 -37.297  1.00  0.00     0.274 HD
ATOM     12  H21 UNL     1      13.201  -6.664 -35.660  1.00  0.00     0.274 HD
ENDBRANCH   2   9
ENDBRANCH   1   2
BRANCH   1  13
HETATM   13  N3  UNL     1      11.268  -5.049 -36.060  1.00  0.00    -0.073 N 
ATOM     14  H33 UNL     1      11.152  -4.562 -35.172  1.00  0.00     0.274 HD
ATOM     15  H32 UNL     1      12.269  -5.240 -35.998  1.00  0.00     0.274 HD
ATOM     16  H31 UNL     1      11.042  -4.451 -36.855  1.00  0.00     0.274 HD
ENDBRANCH   1  13
BRANCH   1  17
HETATM   17  C5  UNL     1       9.531  -6.268 -37.260  1.00  0.00     0.043 C 
BRANCH  17  18
HETATM   18  C6  UNL     1       9.703  -5.068 -38.141  1.00  0.00     0.086 C 
BRANCH  18  19
HETATM   19  C7  UNL     1      10.189  -5.429 -39.494  1.00  0.00     0.166 C 
HETATM   20  O3  UNL     1       9.435  -5.309 -40.463  1.00  0.00    -0.292 OA
BRANCH  19  21
HETATM   21  C8  UNL     1      11.555  -5.926 -39.677  1.00  0.00     0.050 A 
HETATM   22  C9  UNL     1      11.963  -7.187 -40.000  1.00  0.00     0.023 A 
HETATM   23  C10 UNL     1      13.280  -7.404 -40.112  1.00  0.00     0.009 A 
HETATM   24  C11 UNL     1      14.115  -6.340 -39.893  1.00  0.00     0.050 A 
HETATM   25  S1  UNL     1      13.025  -5.074 -39.539  1.00  0.00    -0.098 SA
ENDBRANCH  19  21
ENDBRANCH  18  19
ENDBRANCH  17  18
ENDBRANCH   1  17
TORSDOF 10
ENDMDL
MODEL 5
REMARK VINA RESULT: -5.390928275      1.665      1.885
REMARK  10 active torsions:
REMARK  status: ('A' for Active; 'I' for Inactive)
REMARK    1  A    between atoms: C1_2  and  C2_4 
REMARK    2  A    between atoms: C2_4  and  O2_5 
REMARK    3  A    between atoms: C2_4  and  C3_7 
REMARK    4  A    between atoms: C3_7  and  N2_8 
REMARK    5  A    between atoms: C3_7  and  C4_12 
REMARK    6  A    between atoms: C4_12  and  N3_13 
REMARK    7  A    between atoms: C4_12  and  C5_17 
REMARK    8  A    between atoms: C5_17  and  C6_18 
REMARK    9  A    between atoms: C6_18  and  C7_19 
REMARK   10  A    between atoms: C7_19  and  C8_21 
ROOT
HETATM    1  C4  UNL     1       9.842  -7.405 -35.918  1.00  0.00     0.217 C 
ENDROOT
BRANCH   1   2
HETATM    2  C3  UNL     1      10.829  -7.667 -34.803  1.00  0.00     0.251 C 
BRANCH   2   3
HETATM    3  C2  UNL     1      12.143  -7.001 -35.190  1.00  0.00     0.239 C 
BRANCH   3   4
HETATM    4  C1  UNL     1      12.958  -6.741 -33.993  1.00  0.00     0.262 C 
HETATM    5  N1  UNL     1      12.984  -5.455 -33.422  1.00  0.00    -0.060 NA
HETATM    6  O1  UNL     1      13.624  -7.661 -33.485  1.00  0.00    -0.274 OA
ENDBRANCH   3   4
BRANCH   3   7
HETATM    7  O2  UNL     1      12.826  -7.757 -36.143  1.00  0.00    -0.384 OA
ATOM      8  H2  UNL     1      13.437  -8.369 -35.749  1.00  0.00     0.210 HD
ENDBRANCH   3   7
ENDBRANCH   2   3
BRANCH   2   9
HETATM    9  N2  UNL     1      11.050  -9.077 -34.622  1.00  0.00    -0.070 N 
ATOM     10  H23 UNL     1      11.854  -9.270 -34.023  1.00  0.00     0.274 HD
ATOM     11  H22 UNL     1      10.333  -9.510 -34.041  1.00  0.00     0.274 HD
ATOM     12  H21 UNL     1      11.131  -9.523 -35.535  1.00  0.00     0.274 HD
ENDBRANCH   2   9
ENDBRANCH   1   2
BRANCH   1  13
HETATM   13  N3  UNL     1       8.512  -7.827 -35.520  1.00  0.00    -0.073 N 
ATOM     14  H33 UNL     1       8.029  -8.321 -36.270  1.00  0.00     0.274 HD
ATOM     15  H32 UNL     1       8.541  -8.583 -34.836  1.00  0.00     0.274 HD
ATOM     16  H31 UNL     1       7.975  -7.028 -35.183  1.00  0.00     0.274 HD
ENDBRANCH   1  13
BRANCH   1  17
HETATM   17  C5  UNL     1       9.848  -6.001 -36.430  1.00  0.00     0.043 C 
BRANCH  17  18
HETATM   18  C6  UNL     1      10.006  -5.941 -37.919  1.00  0.00     0.086 C 
BRANCH  18  19
HETATM   19  C7  UNL     1       9.678  -4.602 -38.464  1.00  0.00     0.166 C 
HETATM   20  O3  UNL     1      10.070  -3.592 -37.873  1.00  0.00    -0.292 OA
BRANCH  19  21
HETATM   21  C8  UNL     1       8.894  -4.480 -39.696  1.00  0.00     0.050 A 
HETATM   22  C9  UNL     1       7.656  -3.932 -39.863  1.00  0.00     0.023 A 
HETATM   23  C10 UNL     1       7.136  -3.937 -41.097  1.00  0.00     0.009 A 
HETATM   24  C11 UNL     1       7.891  -4.493 -42.097  1.00  0.00     0.050 A 
HETATM   25  S1  UNL     1       9.301  -4.989 -41.271  1.00  0.00    -0.098 SA
ENDBRANCH  19  21
ENDBRANCH  18  19
ENDBRANCH  17  18
ENDBRANCH   1  17
TORSDOF 10
ENDMDL
