MODEL 1
REMARK VINA RESULT: -6.046467619      0.000      0.000
REMARK  8 active torsions:
REMARK  status: ('A' for Active; 'I' for Inactive)
REMARK    1  A    between atoms: C1_2  and  C2_4 
REMARK    2  A    between atoms: C2_4  and  C3_5 
REMARK    3  A    between atoms: C2_4  and  C10_17 
REMARK    4  A    between atoms: C3_5  and  N2_6 
REMARK    5  A    between atoms: N2_6  and  C4_8 
REMARK    6  A    between atoms: C7_11  and  N3_12 
REMARK    7  A    between atoms: C10_17  and  N4_18 
REMARK    8  A    between atoms: C10_17  and  C11_22 
ROOT
HETATM    1  C2  UNL     1      10.985  -6.370 -35.667  1.00  0.00     0.133 C 
ENDROOT
BRANCH   1   2
HETATM    2  C1  UNL     1       9.594  -6.899 -35.657  1.00  0.00     0.239 C 
HETATM    3  N1  UNL     1       8.733  -6.721 -34.564  1.00  0.00    -0.062 NA
HETATM    4  O1  UNL     1       9.190  -7.522 -36.657  1.00  0.00    -0.276 OA
ENDBRANCH   1   2
BRANCH   1   5
HETATM    5  C3  UNL     1      11.260  -5.997 -37.112  1.00  0.00     0.136 C 
BRANCH   5   6
HETATM    6  N2  UNL     1      10.490  -4.821 -37.456  1.00  0.00    -0.389 N 
ATOM      7  H2  UNL     1      10.493  -4.025 -36.819  1.00  0.00     0.159 HD
BRANCH   6   8
HETATM    8  C4  UNL     1       9.733  -4.743 -38.649  1.00  0.00     0.028 A 
HETATM    9  C5  UNL     1      10.130  -5.408 -39.781  1.00  0.00     0.031 A 
HETATM   10  C6  UNL     1       9.383  -5.322 -40.937  1.00  0.00     0.038 A 
HETATM   11  C7  UNL     1       8.212  -4.573 -41.017  1.00  0.00     0.103 A 
HETATM   12  C8  UNL     1       7.823  -3.908 -39.874  1.00  0.00     0.038 A 
HETATM   13  C9  UNL     1       8.580  -3.995 -38.702  1.00  0.00     0.031 A 
BRANCH  11  14
HETATM   14  N3  UNL     1       7.474  -4.510 -42.224  1.00  0.00    -0.116 N 
HETATM   15  O2  UNL     1       6.369  -3.946 -42.227  1.00  0.00    -0.532 OA
HETATM   16  O3  UNL     1       7.962  -5.061 -43.374  1.00  0.00    -0.532 OA
ENDBRANCH  11  14
ENDBRANCH   6   8
ENDBRANCH   5   6
ENDBRANCH   1   5
BRANCH   1  17
HETATM   17  C10 UNL     1      11.954  -7.407 -35.137  1.00  0.00     0.297 C 
BRANCH  17  18
HETATM   18  N4  UNL     1      11.124  -8.471 -34.541  1.00  0.00    -0.064 N 
ATOM     19  H43 UNL     1      10.375  -8.794 -35.153  1.00  0.00     0.275 HD
ATOM     20  H42 UNL     1      11.606  -9.365 -34.456  1.00  0.00     0.275 HD
ATOM     21  H41 UNL     1      10.791  -8.101 -33.651  1.00  0.00     0.275 HD
ENDBRANCH  17  18
BRANCH  17  22
HETATM   22  C11 UNL     1      12.780  -6.857 -34.056  1.00  0.00     0.205 C 
HETATM   23  O4  UNL     1      13.624  -7.536 -33.405  1.00  0.00    -0.646 OA
HETATM   24  O5  UNL     1      12.653  -5.518 -33.702  1.00  0.00    -0.646 OA
ENDBRANCH  17  22
ENDBRANCH   1  17
TORSDOF 8
ENDMDL
MODEL 2
REMARK VINA RESULT: -5.949764434      1.811      2.204
REMARK  8 active torsions:
REMARK  status: ('A' for Active; 'I' for Inactive)
REMARK    1  A    between atoms: C1_2  and  C2_4 
REMARK    2  A    between atoms: C2_4  and  C3_5 
REMARK    3  A    between atoms: C2_4  and  C10_17 
REMARK    4  A    between atoms: C3_5  and  N2_6 
REMARK    5  A    between atoms: N2_6  and  C4_8 
REMARK    6  A    between atoms: C7_11  and  N3_12 
REMARK    7  A    between atoms: C10_17  and  N4_18 
REMARK    8  A    between atoms: C10_17  and  C11_22 
ROOT
HETATM    1  C2  UNL     1      10.700  -6.280 -35.314  1.00  0.00     0.133 C 
ENDROOT
BRANCH   1   2
HETATM    2  C1  UNL     1       9.336  -6.872 -35.279  1.00  0.00     0.239 C 
HETATM    3  N1  UNL     1       8.760  -7.494 -36.396  1.00  0.00    -0.062 NA
HETATM    4  O1  UNL     1       8.690  -6.808 -34.216  1.00  0.00    -0.276 OA
ENDBRANCH   1   2
BRANCH   1   5
HETATM    5  C3  UNL     1      10.801  -5.588 -36.661  1.00  0.00     0.136 C 
BRANCH   5   6
HETATM    6  N2  UNL     1      11.448  -6.475 -37.605  1.00  0.00    -0.389 N 
ATOM      7  H2  UNL     1      12.165  -7.117 -37.268  1.00  0.00     0.159 HD
BRANCH   6   8
HETATM    8  C4  UNL     1      11.115  -6.478 -38.980  1.00  0.00     0.028 A 
HETATM    9  C5  UNL     1      11.703  -7.365 -39.846  1.00  0.00     0.031 A 
HETATM   10  C6  UNL     1      11.370  -7.356 -41.184  1.00  0.00     0.038 A 
HETATM   11  C7  UNL     1      10.440  -6.467 -41.717  1.00  0.00     0.103 A 
HETATM   12  C8  UNL     1       9.856  -5.580 -40.839  1.00  0.00     0.038 A 
HETATM   13  C9  UNL     1      10.194  -5.589 -39.483  1.00  0.00     0.031 A 
BRANCH  11  14
HETATM   14  N3  UNL     1      10.127  -6.491 -43.099  1.00  0.00    -0.116 N 
HETATM   15  O2  UNL     1       9.727  -5.450 -43.644  1.00  0.00    -0.532 OA
HETATM   16  O3  UNL     1      10.258  -7.637 -43.828  1.00  0.00    -0.532 OA
ENDBRANCH  11  14
ENDBRANCH   6   8
ENDBRANCH   5   6
ENDBRANCH   1   5
BRANCH   1  17
HETATM   17  C10 UNL     1      11.753  -7.353 -35.129  1.00  0.00     0.297 C 
BRANCH  17  18
HETATM   18  N4  UNL     1      11.034  -8.546 -34.642  1.00  0.00    -0.064 N 
ATOM     19  H43 UNL     1      10.437  -8.361 -33.836  1.00  0.00     0.275 HD
ATOM     20  H42 UNL     1      10.296  -8.862 -35.271  1.00  0.00     0.275 HD
ATOM     21  H41 UNL     1      11.749  -9.252 -34.466  1.00  0.00     0.275 HD
ENDBRANCH  17  18
BRANCH  17  22
HETATM   22  C11 UNL     1      12.712  -6.980 -34.084  1.00  0.00     0.205 C 
HETATM   23  O4  UNL     1      13.566  -7.777 -33.600  1.00  0.00    -0.646 OA
HETATM   24  O5  UNL     1      12.711  -5.686 -33.574  1.00  0.00    -0.646 OA
ENDBRANCH  17  22
ENDBRANCH   1  17
TORSDOF 8
ENDMDL
MODEL 3
REMARK VINA RESULT: -5.915156364      2.666      3.374
REMARK  8 active torsions:
REMARK  status: ('A' for Active; 'I' for Inactive)
REMARK    1  A    between atoms: C1_2  and  C2_4 
REMARK    2  A    between atoms: C2_4  and  C3_5 
REMARK    3  A    between atoms: C2_4  and  C10_17 
REMARK    4  A    between atoms: C3_5  and  N2_6 
REMARK    5  A    between atoms: N2_6  and  C4_8 
REMARK    6  A    between atoms: C7_11  and  N3_12 
REMARK    7  A    between atoms: C10_17  and  N4_18 
REMARK    8  A    between atoms: C10_17  and  C11_22 
ROOT
HETATM    1  C2  UNL     1      10.982  -6.316 -35.598  1.00  0.00     0.133 C 
ENDROOT
BRANCH   1   2
HETATM    2  C1  UNL     1       9.596  -6.850 -35.685  1.00  0.00     0.239 C 
HETATM    3  N1  UNL     1       8.696  -6.775 -34.613  1.00  0.00    -0.062 NA
HETATM    4  O1  UNL     1       9.232  -7.381 -36.752  1.00  0.00    -0.276 OA
ENDBRANCH   1   2
BRANCH   1   5
HETATM    5  C3  UNL     1      11.305  -5.812 -36.992  1.00  0.00     0.136 C 
BRANCH   5   6
HETATM    6  N2  UNL     1      12.092  -6.807 -37.688  1.00  0.00    -0.389 N 
ATOM      7  H2  UNL     1      12.657  -7.460 -37.145  1.00  0.00     0.159 HD
BRANCH   6   8
HETATM    8  C4  UNL     1      12.102  -6.902 -39.100  1.00  0.00     0.028 A 
HETATM    9  C5  UNL     1      10.937  -6.820 -39.821  1.00  0.00     0.031 A 
HETATM   10  C6  UNL     1      10.962  -6.914 -41.196  1.00  0.00     0.038 A 
HETATM   11  C7  UNL     1      12.142  -7.094 -41.913  1.00  0.00     0.103 A 
HETATM   12  C8  UNL     1      13.306  -7.176 -41.179  1.00  0.00     0.038 A 
HETATM   13  C9  UNL     1      13.281  -7.080 -39.785  1.00  0.00     0.031 A 
BRANCH  11  14
HETATM   14  N3  UNL     1      12.123  -7.187 -43.326  1.00  0.00    -0.116 N 
HETATM   15  O2  UNL     1      12.940  -7.930 -43.892  1.00  0.00    -0.532 OA
HETATM   16  O3  UNL     1      11.223  -6.474 -44.064  1.00  0.00    -0.532 OA
ENDBRANCH  11  14
ENDBRANCH   6   8
ENDBRANCH   5   6
ENDBRANCH   1   5
BRANCH   1  17
HETATM   17  C10 UNL     1      11.940  -7.393 -35.130  1.00  0.00     0.297 C 
BRANCH  17  18
HETATM   18  N4  UNL     1      11.099  -8.467 -34.568  1.00  0.00    -0.064 N 
ATOM     19  H43 UNL     1      10.781  -8.280 -33.617  1.00  0.00     0.275 HD
ATOM     20  H42 UNL     1      10.176  -8.529 -34.996  1.00  0.00     0.275 HD
ATOM     21  H41 UNL     1      11.646  -9.324 -34.653  1.00  0.00     0.275 HD
ENDBRANCH  17  18
BRANCH  17  22
HETATM   22  C11 UNL     1      12.793  -6.906 -34.040  1.00  0.00     0.205 C 
HETATM   23  O4  UNL     1      13.621  -7.633 -33.421  1.00  0.00    -0.646 OA
HETATM   24  O5  UNL     1      12.712  -5.577 -33.639  1.00  0.00    -0.646 OA
ENDBRANCH  17  22
ENDBRANCH   1  17
TORSDOF 8
ENDMDL
MODEL 4
REMARK VINA RESULT: -5.772813730      2.140      2.875
REMARK  8 active torsions:
REMARK  status: ('A' for Active; 'I' for Inactive)
REMARK    1  A    between atoms: C1_2  and  C2_4 
REMARK    2  A    between atoms: C2_4  and  C3_5 
REMARK    3  A    between atoms: C2_4  and  C10_17 
REMARK    4  A    between atoms: C3_5  and  N2_6 
REMARK    5  A    between atoms: N2_6  and  C4_8 
REMARK    6  A    between atoms: C7_11  and  N3_12 
REMARK    7  A    between atoms: C10_17  and  N4_18 
REMARK    8  A    between atoms: C10_17  and  C11_22 
ROOT
HETATM    1  C2  UNL     1      11.701  -7.006 -37.047  1.00  0.00     0.133 C 
ENDROOT
BRANCH   1   2
HETATM    2  C1  UNL     1      12.784  -7.875 -37.583  1.00  0.00     0.239 C 
HETATM    3  N1  UNL     1      13.823  -7.371 -38.379  1.00  0.00    -0.062 NA
HETATM    4  O1  UNL     1      12.758  -9.090 -37.310  1.00  0.00    -0.276 OA
ENDBRANCH   1   2
BRANCH   1   5
HETATM    5  C3  UNL     1      11.688  -5.784 -37.945  1.00  0.00     0.136 C 
BRANCH   5   6
HETATM    6  N2  UNL     1      10.988  -6.100 -39.171  1.00  0.00    -0.389 N 
ATOM      7  H2  UNL     1      11.309  -6.887 -39.735  1.00  0.00     0.159 HD
BRANCH   6   8
HETATM    8  C4  UNL     1       9.872  -5.351 -39.613  1.00  0.00     0.028 A 
HETATM    9  C5  UNL     1       9.150  -4.579 -38.739  1.00  0.00     0.031 A 
HETATM   10  C6  UNL     1       8.064  -3.855 -39.183  1.00  0.00     0.038 A 
HETATM   11  C7  UNL     1       7.650  -3.866 -40.513  1.00  0.00     0.103 A 
HETATM   12  C8  UNL     1       8.383  -4.646 -41.382  1.00  0.00     0.038 A 
HETATM   13  C9  UNL     1       9.483  -5.380 -40.932  1.00  0.00     0.031 A 
BRANCH  11  14
HETATM   14  N3  UNL     1       6.528  -3.108 -40.928  1.00  0.00    -0.116 N 
HETATM   15  O2  UNL     1       6.713  -2.039 -41.530  1.00  0.00    -0.532 OA
HETATM   16  O3  UNL     1       5.258  -3.538 -40.673  1.00  0.00    -0.532 OA
ENDBRANCH  11  14
ENDBRANCH   6   8
ENDBRANCH   5   6
ENDBRANCH   1   5
BRANCH   1  17
HETATM   17  C10 UNL     1      11.963  -6.662 -35.595  1.00  0.00     0.297 C 
BRANCH  17  18
HETATM   18  N4  UNL     1      13.412  -6.848 -35.389  1.00  0.00    -0.064 N 
ATOM     19  H43 UNL     1      13.819  -7.567 -35.987  1.00  0.00     0.275 HD
ATOM     20  H42 UNL     1      13.976  -6.071 -35.732  1.00  0.00     0.275 HD
ATOM     21  H41 UNL     1      13.532  -7.030 -34.393  1.00  0.00     0.275 HD
ENDBRANCH  17  18
BRANCH  17  22
HETATM   22  C11 UNL     1      11.282  -7.601 -34.696  1.00  0.00     0.205 C 
HETATM   23  O4  UNL     1      10.073  -7.483 -34.348  1.00  0.00    -0.646 OA
HETATM   24  O5  UNL     1      11.975  -8.691 -34.182  1.00  0.00    -0.646 OA
ENDBRANCH  17  22
ENDBRANCH   1  17
TORSDOF 8
ENDMDL
MODEL 5
REMARK VINA RESULT: -5.755607833      2.131      2.759
REMARK  8 active torsions:
REMARK  status: ('A' for Active; 'I' for Inactive)
REMARK    1  A    between atoms: C1_2  and  C2_4 
REMARK    2  A    between atoms: C2_4  and  C3_5 
REMARK    3  A    between atoms: C2_4  and  C10_17 
REMARK    4  A    between atoms: C3_5  and  N2_6 
REMARK    5  A    between atoms: N2_6  and  C4_8 
REMARK    6  A    between atoms: C7_11  and  N3_12 
REMARK    7  A    between atoms: C10_17  and  N4_18 
REMARK    8  A    between atoms: C10_17  and  C11_22 
ROOT
HETATM    1  C2  UNL     1      11.698  -7.006 -37.026  1.00  0.00     0.133 C 
ENDROOT
BRANCH   1   2
HETATM    2  C1  UNL     1      12.780  -7.865 -37.578  1.00  0.00     0.239 C 
HETATM    3  N1  UNL     1      13.814  -7.348 -38.373  1.00  0.00    -0.062 NA
HETATM    4  O1  UNL     1      12.758  -9.083 -37.322  1.00  0.00    -0.276 OA
ENDBRANCH   1   2
BRANCH   1   5
HETATM    5  C3  UNL     1      11.661  -5.782 -37.922  1.00  0.00     0.136 C 
BRANCH   5   6
HETATM    6  N2  UNL     1      10.977  -6.113 -39.154  1.00  0.00    -0.389 N 
ATOM      7  H2  UNL     1      11.303  -6.909 -39.702  1.00  0.00     0.159 HD
BRANCH   6   8
HETATM    8  C4  UNL     1       9.870  -5.367 -39.620  1.00  0.00     0.028 A 
HETATM    9  C5  UNL     1       9.136  -4.583 -38.766  1.00  0.00     0.031 A 
HETATM   10  C6  UNL     1       8.059  -3.861 -39.234  1.00  0.00     0.038 A 
HETATM   11  C7  UNL     1       7.665  -3.887 -40.570  1.00  0.00     0.103 A 
HETATM   12  C8  UNL     1       8.408  -4.679 -41.420  1.00  0.00     0.038 A 
HETATM   13  C9  UNL     1       9.500  -5.410 -40.944  1.00  0.00     0.031 A 
BRANCH  11  14
HETATM   14  N3  UNL     1       6.551  -3.131 -41.010  1.00  0.00    -0.116 N 
HETATM   15  O2  UNL     1       5.407  -3.538 -40.753  1.00  0.00    -0.532 OA
HETATM   16  O3  UNL     1       6.723  -1.972 -41.710  1.00  0.00    -0.532 OA
ENDBRANCH  11  14
ENDBRANCH   6   8
ENDBRANCH   5   6
ENDBRANCH   1   5
BRANCH   1  17
HETATM   17  C10 UNL     1      11.978  -6.660 -35.577  1.00  0.00     0.297 C 
BRANCH  17  18
HETATM   18  N4  UNL     1      13.435  -6.812 -35.399  1.00  0.00    -0.064 N 
ATOM     19  H43 UNL     1      13.816  -7.643 -35.851  1.00  0.00     0.275 HD
ATOM     20  H42 UNL     1      13.983  -6.128 -35.919  1.00  0.00     0.275 HD
ATOM     21  H41 UNL     1      13.597  -6.785 -34.392  1.00  0.00     0.275 HD
ENDBRANCH  17  18
BRANCH  17  22
HETATM   22  C11 UNL     1      11.336  -7.619 -34.670  1.00  0.00     0.205 C 
HETATM   23  O4  UNL     1      11.929  -8.621 -34.180  1.00  0.00    -0.646 OA
HETATM   24  O5  UNL     1      10.005  -7.445 -34.310  1.00  0.00    -0.646 OA
ENDBRANCH  17  22
ENDBRANCH   1  17
TORSDOF 8
ENDMDL
