MODEL 1
REMARK VINA RESULT: -5.407989674      0.000      0.000
REMARK  10 active torsions:
REMARK  status: ('A' for Active; 'I' for Inactive)
REMARK    1  A    between atoms: C1_4  and  S1_6 
REMARK    2  A    between atoms: S1_6  and  C2_7 
REMARK    3  A    between atoms: C2_7  and  C3_8 
REMARK    4  A    between atoms: C3_8  and  C4_10 
REMARK    5  A    between atoms: C7_13  and  N3_14 
REMARK    6  A    between atoms: N3_14  and  C8_15 
REMARK    7  A    between atoms: N3_14  and  N5_21 
REMARK    8  A    between atoms: C8_15  and  C9_16 
REMARK    9  A    between atoms: C9_16  and  N4_17 
REMARK   10  A    between atoms: N5_21  and  O2_23 
ROOT
HETATM    1  C4  UNL     1      12.067  -7.253 -39.055  1.00  0.00     0.011 A 
HETATM    2  C5  UNL     1      11.104  -6.430 -38.523  1.00  0.00     0.017 A 
HETATM    3  C6  UNL     1      10.670  -6.565 -37.204  1.00  0.00     0.032 A 
HETATM    4  C7  UNL     1      11.194  -7.537 -36.378  1.00  0.00     0.052 A 
HETATM    5  C10 UNL     1      12.173  -8.360 -36.951  1.00  0.00     0.032 A 
HETATM    6  C11 UNL     1      12.604  -8.232 -38.245  1.00  0.00     0.017 A 
ENDROOT
BRANCH   4   7
HETATM    7  N3  UNL     1      10.809  -7.720 -35.018  1.00  0.00    -0.272 N 
BRANCH   7   8
HETATM    8  C8  UNL     1      11.711  -7.663 -33.895  1.00  0.00     0.178 C 
BRANCH   8   9
HETATM    9  C9  UNL     1      12.580  -6.428 -33.896  1.00  0.00     0.251 C 
BRANCH   9  10
HETATM   10  N4  UNL     1      13.947  -6.736 -34.290  1.00  0.00    -0.078 N 
ATOM     11  H43 UNL     1      14.068  -7.733 -34.466  1.00  0.00     0.274 HD
ATOM     12  H42 UNL     1      14.153  -6.383 -35.224  1.00  0.00     0.274 HD
ATOM     13  H41 UNL     1      14.620  -6.393 -33.604  1.00  0.00     0.274 HD
ENDBRANCH   9  10
ENDBRANCH   8   9
ENDBRANCH   7   8
BRANCH   7  14
HETATM   14  N5  UNL     1       9.461  -7.965 -34.739  1.00  0.00    -0.207 N 
ATOM     15  H5  UNL     1       9.090  -8.899 -34.916  1.00  0.00     0.216 HD
BRANCH  14  16
HETATM   16  O2  UNL     1       8.694  -7.100 -34.286  1.00  0.00    -0.274 OA
ATOM     17  H2  UNL     1       8.627  -6.899 -33.360  1.00  0.00     0.246 HD
ENDBRANCH  14  16
ENDBRANCH   7  14
ENDBRANCH   4   7
BRANCH   1  18
HETATM   18  C3  UNL     1      12.487  -7.068 -40.440  1.00  0.00     0.169 C 
HETATM   19  O1  UNL     1      11.630  -7.108 -41.355  1.00  0.00    -0.291 OA
BRANCH  18  20
HETATM   20  C2  UNL     1      13.891  -6.829 -40.830  1.00  0.00     0.165 C 
BRANCH  20  21
HETATM   21  S1  UNL     1      14.756  -5.579 -39.921  1.00  0.00    -0.090 SA
BRANCH  21  22
HETATM   22  C1  UNL     1      15.419  -6.059 -38.355  1.00  0.00     0.148 C 
HETATM   23  N1  UNL     1      16.434  -6.822 -38.182  1.00  0.00    -0.382 N 
ATOM     24  H12 UNL     1      16.816  -7.099 -37.277  1.00  0.00     0.157 HD
ATOM     25  H11 UNL     1      16.918  -7.192 -38.999  1.00  0.00     0.157 HD
HETATM   26  N2  UNL     1      14.733  -5.535 -37.196  1.00  0.00    -0.075 NA
ENDBRANCH  21  22
ENDBRANCH  20  21
ENDBRANCH  18  20
ENDBRANCH   1  18
TORSDOF 10
ENDMDL
MODEL 2
REMARK VINA RESULT: -5.320156128      3.697      4.801
REMARK  10 active torsions:
REMARK  status: ('A' for Active; 'I' for Inactive)
REMARK    1  A    between atoms: C1_4  and  S1_6 
REMARK    2  A    between atoms: S1_6  and  C2_7 
REMARK    3  A    between atoms: C2_7  and  C3_8 
REMARK    4  A    between atoms: C3_8  and  C4_10 
REMARK    5  A    between atoms: C7_13  and  N3_14 
REMARK    6  A    between atoms: N3_14  and  C8_15 
REMARK    7  A    between atoms: N3_14  and  N5_21 
REMARK    8  A    between atoms: C8_15  and  C9_16 
REMARK    9  A    between atoms: C9_16  and  N4_17 
REMARK   10  A    between atoms: N5_21  and  O2_23 
ROOT
HETATM    1  C4  UNL     1      10.391  -4.635 -38.475  1.00  0.00     0.011 A 
HETATM    2  C5  UNL     1      10.764  -4.203 -37.225  1.00  0.00     0.017 A 
HETATM    3  C6  UNL     1      10.847  -5.077 -36.140  1.00  0.00     0.032 A 
HETATM    4  C7  UNL     1      10.553  -6.417 -36.281  1.00  0.00     0.052 A 
HETATM    5  C10 UNL     1      10.176  -6.825 -37.568  1.00  0.00     0.032 A 
HETATM    6  C11 UNL     1      10.093  -5.972 -38.637  1.00  0.00     0.017 A 
ENDROOT
BRANCH   4   7
HETATM    7  N3  UNL     1      10.632  -7.366 -35.221  1.00  0.00    -0.272 N 
BRANCH   7   8
HETATM    8  C8  UNL     1      11.859  -7.926 -34.710  1.00  0.00     0.178 C 
BRANCH   8   9
HETATM    9  C9  UNL     1      12.658  -6.946 -33.885  1.00  0.00     0.251 C 
BRANCH   9  10
HETATM   10  N4  UNL     1      13.829  -6.470 -34.606  1.00  0.00    -0.078 N 
ATOM     11  H43 UNL     1      13.733  -6.614 -35.611  1.00  0.00     0.274 HD
ATOM     12  H42 UNL     1      13.884  -5.451 -34.596  1.00  0.00     0.274 HD
ATOM     13  H41 UNL     1      14.687  -6.892 -34.249  1.00  0.00     0.274 HD
ENDBRANCH   9  10
ENDBRANCH   8   9
ENDBRANCH   7   8
BRANCH   7  14
HETATM   14  N5  UNL     1       9.442  -7.787 -34.619  1.00  0.00    -0.207 N 
ATOM     15  H5  UNL     1       9.290  -8.788 -34.492  1.00  0.00     0.216 HD
BRANCH  14  16
HETATM   16  O2  UNL     1       8.562  -7.001 -34.232  1.00  0.00    -0.274 OA
ATOM     17  H2  UNL     1       7.633  -7.174 -34.329  1.00  0.00     0.246 HD
ENDBRANCH  14  16
ENDBRANCH   7  14
ENDBRANCH   4   7
BRANCH   1  18
HETATM   18  C3  UNL     1      10.323  -3.681 -39.576  1.00  0.00     0.169 C 
HETATM   19  O1  UNL     1      10.857  -3.967 -40.674  1.00  0.00    -0.291 OA
BRANCH  18  20
HETATM   20  C2  UNL     1       9.647  -2.373 -39.467  1.00  0.00     0.165 C 
BRANCH  20  21
HETATM   21  S1  UNL     1       8.211  -2.144 -40.478  1.00  0.00    -0.090 SA
BRANCH  21  22
HETATM   22  C1  UNL     1       7.120  -3.528 -40.623  1.00  0.00     0.148 C 
HETATM   23  N1  UNL     1       6.058  -3.710 -39.931  1.00  0.00    -0.382 N 
ATOM     24  H12 UNL     1       5.429  -4.509 -40.016  1.00  0.00     0.157 HD
ATOM     25  H11 UNL     1       5.797  -3.013 -39.235  1.00  0.00     0.157 HD
HETATM   26  N2  UNL     1       7.491  -4.517 -41.610  1.00  0.00    -0.075 NA
ENDBRANCH  21  22
ENDBRANCH  20  21
ENDBRANCH  18  20
ENDBRANCH   1  18
TORSDOF 10
ENDMDL
MODEL 3
REMARK VINA RESULT: -5.318073640      1.802      2.411
REMARK  10 active torsions:
REMARK  status: ('A' for Active; 'I' for Inactive)
REMARK    1  A    between atoms: C1_4  and  S1_6 
REMARK    2  A    between atoms: S1_6  and  C2_7 
REMARK    3  A    between atoms: C2_7  and  C3_8 
REMARK    4  A    between atoms: C3_8  and  C4_10 
REMARK    5  A    between atoms: C7_13  and  N3_14 
REMARK    6  A    between atoms: N3_14  and  C8_15 
REMARK    7  A    between atoms: N3_14  and  N5_21 
REMARK    8  A    between atoms: C8_15  and  C9_16 
REMARK    9  A    between atoms: C9_16  and  N4_17 
REMARK   10  A    between atoms: N5_21  and  O2_23 
ROOT
HETATM    1  C4  UNL     1      11.246  -6.499 -39.193  1.00  0.00     0.011 A 
HETATM    2  C5  UNL     1      12.150  -7.320 -38.563  1.00  0.00     0.017 A 
HETATM    3  C6  UNL     1      11.981  -7.715 -37.235  1.00  0.00     0.032 A 
HETATM    4  C7  UNL     1      10.894  -7.293 -36.499  1.00  0.00     0.052 A 
HETATM    5  C10 UNL     1       9.991  -6.457 -37.171  1.00  0.00     0.032 A 
HETATM    6  C11 UNL     1      10.152  -6.066 -38.474  1.00  0.00     0.017 A 
ENDROOT
BRANCH   4   7
HETATM    7  N3  UNL     1      10.651  -7.671 -35.147  1.00  0.00    -0.272 N 
BRANCH   7   8
HETATM    8  C8  UNL     1      11.673  -7.823 -34.141  1.00  0.00     0.178 C 
BRANCH   8   9
HETATM    9  C9  UNL     1      12.478  -6.564 -33.920  1.00  0.00     0.251 C 
BRANCH   9  10
HETATM   10  N4  UNL     1      13.870  -6.745 -34.305  1.00  0.00    -0.078 N 
ATOM     11  H43 UNL     1      13.956  -7.360 -35.114  1.00  0.00     0.274 HD
ATOM     12  H42 UNL     1      14.257  -5.894 -34.712  1.00  0.00     0.274 HD
ATOM     13  H41 UNL     1      14.436  -7.075 -33.523  1.00  0.00     0.274 HD
ENDBRANCH   9  10
ENDBRANCH   8   9
ENDBRANCH   7   8
BRANCH   7  14
HETATM   14  N5  UNL     1       9.331  -7.905 -34.751  1.00  0.00    -0.207 N 
ATOM     15  H5  UNL     1       8.892  -8.786 -35.021  1.00  0.00     0.216 HD
BRANCH  14  16
HETATM   16  O2  UNL     1       8.666  -7.092 -34.088  1.00  0.00    -0.274 OA
ATOM     17  H2  UNL     1       8.973  -6.714 -33.273  1.00  0.00     0.246 HD
ENDBRANCH  14  16
ENDBRANCH   7  14
ENDBRANCH   4   7
BRANCH   1  18
HETATM   18  C3  UNL     1      11.469  -6.118 -40.584  1.00  0.00     0.169 C 
HETATM   19  O1  UNL     1      10.790  -6.661 -41.488  1.00  0.00    -0.291 OA
BRANCH  18  20
HETATM   20  C2  UNL     1      12.465  -5.108 -40.992  1.00  0.00     0.165 C 
BRANCH  20  21
HETATM   21  S1  UNL     1      14.033  -5.727 -41.536  1.00  0.00    -0.090 SA
BRANCH  21  22
HETATM   22  C1  UNL     1      14.090  -7.432 -42.000  1.00  0.00     0.148 C 
HETATM   23  N1  UNL     1      13.441  -7.957 -42.972  1.00  0.00    -0.382 N 
ATOM     24  H12 UNL     1      13.475  -8.941 -43.240  1.00  0.00     0.157 HD
ATOM     25  H11 UNL     1      12.839  -7.364 -43.541  1.00  0.00     0.157 HD
HETATM   26  N2  UNL     1      14.944  -8.273 -41.193  1.00  0.00    -0.075 NA
ENDBRANCH  21  22
ENDBRANCH  20  21
ENDBRANCH  18  20
ENDBRANCH   1  18
TORSDOF 10
ENDMDL
MODEL 4
REMARK VINA RESULT: -5.303826308      3.314      4.201
REMARK  10 active torsions:
REMARK  status: ('A' for Active; 'I' for Inactive)
REMARK    1  A    between atoms: C1_4  and  S1_6 
REMARK    2  A    between atoms: S1_6  and  C2_7 
REMARK    3  A    between atoms: C2_7  and  C3_8 
REMARK    4  A    between atoms: C3_8  and  C4_10 
REMARK    5  A    between atoms: C7_13  and  N3_14 
REMARK    6  A    between atoms: N3_14  and  C8_15 
REMARK    7  A    between atoms: N3_14  and  N5_21 
REMARK    8  A    between atoms: C8_15  and  C9_16 
REMARK    9  A    between atoms: C9_16  and  N4_17 
REMARK   10  A    between atoms: N5_21  and  O2_23 
ROOT
HETATM    1  C4  UNL     1      10.651  -5.771 -39.041  1.00  0.00     0.011 A 
HETATM    2  C5  UNL     1       9.728  -5.408 -38.090  1.00  0.00     0.017 A 
HETATM    3  C6  UNL     1       9.702  -6.002 -36.827  1.00  0.00     0.032 A 
HETATM    4  C7  UNL     1      10.608  -6.984 -36.484  1.00  0.00     0.052 A 
HETATM    5  C10 UNL     1      11.535  -7.331 -37.476  1.00  0.00     0.032 A 
HETATM    6  C11 UNL     1      11.565  -6.751 -38.717  1.00  0.00     0.017 A 
ENDROOT
BRANCH   4   7
HETATM    7  N3  UNL     1      10.649  -7.621 -35.210  1.00  0.00    -0.272 N 
BRANCH   7   8
HETATM    8  C8  UNL     1      11.858  -7.961 -34.501  1.00  0.00     0.178 C 
BRANCH   8   9
HETATM    9  C9  UNL     1      12.561  -6.758 -33.919  1.00  0.00     0.251 C 
BRANCH   9  10
HETATM   10  N4  UNL     1      13.798  -6.465 -34.628  1.00  0.00    -0.078 N 
ATOM     11  H43 UNL     1      14.371  -7.302 -34.737  1.00  0.00     0.274 HD
ATOM     12  H42 UNL     1      13.624  -6.263 -35.612  1.00  0.00     0.274 HD
ATOM     13  H41 UNL     1      14.319  -5.712 -34.178  1.00  0.00     0.274 HD
ENDBRANCH   9  10
ENDBRANCH   8   9
ENDBRANCH   7   8
BRANCH   7  14
HETATM   14  N5  UNL     1       9.437  -7.936 -34.587  1.00  0.00    -0.207 N 
ATOM     15  H5  UNL     1       9.150  -8.914 -34.550  1.00  0.00     0.216 HD
BRANCH  14  16
HETATM   16  O2  UNL     1       8.694  -7.082 -34.078  1.00  0.00    -0.274 OA
ATOM     17  H2  UNL     1       7.775  -7.237 -33.895  1.00  0.00     0.246 HD
ENDBRANCH  14  16
ENDBRANCH   7  14
ENDBRANCH   4   7
BRANCH   1  18
HETATM   18  C3  UNL     1      10.635  -5.116 -40.345  1.00  0.00     0.169 C 
HETATM   19  O1  UNL     1      10.551  -5.813 -41.384  1.00  0.00    -0.291 OA
BRANCH  18  20
HETATM   20  C2  UNL     1      10.713  -3.651 -40.511  1.00  0.00     0.165 C 
BRANCH  20  21
HETATM   21  S1  UNL     1       9.214  -2.833 -40.981  1.00  0.00    -0.090 SA
BRANCH  21  22
HETATM   22  C1  UNL     1       7.721  -3.764 -40.813  1.00  0.00     0.148 C 
HETATM   23  N1  UNL     1       6.939  -3.734 -39.799  1.00  0.00    -0.382 N 
ATOM     24  H12 UNL     1       6.078  -4.271 -39.702  1.00  0.00     0.157 HD
ATOM     25  H11 UNL     1       7.173  -3.128 -39.013  1.00  0.00     0.157 HD
HETATM   26  N2  UNL     1       7.389  -4.623 -41.926  1.00  0.00    -0.075 NA
ENDBRANCH  21  22
ENDBRANCH  20  21
ENDBRANCH  18  20
ENDBRANCH   1  18
TORSDOF 10
ENDMDL
MODEL 5
REMARK VINA RESULT: -5.301045397      1.844      2.615
REMARK  10 active torsions:
REMARK  status: ('A' for Active; 'I' for Inactive)
REMARK    1  A    between atoms: C1_4  and  S1_6 
REMARK    2  A    between atoms: S1_6  and  C2_7 
REMARK    3  A    between atoms: C2_7  and  C3_8 
REMARK    4  A    between atoms: C3_8  and  C4_10 
REMARK    5  A    between atoms: C7_13  and  N3_14 
REMARK    6  A    between atoms: N3_14  and  C8_15 
REMARK    7  A    between atoms: N3_14  and  N5_21 
REMARK    8  A    between atoms: C8_15  and  C9_16 
REMARK    9  A    between atoms: C9_16  and  N4_17 
REMARK   10  A    between atoms: N5_21  and  O2_23 
ROOT
HETATM    1  C4  UNL     1      13.109  -6.279 -39.065  1.00  0.00     0.011 A 
HETATM    2  C5  UNL     1      13.071  -5.363 -38.042  1.00  0.00     0.017 A 
HETATM    3  C6  UNL     1      12.815  -5.743 -36.724  1.00  0.00     0.032 A 
HETATM    4  C7  UNL     1      12.586  -7.063 -36.397  1.00  0.00     0.052 A 
HETATM    5  C10 UNL     1      12.632  -7.972 -37.463  1.00  0.00     0.032 A 
HETATM    6  C11 UNL     1      12.883  -7.604 -38.758  1.00  0.00     0.017 A 
ENDROOT
BRANCH   4   7
HETATM    7  N3  UNL     1      12.335  -7.524 -35.072  1.00  0.00    -0.272 N 
BRANCH   7   8
HETATM    8  C8  UNL     1      11.108  -8.145 -34.638  1.00  0.00     0.178 C 
BRANCH   8   9
HETATM    9  C9  UNL     1       9.876  -7.380 -35.058  1.00  0.00     0.251 C 
BRANCH   9  10
HETATM   10  N4  UNL     1       8.667  -8.166 -34.867  1.00  0.00    -0.078 N 
ATOM     11  H43 UNL     1       7.870  -7.573 -34.634  1.00  0.00     0.274 HD
ATOM     12  H42 UNL     1       8.327  -8.548 -35.749  1.00  0.00     0.274 HD
ATOM     13  H41 UNL     1       8.802  -8.900 -34.171  1.00  0.00     0.274 HD
ENDBRANCH   9  10
ENDBRANCH   8   9
ENDBRANCH   7   8
BRANCH   7  14
HETATM   14  N5  UNL     1      13.345  -7.376 -34.117  1.00  0.00    -0.207 N 
ATOM     15  H5  UNL     1      14.269  -7.756 -34.324  1.00  0.00     0.216 HD
BRANCH  14  16
HETATM   16  O2  UNL     1      13.172  -6.804 -33.028  1.00  0.00    -0.274 OA
ATOM     17  H2  UNL     1      12.616  -7.153 -32.341  1.00  0.00     0.246 HD
ENDBRANCH  14  16
ENDBRANCH   7  14
ENDBRANCH   4   7
BRANCH   1  18
HETATM   18  C3  UNL     1      13.384  -5.827 -40.426  1.00  0.00     0.169 C 
HETATM   19  O1  UNL     1      12.566  -5.072 -41.002  1.00  0.00    -0.291 OA
BRANCH  18  20
HETATM   20  C2  UNL     1      14.596  -6.217 -41.173  1.00  0.00     0.165 C 
BRANCH  20  21
HETATM   21  S1  UNL     1      16.147  -5.813 -40.420  1.00  0.00    -0.090 SA
BRANCH  21  22
HETATM   22  C1  UNL     1      16.699  -6.884 -39.126  1.00  0.00     0.148 C 
HETATM   23  N1  UNL     1      16.590  -6.648 -37.872  1.00  0.00    -0.382 N 
ATOM     24  H12 UNL     1      16.909  -7.266 -37.126  1.00  0.00     0.157 HD
ATOM     25  H11 UNL     1      16.149  -5.780 -37.570  1.00  0.00     0.157 HD
HETATM   26  N2  UNL     1      17.325  -8.114 -39.555  1.00  0.00    -0.075 NA
ENDBRANCH  21  22
ENDBRANCH  20  21
ENDBRANCH  18  20
ENDBRANCH   1  18
TORSDOF 10
ENDMDL
