MODEL 1
REMARK VINA RESULT: -6.207585935      0.000      0.000
REMARK  8 active torsions:
REMARK  status: ('A' for Active; 'I' for Inactive)
REMARK    1  A    between atoms: N1_1  and  N2_4 
REMARK       I    between atoms: N2_4  and  C1_6 
REMARK    2  A    between atoms: C1_6  and  C2_8 
REMARK    3  A    between atoms: C2_8  and  C3_9 
REMARK    4  A    between atoms: C3_9  and  N3_10 
REMARK    5  A    between atoms: N3_10  and  C4_13 
REMARK    6  A    between atoms: C4_13  and  C5_14 
REMARK       I    between atoms: C5_14  and  N4_16 
REMARK    7  A    between atoms: N4_16  and  C6_18 
REMARK    8  A    between atoms: C10_22  and  N5_23 
ROOT
HETATM    1  C4  UNL     1      11.322  -4.913 -36.324  1.00  0.00     0.334 C 
ENDROOT
BRANCH   1   2
HETATM    2  N3  UNL     1      12.153  -6.058 -36.146  1.00  0.00    -0.066 N 
ATOM      3  H32 UNL     1      12.879  -6.105 -36.859  1.00  0.00     0.277 HD
ATOM      4  H31 UNL     1      11.653  -6.919 -36.371  1.00  0.00     0.277 HD
BRANCH   2   5
HETATM    5  C3  UNL     1      12.711  -6.107 -34.827  1.00  0.00     0.242 C 
BRANCH   5   6
HETATM    6  C2  UNL     1      12.413  -7.409 -34.169  1.00  0.00     0.132 C 
BRANCH   6   7
HETATM    7  C1  UNL     1      11.201  -8.067 -34.775  1.00  0.00     0.237 C 
HETATM    8  N2  UNL     1       9.907  -7.671 -34.385  1.00  0.00    -0.277 N 
ATOM      9  H2  UNL     1       9.824  -6.932 -33.685  1.00  0.00     0.189 HD
HETATM   10  O1  UNL     1      11.318  -8.980 -35.639  1.00  0.00    -0.272 OA
BRANCH   8  11
HETATM   11  N1  UNL     1       8.737  -8.220 -34.890  1.00  0.00    -0.343 N 
ATOM     12  H12 UNL     1       8.366  -9.038 -34.406  1.00  0.00     0.176 HD
ATOM     13  H11 UNL     1       8.238  -7.858 -35.703  1.00  0.00     0.176 HD
ENDBRANCH   8  11
ENDBRANCH   6   7
ENDBRANCH   5   6
ENDBRANCH   2   5
ENDBRANCH   1   2
BRANCH   1  14
HETATM   14  C5  UNL     1      10.240  -5.148 -37.350  1.00  0.00     0.247 C 
HETATM   15  O2  UNL     1       9.459  -6.082 -37.094  1.00  0.00    -0.271 OA
HETATM   16  N4  UNL     1      10.205  -4.325 -38.467  1.00  0.00    -0.326 N 
ATOM     17  H4  UNL     1      10.929  -3.609 -38.518  1.00  0.00     0.169 HD
BRANCH  16  18
HETATM   18  C6  UNL     1       9.284  -4.358 -39.549  1.00  0.00     0.037 A 
HETATM   19  C7  UNL     1       9.525  -4.963 -40.757  1.00  0.00     0.029 A 
HETATM   20  C8  UNL     1       8.577  -4.958 -41.792  1.00  0.00     0.005 A 
HETATM   21  C9  UNL     1       7.356  -4.341 -41.639  1.00  0.00     0.036 A 
HETATM   22  C10 UNL     1       7.109  -3.731 -40.430  1.00  0.00     0.105 A 
HETATM   23  C11 UNL     1       8.036  -3.735 -39.414  1.00  0.00     0.065 A 
BRANCH  22  24
HETATM   24  N5  UNL     1       5.854  -3.090 -40.252  1.00  0.00    -0.116 N 
HETATM   25  O3  UNL     1       4.781  -3.720 -40.276  1.00  0.00    -0.532 OA
HETATM   26  O4  UNL     1       5.813  -1.729 -40.046  1.00  0.00    -0.532 OA
ENDBRANCH  22  24
ENDBRANCH  16  18
ENDBRANCH   1  14
TORSDOF 8
ENDMDL
MODEL 2
REMARK VINA RESULT: -6.011185234      2.084      2.472
REMARK  8 active torsions:
REMARK  status: ('A' for Active; 'I' for Inactive)
REMARK    1  A    between atoms: N1_1  and  N2_4 
REMARK       I    between atoms: N2_4  and  C1_6 
REMARK    2  A    between atoms: C1_6  and  C2_8 
REMARK    3  A    between atoms: C2_8  and  C3_9 
REMARK    4  A    between atoms: C3_9  and  N3_10 
REMARK    5  A    between atoms: N3_10  and  C4_13 
REMARK    6  A    between atoms: C4_13  and  C5_14 
REMARK       I    between atoms: C5_14  and  N4_16 
REMARK    7  A    between atoms: N4_16  and  C6_18 
REMARK    8  A    between atoms: C10_22  and  N5_23 
ROOT
HETATM    1  C4  UNL     1      11.442  -4.942 -36.251  1.00  0.00     0.334 C 
ENDROOT
BRANCH   1   2
HETATM    2  N3  UNL     1      12.210  -6.134 -36.097  1.00  0.00    -0.066 N 
ATOM      3  H32 UNL     1      12.913  -6.221 -36.830  1.00  0.00     0.277 HD
ATOM      4  H31 UNL     1      11.655  -6.964 -36.309  1.00  0.00     0.277 HD
BRANCH   2   5
HETATM    5  C3  UNL     1      12.800  -6.219 -34.795  1.00  0.00     0.242 C 
BRANCH   5   6
HETATM    6  C2  UNL     1      12.431  -7.496 -34.123  1.00  0.00     0.132 C 
BRANCH   6   7
HETATM    7  C1  UNL     1      11.209  -8.113 -34.750  1.00  0.00     0.237 C 
HETATM    8  N2  UNL     1       9.921  -7.703 -34.352  1.00  0.00    -0.277 N 
ATOM      9  H2  UNL     1       9.850  -6.983 -33.632  1.00  0.00     0.189 HD
HETATM   10  O1  UNL     1      11.310  -9.005 -35.639  1.00  0.00    -0.272 OA
BRANCH   8  11
HETATM   11  N1  UNL     1       8.742  -8.215 -34.875  1.00  0.00    -0.343 N 
ATOM     12  H12 UNL     1       8.652  -9.232 -34.899  1.00  0.00     0.176 HD
ATOM     13  H11 UNL     1       7.975  -7.643 -35.229  1.00  0.00     0.176 HD
ENDBRANCH   8  11
ENDBRANCH   6   7
ENDBRANCH   5   6
ENDBRANCH   2   5
ENDBRANCH   1   2
BRANCH   1  14
HETATM   14  C5  UNL     1      10.299  -5.121 -37.220  1.00  0.00     0.247 C 
HETATM   15  O2  UNL     1       9.470  -5.994 -36.908  1.00  0.00    -0.271 OA
HETATM   16  N4  UNL     1      10.267  -4.319 -38.352  1.00  0.00    -0.326 N 
ATOM     17  H4  UNL     1      11.035  -3.655 -38.453  1.00  0.00     0.169 HD
BRANCH  16  18
HETATM   18  C6  UNL     1       9.296  -4.308 -39.390  1.00  0.00     0.037 A 
HETATM   19  C7  UNL     1       8.052  -3.739 -39.284  1.00  0.00     0.029 A 
HETATM   20  C8  UNL     1       7.132  -3.765 -40.344  1.00  0.00     0.005 A 
HETATM   21  C9  UNL     1       7.441  -4.366 -41.544  1.00  0.00     0.036 A 
HETATM   22  C10 UNL     1       8.687  -4.939 -41.655  1.00  0.00     0.105 A 
HETATM   23  C11 UNL     1       9.590  -4.915 -40.618  1.00  0.00     0.065 A 
BRANCH  22  24
HETATM   24  N5  UNL     1       9.026  -5.563 -42.885  1.00  0.00    -0.116 N 
HETATM   25  O3  UNL     1       8.267  -5.533 -43.871  1.00  0.00    -0.532 OA
HETATM   26  O4  UNL     1      10.226  -6.227 -43.000  1.00  0.00    -0.532 OA
ENDBRANCH  22  24
ENDBRANCH  16  18
ENDBRANCH   1  14
TORSDOF 8
ENDMDL
MODEL 3
REMARK VINA RESULT: -5.874608274      2.569      3.393
REMARK  8 active torsions:
REMARK  status: ('A' for Active; 'I' for Inactive)
REMARK    1  A    between atoms: N1_1  and  N2_4 
REMARK       I    between atoms: N2_4  and  C1_6 
REMARK    2  A    between atoms: C1_6  and  C2_8 
REMARK    3  A    between atoms: C2_8  and  C3_9 
REMARK    4  A    between atoms: C3_9  and  N3_10 
REMARK    5  A    between atoms: N3_10  and  C4_13 
REMARK    6  A    between atoms: C4_13  and  C5_14 
REMARK       I    between atoms: C5_14  and  N4_16 
REMARK    7  A    between atoms: N4_16  and  C6_18 
REMARK    8  A    between atoms: C10_22  and  N5_23 
ROOT
HETATM    1  C4  UNL     1      11.706  -5.035 -36.106  1.00  0.00     0.334 C 
ENDROOT
BRANCH   1   2
HETATM    2  N3  UNL     1      12.652  -6.072 -35.855  1.00  0.00    -0.066 N 
ATOM      3  H32 UNL     1      13.524  -5.909 -36.357  1.00  0.00     0.277 HD
ATOM      4  H31 UNL     1      12.373  -6.946 -36.299  1.00  0.00     0.277 HD
BRANCH   2   5
HETATM    5  C3  UNL     1      12.883  -6.250 -34.452  1.00  0.00     0.242 C 
BRANCH   5   6
HETATM    6  C2  UNL     1      12.561  -7.641 -34.029  1.00  0.00     0.132 C 
BRANCH   6   7
HETATM    7  C1  UNL     1      11.330  -8.156 -34.727  1.00  0.00     0.237 C 
HETATM    8  N2  UNL     1      10.050  -7.746 -34.305  1.00  0.00    -0.277 N 
ATOM      9  H2  UNL     1       9.990  -7.097 -33.520  1.00  0.00     0.189 HD
HETATM   10  O1  UNL     1      11.417  -8.959 -35.697  1.00  0.00    -0.272 OA
BRANCH   8  11
HETATM   11  N1  UNL     1       8.863  -8.169 -34.889  1.00  0.00    -0.343 N 
ATOM     12  H12 UNL     1       8.675  -7.843 -35.837  1.00  0.00     0.176 HD
ATOM     13  H11 UNL     1       8.183  -8.776 -34.430  1.00  0.00     0.176 HD
ENDBRANCH   8  11
ENDBRANCH   6   7
ENDBRANCH   5   6
ENDBRANCH   2   5
ENDBRANCH   1   2
BRANCH   1  14
HETATM   14  C5  UNL     1      10.802  -5.358 -37.270  1.00  0.00     0.247 C 
HETATM   15  O2  UNL     1       9.790  -6.024 -36.987  1.00  0.00    -0.271 OA
HETATM   16  N4  UNL     1      11.163  -4.900 -38.529  1.00  0.00    -0.326 N 
ATOM     17  H4  UNL     1      12.032  -4.369 -38.580  1.00  0.00     0.169 HD
BRANCH  16  18
HETATM   18  C6  UNL     1      10.470  -5.078 -39.757  1.00  0.00     0.037 A 
HETATM   19  C7  UNL     1       9.327  -4.406 -40.110  1.00  0.00     0.029 A 
HETATM   20  C8  UNL     1       8.684  -4.629 -41.338  1.00  0.00     0.005 A 
HETATM   21  C9  UNL     1       9.176  -5.538 -42.247  1.00  0.00     0.036 A 
HETATM   22  C10 UNL     1      10.322  -6.216 -41.898  1.00  0.00     0.105 A 
HETATM   23  C11 UNL     1      10.954  -5.999 -40.696  1.00  0.00     0.065 A 
BRANCH  22  24
HETATM   24  N5  UNL     1      10.846  -7.158 -42.823  1.00  0.00    -0.116 N 
HETATM   25  O3  UNL     1      10.143  -7.671 -43.713  1.00  0.00    -0.532 OA
HETATM   26  O4  UNL     1      12.171  -7.522 -42.741  1.00  0.00    -0.532 OA
ENDBRANCH  22  24
ENDBRANCH  16  18
ENDBRANCH   1  14
TORSDOF 8
ENDMDL
MODEL 4
REMARK VINA RESULT: -5.822494763      2.144      7.087
REMARK  8 active torsions:
REMARK  status: ('A' for Active; 'I' for Inactive)
REMARK    1  A    between atoms: N1_1  and  N2_4 
REMARK       I    between atoms: N2_4  and  C1_6 
REMARK    2  A    between atoms: C1_6  and  C2_8 
REMARK    3  A    between atoms: C2_8  and  C3_9 
REMARK    4  A    between atoms: C3_9  and  N3_10 
REMARK    5  A    between atoms: N3_10  and  C4_13 
REMARK    6  A    between atoms: C4_13  and  C5_14 
REMARK       I    between atoms: C5_14  and  N4_16 
REMARK    7  A    between atoms: N4_16  and  C6_18 
REMARK    8  A    between atoms: C10_22  and  N5_23 
ROOT
HETATM    1  C4  UNL     1      11.375  -4.944 -40.521  1.00  0.00     0.334 C 
ENDROOT
BRANCH   1   2
HETATM    2  N3  UNL     1      10.445  -3.864 -40.479  1.00  0.00    -0.066 N 
ATOM      3  H32 UNL     1      10.916  -2.964 -40.558  1.00  0.00     0.277 HD
ATOM      4  H31 UNL     1      10.046  -3.753 -39.546  1.00  0.00     0.277 HD
BRANCH   2   5
HETATM    5  C3  UNL     1       9.422  -4.008 -41.471  1.00  0.00     0.242 C 
BRANCH   5   6
HETATM    6  C2  UNL     1       8.130  -4.416 -40.852  1.00  0.00     0.132 C 
BRANCH   6   7
HETATM    7  C1  UNL     1       7.831  -3.603 -39.620  1.00  0.00     0.237 C 
HETATM    8  N2  UNL     1       6.872  -2.571 -39.665  1.00  0.00    -0.277 N 
ATOM      9  H2  UNL     1       6.397  -2.399 -40.551  1.00  0.00     0.189 HD
HETATM   10  O1  UNL     1       8.427  -3.825 -38.529  1.00  0.00    -0.272 OA
BRANCH   8  11
HETATM   11  N1  UNL     1       6.533  -1.773 -38.581  1.00  0.00    -0.343 N 
ATOM     12  H12 UNL     1       5.891  -2.174 -37.897  1.00  0.00     0.176 HD
ATOM     13  H11 UNL     1       6.885  -0.827 -38.433  1.00  0.00     0.176 HD
ENDBRANCH   8  11
ENDBRANCH   6   7
ENDBRANCH   5   6
ENDBRANCH   2   5
ENDBRANCH   1   2
BRANCH   1  14
HETATM   14  C5  UNL     1      11.124  -5.956 -39.430  1.00  0.00     0.247 C 
HETATM   15  O2  UNL     1      11.254  -7.146 -39.770  1.00  0.00    -0.271 OA
HETATM   16  N4  UNL     1      10.776  -5.491 -38.170  1.00  0.00    -0.326 N 
ATOM     17  H4  UNL     1      10.710  -4.478 -38.069  1.00  0.00     0.169 HD
BRANCH  16  18
HETATM   18  C6  UNL     1      10.499  -6.252 -37.002  1.00  0.00     0.037 A 
HETATM   19  C7  UNL     1       9.258  -6.724 -36.657  1.00  0.00     0.029 A 
HETATM   20  C8  UNL     1       9.045  -7.467 -35.486  1.00  0.00     0.005 A 
HETATM   21  C9  UNL     1      10.081  -7.756 -34.626  1.00  0.00     0.036 A 
HETATM   22  C10 UNL     1      11.329  -7.284 -34.965  1.00  0.00     0.105 A 
HETATM   23  C11 UNL     1      11.539  -6.556 -36.113  1.00  0.00     0.065 A 
BRANCH  22  24
HETATM   24  N5  UNL     1      12.410  -7.572 -34.091  1.00  0.00    -0.116 N 
HETATM   25  O3  UNL     1      13.020  -8.656 -34.131  1.00  0.00    -0.532 OA
HETATM   26  O4  UNL     1      12.802  -6.630 -33.167  1.00  0.00    -0.532 OA
ENDBRANCH  22  24
ENDBRANCH  16  18
ENDBRANCH   1  14
TORSDOF 8
ENDMDL
MODEL 5
REMARK VINA RESULT: -5.751639672      0.909      1.096
REMARK  8 active torsions:
REMARK  status: ('A' for Active; 'I' for Inactive)
REMARK    1  A    between atoms: N1_1  and  N2_4 
REMARK       I    between atoms: N2_4  and  C1_6 
REMARK    2  A    between atoms: C1_6  and  C2_8 
REMARK    3  A    between atoms: C2_8  and  C3_9 
REMARK    4  A    between atoms: C3_9  and  N3_10 
REMARK    5  A    between atoms: N3_10  and  C4_13 
REMARK    6  A    between atoms: C4_13  and  C5_14 
REMARK       I    between atoms: C5_14  and  N4_16 
REMARK    7  A    between atoms: N4_16  and  C6_18 
REMARK    8  A    between atoms: C10_22  and  N5_23 
ROOT
HETATM    1  C4  UNL     1      12.280  -4.998 -36.373  1.00  0.00     0.334 C 
ENDROOT
BRANCH   1   2
HETATM    2  N3  UNL     1      12.670  -6.301 -35.948  1.00  0.00    -0.066 N 
ATOM      3  H32 UNL     1      13.484  -6.633 -36.464  1.00  0.00     0.277 HD
ATOM      4  H31 UNL     1      11.996  -7.007 -36.244  1.00  0.00     0.277 HD
BRANCH   2   5
HETATM    5  C3  UNL     1      12.892  -6.352 -34.533  1.00  0.00     0.242 C 
BRANCH   5   6
HETATM    6  C2  UNL     1      12.452  -7.658 -33.970  1.00  0.00     0.132 C 
BRANCH   6   7
HETATM    7  C1  UNL     1      11.232  -8.181 -34.683  1.00  0.00     0.237 C 
HETATM    8  N2  UNL     1       9.949  -7.723 -34.325  1.00  0.00    -0.277 N 
ATOM      9  H2  UNL     1       9.879  -7.034 -33.575  1.00  0.00     0.189 HD
HETATM   10  O1  UNL     1      11.333  -9.033 -35.608  1.00  0.00    -0.272 OA
BRANCH   8  11
HETATM   11  N1  UNL     1       8.773  -8.149 -34.927  1.00  0.00    -0.343 N 
ATOM     12  H12 UNL     1       7.963  -7.534 -34.841  1.00  0.00     0.176 HD
ATOM     13  H11 UNL     1       8.677  -9.025 -35.440  1.00  0.00     0.176 HD
ENDBRANCH   8  11
ENDBRANCH   6   7
ENDBRANCH   5   6
ENDBRANCH   2   5
ENDBRANCH   1   2
BRANCH   1  14
HETATM   14  C5  UNL     1      10.955  -5.007 -37.097  1.00  0.00     0.247 C 
HETATM   15  O2  UNL     1      10.086  -5.748 -36.605  1.00  0.00    -0.271 OA
HETATM   16  N4  UNL     1      10.818  -4.209 -38.225  1.00  0.00    -0.326 N 
ATOM     17  H4  UNL     1      11.639  -3.665 -38.491  1.00  0.00     0.169 HD
BRANCH  16  18
HETATM   18  C6  UNL     1       9.674  -4.056 -39.055  1.00  0.00     0.037 A 
HETATM   19  C7  UNL     1       9.411  -4.821 -40.163  1.00  0.00     0.029 A 
HETATM   20  C8  UNL     1       8.265  -4.619 -40.948  1.00  0.00     0.005 A 
HETATM   21  C9  UNL     1       7.349  -3.639 -40.637  1.00  0.00     0.036 A 
HETATM   22  C10 UNL     1       7.609  -2.868 -39.526  1.00  0.00     0.105 A 
HETATM   23  C11 UNL     1       8.731  -3.064 -38.756  1.00  0.00     0.065 A 
BRANCH  22  24
HETATM   24  N5  UNL     1       6.676  -1.852 -39.188  1.00  0.00    -0.116 N 
HETATM   25  O3  UNL     1       5.662  -1.632 -39.874  1.00  0.00    -0.532 OA
HETATM   26  O4  UNL     1       6.893  -1.080 -38.069  1.00  0.00    -0.532 OA
ENDBRANCH  22  24
ENDBRANCH  16  18
ENDBRANCH   1  14
TORSDOF 8
ENDMDL
