MODEL 1
REMARK VINA RESULT: -8.455372712      0.000      0.000
REMARK  13 active torsions:
REMARK  status: ('A' for Active; 'I' for Inactive)
REMARK    1  A    between atoms: C2_2  and  C3_3 
REMARK    2  A    between atoms: C3_3  and  C4_4 
REMARK    3  A    between atoms: C3_3  and  C15_33 
REMARK       I    between atoms: C4_4  and  N1_6 
REMARK    4  A    between atoms: N1_6  and  N2_8 
REMARK       I    between atoms: N2_8  and  C5_10 
REMARK    5  A    between atoms: C5_10  and  C6_12 
REMARK    6  A    between atoms: C7_13  and  C8_14 
REMARK    7  A    between atoms: N3_16  and  O3_17 
REMARK    8  A    between atoms: C9_19  and  O4_20 
REMARK    9  A    between atoms: C9_19  and  C10_22 
REMARK   10  A    between atoms: N4_25  and  C11_26 
REMARK   11  A    between atoms: C11_26  and  O7_27 
REMARK   12  A    between atoms: C11_26  and  C12_29 
REMARK   13  A    between atoms: C19_37  and  C20_38 
ROOT
HETATM    1  N2  UNL     1      12.528 -15.006  13.542  1.00  0.00    -0.265 N 
ATOM      2  H2  UNL     1      13.458 -14.672  13.290  1.00  0.00     0.190 HD
HETATM    3  C5  UNL     1      12.138 -14.932  14.888  1.00  0.00     0.265 C 
HETATM    4  O2  UNL     1      10.987 -15.347  15.188  1.00  0.00    -0.269 OA
ENDROOT
BRANCH   3   5
HETATM    5  C6  UNL     1      12.964 -14.410  15.969  1.00  0.00     0.234 C 
HETATM    6  C7  UNL     1      14.379 -14.789  15.872  1.00  0.00     0.060 C 
HETATM    7  N3  UNL     1      15.084 -13.744  15.826  1.00  0.00    -0.201 N 
HETATM    8  C9  UNL     1      14.276 -12.528  15.884  1.00  0.00     0.336 C 
HETATM    9  N4  UNL     1      12.946 -12.958  16.129  1.00  0.00    -0.283 N 
BRANCH   6  10
HETATM   10  C8  UNL     1      14.809 -16.222  15.843  1.00  0.00     0.143 C 
HETATM   11 BR1  UNL     1      14.134 -17.116  17.413  1.00  0.00    -0.090 Br
ENDBRANCH   6  10
BRANCH   7  12
HETATM   12  O3  UNL     1      16.464 -13.681  15.732  1.00  0.00    -0.283 OA
ATOM     13  H3  UNL     1      16.984 -13.773  14.942  1.00  0.00     0.245 HD
ENDBRANCH   7  12
BRANCH   8  14
HETATM   14  O4  UNL     1      14.808 -11.840  17.003  1.00  0.00    -0.344 OA
ATOM     15  H4  UNL     1      15.247 -11.094  16.611  1.00  0.00     0.215 HD
ENDBRANCH   8  14
BRANCH   8  16
HETATM   16  C10 UNL     1      14.509 -11.691  14.704  1.00  0.00     0.258 C 
HETATM   17  O5  UNL     1      14.299 -10.461  14.606  1.00  0.00    -0.643 OA
HETATM   18  O6  UNL     1      15.016 -12.297  13.548  1.00  0.00    -0.643 OA
ENDBRANCH   8  16
BRANCH   9  19
HETATM   19  C11 UNL     1      11.747 -12.301  16.503  1.00  0.00     0.159 C 
BRANCH  19  20
HETATM   20  O7  UNL     1      11.469 -11.216  15.838  1.00  0.00    -0.347 OA
ATOM     21  H7  UNL     1      11.446 -11.309  14.893  1.00  0.00     0.219 HD
ENDBRANCH  19  20
BRANCH  19  22
HETATM   22  C12 UNL     1      10.766 -12.648  17.524  1.00  0.00     0.160 C 
HETATM   23  C13 UNL     1       9.365 -12.601  17.007  1.00  0.00     0.060 C 
HETATM   24  C14 UNL     1      10.863 -11.853  18.811  1.00  0.00     0.060 C 
HETATM   25  F1  UNL     1      10.994 -14.013  17.869  1.00  0.00    -0.235 F 
ENDBRANCH  19  22
ENDBRANCH   9  19
ENDBRANCH   3   5
BRANCH   1  26
HETATM   26  N1  UNL     1      11.703 -15.518  12.522  1.00  0.00    -0.263 N 
HETATM   27  C4  UNL     1      11.545 -16.889  12.226  1.00  0.00     0.267 C 
HETATM   28  O1  UNL     1      12.251 -17.644  13.013  1.00  0.00    -0.266 OA
ATOM     29  H1  UNL     1      11.182 -14.849  11.954  1.00  0.00     0.190 HD
BRANCH  27  30
HETATM   30  C3  UNL     1      10.706 -17.487  11.174  1.00  0.00     0.021 C 
BRANCH  30  31
HETATM   31  C2  UNL     1      11.115 -18.837  10.781  1.00  0.00     0.003 C 
HETATM   32  C1  UNL     1      11.652 -19.215   9.628  1.00  0.00     0.012 C 
ENDBRANCH  30  31
BRANCH  30  33
HETATM   33  C15 UNL     1       9.242 -17.231  11.296  1.00  0.00     0.010 C 
HETATM   34  C16 UNL     1       8.371 -18.468  11.267  1.00  0.00     0.022 C 
HETATM   35  C17 UNL     1       9.055 -16.712  12.764  1.00  0.00     0.017 C 
HETATM   36  C18 UNL     1       7.924 -15.702  12.619  1.00  0.00     0.012 C 
HETATM   37  C19 UNL     1       8.436 -14.990  11.347  1.00  0.00     0.037 C 
HETATM   38  C23 UNL     1       8.642 -16.155  10.456  1.00  0.00     0.052 C 
HETATM   39  C24 UNL     1       9.391 -15.793   9.202  1.00  0.00     0.034 C 
HETATM   40 CL1  UNL     1       7.040 -16.775   9.922  1.00  0.00    -0.118 Cl
BRANCH  37  41
HETATM   41  C20 UNL     1       7.519 -13.934  11.012  1.00  0.00    -0.087 C 
HETATM   42  C21 UNL     1       7.522 -13.003  10.108  1.00  0.00     0.014 C 
HETATM   43  C22 UNL     1       6.271 -13.880  11.915  1.00  0.00     0.043 C 
ENDBRANCH  37  41
ENDBRANCH  30  33
ENDBRANCH  27  30
ENDBRANCH   1  26
TORSDOF 13
ENDMDL
MODEL 2
REMARK VINA RESULT: -8.356279649      1.415      1.574
REMARK  13 active torsions:
REMARK  status: ('A' for Active; 'I' for Inactive)
REMARK    1  A    between atoms: C2_2  and  C3_3 
REMARK    2  A    between atoms: C3_3  and  C4_4 
REMARK    3  A    between atoms: C3_3  and  C15_33 
REMARK       I    between atoms: C4_4  and  N1_6 
REMARK    4  A    between atoms: N1_6  and  N2_8 
REMARK       I    between atoms: N2_8  and  C5_10 
REMARK    5  A    between atoms: C5_10  and  C6_12 
REMARK    6  A    between atoms: C7_13  and  C8_14 
REMARK    7  A    between atoms: N3_16  and  O3_17 
REMARK    8  A    between atoms: C9_19  and  O4_20 
REMARK    9  A    between atoms: C9_19  and  C10_22 
REMARK   10  A    between atoms: N4_25  and  C11_26 
REMARK   11  A    between atoms: C11_26  and  O7_27 
REMARK   12  A    between atoms: C11_26  and  C12_29 
REMARK   13  A    between atoms: C19_37  and  C20_38 
ROOT
HETATM    1  N2  UNL     1      12.328 -15.935  14.508  1.00  0.00    -0.265 N 
ATOM      2  H2  UNL     1      13.120 -15.404  14.146  1.00  0.00     0.190 HD
HETATM    3  C5  UNL     1      11.926 -15.710  15.833  1.00  0.00     0.265 C 
HETATM    4  O2  UNL     1      10.946 -16.371  16.269  1.00  0.00    -0.269 OA
ENDROOT
BRANCH   3   5
HETATM    5  C6  UNL     1      12.558 -14.768  16.748  1.00  0.00     0.234 C 
HETATM    6  C7  UNL     1      14.025 -14.827  16.744  1.00  0.00     0.060 C 
HETATM    7  N3  UNL     1      14.483 -13.692  16.437  1.00  0.00    -0.201 N 
HETATM    8  C9  UNL     1      13.425 -12.715  16.194  1.00  0.00     0.336 C 
HETATM    9  N4  UNL     1      12.211 -13.364  16.542  1.00  0.00    -0.283 N 
BRANCH   6  10
HETATM   10  C8  UNL     1      14.762 -16.087  17.071  1.00  0.00     0.143 C 
HETATM   11 BR1  UNL     1      15.753 -16.660  15.519  1.00  0.00    -0.090 Br
ENDBRANCH   6  10
BRANCH   7  12
HETATM   12  O3  UNL     1      15.818 -13.342  16.326  1.00  0.00    -0.283 OA
ATOM     13  H3  UNL     1      16.164 -12.481  16.121  1.00  0.00     0.245 HD
ENDBRANCH   7  12
BRANCH   8  14
HETATM   14  O4  UNL     1      13.731 -11.673  17.105  1.00  0.00    -0.344 OA
ATOM     15  H4  UNL     1      13.788 -10.907  16.547  1.00  0.00     0.215 HD
ENDBRANCH   8  14
BRANCH   8  16
HETATM   16  C10 UNL     1      13.530 -12.160  14.842  1.00  0.00     0.258 C 
HETATM   17  O5  UNL     1      13.862 -10.992  14.537  1.00  0.00    -0.643 OA
HETATM   18  O6  UNL     1      13.233 -12.992  13.756  1.00  0.00    -0.643 OA
ENDBRANCH   8  16
BRANCH   9  19
HETATM   19  C11 UNL     1      10.878 -12.926  16.745  1.00  0.00     0.159 C 
BRANCH  19  20
HETATM   20  O7  UNL     1      10.492 -12.858  17.987  1.00  0.00    -0.347 OA
ATOM     21  H7  UNL     1      10.240 -13.683  18.384  1.00  0.00     0.219 HD
ENDBRANCH  19  20
BRANCH  19  22
HETATM   22  C12 UNL     1       9.860 -12.537  15.777  1.00  0.00     0.160 C 
HETATM   23  C13 UNL     1       8.500 -12.444  16.387  1.00  0.00     0.060 C 
HETATM   24  C14 UNL     1       9.801 -13.389  14.523  1.00  0.00     0.060 C 
HETATM   25  F1  UNL     1      10.175 -11.212  15.356  1.00  0.00    -0.235 F 
ENDBRANCH  19  22
ENDBRANCH   9  19
ENDBRANCH   3   5
BRANCH   1  26
HETATM   26  N1  UNL     1      11.695 -16.856  13.650  1.00  0.00    -0.263 N 
HETATM   27  C4  UNL     1      11.208 -16.551  12.361  1.00  0.00     0.267 C 
HETATM   28  O1  UNL     1      11.413 -15.309  12.041  1.00  0.00    -0.266 OA
ATOM     29  H1  UNL     1      11.580 -17.813  13.985  1.00  0.00     0.190 HD
BRANCH  27  30
HETATM   30  C3  UNL     1      10.536 -17.463  11.420  1.00  0.00     0.021 C 
BRANCH  30  31
HETATM   31  C2  UNL     1      10.986 -18.854  11.514  1.00  0.00     0.003 C 
HETATM   32  C1  UNL     1      11.926 -19.449  10.791  1.00  0.00     0.012 C 
ENDBRANCH  30  31
BRANCH  30  33
HETATM   33  C15 UNL     1       9.073 -17.236  11.237  1.00  0.00     0.010 C 
HETATM   34  C16 UNL     1       8.224 -18.488  11.250  1.00  0.00     0.022 C 
HETATM   35  C17 UNL     1       8.623 -16.500  12.547  1.00  0.00     0.017 C 
HETATM   36  C18 UNL     1       7.536 -15.559  12.045  1.00  0.00     0.012 C 
HETATM   37  C19 UNL     1       8.268 -15.040  10.787  1.00  0.00     0.037 C 
HETATM   38  C23 UNL     1       8.633 -16.323  10.144  1.00  0.00     0.052 C 
HETATM   39  C24 UNL     1       9.596 -16.139   9.002  1.00  0.00     0.034 C 
HETATM   40 CL1  UNL     1       7.155 -17.067   9.438  1.00  0.00    -0.118 Cl
BRANCH  37  41
HETATM   41  C20 UNL     1       7.425 -14.077  10.130  1.00  0.00    -0.087 C 
HETATM   42  C21 UNL     1       7.494 -13.460   8.991  1.00  0.00     0.014 C 
HETATM   43  C22 UNL     1       6.178 -13.679  10.945  1.00  0.00     0.043 C 
ENDBRANCH  37  41
ENDBRANCH  30  33
ENDBRANCH  27  30
ENDBRANCH   1  26
TORSDOF 13
ENDMDL
MODEL 3
REMARK VINA RESULT: -8.130471310      1.175      3.209
REMARK  13 active torsions:
REMARK  status: ('A' for Active; 'I' for Inactive)
REMARK    1  A    between atoms: C2_2  and  C3_3 
REMARK    2  A    between atoms: C3_3  and  C4_4 
REMARK    3  A    between atoms: C3_3  and  C15_33 
REMARK       I    between atoms: C4_4  and  N1_6 
REMARK    4  A    between atoms: N1_6  and  N2_8 
REMARK       I    between atoms: N2_8  and  C5_10 
REMARK    5  A    between atoms: C5_10  and  C6_12 
REMARK    6  A    between atoms: C7_13  and  C8_14 
REMARK    7  A    between atoms: N3_16  and  O3_17 
REMARK    8  A    between atoms: C9_19  and  O4_20 
REMARK    9  A    between atoms: C9_19  and  C10_22 
REMARK   10  A    between atoms: N4_25  and  C11_26 
REMARK   11  A    between atoms: C11_26  and  O7_27 
REMARK   12  A    between atoms: C11_26  and  C12_29 
REMARK   13  A    between atoms: C19_37  and  C20_38 
ROOT
HETATM    1  N2  UNL     1      10.810 -15.026  15.078  1.00  0.00    -0.265 N 
ATOM      2  H2  UNL     1      10.451 -15.012  16.032  1.00  0.00     0.190 HD
HETATM    3  C5  UNL     1      12.147 -14.657  14.866  1.00  0.00     0.265 C 
HETATM    4  O2  UNL     1      12.580 -14.679  13.683  1.00  0.00    -0.269 OA
ENDROOT
BRANCH   3   5
HETATM    5  C6  UNL     1      13.076 -14.250  15.911  1.00  0.00     0.234 C 
HETATM    6  C7  UNL     1      14.460 -14.681  15.679  1.00  0.00     0.060 C 
HETATM    7  N3  UNL     1      15.209 -13.667  15.648  1.00  0.00    -0.201 N 
HETATM    8  C9  UNL     1      14.468 -12.424  15.851  1.00  0.00     0.336 C 
HETATM    9  N4  UNL     1      13.140 -12.813  16.170  1.00  0.00    -0.283 N 
BRANCH   6  10
HETATM   10  C8  UNL     1      14.817 -16.125  15.520  1.00  0.00     0.143 C 
HETATM   11 BR1  UNL     1      15.602 -16.766  17.161  1.00  0.00    -0.090 Br
ENDBRANCH   6  10
BRANCH   7  12
HETATM   12  O3  UNL     1      16.580 -13.657  15.450  1.00  0.00    -0.283 OA
ATOM     13  H3  UNL     1      17.209 -13.082  15.870  1.00  0.00     0.245 HD
ENDBRANCH   7  12
BRANCH   8  14
HETATM   14  O4  UNL     1      15.115 -11.841  16.969  1.00  0.00    -0.344 OA
ATOM     15  H4  UNL     1      15.066 -10.910  16.786  1.00  0.00     0.215 HD
ENDBRANCH   8  14
BRANCH   8  16
HETATM   16  C10 UNL     1      14.651 -11.517  14.715  1.00  0.00     0.258 C 
HETATM   17  O5  UNL     1      14.335 -10.307  14.666  1.00  0.00    -0.643 OA
HETATM   18  O6  UNL     1      15.235 -12.022  13.547  1.00  0.00    -0.643 OA
ENDBRANCH   8  16
BRANCH   9  19
HETATM   19  C11 UNL     1      12.006 -12.134  16.680  1.00  0.00     0.159 C 
BRANCH  19  20
HETATM   20  O7  UNL     1      11.570 -11.143  15.955  1.00  0.00    -0.347 OA
ATOM     21  H7  UNL     1      10.706 -11.260  15.579  1.00  0.00     0.219 HD
ENDBRANCH  19  20
BRANCH  19  22
HETATM   22  C12 UNL     1      11.242 -12.368  17.899  1.00  0.00     0.160 C 
HETATM   23  C13 UNL     1       9.785 -12.560  17.630  1.00  0.00     0.060 C 
HETATM   24  C14 UNL     1      11.428 -11.329  18.988  1.00  0.00     0.060 C 
HETATM   25  F1  UNL     1      11.691 -13.609  18.437  1.00  0.00    -0.235 F 
ENDBRANCH  19  22
ENDBRANCH   9  19
ENDBRANCH   3   5
BRANCH   1  26
HETATM   26  N1  UNL     1       9.937 -15.414  14.042  1.00  0.00    -0.263 N 
HETATM   27  C4  UNL     1       9.201 -14.523  13.233  1.00  0.00     0.267 C 
HETATM   28  O1  UNL     1       9.421 -13.282  13.547  1.00  0.00    -0.266 OA
ATOM     29  H1  UNL     1       9.829 -16.414  13.865  1.00  0.00     0.190 HD
BRANCH  27  30
HETATM   30  C3  UNL     1       8.273 -14.864  12.142  1.00  0.00     0.021 C 
BRANCH  30  31
HETATM   31  C2  UNL     1       7.240 -13.853  11.901  1.00  0.00     0.003 C 
HETATM   32  C1  UNL     1       5.928 -13.990  12.038  1.00  0.00     0.012 C 
ENDBRANCH  30  31
BRANCH  30  33
HETATM   33  C15 UNL     1       8.893 -15.498  10.943  1.00  0.00     0.010 C 
HETATM   34  C16 UNL     1       8.404 -14.969   9.613  1.00  0.00     0.022 C 
HETATM   35  C17 UNL     1      10.387 -15.021  10.976  1.00  0.00     0.017 C 
HETATM   36  C18 UNL     1      11.134 -16.225  10.418  1.00  0.00     0.012 C 
HETATM   37  C19 UNL     1      10.399 -17.323  11.220  1.00  0.00     0.037 C 
HETATM   38  C23 UNL     1       8.993 -16.985  10.904  1.00  0.00     0.052 C 
HETATM   39  C24 UNL     1       8.014 -17.740  11.764  1.00  0.00     0.034 C 
HETATM   40 CL1  UNL     1       8.642 -17.463   9.206  1.00  0.00    -0.118 Cl
BRANCH  37  41
HETATM   41  C20 UNL     1      10.967 -18.599  10.878  1.00  0.00    -0.087 C 
HETATM   42  C21 UNL     1      11.425 -19.105   9.775  1.00  0.00     0.014 C 
HETATM   43  C22 UNL     1      11.046 -19.585  12.061  1.00  0.00     0.043 C 
ENDBRANCH  37  41
ENDBRANCH  30  33
ENDBRANCH  27  30
ENDBRANCH   1  26
TORSDOF 13
ENDMDL
MODEL 4
REMARK VINA RESULT: -8.008707664      2.002      3.224
REMARK  13 active torsions:
REMARK  status: ('A' for Active; 'I' for Inactive)
REMARK    1  A    between atoms: C2_2  and  C3_3 
REMARK    2  A    between atoms: C3_3  and  C4_4 
REMARK    3  A    between atoms: C3_3  and  C15_33 
REMARK       I    between atoms: C4_4  and  N1_6 
REMARK    4  A    between atoms: N1_6  and  N2_8 
REMARK       I    between atoms: N2_8  and  C5_10 
REMARK    5  A    between atoms: C5_10  and  C6_12 
REMARK    6  A    between atoms: C7_13  and  C8_14 
REMARK    7  A    between atoms: N3_16  and  O3_17 
REMARK    8  A    between atoms: C9_19  and  O4_20 
REMARK    9  A    between atoms: C9_19  and  C10_22 
REMARK   10  A    between atoms: N4_25  and  C11_26 
REMARK   11  A    between atoms: C11_26  and  O7_27 
REMARK   12  A    between atoms: C11_26  and  C12_29 
REMARK   13  A    between atoms: C19_37  and  C20_38 
ROOT
HETATM    1  N2  UNL     1      10.611 -15.235  13.771  1.00  0.00    -0.265 N 
ATOM      2  H2  UNL     1      10.352 -15.816  14.569  1.00  0.00     0.190 HD
HETATM    3  C5  UNL     1      11.778 -14.462  13.864  1.00  0.00     0.265 C 
HETATM    4  O2  UNL     1      12.089 -13.749  12.872  1.00  0.00    -0.269 OA
ENDROOT
BRANCH   3   5
HETATM    5  C6  UNL     1      12.660 -14.418  15.022  1.00  0.00     0.234 C 
HETATM    6  C7  UNL     1      13.993 -14.983  14.777  1.00  0.00     0.060 C 
HETATM    7  N3  UNL     1      14.864 -14.101  15.010  1.00  0.00    -0.201 N 
HETATM    8  C9  UNL     1      14.271 -12.837  15.440  1.00  0.00     0.336 C 
HETATM    9  N4  UNL     1      12.883 -13.092  15.592  1.00  0.00    -0.283 N 
BRANCH   6  10
HETATM   10  C8  UNL     1      14.177 -16.397  14.326  1.00  0.00     0.143 C 
HETATM   11 BR1  UNL     1      13.317 -17.579  15.585  1.00  0.00    -0.090 Br
ENDBRANCH   6  10
BRANCH   7  12
HETATM   12  O3  UNL     1      16.237 -14.244  14.896  1.00  0.00    -0.283 OA
ATOM     13  H3  UNL     1      16.768 -14.939  15.266  1.00  0.00     0.245 HD
ENDBRANCH   7  12
BRANCH   8  14
HETATM   14  O4  UNL     1      14.891 -12.598  16.692  1.00  0.00    -0.344 OA
ATOM     15  H4  UNL     1      14.643 -11.702  16.890  1.00  0.00     0.215 HD
ENDBRANCH   8  14
BRANCH   8  16
HETATM   16  C10 UNL     1      14.663 -11.747  14.542  1.00  0.00     0.258 C 
HETATM   17  O5  UNL     1      14.391 -10.532  14.677  1.00  0.00    -0.643 OA
HETATM   18  O6  UNL     1      15.419 -12.059  13.406  1.00  0.00    -0.643 OA
ENDBRANCH   8  16
BRANCH   9  19
HETATM   19  C11 UNL     1      11.805 -12.380  16.176  1.00  0.00     0.159 C 
BRANCH  19  20
HETATM   20  O7  UNL     1      11.634 -11.164  15.744  1.00  0.00    -0.347 OA
ATOM     21  H7  UNL     1      11.075 -10.613  16.279  1.00  0.00     0.219 HD
ENDBRANCH  19  20
BRANCH  19  22
HETATM   22  C12 UNL     1      10.849 -12.797  17.194  1.00  0.00     0.160 C 
HETATM   23  C13 UNL     1       9.433 -12.673  16.729  1.00  0.00     0.060 C 
HETATM   24  C14 UNL     1      11.004 -12.121  18.543  1.00  0.00     0.060 C 
HETATM   25  F1  UNL     1      11.054 -14.191  17.409  1.00  0.00    -0.235 F 
ENDBRANCH  19  22
ENDBRANCH   9  19
ENDBRANCH   3   5
BRANCH   1  26
HETATM   26  N1  UNL     1       9.779 -15.253  12.634  1.00  0.00    -0.263 N 
HETATM   27  C4  UNL     1       8.392 -14.997  12.648  1.00  0.00     0.267 C 
HETATM   28  O1  UNL     1       7.955 -14.732  13.843  1.00  0.00    -0.266 OA
ATOM     29  H1  UNL     1      10.212 -15.468  11.735  1.00  0.00     0.190 HD
BRANCH  27  30
HETATM   30  C3  UNL     1       7.469 -15.004  11.501  1.00  0.00     0.021 C 
BRANCH  30  31
HETATM   31  C2  UNL     1       7.911 -14.178  10.375  1.00  0.00     0.003 C 
HETATM   32  C1  UNL     1       7.492 -12.961  10.053  1.00  0.00     0.012 C 
ENDBRANCH  30  31
BRANCH  30  33
HETATM   33  C15 UNL     1       6.860 -16.326  11.173  1.00  0.00     0.010 C 
HETATM   34  C16 UNL     1       7.086 -16.800   9.754  1.00  0.00     0.022 C 
HETATM   35  C17 UNL     1       7.684 -17.358  12.019  1.00  0.00     0.017 C 
HETATM   36  C18 UNL     1       6.637 -18.401  12.384  1.00  0.00     0.012 C 
HETATM   37  C19 UNL     1       5.503 -17.432  12.787  1.00  0.00     0.037 C 
HETATM   38  C23 UNL     1       5.448 -16.572  11.583  1.00  0.00     0.052 C 
HETATM   39  C24 UNL     1       4.591 -15.352  11.787  1.00  0.00     0.034 C 
HETATM   40 CL1  UNL     1       4.693 -17.496  10.236  1.00  0.00    -0.118 Cl
BRANCH  37  41
HETATM   41  C20 UNL     1       4.369 -18.206  13.217  1.00  0.00    -0.087 C 
HETATM   42  C21 UNL     1       3.219 -17.895  13.732  1.00  0.00     0.014 C 
HETATM   43  C22 UNL     1       4.548 -19.727  13.041  1.00  0.00     0.043 C 
ENDBRANCH  37  41
ENDBRANCH  30  33
ENDBRANCH  27  30
ENDBRANCH   1  26
TORSDOF 13
ENDMDL
MODEL 5
REMARK VINA RESULT: -7.932754353      1.366      1.649
REMARK  13 active torsions:
REMARK  status: ('A' for Active; 'I' for Inactive)
REMARK    1  A    between atoms: C2_2  and  C3_3 
REMARK    2  A    between atoms: C3_3  and  C4_4 
REMARK    3  A    between atoms: C3_3  and  C15_33 
REMARK       I    between atoms: C4_4  and  N1_6 
REMARK    4  A    between atoms: N1_6  and  N2_8 
REMARK       I    between atoms: N2_8  and  C5_10 
REMARK    5  A    between atoms: C5_10  and  C6_12 
REMARK    6  A    between atoms: C7_13  and  C8_14 
REMARK    7  A    between atoms: N3_16  and  O3_17 
REMARK    8  A    between atoms: C9_19  and  O4_20 
REMARK    9  A    between atoms: C9_19  and  C10_22 
REMARK   10  A    between atoms: N4_25  and  C11_26 
REMARK   11  A    between atoms: C11_26  and  O7_27 
REMARK   12  A    between atoms: C11_26  and  C12_29 
REMARK   13  A    between atoms: C19_37  and  C20_38 
ROOT
HETATM    1  N2  UNL     1      11.997 -14.982  13.388  1.00  0.00    -0.265 N 
ATOM      2  H2  UNL     1      12.617 -14.184  13.249  1.00  0.00     0.190 HD
HETATM    3  C5  UNL     1      11.676 -15.353  14.703  1.00  0.00     0.265 C 
HETATM    4  O2  UNL     1      10.910 -16.340  14.863  1.00  0.00    -0.269 OA
ENDROOT
BRANCH   3   5
HETATM    5  C6  UNL     1      12.163 -14.682  15.901  1.00  0.00     0.234 C 
HETATM    6  C7  UNL     1      13.577 -14.946  16.198  1.00  0.00     0.060 C 
HETATM    7  N3  UNL     1      14.203 -13.851  16.230  1.00  0.00    -0.201 N 
HETATM    8  C9  UNL     1      13.332 -12.707  15.969  1.00  0.00     0.336 C 
HETATM    9  N4  UNL     1      12.014 -13.229  15.914  1.00  0.00    -0.283 N 
BRANCH   6  10
HETATM   10  C8  UNL     1      14.090 -16.335  16.413  1.00  0.00     0.143 C 
HETATM   11 BR1  UNL     1      13.676 -16.889  18.213  1.00  0.00    -0.090 Br
ENDBRANCH   6  10
BRANCH   7  12
HETATM   12  O3  UNL     1      15.555 -13.678  16.478  1.00  0.00    -0.283 OA
ATOM     13  H3  UNL     1      15.967 -13.576  17.328  1.00  0.00     0.245 HD
ENDBRANCH   7  12
BRANCH   8  14
HETATM   14  O4  UNL     1      13.516 -11.894  17.115  1.00  0.00    -0.344 OA
ATOM     15  H4  UNL     1      13.089 -11.080  16.874  1.00  0.00     0.215 HD
ENDBRANCH   8  14
BRANCH   8  16
HETATM   16  C10 UNL     1      13.806 -11.946  14.811  1.00  0.00     0.258 C 
HETATM   17  O5  UNL     1      13.860 -10.699  14.706  1.00  0.00    -0.643 OA
HETATM   18  O6  UNL     1      14.252 -12.652  13.687  1.00  0.00    -0.643 OA
ENDBRANCH   8  16
BRANCH   9  19
HETATM   19  C11 UNL     1      10.720 -12.650  15.913  1.00  0.00     0.159 C 
BRANCH  19  20
HETATM   20  O7  UNL     1      10.531 -11.698  15.045  1.00  0.00    -0.347 OA
ATOM     21  H7  UNL     1       9.709 -11.228  15.125  1.00  0.00     0.219 HD
ENDBRANCH  19  20
BRANCH  19  22
HETATM   22  C12 UNL     1       9.556 -12.952  16.737  1.00  0.00     0.160 C 
HETATM   23  C13 UNL     1       8.316 -12.286  16.236  1.00  0.00     0.060 C 
HETATM   24  C14 UNL     1       9.723 -12.674  18.218  1.00  0.00     0.060 C 
HETATM   25  F1  UNL     1       9.310 -14.350  16.609  1.00  0.00    -0.235 F 
ENDBRANCH  19  22
ENDBRANCH   9  19
ENDBRANCH   3   5
BRANCH   1  26
HETATM   26  N1  UNL     1      11.508 -15.654  12.251  1.00  0.00    -0.263 N 
HETATM   27  C4  UNL     1      10.349 -15.286  11.535  1.00  0.00     0.267 C 
HETATM   28  O1  UNL     1       9.772 -14.239  12.043  1.00  0.00    -0.266 OA
ATOM     29  H1  UNL     1      12.031 -16.466  11.920  1.00  0.00     0.190 HD
BRANCH  27  30
HETATM   30  C3  UNL     1       9.785 -15.946  10.345  1.00  0.00     0.021 C 
BRANCH  30  31
HETATM   31  C2  UNL     1      10.747 -16.770   9.609  1.00  0.00     0.003 C 
HETATM   32  C1  UNL     1      11.350 -17.875  10.026  1.00  0.00     0.012 C 
ENDBRANCH  30  31
BRANCH  30  33
HETATM   33  C15 UNL     1       8.407 -16.494  10.506  1.00  0.00     0.010 C 
HETATM   34  C16 UNL     1       8.176 -17.844   9.864  1.00  0.00     0.022 C 
HETATM   35  C17 UNL     1       8.288 -16.814  12.036  1.00  0.00     0.017 C 
HETATM   36  C18 UNL     1       6.825 -16.510  12.328  1.00  0.00     0.012 C 
HETATM   37  C19 UNL     1       6.728 -15.173  11.559  1.00  0.00     0.037 C 
HETATM   38  C23 UNL     1       7.254 -15.589  10.238  1.00  0.00     0.052 C 
HETATM   39  C24 UNL     1       7.523 -14.417   9.333  1.00  0.00     0.034 C 
HETATM   40 CL1  UNL     1       6.016 -16.593   9.404  1.00  0.00    -0.118 Cl
BRANCH  37  41
HETATM   41  C20 UNL     1       5.398 -14.650  11.714  1.00  0.00    -0.087 C 
HETATM   42  C21 UNL     1       4.899 -13.452  11.673  1.00  0.00     0.014 C 
HETATM   43  C22 UNL     1       4.331 -15.727  11.996  1.00  0.00     0.043 C 
ENDBRANCH  37  41
ENDBRANCH  30  33
ENDBRANCH  27  30
ENDBRANCH   1  26
TORSDOF 13
ENDMDL
