MODEL 1
REMARK VINA RESULT: -8.509270455      0.000      0.000
REMARK  9 active torsions:
REMARK  status: ('A' for Active; 'I' for Inactive)
REMARK       I    between atoms: C2_2  and  N1_4 
REMARK    1  A    between atoms: N1_4  and  C3_6 
REMARK    2  A    between atoms: C3_6  and  C4_7 
REMARK    3  A    between atoms: C3_6  and  C27_47 
REMARK       I    between atoms: C4_7  and  N2_9 
REMARK    4  A    between atoms: C8_15  and  C9_16 
REMARK       I    between atoms: C9_16  and  N3_18 
REMARK    5  A    between atoms: C13_23  and  C14_24 
REMARK       I    between atoms: C14_24  and  N4_26 
REMARK    6  A    between atoms: N4_26  and  C15_28 
REMARK    7  A    between atoms: C22_35  and  C23_36 
REMARK       I    between atoms: C23_36  and  N5_38 
REMARK    8  A    between atoms: C24_40  and  C25_41 
REMARK    9  A    between atoms: C25_41  and  N6_43 
ROOT
HETATM    1  C9  UNL     1      10.796 -14.909  16.193  1.00  0.00     0.243 C 
HETATM    2  O3  UNL     1      11.312 -13.761  16.382  1.00  0.00    -0.271 OA
HETATM    3  N3  UNL     1      11.611 -16.067  16.061  1.00  0.00    -0.333 N 
HETATM    4  C10 UNL     1      11.002 -17.359  15.787  1.00  0.00     0.164 C 
HETATM    5  C11 UNL     1      11.642 -18.469  16.559  1.00  0.00     0.189 C 
HETATM    6  F3  UNL     1      10.781 -19.020  17.509  1.00  0.00    -0.248 F 
HETATM    7  C12 UNL     1      12.909 -18.096  17.268  1.00  0.00     0.055 C 
HETATM    8  C13 UNL     1      13.747 -17.234  16.366  1.00  0.00     0.112 C 
HETATM    9  C22 UNL     1      13.042 -15.917  16.221  1.00  0.00     0.192 C 
ENDROOT
BRANCH   1  10
HETATM   10  C8  UNL     1       9.315 -14.962  16.119  1.00  0.00     0.185 C 
HETATM   11  N2  UNL     1       8.774 -14.493  14.866  1.00  0.00    -0.331 N 
HETATM   12  C4  UNL     1       8.266 -15.306  13.825  1.00  0.00     0.244 C 
HETATM   13  C5  UNL     1       8.839 -13.053  14.894  1.00  0.00     0.205 C 
HETATM   14  O2  UNL     1       8.275 -16.569  13.989  1.00  0.00    -0.271 OA
HETATM   15  C6  UNL     1       8.753 -12.686  16.357  1.00  0.00     0.261 C 
HETATM   16  F1  UNL     1       9.864 -11.929  16.755  1.00  0.00    -0.204 F 
HETATM   17  F2  UNL     1       7.649 -11.910  16.646  1.00  0.00    -0.204 F 
HETATM   18  C7  UNL     1       8.802 -13.959  17.137  1.00  0.00     0.115 C 
BRANCH  12  19
HETATM   19  C3  UNL     1       7.716 -14.843  12.553  1.00  0.00     0.184 C 
BRANCH  19  20
HETATM   20  N1  UNL     1       6.549 -15.624  12.149  1.00  0.00    -0.347 N 
HETATM   21  C2  UNL     1       5.281 -14.982  12.176  1.00  0.00     0.214 C 
HETATM   22  C1  UNL     1       4.016 -15.640  11.797  1.00  0.00     0.117 C 
HETATM   23  O1  UNL     1       5.219 -13.785  12.541  1.00  0.00    -0.274 OA
ATOM     24  H1  UNL     1       6.641 -16.598  11.858  1.00  0.00     0.163 HD
ENDBRANCH  19  20
BRANCH  19  25
HETATM   25  C27 UNL     1       8.732 -15.088  11.437  1.00  0.00    -0.022 C 
HETATM   26  C28 UNL     1       8.653 -16.486  10.889  1.00  0.00     0.017 C 
HETATM   27  C29 UNL     1      10.137 -14.713  11.830  1.00  0.00     0.017 C 
HETATM   28  C30 UNL     1       8.399 -14.160  10.250  1.00  0.00     0.017 C 
ENDBRANCH  19  25
ENDBRANCH  12  19
ENDBRANCH   1  10
BRANCH   9  29
HETATM   29  C23 UNL     1      13.706 -15.127  15.188  1.00  0.00     0.245 C 
HETATM   30  O5  UNL     1      13.329 -15.011  13.997  1.00  0.00    -0.271 OA
HETATM   31  N5  UNL     1      14.882 -14.425  15.549  1.00  0.00    -0.337 N 
HETATM   32  C24 UNL     1      15.095 -13.189  15.545  1.00  0.00     0.096 C 
ATOM     33  H5  UNL     1      15.664 -15.005  15.856  1.00  0.00     0.168 HD
BRANCH  32  34
HETATM   34  C25 UNL     1      14.122 -12.146  15.145  1.00  0.00     0.217 C 
HETATM   35  C26 UNL     1      14.839 -10.997  14.423  1.00  0.00     0.045 C 
BRANCH  34  36
HETATM   36  N6  UNL     1      13.518 -11.570  16.322  1.00  0.00    -0.071 N 
ATOM     37  H63 UNL     1      12.799 -12.173  16.721  1.00  0.00     0.275 HD
ATOM     38  H62 UNL     1      14.157 -11.558  17.116  1.00  0.00     0.275 HD
ATOM     39  H61 UNL     1      13.160 -10.640  16.103  1.00  0.00     0.275 HD
ENDBRANCH  34  36
ENDBRANCH  32  34
ENDBRANCH   9  29
BRANCH   8  40
HETATM   40  C14 UNL     1      14.100 -17.871  15.086  1.00  0.00     0.224 C 
HETATM   41  O4  UNL     1      15.264 -18.257  14.797  1.00  0.00    -0.273 OA
HETATM   42  N4  UNL     1      13.086 -18.065  14.121  1.00  0.00    -0.356 N 
ATOM     43  H4  UNL     1      12.134 -17.762  14.331  1.00  0.00     0.162 HD
BRANCH  42  44
HETATM   44  C15 UNL     1      13.366 -18.681  12.846  1.00  0.00     0.084 C 
HETATM   45  C16 UNL     1      13.170 -20.194  12.912  1.00  0.00     0.025 C 
HETATM   46  C17 UNL     1      13.649 -20.734  11.593  1.00  0.00     0.007 C 
HETATM   47  C18 UNL     1      13.020 -20.113  10.398  1.00  0.00    -0.010 A 
HETATM   48  C19 UNL     1      11.571 -19.949  10.247  1.00  0.00     0.010 A 
HETATM   49  C20 UNL     1      12.524 -18.757  10.489  1.00  0.00    -0.008 A 
HETATM   50  C21 UNL     1      12.380 -18.161  11.849  1.00  0.00     0.030 C 
ENDBRANCH  42  44
ENDBRANCH   8  40
TORSDOF 9
ENDMDL
MODEL 2
REMARK VINA RESULT: -8.087877983      2.263      4.387
REMARK  9 active torsions:
REMARK  status: ('A' for Active; 'I' for Inactive)
REMARK       I    between atoms: C2_2  and  N1_4 
REMARK    1  A    between atoms: N1_4  and  C3_6 
REMARK    2  A    between atoms: C3_6  and  C4_7 
REMARK    3  A    between atoms: C3_6  and  C27_47 
REMARK       I    between atoms: C4_7  and  N2_9 
REMARK    4  A    between atoms: C8_15  and  C9_16 
REMARK       I    between atoms: C9_16  and  N3_18 
REMARK    5  A    between atoms: C13_23  and  C14_24 
REMARK       I    between atoms: C14_24  and  N4_26 
REMARK    6  A    between atoms: N4_26  and  C15_28 
REMARK    7  A    between atoms: C22_35  and  C23_36 
REMARK       I    between atoms: C23_36  and  N5_38 
REMARK    8  A    between atoms: C24_40  and  C25_41 
REMARK    9  A    between atoms: C25_41  and  N6_43 
ROOT
HETATM    1  C9  UNL     1      11.097 -14.906  14.500  1.00  0.00     0.243 C 
HETATM    2  O3  UNL     1      11.404 -14.834  13.267  1.00  0.00    -0.271 OA
HETATM    3  N3  UNL     1      12.101 -14.906  15.508  1.00  0.00    -0.333 N 
HETATM    4  C10 UNL     1      11.729 -15.048  16.907  1.00  0.00     0.164 C 
HETATM    5  C11 UNL     1      12.526 -14.156  17.805  1.00  0.00     0.189 C 
HETATM    6  F3  UNL     1      11.745 -13.162  18.395  1.00  0.00    -0.248 F 
HETATM    7  C12 UNL     1      13.691 -13.478  17.148  1.00  0.00     0.055 C 
HETATM    8  C13 UNL     1      14.394 -14.458  16.252  1.00  0.00     0.112 C 
HETATM    9  C22 UNL     1      13.481 -14.748  15.098  1.00  0.00     0.192 C 
ENDROOT
BRANCH   1  10
HETATM   10  C8  UNL     1       9.649 -14.990  14.815  1.00  0.00     0.185 C 
HETATM   11  N2  UNL     1       8.793 -14.472  13.775  1.00  0.00    -0.331 N 
HETATM   12  C4  UNL     1       8.036 -15.245  12.863  1.00  0.00     0.244 C 
HETATM   13  C5  UNL     1       8.850 -13.034  13.862  1.00  0.00     0.205 C 
HETATM   14  O2  UNL     1       8.099 -16.513  12.951  1.00  0.00    -0.271 OA
HETATM   15  C6  UNL     1       9.149 -12.741  15.313  1.00  0.00     0.261 C 
HETATM   16  F1  UNL     1      10.320 -11.979  15.445  1.00  0.00    -0.204 F 
HETATM   17  F2  UNL     1       8.154 -12.005  15.923  1.00  0.00    -0.204 F 
HETATM   18  C7  UNL     1       9.414 -14.049  15.984  1.00  0.00     0.115 C 
BRANCH  12  19
HETATM   19  C3  UNL     1       7.165 -14.732  11.807  1.00  0.00     0.184 C 
BRANCH  19  20
HETATM   20  N1  UNL     1       6.020 -15.610  11.573  1.00  0.00    -0.347 N 
HETATM   21  C2  UNL     1       4.742 -15.156  11.997  1.00  0.00     0.214 C 
HETATM   22  C1  UNL     1       3.496 -15.929  11.829  1.00  0.00     0.117 C 
HETATM   23  O1  UNL     1       4.652 -14.034  12.547  1.00  0.00    -0.274 OA
ATOM     24  H1  UNL     1       6.135 -16.518  11.122  1.00  0.00     0.163 HD
ENDBRANCH  19  20
BRANCH  19  25
HETATM   25  C27 UNL     1       7.918 -14.740  10.475  1.00  0.00    -0.022 C 
HETATM   26  C28 UNL     1       7.426 -15.815   9.547  1.00  0.00     0.017 C 
HETATM   27  C29 UNL     1       9.414 -14.782  10.648  1.00  0.00     0.017 C 
HETATM   28  C30 UNL     1       7.648 -13.408   9.745  1.00  0.00     0.017 C 
ENDBRANCH  19  25
ENDBRANCH  12  19
ENDBRANCH   1  10
BRANCH   9  29
HETATM   29  C23 UNL     1      14.029 -15.853  14.316  1.00  0.00     0.245 C 
HETATM   30  O5  UNL     1      15.242 -16.030  14.048  1.00  0.00    -0.271 OA
HETATM   31  N5  UNL     1      13.123 -16.815  13.809  1.00  0.00    -0.337 N 
HETATM   32  C24 UNL     1      13.055 -18.043  14.058  1.00  0.00     0.096 C 
ATOM     33  H5  UNL     1      12.429 -16.461  13.150  1.00  0.00     0.168 HD
BRANCH  32  34
HETATM   34  C25 UNL     1      13.945 -18.788  14.979  1.00  0.00     0.217 C 
HETATM   35  C26 UNL     1      14.201 -20.204  14.444  1.00  0.00     0.045 C 
BRANCH  34  36
HETATM   36  N6  UNL     1      13.296 -18.950  16.257  1.00  0.00    -0.071 N 
ATOM     37  H63 UNL     1      13.317 -18.093  16.811  1.00  0.00     0.275 HD
ATOM     38  H62 UNL     1      12.284 -19.040  16.166  1.00  0.00     0.275 HD
ATOM     39  H61 UNL     1      13.709 -19.738  16.754  1.00  0.00     0.275 HD
ENDBRANCH  34  36
ENDBRANCH  32  34
ENDBRANCH   9  29
BRANCH   8  40
HETATM   40  C14 UNL     1      14.888 -15.659  16.947  1.00  0.00     0.224 C 
HETATM   41  O4  UNL     1      14.138 -16.479  17.539  1.00  0.00    -0.273 OA
HETATM   42  N4  UNL     1      16.277 -15.915  16.956  1.00  0.00    -0.356 N 
ATOM     43  H4  UNL     1      16.907 -15.266  16.482  1.00  0.00     0.162 HD
BRANCH  42  44
HETATM   44  C15 UNL     1      16.827 -17.073  17.620  1.00  0.00     0.084 C 
HETATM   45  C16 UNL     1      15.917 -17.539  18.755  1.00  0.00     0.025 C 
HETATM   46  C17 UNL     1      16.667 -18.629  19.469  1.00  0.00     0.007 C 
HETATM   47  C18 UNL     1      17.136 -19.739  18.599  1.00  0.00    -0.010 A 
HETATM   48  C19 UNL     1      16.268 -20.430  17.641  1.00  0.00     0.010 A 
HETATM   49  C20 UNL     1      17.399 -19.474  17.201  1.00  0.00    -0.008 A 
HETATM   50  C21 UNL     1      16.893 -18.193  16.630  1.00  0.00     0.030 C 
ENDBRANCH  42  44
ENDBRANCH   8  40
TORSDOF 9
ENDMDL
MODEL 3
REMARK VINA RESULT: -8.003951413      2.565      6.787
REMARK  9 active torsions:
REMARK  status: ('A' for Active; 'I' for Inactive)
REMARK       I    between atoms: C2_2  and  N1_4 
REMARK    1  A    between atoms: N1_4  and  C3_6 
REMARK    2  A    between atoms: C3_6  and  C4_7 
REMARK    3  A    between atoms: C3_6  and  C27_47 
REMARK       I    between atoms: C4_7  and  N2_9 
REMARK    4  A    between atoms: C8_15  and  C9_16 
REMARK       I    between atoms: C9_16  and  N3_18 
REMARK    5  A    between atoms: C13_23  and  C14_24 
REMARK       I    between atoms: C14_24  and  N4_26 
REMARK    6  A    between atoms: N4_26  and  C15_28 
REMARK    7  A    between atoms: C22_35  and  C23_36 
REMARK       I    between atoms: C23_36  and  N5_38 
REMARK    8  A    between atoms: C24_40  and  C25_41 
REMARK    9  A    between atoms: C25_41  and  N6_43 
ROOT
HETATM    1  C9  UNL     1       8.887 -14.683  14.288  1.00  0.00     0.243 C 
HETATM    2  O3  UNL     1       8.401 -15.436  15.193  1.00  0.00    -0.271 OA
HETATM    3  N3  UNL     1       8.739 -15.004  12.910  1.00  0.00    -0.333 N 
HETATM    4  C10 UNL     1       9.352 -14.160  11.896  1.00  0.00     0.164 C 
HETATM    5  C11 UNL     1       8.467 -13.958  10.707  1.00  0.00     0.189 C 
HETATM    6  F3  UNL     1       8.037 -12.637  10.584  1.00  0.00    -0.248 F 
HETATM    7  C12 UNL     1       7.248 -14.831  10.672  1.00  0.00     0.055 C 
HETATM    8  C13 UNL     1       7.622 -16.222  11.099  1.00  0.00     0.112 C 
HETATM    9  C22 UNL     1       7.957 -16.171  12.560  1.00  0.00     0.192 C 
ENDROOT
BRANCH   1  10
HETATM   10  C8  UNL     1       9.606 -13.472  14.754  1.00  0.00     0.185 C 
HETATM   11  N2  UNL     1      10.883 -13.748  15.367  1.00  0.00    -0.331 N 
HETATM   12  C4  UNL     1      12.151 -13.550  14.769  1.00  0.00     0.244 C 
HETATM   13  C5  UNL     1      10.613 -14.242  16.694  1.00  0.00     0.205 C 
HETATM   14  O2  UNL     1      12.191 -13.085  13.584  1.00  0.00    -0.271 OA
HETATM   15  C6  UNL     1       9.297 -13.612  17.085  1.00  0.00     0.261 C 
HETATM   16  F1  UNL     1       8.346 -14.589  17.413  1.00  0.00    -0.204 F 
HETATM   17  F2  UNL     1       9.405 -12.808  18.202  1.00  0.00    -0.204 F 
HETATM   18  C7  UNL     1       8.775 -12.893  15.885  1.00  0.00     0.115 C 
BRANCH  12  19
HETATM   19  C3  UNL     1      13.450 -13.826  15.379  1.00  0.00     0.184 C 
BRANCH  19  20
HETATM   20  N1  UNL     1      14.535 -13.148  14.675  1.00  0.00    -0.347 N 
HETATM   21  C2  UNL     1      14.993 -11.908  15.199  1.00  0.00     0.214 C 
HETATM   22  C1  UNL     1      16.078 -11.110  14.598  1.00  0.00     0.117 C 
HETATM   23  O1  UNL     1      14.450 -11.455  16.233  1.00  0.00    -0.274 OA
ATOM     24  H1  UNL     1      14.951 -13.551  13.834  1.00  0.00     0.163 HD
ENDBRANCH  19  20
BRANCH  19  25
HETATM   25  C27 UNL     1      13.779 -15.312  15.231  1.00  0.00    -0.022 C 
HETATM   26  C28 UNL     1      12.868 -16.004  14.256  1.00  0.00     0.017 C 
HETATM   27  C29 UNL     1      13.848 -16.032  16.551  1.00  0.00     0.017 C 
HETATM   28  C30 UNL     1      15.197 -15.448  14.638  1.00  0.00     0.017 C 
ENDBRANCH  19  25
ENDBRANCH  12  19
ENDBRANCH   1  10
BRANCH   9  29
HETATM   29  C23 UNL     1       8.530 -17.451  12.968  1.00  0.00     0.245 C 
HETATM   30  O5  UNL     1       9.736 -17.661  13.239  1.00  0.00    -0.271 OA
HETATM   31  N5  UNL     1       7.656 -18.561  13.071  1.00  0.00    -0.337 N 
HETATM   32  C24 UNL     1       7.366 -19.246  14.081  1.00  0.00     0.096 C 
ATOM     33  H5  UNL     1       7.199 -18.842  12.203  1.00  0.00     0.168 HD
BRANCH  32  34
HETATM   34  C25 UNL     1       7.896 -19.034  15.449  1.00  0.00     0.217 C 
HETATM   35  C26 UNL     1       7.621 -20.266  16.323  1.00  0.00     0.045 C 
BRANCH  34  36
HETATM   36  N6  UNL     1       7.202 -17.933  16.073  1.00  0.00    -0.071 N 
ATOM     37  H63 UNL     1       7.069 -17.150  15.433  1.00  0.00     0.275 HD
ATOM     38  H62 UNL     1       6.221 -18.147  16.249  1.00  0.00     0.275 HD
ATOM     39  H61 UNL     1       7.694 -17.656  16.922  1.00  0.00     0.275 HD
ENDBRANCH  34  36
ENDBRANCH  32  34
ENDBRANCH   9  29
BRANCH   8  40
HETATM   40  C14 UNL     1       8.663 -16.846  10.264  1.00  0.00     0.224 C 
HETATM   41  O4  UNL     1       9.790 -16.326  10.051  1.00  0.00    -0.273 OA
HETATM   42  N4  UNL     1       8.393 -18.096   9.663  1.00  0.00    -0.356 N 
ATOM     43  H4  UNL     1       7.487 -18.540   9.821  1.00  0.00     0.162 HD
BRANCH  42  44
HETATM   44  C15 UNL     1       9.369 -18.761   8.832  1.00  0.00     0.084 C 
HETATM   45  C16 UNL     1      10.334 -19.592   9.676  1.00  0.00     0.025 C 
HETATM   46  C17 UNL     1      11.390 -20.090   8.729  1.00  0.00     0.007 C 
HETATM   47  C18 UNL     1      10.872 -20.819   7.541  1.00  0.00    -0.010 A 
HETATM   48  C19 UNL     1       9.889 -21.902   7.629  1.00  0.00     0.010 A 
HETATM   49  C20 UNL     1       9.546 -20.511   7.051  1.00  0.00    -0.008 A 
HETATM   50  C21 UNL     1       8.647 -19.715   7.935  1.00  0.00     0.030 C 
ENDBRANCH  42  44
ENDBRANCH   8  40
TORSDOF 9
ENDMDL
MODEL 4
REMARK VINA RESULT: -7.903943654      3.422      6.591
REMARK  9 active torsions:
REMARK  status: ('A' for Active; 'I' for Inactive)
REMARK       I    between atoms: C2_2  and  N1_4 
REMARK    1  A    between atoms: N1_4  and  C3_6 
REMARK    2  A    between atoms: C3_6  and  C4_7 
REMARK    3  A    between atoms: C3_6  and  C27_47 
REMARK       I    between atoms: C4_7  and  N2_9 
REMARK    4  A    between atoms: C8_15  and  C9_16 
REMARK       I    between atoms: C9_16  and  N3_18 
REMARK    5  A    between atoms: C13_23  and  C14_24 
REMARK       I    between atoms: C14_24  and  N4_26 
REMARK    6  A    between atoms: N4_26  and  C15_28 
REMARK    7  A    between atoms: C22_35  and  C23_36 
REMARK       I    between atoms: C23_36  and  N5_38 
REMARK    8  A    between atoms: C24_40  and  C25_41 
REMARK    9  A    between atoms: C25_41  and  N6_43 
ROOT
HETATM    1  C9  UNL     1      14.341 -14.963  15.449  1.00  0.00     0.243 C 
HETATM    2  O3  UNL     1      13.738 -14.759  14.346  1.00  0.00    -0.271 OA
HETATM    3  N3  UNL     1      14.871 -16.244  15.768  1.00  0.00    -0.333 N 
HETATM    4  C10 UNL     1      15.505 -16.469  17.058  1.00  0.00     0.164 C 
HETATM    5  C11 UNL     1      16.731 -17.320  16.953  1.00  0.00     0.189 C 
HETATM    6  F3  UNL     1      17.893 -16.614  17.262  1.00  0.00    -0.248 F 
HETATM    7  C12 UNL     1      16.939 -17.964  15.616  1.00  0.00     0.055 C 
HETATM    8  C13 UNL     1      15.625 -18.481  15.104  1.00  0.00     0.112 C 
HETATM    9  C22 UNL     1      14.771 -17.293  14.775  1.00  0.00     0.192 C 
ENDROOT
BRANCH   1  10
HETATM   10  C8  UNL     1      14.454 -13.801  16.364  1.00  0.00     0.185 C 
HETATM   11  N2  UNL     1      13.241 -13.028  16.482  1.00  0.00    -0.331 N 
HETATM   12  C4  UNL     1      12.345 -13.053  17.577  1.00  0.00     0.244 C 
HETATM   13  C5  UNL     1      13.137 -12.227  15.287  1.00  0.00     0.205 C 
HETATM   14  O2  UNL     1      12.615 -13.816  18.559  1.00  0.00    -0.271 OA
HETATM   15  C6  UNL     1      14.562 -12.011  14.836  1.00  0.00     0.261 C 
HETATM   16  F1  UNL     1      14.754 -12.474  13.526  1.00  0.00    -0.204 F 
HETATM   17  F2  UNL     1      14.916 -10.677  14.816  1.00  0.00    -0.204 F 
HETATM   18  C7  UNL     1      15.437 -12.843  15.715  1.00  0.00     0.115 C 
BRANCH  12  19
HETATM   19  C3  UNL     1      11.115 -12.274  17.707  1.00  0.00     0.184 C 
BRANCH  19  20
HETATM   20  N1  UNL     1      10.776 -12.025  19.107  1.00  0.00    -0.347 N 
HETATM   21  C2  UNL     1      11.436 -10.953  19.766  1.00  0.00     0.214 C 
HETATM   22  C1  UNL     1      11.199 -10.581  21.174  1.00  0.00     0.117 C 
HETATM   23  O1  UNL     1      12.272 -10.274  19.125  1.00  0.00    -0.274 OA
ATOM     24  H1  UNL     1      10.089 -12.601  19.594  1.00  0.00     0.163 HD
ENDBRANCH  19  20
BRANCH  19  25
HETATM   25  C27 UNL     1       9.935 -13.092  17.178  1.00  0.00    -0.022 C 
HETATM   26  C28 UNL     1       8.825 -13.209  18.185  1.00  0.00     0.017 C 
HETATM   27  C29 UNL     1      10.348 -14.433  16.632  1.00  0.00     0.017 C 
HETATM   28  C30 UNL     1       9.321 -12.352  15.971  1.00  0.00     0.017 C 
ENDBRANCH  19  25
ENDBRANCH  12  19
ENDBRANCH   1  10
BRANCH   9  29
HETATM   29  C23 UNL     1      13.414 -17.743  14.477  1.00  0.00     0.245 C 
HETATM   30  O5  UNL     1      12.433 -17.683  15.258  1.00  0.00    -0.271 OA
HETATM   31  N5  UNL     1      13.169 -18.297  13.197  1.00  0.00    -0.337 N 
HETATM   32  C24 UNL     1      12.403 -17.886  12.292  1.00  0.00     0.096 C 
ATOM     33  H5  UNL     1      13.688 -19.149  12.981  1.00  0.00     0.168 HD
BRANCH  32  34
HETATM   34  C25 UNL     1      11.551 -16.676  12.366  1.00  0.00     0.217 C 
HETATM   35  C26 UNL     1      10.084 -17.072  12.586  1.00  0.00     0.045 C 
BRANCH  34  36
HETATM   36  N6  UNL     1      11.597 -15.973  11.107  1.00  0.00    -0.071 N 
ATOM     37  H63 UNL     1      11.335 -16.570  10.323  1.00  0.00     0.275 HD
ATOM     38  H62 UNL     1      10.848 -15.285  11.023  1.00  0.00     0.275 HD
ATOM     39  H61 UNL     1      12.518 -15.556  10.981  1.00  0.00     0.275 HD
ENDBRANCH  34  36
ENDBRANCH  32  34
ENDBRANCH   9  29
BRANCH   8  40
HETATM   40  C14 UNL     1      14.977 -19.460  15.994  1.00  0.00     0.224 C 
HETATM   41  O4  UNL     1      14.961 -20.699  15.773  1.00  0.00    -0.273 OA
HETATM   42  N4  UNL     1      14.337 -18.993  17.164  1.00  0.00    -0.356 N 
ATOM     43  H4  UNL     1      14.337 -17.993  17.367  1.00  0.00     0.162 HD
BRANCH  42  44
HETATM   44  C15 UNL     1      13.682 -19.898  18.078  1.00  0.00     0.084 C 
HETATM   45  C16 UNL     1      14.460 -20.015  19.387  1.00  0.00     0.025 C 
HETATM   46  C17 UNL     1      13.781 -21.099  20.178  1.00  0.00     0.007 C 
HETATM   47  C18 UNL     1      12.321 -20.907  20.379  1.00  0.00    -0.010 A 
HETATM   48  C19 UNL     1      11.734 -19.652  20.858  1.00  0.00     0.010 A 
HETATM   49  C20 UNL     1      11.572 -20.145  19.403  1.00  0.00    -0.008 A 
HETATM   50  C21 UNL     1      12.342 -19.329  18.420  1.00  0.00     0.030 C 
ENDBRANCH  42  44
ENDBRANCH   8  40
TORSDOF 9
ENDMDL
MODEL 5
REMARK VINA RESULT: -7.891592855      2.835      5.903
REMARK  9 active torsions:
REMARK  status: ('A' for Active; 'I' for Inactive)
REMARK       I    between atoms: C2_2  and  N1_4 
REMARK    1  A    between atoms: N1_4  and  C3_6 
REMARK    2  A    between atoms: C3_6  and  C4_7 
REMARK    3  A    between atoms: C3_6  and  C27_47 
REMARK       I    between atoms: C4_7  and  N2_9 
REMARK    4  A    between atoms: C8_15  and  C9_16 
REMARK       I    between atoms: C9_16  and  N3_18 
REMARK    5  A    between atoms: C13_23  and  C14_24 
REMARK       I    between atoms: C14_24  and  N4_26 
REMARK    6  A    between atoms: N4_26  and  C15_28 
REMARK    7  A    between atoms: C22_35  and  C23_36 
REMARK       I    between atoms: C23_36  and  N5_38 
REMARK    8  A    between atoms: C24_40  and  C25_41 
REMARK    9  A    between atoms: C25_41  and  N6_43 
ROOT
HETATM    1  C9  UNL     1      11.892 -17.186  14.416  1.00  0.00     0.243 C 
HETATM    2  O3  UNL     1      10.757 -16.676  14.684  1.00  0.00    -0.271 OA
HETATM    3  N3  UNL     1      13.067 -16.757  15.093  1.00  0.00    -0.333 N 
HETATM    4  C10 UNL     1      14.361 -17.314  14.728  1.00  0.00     0.164 C 
HETATM    5  C11 UNL     1      15.225 -17.584  15.919  1.00  0.00     0.189 C 
HETATM    6  F3  UNL     1      15.448 -18.947  16.113  1.00  0.00    -0.248 F 
HETATM    7  C12 UNL     1      14.709 -17.026  17.212  1.00  0.00     0.055 C 
HETATM    8  C13 UNL     1      14.173 -15.643  16.976  1.00  0.00     0.112 C 
HETATM    9  C22 UNL     1      12.929 -15.776  16.149  1.00  0.00     0.192 C 
ENDROOT
BRANCH   1  10
HETATM   10  C8  UNL     1      11.911 -18.237  13.369  1.00  0.00     0.185 C 
HETATM   11  N2  UNL     1      10.701 -18.307  12.586  1.00  0.00    -0.331 N 
HETATM   12  C4  UNL     1      10.538 -17.825  11.266  1.00  0.00     0.244 C 
HETATM   13  C5  UNL     1       9.712 -18.969  13.400  1.00  0.00     0.205 C 
HETATM   14  O2  UNL     1      11.538 -17.280  10.696  1.00  0.00    -0.271 OA
HETATM   15  C6  UNL     1      10.503 -19.869  14.320  1.00  0.00     0.261 C 
HETATM   16  F1  UNL     1      10.231 -19.583  15.666  1.00  0.00    -0.204 F 
HETATM   17  F2  UNL     1      10.193 -21.204  14.153  1.00  0.00    -0.204 F 
HETATM   18  C7  UNL     1      11.949 -19.566  14.102  1.00  0.00     0.115 C 
BRANCH  12  19
HETATM   19  C3  UNL     1       9.318 -17.890  10.463  1.00  0.00     0.184 C 
BRANCH  19  20
HETATM   20  N1  UNL     1       9.602 -18.229   9.070  1.00  0.00    -0.347 N 
HETATM   21  C2  UNL     1       9.037 -19.426   8.552  1.00  0.00     0.214 C 
HETATM   22  C1  UNL     1       9.234 -19.897   7.168  1.00  0.00     0.117 C 
HETATM   23  O1  UNL     1       8.327 -20.132   9.305  1.00  0.00    -0.274 OA
ATOM     24  H1  UNL     1      10.186 -17.626   8.490  1.00  0.00     0.163 HD
ENDBRANCH  19  20
BRANCH  19  25
HETATM   25  C27 UNL     1       8.682 -16.501  10.387  1.00  0.00    -0.022 C 
HETATM   26  C28 UNL     1       9.128 -15.735   9.174  1.00  0.00     0.017 C 
HETATM   27  C29 UNL     1       8.855 -15.707  11.655  1.00  0.00     0.017 C 
HETATM   28  C30 UNL     1       7.155 -16.663  10.234  1.00  0.00     0.017 C 
ENDBRANCH  19  25
ENDBRANCH  12  19
ENDBRANCH   1  10
BRANCH   9  29
HETATM   29  C23 UNL     1      12.493 -14.451  15.716  1.00  0.00     0.245 C 
HETATM   30  O5  UNL     1      12.581 -13.994  14.551  1.00  0.00    -0.271 OA
HETATM   31  N5  UNL     1      11.919 -13.597  16.688  1.00  0.00    -0.337 N 
HETATM   32  C24 UNL     1      10.761 -13.116  16.731  1.00  0.00     0.096 C 
ATOM     33  H5  UNL     1      12.533 -13.336  17.461  1.00  0.00     0.168 HD
BRANCH  32  34
HETATM   34  C25 UNL     1       9.693 -13.348  15.731  1.00  0.00     0.217 C 
HETATM   35  C26 UNL     1       8.569 -12.316  15.904  1.00  0.00     0.045 C 
BRANCH  34  36
HETATM   36  N6  UNL     1       9.092 -14.641  15.954  1.00  0.00    -0.071 N 
ATOM     37  H63 UNL     1       8.413 -14.624  16.714  1.00  0.00     0.275 HD
ATOM     38  H62 UNL     1       8.460 -14.907  15.199  1.00  0.00     0.275 HD
ATOM     39  H61 UNL     1       9.823 -15.336  16.106  1.00  0.00     0.275 HD
ENDBRANCH  34  36
ENDBRANCH  32  34
ENDBRANCH   9  29
BRANCH   8  40
HETATM   40  C14 UNL     1      15.163 -14.701  16.427  1.00  0.00     0.224 C 
HETATM   41  O4  UNL     1      16.404 -14.920  16.418  1.00  0.00    -0.273 OA
HETATM   42  N4  UNL     1      14.708 -13.481  15.877  1.00  0.00    -0.356 N 
ATOM     43  H4  UNL     1      13.707 -13.280  15.870  1.00  0.00     0.162 HD
BRANCH  42  44
HETATM   44  C15 UNL     1      15.626 -12.514  15.323  1.00  0.00     0.084 C 
HETATM   45  C16 UNL     1      15.756 -12.683  13.811  1.00  0.00     0.025 C 
HETATM   46  C17 UNL     1      16.851 -11.746  13.381  1.00  0.00     0.007 C 
HETATM   47  C18 UNL     1      16.665 -10.333  13.799  1.00  0.00    -0.010 A 
HETATM   48  C19 UNL     1      15.417  -9.591  13.592  1.00  0.00     0.010 A 
HETATM   49  C20 UNL     1      15.893 -10.048  14.989  1.00  0.00    -0.008 A 
HETATM   50  C21 UNL     1      15.064 -11.148  15.559  1.00  0.00     0.030 C 
ENDBRANCH  42  44
ENDBRANCH   8  40
TORSDOF 9
ENDMDL
