MODEL 1
REMARK VINA RESULT: -10.049640438      0.000      0.000
REMARK  11 active torsions:
REMARK  status: ('A' for Active; 'I' for Inactive)
REMARK    1  A    between atoms: N1_1  and  S1_4 
REMARK    2  A    between atoms: S1_4  and  C1_6 
REMARK    3  A    between atoms: S1_4  and  N2_9 
REMARK    4  A    between atoms: C5_12  and  C6_13 
REMARK    5  A    between atoms: C6_13  and  O2_14 
REMARK    6  A    between atoms: C6_13  and  C7_16 
REMARK    7  A    between atoms: C7_16  and  C8_17 
REMARK    8  A    between atoms: C18_27  and  C19_28 
REMARK       I    between atoms: C19_28  and  N4_30 
REMARK    9  A    between atoms: C22_33  and  C23_34 
REMARK   10  A    between atoms: N5_40  and  C26_41 
REMARK   11  A    between atoms: C26_41  and  C27_42 
ROOT
HETATM    1  N2  UNL     1      12.966 -16.759  14.221  1.00  0.00    -0.105 NA
HETATM    2  N3  UNL     1      13.000 -17.727  13.202  1.00  0.00    -0.146 NA
HETATM    3  C4  UNL     1      11.666 -18.262  13.053  1.00  0.00     0.143 C 
HETATM    4  C5  UNL     1      10.858 -16.945  13.287  1.00  0.00     0.083 C 
HETATM    5  C18 UNL     1      11.603 -16.552  14.533  1.00  0.00     0.097 C 
ENDROOT
BRANCH   5   6
HETATM    6  C19 UNL     1      11.162 -15.394  15.257  1.00  0.00     0.282 C 
HETATM    7  O3  UNL     1      10.159 -15.662  16.034  1.00  0.00    -0.265 OA
HETATM    8  N4  UNL     1      11.618 -14.073  15.266  1.00  0.00    -0.251 N 
HETATM    9  C20 UNL     1      12.680 -13.553  14.366  1.00  0.00     0.159 C 
HETATM   10  N5  UNL     1      11.100 -13.133  16.221  1.00  0.00    -0.247 N 
HETATM   11  C21 UNL     1      13.657 -12.945  15.280  1.00  0.00     0.035 A 
HETATM   12  C22 UNL     1      14.319 -11.696  15.402  1.00  0.00     0.107 A 
HETATM   13  C24 UNL     1      12.908 -11.596  15.600  1.00  0.00     0.101 A 
HETATM   14  C25 UNL     1      11.967 -12.025  16.592  1.00  0.00     0.244 C 
HETATM   15  O6  UNL     1      11.891 -11.480  17.719  1.00  0.00    -0.271 OA
BRANCH  12  16
HETATM   16  C23 UNL     1      14.927 -11.058  14.217  1.00  0.00     0.178 C 
HETATM   17  O4  UNL     1      15.577 -11.736  13.406  1.00  0.00    -0.648 OA
HETATM   18  O5  UNL     1      14.768  -9.705  14.020  1.00  0.00    -0.648 OA
ENDBRANCH  12  16
BRANCH  10  19
HETATM   19  C26 UNL     1       9.804 -13.219  16.825  1.00  0.00     0.269 C 
BRANCH  19  20
HETATM   20  C27 UNL     1       8.717 -12.502  16.038  1.00  0.00     0.405 C 
HETATM   21  F1  UNL     1       7.667 -12.088  16.812  1.00  0.00    -0.169 F 
HETATM   22  F2  UNL     1       9.271 -11.461  15.317  1.00  0.00    -0.169 F 
HETATM   23  F3  UNL     1       8.177 -13.367  15.074  1.00  0.00    -0.169 F 
ENDBRANCH  19  20
ENDBRANCH  10  19
ENDBRANCH   5   6
BRANCH   1  24
HETATM   24  S1  UNL     1      13.828 -17.543  15.533  1.00  0.00     0.108 S 
HETATM   25  O1  UNL     1      12.928 -18.335  16.401  1.00  0.00    -0.232 OA
BRANCH  24  26
HETATM   26  N1  UNL     1      14.905 -18.518  14.967  1.00  0.00    -0.347 N 
ATOM     27  H12 UNL     1      15.823 -18.689  15.377  1.00  0.00     0.166 HD
ATOM     28  H11 UNL     1      14.519 -18.943  14.124  1.00  0.00     0.166 HD
ENDBRANCH  24  26
BRANCH  24  29
HETATM   29  C1  UNL     1      14.579 -16.300  16.567  1.00  0.00     0.104 A 
HETATM   30  C2  UNL     1      15.756 -16.782  17.358  1.00  0.00     0.021 A 
HETATM   31  C3  UNL     1      15.911 -15.757  16.246  1.00  0.00     0.021 A 
ENDBRANCH  24  29
ENDBRANCH   1  24
BRANCH   4  32
HETATM   32  C6  UNL     1      11.105 -16.176  12.045  1.00  0.00     0.130 C 
BRANCH  32  33
HETATM   33  O2  UNL     1      10.628 -17.068  11.031  1.00  0.00    -0.395 OA
ATOM     34  H2  UNL     1       9.707 -17.152  11.250  1.00  0.00     0.210 HD
ENDBRANCH  32  33
BRANCH  32  35
HETATM   35  C7  UNL     1      10.420 -14.874  11.895  1.00  0.00     0.042 C 
BRANCH  35  36
HETATM   36  C8  UNL     1       9.102 -14.903  11.187  1.00  0.00    -0.037 C 
HETATM   37  C9  UNL     1       8.602 -13.446  11.269  1.00  0.00     0.014 C 
HETATM   38  C10 UNL     1       7.306 -13.239  10.567  1.00  0.00    -0.013 C 
HETATM   39  C11 UNL     1       6.236 -14.065  11.297  1.00  0.00     0.009 C 
HETATM   40  C15 UNL     1       7.311 -13.693   9.140  1.00  0.00     0.009 C 
HETATM   41  C12 UNL     1       6.693 -15.483  11.209  1.00  0.00    -0.013 C 
HETATM   42  C13 UNL     1       6.826 -15.983   9.788  1.00  0.00     0.009 C 
HETATM   43  C17 UNL     1       8.051 -15.724  11.867  1.00  0.00     0.014 C 
HETATM   44  C14 UNL     1       7.845 -15.108   9.098  1.00  0.00    -0.013 C 
HETATM   45  C16 UNL     1       9.211 -15.190   9.713  1.00  0.00     0.014 C 
ENDBRANCH  35  36
ENDBRANCH  32  35
ENDBRANCH   4  32
TORSDOF 11
ENDMDL
MODEL 2
REMARK VINA RESULT: -9.990189795      0.827      1.145
REMARK  11 active torsions:
REMARK  status: ('A' for Active; 'I' for Inactive)
REMARK    1  A    between atoms: N1_1  and  S1_4 
REMARK    2  A    between atoms: S1_4  and  C1_6 
REMARK    3  A    between atoms: S1_4  and  N2_9 
REMARK    4  A    between atoms: C5_12  and  C6_13 
REMARK    5  A    between atoms: C6_13  and  O2_14 
REMARK    6  A    between atoms: C6_13  and  C7_16 
REMARK    7  A    between atoms: C7_16  and  C8_17 
REMARK    8  A    between atoms: C18_27  and  C19_28 
REMARK       I    between atoms: C19_28  and  N4_30 
REMARK    9  A    between atoms: C22_33  and  C23_34 
REMARK   10  A    between atoms: N5_40  and  C26_41 
REMARK   11  A    between atoms: C26_41  and  C27_42 
ROOT
HETATM    1  N2  UNL     1      13.081 -16.483  13.784  1.00  0.00    -0.105 NA
HETATM    2  N3  UNL     1      13.054 -17.567  12.889  1.00  0.00    -0.146 NA
HETATM    3  C4  UNL     1      11.911 -18.387  13.218  1.00  0.00     0.143 C 
HETATM    4  C5  UNL     1      10.907 -17.248  13.592  1.00  0.00     0.083 C 
HETATM    5  C18 UNL     1      11.862 -16.522  14.499  1.00  0.00     0.097 C 
ENDROOT
BRANCH   5   6
HETATM    6  C19 UNL     1      11.380 -15.385  15.230  1.00  0.00     0.282 C 
HETATM    7  O3  UNL     1      10.393 -15.695  16.012  1.00  0.00    -0.265 OA
HETATM    8  N4  UNL     1      11.784 -14.048  15.243  1.00  0.00    -0.251 N 
HETATM    9  C20 UNL     1      12.820 -13.482  14.340  1.00  0.00     0.159 C 
HETATM   10  N5  UNL     1      11.236 -13.132  16.204  1.00  0.00    -0.247 N 
HETATM   11  C21 UNL     1      13.777 -12.840  15.250  1.00  0.00     0.035 A 
HETATM   12  C22 UNL     1      14.390 -11.567  15.375  1.00  0.00     0.107 A 
HETATM   13  C24 UNL     1      12.978 -11.523  15.581  1.00  0.00     0.101 A 
HETATM   14  C25 UNL     1      12.061 -11.993  16.577  1.00  0.00     0.244 C 
HETATM   15  O6  UNL     1      11.969 -11.456  17.706  1.00  0.00    -0.271 OA
BRANCH  12  16
HETATM   16  C23 UNL     1      14.967 -10.900  14.190  1.00  0.00     0.178 C 
HETATM   17  O4  UNL     1      14.763  -9.692  13.991  1.00  0.00    -0.648 OA
HETATM   18  O5  UNL     1      15.730 -11.629  13.307  1.00  0.00    -0.648 OA
ENDBRANCH  12  16
BRANCH  10  19
HETATM   19  C26 UNL     1       9.948 -13.272  16.816  1.00  0.00     0.269 C 
BRANCH  19  20
HETATM   20  C27 UNL     1       8.817 -12.664  15.998  1.00  0.00     0.405 C 
HETATM   21  F1  UNL     1       8.348 -13.493  15.015  1.00  0.00    -0.169 F 
HETATM   22  F2  UNL     1       7.808 -12.237  16.840  1.00  0.00    -0.169 F 
HETATM   23  F3  UNL     1       9.268 -11.503  15.351  1.00  0.00    -0.169 F 
ENDBRANCH  19  20
ENDBRANCH  10  19
ENDBRANCH   5   6
BRANCH   1  24
HETATM   24  S1  UNL     1      14.455 -16.859  14.809  1.00  0.00     0.108 S 
HETATM   25  O1  UNL     1      15.071 -18.161  14.468  1.00  0.00    -0.232 OA
BRANCH  24  26
HETATM   26  N1  UNL     1      15.559 -15.768  14.657  1.00  0.00    -0.347 N 
ATOM     27  H12 UNL     1      16.414 -15.862  14.109  1.00  0.00     0.166 HD
ATOM     28  H11 UNL     1      15.263 -14.957  15.200  1.00  0.00     0.166 HD
ENDBRANCH  24  26
BRANCH  24  29
HETATM   29  C1  UNL     1      13.910 -16.975  16.502  1.00  0.00     0.104 A 
HETATM   30  C2  UNL     1      15.019 -17.055  17.505  1.00  0.00     0.021 A 
HETATM   31  C3  UNL     1      14.097 -15.848  17.434  1.00  0.00     0.021 A 
ENDBRANCH  24  29
ENDBRANCH   1  24
BRANCH   4  32
HETATM   32  C6  UNL     1      10.582 -16.644  12.279  1.00  0.00     0.130 C 
BRANCH  32  33
HETATM   33  O2  UNL     1       9.616 -17.559  11.750  1.00  0.00    -0.395 OA
ATOM     34  H2  UNL     1       8.939 -16.977  11.426  1.00  0.00     0.210 HD
ENDBRANCH  32  33
BRANCH  32  35
HETATM   35  C7  UNL     1      10.002 -15.284  12.273  1.00  0.00     0.042 C 
BRANCH  35  36
HETATM   36  C8  UNL     1       8.834 -15.071  11.362  1.00  0.00    -0.037 C 
HETATM   37  C9  UNL     1       8.602 -13.547  11.404  1.00  0.00     0.014 C 
HETATM   38  C10 UNL     1       7.496 -13.107  10.508  1.00  0.00    -0.013 C 
HETATM   39  C11 UNL     1       6.190 -13.719  11.035  1.00  0.00     0.009 C 
HETATM   40  C15 UNL     1       7.651 -13.558   9.089  1.00  0.00     0.009 C 
HETATM   41  C12 UNL     1       6.389 -15.197  10.983  1.00  0.00    -0.013 C 
HETATM   42  C13 UNL     1       6.658 -15.717   9.588  1.00  0.00     0.009 C 
HETATM   43  C17 UNL     1       7.555 -15.682  11.843  1.00  0.00     0.014 C 
HETATM   44  C14 UNL     1       7.917 -15.046   9.095  1.00  0.00    -0.013 C 
HETATM   45  C16 UNL     1       9.127 -15.377   9.918  1.00  0.00     0.014 C 
ENDBRANCH  35  36
ENDBRANCH  32  35
ENDBRANCH   4  32
TORSDOF 11
ENDMDL
MODEL 3
REMARK VINA RESULT: -9.803934215      0.551      1.183
REMARK  11 active torsions:
REMARK  status: ('A' for Active; 'I' for Inactive)
REMARK    1  A    between atoms: N1_1  and  S1_4 
REMARK    2  A    between atoms: S1_4  and  C1_6 
REMARK    3  A    between atoms: S1_4  and  N2_9 
REMARK    4  A    between atoms: C5_12  and  C6_13 
REMARK    5  A    between atoms: C6_13  and  O2_14 
REMARK    6  A    between atoms: C6_13  and  C7_16 
REMARK    7  A    between atoms: C7_16  and  C8_17 
REMARK    8  A    between atoms: C18_27  and  C19_28 
REMARK       I    between atoms: C19_28  and  N4_30 
REMARK    9  A    between atoms: C22_33  and  C23_34 
REMARK   10  A    between atoms: N5_40  and  C26_41 
REMARK   11  A    between atoms: C26_41  and  C27_42 
ROOT
HETATM    1  N2  UNL     1      13.066 -16.827  14.182  1.00  0.00    -0.105 NA
HETATM    2  N3  UNL     1      13.168 -17.808  13.180  1.00  0.00    -0.146 NA
HETATM    3  C4  UNL     1      11.853 -18.369  12.972  1.00  0.00     0.143 C 
HETATM    4  C5  UNL     1      11.011 -17.064  13.146  1.00  0.00     0.083 C 
HETATM    5  C18 UNL     1      11.685 -16.641  14.423  1.00  0.00     0.097 C 
ENDROOT
BRANCH   5   6
HETATM    6  C19 UNL     1      11.188 -15.482  15.107  1.00  0.00     0.282 C 
HETATM    7  O3  UNL     1      10.152 -15.757  15.836  1.00  0.00    -0.265 OA
HETATM    8  N4  UNL     1      11.621 -14.153  15.122  1.00  0.00    -0.251 N 
HETATM    9  C20 UNL     1      12.719 -13.626  14.270  1.00  0.00     0.159 C 
HETATM   10  N5  UNL     1      11.039 -13.210  16.036  1.00  0.00    -0.247 N 
HETATM   11  C21 UNL     1      13.637 -12.990  15.224  1.00  0.00     0.035 A 
HETATM   12  C22 UNL     1      14.271 -11.728  15.363  1.00  0.00     0.107 A 
HETATM   13  C24 UNL     1      12.850 -11.650  15.487  1.00  0.00     0.101 A 
HETATM   14  C25 UNL     1      11.868 -12.082  16.436  1.00  0.00     0.244 C 
HETATM   15  O6  UNL     1      11.724 -11.524  17.550  1.00  0.00    -0.271 OA
BRANCH  12  16
HETATM   16  C23 UNL     1      14.928 -11.094  14.202  1.00  0.00     0.178 C 
HETATM   17  O4  UNL     1      15.602 -11.777  13.415  1.00  0.00    -0.648 OA
HETATM   18  O5  UNL     1      14.788  -9.740  14.001  1.00  0.00    -0.648 OA
ENDBRANCH  12  16
BRANCH  10  19
HETATM   19  C26 UNL     1       9.716 -13.311  16.574  1.00  0.00     0.269 C 
BRANCH  19  20
HETATM   20  C27 UNL     1       8.689 -12.470  15.828  1.00  0.00     0.405 C 
HETATM   21  F1  UNL     1       7.670 -12.022  16.624  1.00  0.00    -0.169 F 
HETATM   22  F2  UNL     1       9.324 -11.436  15.166  1.00  0.00    -0.169 F 
HETATM   23  F3  UNL     1       8.090 -13.237  14.817  1.00  0.00    -0.169 F 
ENDBRANCH  19  20
ENDBRANCH  10  19
ENDBRANCH   5   6
BRANCH   1  24
HETATM   24  S1  UNL     1      13.875 -17.578  15.547  1.00  0.00     0.108 S 
HETATM   25  O1  UNL     1      12.946 -18.376  16.379  1.00  0.00    -0.232 OA
BRANCH  24  26
HETATM   26  N1  UNL     1      14.997 -18.539  15.049  1.00  0.00    -0.347 N 
ATOM     27  H12 UNL     1      15.461 -19.250  15.613  1.00  0.00     0.166 HD
ATOM     28  H11 UNL     1      15.172 -18.321  14.068  1.00  0.00     0.166 HD
ENDBRANCH  24  26
BRANCH  24  29
HETATM   29  C1  UNL     1      14.549 -16.308  16.600  1.00  0.00     0.104 A 
HETATM   30  C2  UNL     1      15.715 -16.749  17.430  1.00  0.00     0.021 A 
HETATM   31  C3  UNL     1      15.872 -15.721  16.321  1.00  0.00     0.021 A 
ENDBRANCH  24  29
ENDBRANCH   1  24
BRANCH   4  32
HETATM   32  C6  UNL     1      11.307 -16.307  11.908  1.00  0.00     0.130 C 
BRANCH  32  33
HETATM   33  O2  UNL     1      12.578 -16.838  11.519  1.00  0.00    -0.395 OA
ATOM     34  H2  UNL     1      13.141 -16.564  12.233  1.00  0.00     0.210 HD
ENDBRANCH  32  33
BRANCH  32  35
HETATM   35  C7  UNL     1      10.365 -16.448  10.775  1.00  0.00     0.042 C 
BRANCH  35  36
HETATM   36  C8  UNL     1       9.113 -15.634  10.857  1.00  0.00    -0.037 C 
HETATM   37  C9  UNL     1       8.775 -15.320   9.385  1.00  0.00     0.014 C 
HETATM   38  C10 UNL     1       7.511 -14.548   9.235  1.00  0.00    -0.013 C 
HETATM   39  C11 UNL     1       7.714 -13.176   9.894  1.00  0.00     0.009 C 
HETATM   40  C15 UNL     1       6.330 -15.184   9.901  1.00  0.00     0.009 C 
HETATM   41  C12 UNL     1       8.022 -13.460  11.326  1.00  0.00    -0.013 C 
HETATM   42  C13 UNL     1       6.913 -14.199  12.043  1.00  0.00     0.009 C 
HETATM   43  C17 UNL     1       9.281 -14.302  11.520  1.00  0.00     0.014 C 
HETATM   44  C14 UNL     1       6.715 -15.513  11.326  1.00  0.00    -0.013 C 
HETATM   45  C16 UNL     1       7.923 -16.401  11.370  1.00  0.00     0.014 C 
ENDBRANCH  35  36
ENDBRANCH  32  35
ENDBRANCH   4  32
TORSDOF 11
ENDMDL
MODEL 4
REMARK VINA RESULT: -9.759192779      0.645      1.522
REMARK  11 active torsions:
REMARK  status: ('A' for Active; 'I' for Inactive)
REMARK    1  A    between atoms: N1_1  and  S1_4 
REMARK    2  A    between atoms: S1_4  and  C1_6 
REMARK    3  A    between atoms: S1_4  and  N2_9 
REMARK    4  A    between atoms: C5_12  and  C6_13 
REMARK    5  A    between atoms: C6_13  and  O2_14 
REMARK    6  A    between atoms: C6_13  and  C7_16 
REMARK    7  A    between atoms: C7_16  and  C8_17 
REMARK    8  A    between atoms: C18_27  and  C19_28 
REMARK       I    between atoms: C19_28  and  N4_30 
REMARK    9  A    between atoms: C22_33  and  C23_34 
REMARK   10  A    between atoms: N5_40  and  C26_41 
REMARK   11  A    between atoms: C26_41  and  C27_42 
ROOT
HETATM    1  N2  UNL     1      12.910 -16.930  14.100  1.00  0.00    -0.105 NA
HETATM    2  N3  UNL     1      13.002 -17.875  13.064  1.00  0.00    -0.146 NA
HETATM    3  C4  UNL     1      11.678 -18.404  12.826  1.00  0.00     0.143 C 
HETATM    4  C5  UNL     1      10.860 -17.089  13.040  1.00  0.00     0.083 C 
HETATM    5  C18 UNL     1      11.531 -16.726  14.337  1.00  0.00     0.097 C 
ENDROOT
BRANCH   5   6
HETATM    6  C19 UNL     1      11.050 -15.583  15.058  1.00  0.00     0.282 C 
HETATM    7  O3  UNL     1      10.003 -15.865  15.770  1.00  0.00    -0.265 OA
HETATM    8  N4  UNL     1      11.506 -14.264  15.123  1.00  0.00    -0.251 N 
HETATM    9  C20 UNL     1      12.619 -13.727  14.298  1.00  0.00     0.159 C 
HETATM   10  N5  UNL     1      10.935 -13.343  16.066  1.00  0.00    -0.247 N 
HETATM   11  C21 UNL     1      13.542 -13.141  15.280  1.00  0.00     0.035 A 
HETATM   12  C22 UNL     1      14.197 -11.896  15.467  1.00  0.00     0.107 A 
HETATM   13  C24 UNL     1      12.777 -11.798  15.584  1.00  0.00     0.101 A 
HETATM   14  C25 UNL     1      11.780 -12.245  16.511  1.00  0.00     0.244 C 
HETATM   15  O6  UNL     1      11.639 -11.725  17.643  1.00  0.00    -0.271 OA
BRANCH  12  16
HETATM   16  C23 UNL     1      14.874 -11.234  14.334  1.00  0.00     0.178 C 
HETATM   17  O4  UNL     1      15.490 -11.908  13.493  1.00  0.00    -0.648 OA
HETATM   18  O5  UNL     1      14.816  -9.864  14.218  1.00  0.00    -0.648 OA
ENDBRANCH  12  16
BRANCH  10  19
HETATM   19  C26 UNL     1       9.606 -13.439  16.592  1.00  0.00     0.269 C 
BRANCH  19  20
HETATM   20  C27 UNL     1       8.592 -12.584  15.845  1.00  0.00     0.405 C 
HETATM   21  F1  UNL     1       8.005 -13.231  14.791  1.00  0.00    -0.169 F 
HETATM   22  F2  UNL     1       7.657 -12.085  16.731  1.00  0.00    -0.169 F 
HETATM   23  F3  UNL     1       9.227 -11.454  15.308  1.00  0.00    -0.169 F 
ENDBRANCH  19  20
ENDBRANCH  10  19
ENDBRANCH   5   6
BRANCH   1  24
HETATM   24  S1  UNL     1      13.692 -17.745  15.444  1.00  0.00     0.108 S 
HETATM   25  O1  UNL     1      12.735 -18.523  16.262  1.00  0.00    -0.232 OA
BRANCH  24  26
HETATM   26  N1  UNL     1      14.772 -18.739  14.919  1.00  0.00    -0.347 N 
ATOM     27  H12 UNL     1      14.684 -19.325  14.088  1.00  0.00     0.166 HD
ATOM     28  H11 UNL     1      15.567 -18.690  15.556  1.00  0.00     0.166 HD
ENDBRANCH  24  26
BRANCH  24  29
HETATM   29  C1  UNL     1      14.423 -16.529  16.523  1.00  0.00     0.104 A 
HETATM   30  C2  UNL     1      13.562 -16.135  17.683  1.00  0.00     0.021 A 
HETATM   31  C3  UNL     1      14.865 -16.894  17.880  1.00  0.00     0.021 A 
ENDBRANCH  24  29
ENDBRANCH   1  24
BRANCH   4  32
HETATM   32  C6  UNL     1      11.181 -16.294  11.832  1.00  0.00     0.130 C 
BRANCH  32  33
HETATM   33  O2  UNL     1      12.486 -16.772  11.487  1.00  0.00    -0.395 OA
ATOM     34  H2  UNL     1      12.306 -17.653  11.179  1.00  0.00     0.210 HD
ENDBRANCH  32  33
BRANCH  32  35
HETATM   35  C7  UNL     1      10.294 -16.441  10.657  1.00  0.00     0.042 C 
BRANCH  35  36
HETATM   36  C8  UNL     1       9.136 -15.496  10.585  1.00  0.00    -0.037 C 
HETATM   37  C9  UNL     1       7.957 -16.307  11.161  1.00  0.00     0.014 C 
HETATM   38  C10 UNL     1       6.695 -15.519  11.230  1.00  0.00    -0.013 C 
HETATM   39  C11 UNL     1       6.273 -15.176   9.793  1.00  0.00     0.009 C 
HETATM   40  C15 UNL     1       6.828 -14.224  11.969  1.00  0.00     0.009 C 
HETATM   41  C12 UNL     1       7.396 -14.373   9.226  1.00  0.00    -0.013 C 
HETATM   42  C13 UNL     1       7.663 -13.093   9.989  1.00  0.00     0.009 C 
HETATM   43  C17 UNL     1       8.724 -15.126   9.194  1.00  0.00     0.014 C 
HETATM   44  C14 UNL     1       8.018 -13.481  11.404  1.00  0.00    -0.013 C 
HETATM   45  C16 UNL     1       9.268 -14.306  11.497  1.00  0.00     0.014 C 
ENDBRANCH  35  36
ENDBRANCH  32  35
ENDBRANCH   4  32
TORSDOF 11
ENDMDL
MODEL 5
REMARK VINA RESULT: -9.459870240      1.203      1.463
REMARK  11 active torsions:
REMARK  status: ('A' for Active; 'I' for Inactive)
REMARK    1  A    between atoms: N1_1  and  S1_4 
REMARK    2  A    between atoms: S1_4  and  C1_6 
REMARK    3  A    between atoms: S1_4  and  N2_9 
REMARK    4  A    between atoms: C5_12  and  C6_13 
REMARK    5  A    between atoms: C6_13  and  O2_14 
REMARK    6  A    between atoms: C6_13  and  C7_16 
REMARK    7  A    between atoms: C7_16  and  C8_17 
REMARK    8  A    between atoms: C18_27  and  C19_28 
REMARK       I    between atoms: C19_28  and  N4_30 
REMARK    9  A    between atoms: C22_33  and  C23_34 
REMARK   10  A    between atoms: N5_40  and  C26_41 
REMARK   11  A    between atoms: C26_41  and  C27_42 
ROOT
HETATM    1  N2  UNL     1      13.700 -16.810  13.977  1.00  0.00    -0.105 NA
HETATM    2  N3  UNL     1      13.400 -17.612  12.862  1.00  0.00    -0.146 NA
HETATM    3  C4  UNL     1      12.038 -18.073  12.999  1.00  0.00     0.143 C 
HETATM    4  C5  UNL     1      11.415 -16.780  13.619  1.00  0.00     0.083 C 
HETATM    5  C18 UNL     1      12.482 -16.607  14.665  1.00  0.00     0.097 C 
ENDROOT
BRANCH   5   6
HETATM    6  C19 UNL     1      12.327 -15.559  15.632  1.00  0.00     0.282 C 
HETATM    7  O3  UNL     1      11.639 -15.947  16.661  1.00  0.00    -0.265 OA
HETATM    8  N4  UNL     1      12.781 -14.238  15.653  1.00  0.00    -0.251 N 
HETATM    9  C20 UNL     1      13.489 -13.583  14.522  1.00  0.00     0.159 C 
HETATM   10  N5  UNL     1      12.628 -13.436  16.835  1.00  0.00    -0.247 N 
HETATM   11  C21 UNL     1      14.725 -13.066  15.125  1.00  0.00     0.035 A 
HETATM   12  C22 UNL     1      15.409 -11.824  15.174  1.00  0.00     0.107 A 
HETATM   13  C24 UNL     1      14.148 -11.787  15.842  1.00  0.00     0.101 A 
HETATM   14  C25 UNL     1      13.587 -12.359  17.030  1.00  0.00     0.244 C 
HETATM   15  O6  UNL     1      13.901 -11.958  18.177  1.00  0.00    -0.271 OA
BRANCH  12  16
HETATM   16  C23 UNL     1      15.596 -11.029  13.943  1.00  0.00     0.178 C 
HETATM   17  O4  UNL     1      16.207 -11.509  12.975  1.00  0.00    -0.648 OA
HETATM   18  O5  UNL     1      15.087  -9.752  13.878  1.00  0.00    -0.648 OA
ENDBRANCH  12  16
BRANCH  10  19
HETATM   19  C26 UNL     1      11.608 -13.630  17.822  1.00  0.00     0.269 C 
BRANCH  19  20
HETATM   20  C27 UNL     1      10.444 -12.658  17.694  1.00  0.00     0.405 C 
HETATM   21  F1  UNL     1      10.429 -11.978  16.506  1.00  0.00    -0.169 F 
HETATM   22  F2  UNL     1       9.254 -13.320  17.927  1.00  0.00    -0.169 F 
HETATM   23  F3  UNL     1      10.524 -11.685  18.702  1.00  0.00    -0.169 F 
ENDBRANCH  19  20
ENDBRANCH  10  19
ENDBRANCH   5   6
BRANCH   1  24
HETATM   24  S1  UNL     1      14.812 -17.814  14.892  1.00  0.00     0.108 S 
HETATM   25  O1  UNL     1      14.188 -18.371  16.114  1.00  0.00    -0.232 OA
BRANCH  24  26
HETATM   26  N1  UNL     1      15.294 -19.017  14.026  1.00  0.00    -0.347 N 
ATOM     27  H12 UNL     1      15.515 -18.980  13.031  1.00  0.00     0.166 HD
ATOM     28  H11 UNL     1      15.345 -19.832  14.638  1.00  0.00     0.166 HD
ENDBRANCH  24  26
BRANCH  24  29
HETATM   29  C1  UNL     1      16.194 -16.823  15.426  1.00  0.00     0.104 A 
HETATM   30  C2  UNL     1      15.979 -16.110  16.724  1.00  0.00     0.021 A 
HETATM   31  C3  UNL     1      17.004 -17.224  16.590  1.00  0.00     0.021 A 
ENDBRANCH  24  29
ENDBRANCH   1  24
BRANCH   4  32
HETATM   32  C6  UNL     1      11.390 -15.840  12.474  1.00  0.00     0.130 C 
BRANCH  32  33
HETATM   33  O2  UNL     1      11.091 -16.704  11.372  1.00  0.00    -0.395 OA
ATOM     34  H2  UNL     1      11.673 -16.379  10.694  1.00  0.00     0.210 HD
ENDBRANCH  32  33
BRANCH  32  35
HETATM   35  C7  UNL     1      10.394 -14.747  12.505  1.00  0.00     0.042 C 
BRANCH  35  36
HETATM   36  C8  UNL     1       9.228 -14.893  11.579  1.00  0.00    -0.037 C 
HETATM   37  C9  UNL     1       8.569 -13.499  11.585  1.00  0.00     0.014 C 
HETATM   38  C10 UNL     1       7.398 -13.409  10.669  1.00  0.00    -0.013 C 
HETATM   39  C11 UNL     1       6.313 -14.360  11.196  1.00  0.00     0.009 C 
HETATM   40  C15 UNL     1       7.698 -13.822   9.261  1.00  0.00     0.009 C 
HETATM   41  C12 UNL     1       6.928 -15.720  11.177  1.00  0.00    -0.013 C 
HETATM   42  C13 UNL     1       7.356 -16.167   9.796  1.00  0.00     0.009 C 
HETATM   43  C17 UNL     1       8.169 -15.836  12.059  1.00  0.00     0.014 C 
HETATM   44  C14 UNL     1       8.379 -15.172   9.302  1.00  0.00    -0.013 C 
HETATM   45  C16 UNL     1       9.620 -15.128  10.144  1.00  0.00     0.014 C 
ENDBRANCH  35  36
ENDBRANCH  32  35
ENDBRANCH   4  32
TORSDOF 11
ENDMDL
