MODEL 1
REMARK VINA RESULT: -5.808121353      0.000      0.000
REMARK  9 active torsions:
REMARK  status: ('A' for Active; 'I' for Inactive)
REMARK    1  A    between atoms: C4_4  and  O1_5 
REMARK    2  A    between atoms: C6_8  and  O2_10 
REMARK    3  A    between atoms: C8_12  and  C9_13 
REMARK    4  A    between atoms: C9_13  and  C11_15 
REMARK    5  A    between atoms: C14_19  and  O4_20 
REMARK    6  A    between atoms: C14_19  and  C15_22 
REMARK    7  A    between atoms: C15_22  and  O5_23 
REMARK    8  A    between atoms: C15_22  and  C16_25 
REMARK    9  A    between atoms: C15_22  and  C17_28 
ROOT
HETATM    1  C11 UNL     1      10.444  74.281  27.024  1.00  0.00     0.058 C 
HETATM    2  C12 UNL     1       9.267  73.754  27.763  1.00  0.00     0.037 C 
HETATM    3  C13 UNL     1       8.066  73.958  26.853  1.00  0.00     0.172 C 
HETATM    4  O3  UNL     1       8.435  74.968  26.024  1.00  0.00    -0.352 OA
HETATM    5  C14 UNL     1       9.827  74.933  25.822  1.00  0.00     0.208 C 
ENDROOT
BRANCH   1   6
HETATM    6  C9  UNL     1      11.372  75.180  27.718  1.00  0.00    -0.002 C 
HETATM    7  C10 UNL     1      10.855  75.492  29.117  1.00  0.00     0.011 C 
BRANCH   6   8
HETATM    8  C8  UNL     1      12.808  74.857  27.834  1.00  0.00     0.028 C 
HETATM    9  C2  UNL     1      13.257  73.494  28.164  1.00  0.00    -0.009 C 
HETATM   10  C1  UNL     1      13.700  72.626  27.013  1.00  0.00     0.010 C 
HETATM   11  C3  UNL     1      14.538  73.660  29.022  1.00  0.00     0.036 C 
HETATM   12  C4  UNL     1      15.469  74.652  28.407  1.00  0.00     0.121 C 
HETATM   13  C5  UNL     1      15.125  75.155  27.061  1.00  0.00     0.069 C 
HETATM   14  C6  UNL     1      13.708  75.571  26.842  1.00  0.00     0.061 C 
HETATM   15  C7  UNL     1      13.577  77.083  27.098  1.00  0.00     0.046 C 
BRANCH  12  16
HETATM   16  O1  UNL     1      15.685  75.765  29.253  1.00  0.00    -0.395 OA
ATOM     17  H1  UNL     1      14.883  76.250  29.409  1.00  0.00     0.210 HD
ENDBRANCH  12  16
BRANCH  14  18
HETATM   18  O2  UNL     1      13.390  75.391  25.527  1.00  0.00    -0.390 OA
ATOM     19  H2  UNL     1      12.830  74.628  25.447  1.00  0.00     0.210 HD
ENDBRANCH  14  18
ENDBRANCH   6   8
ENDBRANCH   1   6
BRANCH   5  20
HETATM   20  O4  UNL     1      10.184  76.263  25.634  1.00  0.00    -0.362 OA
ATOM     21  H4  UNL     1       9.748  76.693  24.907  1.00  0.00     0.213 HD
ENDBRANCH   5  20
BRANCH   5  22
HETATM   22  C15 UNL     1      10.019  74.156  24.554  1.00  0.00     0.206 C 
BRANCH  22  23
HETATM   23  O5  UNL     1       8.766  73.629  24.162  1.00  0.00    -0.374 OA
ATOM     24  H5  UNL     1       8.163  74.352  24.041  1.00  0.00     0.211 HD
ENDBRANCH  22  23
BRANCH  22  25
HETATM   25  C16 UNL     1      10.439  75.096  23.489  1.00  0.00     0.215 C 
HETATM   26  O6  UNL     1      11.605  75.596  23.442  1.00  0.00    -0.646 OA
HETATM   27  O7  UNL     1       9.567  75.463  22.500  1.00  0.00    -0.646 OA
ENDBRANCH  22  25
BRANCH  22  28
HETATM   28  C17 UNL     1      10.942  72.998  24.606  1.00  0.00     0.037 C 
HETATM   29  C18 UNL     1      11.808  72.755  23.429  1.00  0.00     0.008 C 
HETATM   30  C19 UNL     1      12.745  71.595  23.811  1.00  0.00     0.001 C 
HETATM   31  C20 UNL     1      11.911  70.367  23.885  1.00  0.00     0.000 C 
HETATM   32  C21 UNL     1      10.715  70.490  24.775  1.00  0.00     0.001 C 
HETATM   33  C22 UNL     1      10.016  71.780  24.746  1.00  0.00     0.008 C 
ENDBRANCH  22  28
ENDBRANCH   5  22
TORSDOF 9
ENDMDL
MODEL 2
REMARK VINA RESULT: -5.569099710      3.142      4.812
REMARK  9 active torsions:
REMARK  status: ('A' for Active; 'I' for Inactive)
REMARK    1  A    between atoms: C4_4  and  O1_5 
REMARK    2  A    between atoms: C6_8  and  O2_10 
REMARK    3  A    between atoms: C8_12  and  C9_13 
REMARK    4  A    between atoms: C9_13  and  C11_15 
REMARK    5  A    between atoms: C14_19  and  O4_20 
REMARK    6  A    between atoms: C14_19  and  C15_22 
REMARK    7  A    between atoms: C15_22  and  O5_23 
REMARK    8  A    between atoms: C15_22  and  C16_25 
REMARK    9  A    between atoms: C15_22  and  C17_28 
ROOT
HETATM    1  C11 UNL     1       7.655  73.882  24.743  1.00  0.00     0.058 C 
HETATM    2  C12 UNL     1       6.540  74.472  23.958  1.00  0.00     0.037 C 
HETATM    3  C13 UNL     1       7.184  75.317  22.871  1.00  0.00     0.172 C 
HETATM    4  O3  UNL     1       8.416  75.616  23.356  1.00  0.00    -0.352 OA
HETATM    5  C14 UNL     1       8.865  74.574  24.188  1.00  0.00     0.208 C 
ENDROOT
BRANCH   1   6
HETATM    6  C9  UNL     1       7.607  73.954  26.207  1.00  0.00    -0.002 C 
HETATM    7  C10 UNL     1       6.361  74.706  26.657  1.00  0.00     0.011 C 
BRANCH   6   8
HETATM    8  C8  UNL     1       7.719  72.739  27.038  1.00  0.00     0.028 C 
HETATM    9  C2  UNL     1       6.940  71.529  26.725  1.00  0.00    -0.009 C 
HETATM   10  C1  UNL     1       7.653  70.435  25.972  1.00  0.00     0.010 C 
HETATM   11  C3  UNL     1       6.592  70.878  28.089  1.00  0.00     0.036 C 
HETATM   12  C4  UNL     1       7.793  70.815  28.974  1.00  0.00     0.121 C 
HETATM   13  C5  UNL     1       9.090  71.196  28.377  1.00  0.00     0.069 C 
HETATM   14  C6  UNL     1       9.113  72.446  27.562  1.00  0.00     0.061 C 
HETATM   15  C7  UNL     1       9.532  73.627  28.454  1.00  0.00     0.046 C 
BRANCH  12  16
HETATM   16  O1  UNL     1       7.613  71.568  30.157  1.00  0.00    -0.395 OA
ATOM     17  H1  UNL     1       8.379  72.093  30.361  1.00  0.00     0.210 HD
ENDBRANCH  12  16
BRANCH  14  18
HETATM   18  O2  UNL     1      10.086  72.338  26.611  1.00  0.00    -0.390 OA
ATOM     19  H2  UNL     1      10.830  72.869  26.870  1.00  0.00     0.210 HD
ENDBRANCH  14  18
ENDBRANCH   6   8
ENDBRANCH   1   6
BRANCH   5  20
HETATM   20  O4  UNL     1       9.661  75.204  25.136  1.00  0.00    -0.362 OA
ATOM     21  H4  UNL     1       9.277  75.982  25.524  1.00  0.00     0.213 HD
ENDBRANCH   5  20
BRANCH   5  22
HETATM   22  C15 UNL     1       9.701  73.699  23.302  1.00  0.00     0.206 C 
BRANCH  22  23
HETATM   23  O5  UNL     1       9.451  74.061  21.958  1.00  0.00    -0.374 OA
ATOM     24  H5  UNL     1       9.240  74.987  21.932  1.00  0.00     0.211 HD
ENDBRANCH  22  23
BRANCH  22  25
HETATM   25  C16 UNL     1      11.128  73.995  23.566  1.00  0.00     0.215 C 
HETATM   26  O6  UNL     1      11.844  74.673  22.768  1.00  0.00    -0.646 OA
HETATM   27  O7  UNL     1      11.735  73.537  24.706  1.00  0.00    -0.646 OA
ENDBRANCH  22  25
BRANCH  22  28
HETATM   28  C17 UNL     1       9.461  72.239  23.375  1.00  0.00     0.037 C 
HETATM   29  C18 UNL     1      10.626  71.340  23.207  1.00  0.00     0.008 C 
HETATM   30  C19 UNL     1      10.115  69.911  23.466  1.00  0.00     0.001 C 
HETATM   31  C20 UNL     1       9.234  69.550  22.324  1.00  0.00     0.000 C 
HETATM   32  C21 UNL     1       8.143  70.538  22.054  1.00  0.00     0.001 C 
HETATM   33  C22 UNL     1       8.498  71.953  22.212  1.00  0.00     0.008 C 
ENDBRANCH  22  28
ENDBRANCH   5  22
TORSDOF 9
ENDMDL
MODEL 3
REMARK VINA RESULT: -5.507002019      3.063      6.316
REMARK  9 active torsions:
REMARK  status: ('A' for Active; 'I' for Inactive)
REMARK    1  A    between atoms: C4_4  and  O1_5 
REMARK    2  A    between atoms: C6_8  and  O2_10 
REMARK    3  A    between atoms: C8_12  and  C9_13 
REMARK    4  A    between atoms: C9_13  and  C11_15 
REMARK    5  A    between atoms: C14_19  and  O4_20 
REMARK    6  A    between atoms: C14_19  and  C15_22 
REMARK    7  A    between atoms: C15_22  and  O5_23 
REMARK    8  A    between atoms: C15_22  and  C16_25 
REMARK    9  A    between atoms: C15_22  and  C17_28 
ROOT
HETATM    1  C11 UNL     1      10.706  72.790  24.021  1.00  0.00     0.058 C 
HETATM    2  C12 UNL     1      11.992  73.400  24.450  1.00  0.00     0.037 C 
HETATM    3  C13 UNL     1      11.978  74.830  23.936  1.00  0.00     0.172 C 
HETATM    4  O3  UNL     1      11.107  74.810  22.894  1.00  0.00    -0.352 OA
HETATM    5  C14 UNL     1      10.117  73.836  23.122  1.00  0.00     0.208 C 
ENDROOT
BRANCH   1   6
HETATM    6  C9  UNL     1      10.726  71.469  23.384  1.00  0.00    -0.002 C 
HETATM    7  C10 UNL     1      12.158  70.959  23.275  1.00  0.00     0.011 C 
BRANCH   6   8
HETATM    8  C8  UNL     1       9.895  70.361  23.893  1.00  0.00     0.028 C 
HETATM    9  C2  UNL     1       9.848  70.042  25.329  1.00  0.00    -0.009 C 
HETATM   10  C1  UNL     1       8.673  70.575  26.109  1.00  0.00     0.010 C 
HETATM   11  C3  UNL     1       9.690  68.501  25.422  1.00  0.00     0.036 C 
HETATM   12  C4  UNL     1       8.631  68.015  24.489  1.00  0.00     0.121 C 
HETATM   13  C5  UNL     1       7.821  69.040  23.797  1.00  0.00     0.069 C 
HETATM   14  C6  UNL     1       8.563  70.182  23.187  1.00  0.00     0.061 C 
HETATM   15  C7  UNL     1       8.857  69.867  21.710  1.00  0.00     0.046 C 
BRANCH  12  16
HETATM   16  O1  UNL     1       9.154  67.133  23.515  1.00  0.00    -0.395 OA
ATOM     17  H1  UNL     1       8.476  66.811  22.932  1.00  0.00     0.210 HD
ENDBRANCH  12  16
BRANCH  14  18
HETATM   18  O2  UNL     1       7.753  71.281  23.175  1.00  0.00    -0.390 OA
ATOM     19  H2  UNL     1       8.220  72.003  22.772  1.00  0.00     0.210 HD
ENDBRANCH  14  18
ENDBRANCH   6   8
ENDBRANCH   1   6
BRANCH   5  20
HETATM   20  O4  UNL     1       9.773  73.387  21.853  1.00  0.00    -0.362 OA
ATOM     21  H4  UNL     1       8.866  73.535  21.612  1.00  0.00     0.213 HD
ENDBRANCH   5  20
BRANCH   5  22
HETATM   22  C15 UNL     1       8.972  74.581  23.741  1.00  0.00     0.206 C 
BRANCH  22  23
HETATM   23  O5  UNL     1       9.439  75.852  24.152  1.00  0.00    -0.374 OA
ATOM     24  H5  UNL     1       8.689  76.377  24.406  1.00  0.00     0.211 HD
ENDBRANCH  22  23
BRANCH  22  25
HETATM   25  C16 UNL     1       7.950  74.819  22.695  1.00  0.00     0.215 C 
HETATM   26  O6  UNL     1       7.792  75.949  22.139  1.00  0.00    -0.646 OA
HETATM   27  O7  UNL     1       7.125  73.806  22.284  1.00  0.00    -0.646 OA
ENDBRANCH  22  25
BRANCH  22  28
HETATM   28  C17 UNL     1       8.344  73.978  24.940  1.00  0.00     0.037 C 
HETATM   29  C18 UNL     1       6.890  74.187  25.135  1.00  0.00     0.008 C 
HETATM   30  C19 UNL     1       6.490  73.346  26.361  1.00  0.00     0.001 C 
HETATM   31  C20 UNL     1       7.095  73.998  27.552  1.00  0.00     0.000 C 
HETATM   32  C21 UNL     1       8.568  74.233  27.441  1.00  0.00     0.001 C 
HETATM   33  C22 UNL     1       9.060  74.649  26.122  1.00  0.00     0.008 C 
ENDBRANCH  22  28
ENDBRANCH   5  22
TORSDOF 9
ENDMDL
MODEL 4
REMARK VINA RESULT: -5.456526115      8.720     11.575
REMARK  9 active torsions:
REMARK  status: ('A' for Active; 'I' for Inactive)
REMARK    1  A    between atoms: C4_4  and  O1_5 
REMARK    2  A    between atoms: C6_8  and  O2_10 
REMARK    3  A    between atoms: C8_12  and  C9_13 
REMARK    4  A    between atoms: C9_13  and  C11_15 
REMARK    5  A    between atoms: C14_19  and  O4_20 
REMARK    6  A    between atoms: C14_19  and  C15_22 
REMARK    7  A    between atoms: C15_22  and  O5_23 
REMARK    8  A    between atoms: C15_22  and  C16_25 
REMARK    9  A    between atoms: C15_22  and  C17_28 
ROOT
HETATM    1  C11 UNL     1       4.404  70.610  30.071  1.00  0.00     0.058 C 
HETATM    2  C12 UNL     1       5.834  70.939  30.307  1.00  0.00     0.037 C 
HETATM    3  C13 UNL     1       6.041  70.889  31.812  1.00  0.00     0.172 C 
HETATM    4  O3  UNL     1       4.804  71.095  32.333  1.00  0.00    -0.352 OA
HETATM    5  C14 UNL     1       3.829  70.584  31.456  1.00  0.00     0.208 C 
ENDROOT
BRANCH   1   6
HETATM    6  C9  UNL     1       3.621  71.460  29.169  1.00  0.00    -0.002 C 
HETATM    7  C10 UNL     1       4.476  72.612  28.656  1.00  0.00     0.011 C 
BRANCH   6   8
HETATM    8  C8  UNL     1       2.900  70.890  28.014  1.00  0.00     0.028 C 
HETATM    9  C2  UNL     1       3.479  69.793  27.222  1.00  0.00    -0.009 C 
HETATM   10  C1  UNL     1       2.995  68.399  27.533  1.00  0.00     0.010 C 
HETATM   11  C3  UNL     1       3.020  70.030  25.759  1.00  0.00     0.036 C 
HETATM   12  C4  UNL     1       1.560  70.337  25.700  1.00  0.00     0.121 C 
HETATM   13  C5  UNL     1       0.791  70.197  26.954  1.00  0.00     0.069 C 
HETATM   14  C6  UNL     1       1.395  70.790  28.183  1.00  0.00     0.061 C 
HETATM   15  C7  UNL     1       0.853  72.217  28.378  1.00  0.00     0.046 C 
BRANCH  12  16
HETATM   16  O1  UNL     1       1.316  71.628  25.174  1.00  0.00    -0.395 OA
ATOM     17  H1  UNL     1       1.314  72.291  25.855  1.00  0.00     0.210 HD
ENDBRANCH  12  16
BRANCH  14  18
HETATM   18  O2  UNL     1       0.973  70.084  29.271  1.00  0.00    -0.390 OA
ATOM     19  H2  UNL     1       1.097  70.613  30.050  1.00  0.00     0.210 HD
ENDBRANCH  14  18
ENDBRANCH   6   8
ENDBRANCH   1   6
BRANCH   5  20
HETATM   20  O4  UNL     1       2.726  71.409  31.644  1.00  0.00    -0.362 OA
ATOM     21  H4  UNL     1       2.923  72.339  31.655  1.00  0.00     0.213 HD
ENDBRANCH   5  20
BRANCH   5  22
HETATM   22  C15 UNL     1       3.537  69.202  31.959  1.00  0.00     0.206 C 
BRANCH  22  23
HETATM   23  O5  UNL     1       4.473  68.891  32.973  1.00  0.00    -0.374 OA
ATOM     24  H5  UNL     1       4.378  67.973  33.196  1.00  0.00     0.211 HD
ENDBRANCH  22  23
BRANCH  22  25
HETATM   25  C16 UNL     1       2.201  69.208  32.597  1.00  0.00     0.215 C 
HETATM   26  O6  UNL     1       2.047  69.217  33.857  1.00  0.00    -0.646 OA
HETATM   27  O7  UNL     1       1.064  69.206  31.834  1.00  0.00    -0.646 OA
ENDBRANCH  22  25
BRANCH  22  28
HETATM   28  C17 UNL     1       3.628  68.095  30.977  1.00  0.00     0.037 C 
HETATM   29  C18 UNL     1       2.707  66.947  31.147  1.00  0.00     0.008 C 
HETATM   30  C19 UNL     1       2.923  66.032  29.928  1.00  0.00     0.001 C 
HETATM   31  C20 UNL     1       4.269  65.419  30.076  1.00  0.00     0.000 C 
HETATM   32  C21 UNL     1       5.373  66.406  30.288  1.00  0.00     0.001 C 
HETATM   33  C22 UNL     1       5.058  67.556  31.143  1.00  0.00     0.008 C 
ENDBRANCH  22  28
ENDBRANCH   5  22
TORSDOF 9
ENDMDL
MODEL 5
REMARK VINA RESULT: -5.429638492      2.203      4.522
REMARK  9 active torsions:
REMARK  status: ('A' for Active; 'I' for Inactive)
REMARK    1  A    between atoms: C4_4  and  O1_5 
REMARK    2  A    between atoms: C6_8  and  O2_10 
REMARK    3  A    between atoms: C8_12  and  C9_13 
REMARK    4  A    between atoms: C9_13  and  C11_15 
REMARK    5  A    between atoms: C14_19  and  O4_20 
REMARK    6  A    between atoms: C14_19  and  C15_22 
REMARK    7  A    between atoms: C15_22  and  O5_23 
REMARK    8  A    between atoms: C15_22  and  C16_25 
REMARK    9  A    between atoms: C15_22  and  C17_28 
ROOT
HETATM    1  C11 UNL     1      11.786  73.374  26.201  1.00  0.00     0.058 C 
HETATM    2  C12 UNL     1      11.829  74.058  27.520  1.00  0.00     0.037 C 
HETATM    3  C13 UNL     1      11.473  75.513  27.258  1.00  0.00     0.172 C 
HETATM    4  O3  UNL     1      11.780  75.708  25.950  1.00  0.00    -0.352 OA
HETATM    5  C14 UNL     1      11.603  74.508  25.236  1.00  0.00     0.208 C 
ENDROOT
BRANCH   1   6
HETATM    6  C9  UNL     1      12.903  72.504  25.818  1.00  0.00    -0.002 C 
HETATM    7  C10 UNL     1      14.076  72.704  26.769  1.00  0.00     0.011 C 
BRANCH   6   8
HETATM    8  C8  UNL     1      12.714  71.051  25.640  1.00  0.00     0.028 C 
HETATM    9  C2  UNL     1      11.931  70.262  26.605  1.00  0.00    -0.009 C 
HETATM   10  C1  UNL     1      10.502  69.953  26.232  1.00  0.00     0.010 C 
HETATM   11  C3  UNL     1      12.609  68.868  26.671  1.00  0.00     0.036 C 
HETATM   12  C4  UNL     1      12.897  68.348  25.302  1.00  0.00     0.121 C 
HETATM   13  C5  UNL     1      12.357  69.117  24.161  1.00  0.00     0.069 C 
HETATM   14  C6  UNL     1      12.543  70.597  24.202  1.00  0.00     0.061 C 
HETATM   15  C7  UNL     1      13.828  70.970  23.440  1.00  0.00     0.046 C 
BRANCH  12  16
HETATM   16  O1  UNL     1      14.283  68.161  25.092  1.00  0.00    -0.395 OA
ATOM     17  H1  UNL     1      14.458  67.400  24.549  1.00  0.00     0.210 HD
ENDBRANCH  12  16
BRANCH  14  18
HETATM   18  O2  UNL     1      11.523  71.192  23.517  1.00  0.00    -0.390 OA
ATOM     19  H2  UNL     1      11.858  71.527  22.694  1.00  0.00     0.210 HD
ENDBRANCH  14  18
ENDBRANCH   6   8
ENDBRANCH   1   6
BRANCH   5  20
HETATM   20  O4  UNL     1      12.549  74.566  24.220  1.00  0.00    -0.362 OA
ATOM     21  H4  UNL     1      13.220  75.229  24.338  1.00  0.00     0.213 HD
ENDBRANCH   5  20
BRANCH   5  22
HETATM   22  C15 UNL     1      10.219  74.593  24.666  1.00  0.00     0.206 C 
BRANCH  22  23
HETATM   23  O5  UNL     1       9.641  75.815  25.083  1.00  0.00    -0.374 OA
ATOM     24  H5  UNL     1       9.671  76.423  24.354  1.00  0.00     0.211 HD
ENDBRANCH  22  23
BRANCH  22  25
HETATM   25  C16 UNL     1      10.324  74.650  23.190  1.00  0.00     0.215 C 
HETATM   26  O6  UNL     1      10.033  75.691  22.525  1.00  0.00    -0.646 OA
HETATM   27  O7  UNL     1      10.748  73.560  22.478  1.00  0.00    -0.646 OA
ENDBRANCH  22  25
BRANCH  22  28
HETATM   28  C17 UNL     1       9.259  73.538  25.069  1.00  0.00     0.037 C 
HETATM   29  C18 UNL     1       8.384  72.967  24.018  1.00  0.00     0.008 C 
HETATM   30  C19 UNL     1       7.604  71.816  24.680  1.00  0.00     0.001 C 
HETATM   31  C20 UNL     1       6.643  72.433  25.632  1.00  0.00     0.000 C 
HETATM   32  C21 UNL     1       7.268  73.375  26.612  1.00  0.00     0.001 C 
HETATM   33  C22 UNL     1       8.344  74.227  26.093  1.00  0.00     0.008 C 
ENDBRANCH  22  28
ENDBRANCH   5  22
TORSDOF 9
ENDMDL
