MODEL 1
REMARK VINA RESULT: -6.910658448      0.000      0.000
REMARK  7 active torsions:
REMARK  status: ('A' for Active; 'I' for Inactive)
REMARK    1  A    between atoms: C2_2  and  O1_4 
REMARK    2  A    between atoms: C2_2  and  C4_6 
REMARK    3  A    between atoms: C4_6  and  C5_7 
REMARK    4  A    between atoms: C5_7  and  C6_8 
REMARK    5  A    between atoms: C7_11  and  C8_12 
REMARK    6  A    between atoms: C13_18  and  N2_19 
REMARK    7  A    between atoms: N2_19  and  C14_21 
ROOT
HETATM    1  C6  UNL     1       3.731  74.512  28.385  1.00  0.00     0.083 A 
HETATM    2  N1  UNL     1       4.881  74.403  27.720  1.00  0.00    -0.342 N 
ATOM      3  H1  UNL     1       5.340  75.156  27.207  1.00  0.00     0.167 HD
HETATM    4  C7  UNL     1       5.350  73.120  27.832  1.00  0.00     0.084 A 
HETATM    5  C13 UNL     1       4.451  72.423  28.594  1.00  0.00     0.135 A 
HETATM    6  N6  UNL     1       3.474  73.331  28.907  1.00  0.00    -0.330 N 
ATOM      7  H6  UNL     1       2.653  73.119  29.473  1.00  0.00     0.168 HD
ENDROOT
BRANCH   5   8
HETATM    8  N2  UNL     1       4.515  71.078  28.972  1.00  0.00    -0.339 N 
ATOM      9  H2  UNL     1       3.862  70.440  28.517  1.00  0.00     0.167 HD
BRANCH   8  10
HETATM   10  C14 UNL     1       5.323  70.566  29.840  1.00  0.00     0.063 A 
HETATM   11  C15 UNL     1       5.169  70.858  31.157  1.00  0.00     0.049 A 
HETATM   12  C16 UNL     1       6.073  70.280  32.049  1.00  0.00     0.090 A 
HETATM   13  N3  UNL     1       7.062  69.464  31.644  1.00  0.00    -0.365 N 
HETATM   14  C17 UNL     1       7.237  69.159  30.343  1.00  0.00     0.076 A 
ATOM     15  H3  UNL     1       7.696  69.068  32.338  1.00  0.00     0.165 HD
HETATM   16  C18 UNL     1       6.349  69.725  29.455  1.00  0.00     0.080 A 
HETATM   17  C20 UNL     1       8.212  68.310  29.611  1.00  0.00     0.185 C 
HETATM   18  N4  UNL     1       6.736  69.254  28.152  1.00  0.00    -0.384 N 
HETATM   19  C19 UNL     1       7.470  67.994  28.326  1.00  0.00     0.165 C 
ATOM     20  H4  UNL     1       6.536  69.714  27.263  1.00  0.00     0.159 HD
HETATM   21  C21 UNL     1       8.533  67.021  30.280  1.00  0.00     0.049 C 
HETATM   22  N5  UNL     1       9.474  68.934  29.382  1.00  0.00    -0.059 N 
HETATM   23  C22 UNL     1       9.757  67.318  31.086  1.00  0.00     0.030 C 
HETATM   24  C23 UNL     1      10.348  68.538  30.443  1.00  0.00     0.233 C 
ATOM     25  H52 UNL     1       9.855  68.733  28.458  1.00  0.00     0.278 HD
ATOM     26  H51 UNL     1       9.405  69.946  29.281  1.00  0.00     0.278 HD
ENDBRANCH   8  10
ENDBRANCH   5   8
BRANCH   4  27
HETATM   27  C8  UNL     1       6.589  72.726  27.201  1.00  0.00    -0.027 C 
HETATM   28  C9  UNL     1       7.741  72.750  27.823  1.00  0.00     0.009 C 
HETATM   29  C10 UNL     1       8.952  72.312  27.044  1.00  0.00     0.195 C 
HETATM   30  O2  UNL     1       8.565  71.133  26.409  1.00  0.00    -0.387 OA
HETATM   31  C11 UNL     1       7.652  71.354  25.402  1.00  0.00     0.172 C 
HETATM   32  C12 UNL     1       6.527  72.271  25.759  1.00  0.00     0.067 C 
ENDBRANCH   4  27
BRANCH   1  33
HETATM   33  C5  UNL     1       2.961  75.783  28.460  1.00  0.00     0.079 C 
BRANCH  33  34
HETATM   34  C4  UNL     1       3.791  76.904  29.020  1.00  0.00     0.044 C 
BRANCH  34  35
HETATM   35  C2  UNL     1       4.074  77.991  28.049  1.00  0.00     0.051 C 
HETATM   36  C1  UNL     1       5.057  79.010  28.582  1.00  0.00     0.045 C 
HETATM   37  C3  UNL     1       2.846  78.717  27.569  1.00  0.00     0.045 C 
BRANCH  35  38
HETATM   38  O1  UNL     1       4.653  77.393  26.911  1.00  0.00    -0.391 OA
ATOM     39  H1  UNL     1       3.949  77.021  26.391  1.00  0.00     0.210 HD
ENDBRANCH  35  38
ENDBRANCH  34  35
ENDBRANCH  33  34
ENDBRANCH   1  33
TORSDOF 7
ENDMDL
MODEL 2
REMARK VINA RESULT: -6.789704929      3.523      5.775
REMARK  7 active torsions:
REMARK  status: ('A' for Active; 'I' for Inactive)
REMARK    1  A    between atoms: C2_2  and  O1_4 
REMARK    2  A    between atoms: C2_2  and  C4_6 
REMARK    3  A    between atoms: C4_6  and  C5_7 
REMARK    4  A    between atoms: C5_7  and  C6_8 
REMARK    5  A    between atoms: C7_11  and  C8_12 
REMARK    6  A    between atoms: C13_18  and  N2_19 
REMARK    7  A    between atoms: N2_19  and  C14_21 
ROOT
HETATM    1  C6  UNL     1       4.584  76.259  28.230  1.00  0.00     0.083 A 
HETATM    2  N1  UNL     1       3.599  75.444  28.609  1.00  0.00    -0.342 N 
ATOM      3  H1  UNL     1       2.743  75.734  29.084  1.00  0.00     0.167 HD
HETATM    4  C7  UNL     1       3.915  74.157  28.263  1.00  0.00     0.084 A 
HETATM    5  C13 UNL     1       5.139  74.190  27.650  1.00  0.00     0.135 A 
HETATM    6  N6  UNL     1       5.503  75.510  27.657  1.00  0.00    -0.330 N 
ATOM      7  H6  UNL     1       6.376  75.868  27.268  1.00  0.00     0.168 HD
ENDROOT
BRANCH   5   8
HETATM    8  N2  UNL     1       5.861  73.111  27.128  1.00  0.00    -0.339 N 
ATOM      9  H2  UNL     1       5.337  72.259  26.930  1.00  0.00     0.167 HD
BRANCH   8  10
HETATM   10  C14 UNL     1       7.127  73.090  26.874  1.00  0.00     0.063 A 
HETATM   11  C15 UNL     1       7.995  72.626  27.809  1.00  0.00     0.049 A 
HETATM   12  C16 UNL     1       9.351  72.631  27.480  1.00  0.00     0.090 A 
HETATM   13  N3  UNL     1       9.802  73.072  26.293  1.00  0.00    -0.365 N 
HETATM   14  C17 UNL     1       8.962  73.537  25.347  1.00  0.00     0.076 A 
ATOM     15  H3  UNL     1      10.804  73.054  26.103  1.00  0.00     0.165 HD
HETATM   16  C18 UNL     1       7.621  73.537  25.663  1.00  0.00     0.080 A 
HETATM   17  C20 UNL     1       9.158  74.077  23.977  1.00  0.00     0.185 C 
HETATM   18  N4  UNL     1       6.942  74.070  24.512  1.00  0.00    -0.384 N 
HETATM   19  C19 UNL     1       7.800  73.852  23.340  1.00  0.00     0.165 C 
ATOM     20  H4  UNL     1       6.026  74.519  24.511  1.00  0.00     0.159 HD
HETATM   21  C21 UNL     1      10.168  73.346  23.165  1.00  0.00     0.049 C 
HETATM   22  N5  UNL     1       9.569  75.442  23.939  1.00  0.00    -0.059 N 
HETATM   23  C22 UNL     1      11.438  74.102  23.388  1.00  0.00     0.030 C 
HETATM   24  C23 UNL     1      10.996  75.460  23.850  1.00  0.00     0.233 C 
ATOM     25  H52 UNL     1       9.118  75.972  23.193  1.00  0.00     0.278 HD
ATOM     26  H51 UNL     1       9.213  75.986  24.724  1.00  0.00     0.278 HD
ENDBRANCH   8  10
ENDBRANCH   5   8
BRANCH   4  27
HETATM   27  C8  UNL     1       3.014  73.067  28.558  1.00  0.00    -0.027 C 
HETATM   28  C9  UNL     1       1.869  72.905  27.944  1.00  0.00     0.009 C 
HETATM   29  C10 UNL     1       1.030  71.724  28.353  1.00  0.00     0.195 C 
HETATM   30  O2  UNL     1       1.917  70.651  28.397  1.00  0.00    -0.387 OA
HETATM   31  C11 UNL     1       2.801  70.741  29.449  1.00  0.00     0.172 C 
HETATM   32  C12 UNL     1       3.434  72.083  29.629  1.00  0.00     0.067 C 
ENDBRANCH   4  27
BRANCH   1  33
HETATM   33  C5  UNL     1       4.549  77.728  28.461  1.00  0.00     0.079 C 
BRANCH  33  34
HETATM   34  C4  UNL     1       3.669  78.427  27.463  1.00  0.00     0.044 C 
BRANCH  34  35
HETATM   35  C2  UNL     1       2.353  78.850  28.007  1.00  0.00     0.051 C 
HETATM   36  C1  UNL     1       2.300  80.327  28.328  1.00  0.00     0.045 C 
HETATM   37  C3  UNL     1       1.922  78.080  29.227  1.00  0.00     0.045 C 
BRANCH  35  38
HETATM   38  O1  UNL     1       1.388  78.593  27.013  1.00  0.00    -0.391 OA
ATOM     39  H1  UNL     1       1.247  77.653  26.983  1.00  0.00     0.210 HD
ENDBRANCH  35  38
ENDBRANCH  34  35
ENDBRANCH  33  34
ENDBRANCH   1  33
TORSDOF 7
ENDMDL
MODEL 3
REMARK VINA RESULT: -6.763177443      1.595      1.968
REMARK  7 active torsions:
REMARK  status: ('A' for Active; 'I' for Inactive)
REMARK    1  A    between atoms: C2_2  and  O1_4 
REMARK    2  A    between atoms: C2_2  and  C4_6 
REMARK    3  A    between atoms: C4_6  and  C5_7 
REMARK    4  A    between atoms: C5_7  and  C6_8 
REMARK    5  A    between atoms: C7_11  and  C8_12 
REMARK    6  A    between atoms: C13_18  and  N2_19 
REMARK    7  A    between atoms: N2_19  and  C14_21 
ROOT
HETATM    1  C6  UNL     1       3.881  74.531  28.347  1.00  0.00     0.083 A 
HETATM    2  N1  UNL     1       4.983  74.907  27.698  1.00  0.00    -0.342 N 
ATOM      3  H1  UNL     1       5.200  75.860  27.405  1.00  0.00     0.167 HD
HETATM    4  C7  UNL     1       5.780  73.812  27.484  1.00  0.00     0.084 A 
HETATM    5  C13 UNL     1       5.137  72.730  28.024  1.00  0.00     0.135 A 
HETATM    6  N6  UNL     1       3.972  73.233  28.542  1.00  0.00    -0.330 N 
ATOM      7  H6  UNL     1       3.266  72.671  29.017  1.00  0.00     0.168 HD
ENDROOT
BRANCH   5   8
HETATM    8  N2  UNL     1       5.573  71.402  28.043  1.00  0.00    -0.339 N 
ATOM      9  H2  UNL     1       5.465  70.868  27.181  1.00  0.00     0.167 HD
BRANCH   8  10
HETATM   10  C14 UNL     1       6.101  70.786  29.048  1.00  0.00     0.063 A 
HETATM   11  C15 UNL     1       5.567  70.935  30.287  1.00  0.00     0.049 A 
HETATM   12  C16 UNL     1       6.181  70.248  31.335  1.00  0.00     0.090 A 
HETATM   13  N3  UNL     1       7.259  69.466  31.149  1.00  0.00    -0.365 N 
HETATM   14  C17 UNL     1       7.809  69.301  29.930  1.00  0.00     0.076 A 
ATOM     15  H3  UNL     1       7.670  68.986  31.950  1.00  0.00     0.165 HD
HETATM   16  C18 UNL     1       7.209  69.975  28.889  1.00  0.00     0.080 A 
HETATM   17  C20 UNL     1       8.969  68.522  29.426  1.00  0.00     0.185 C 
HETATM   18  N4  UNL     1       7.966  69.642  27.712  1.00  0.00    -0.384 N 
HETATM   19  C19 UNL     1       8.639  68.359  27.954  1.00  0.00     0.165 C 
ATOM     20  H4  UNL     1       8.025  70.199  26.859  1.00  0.00     0.159 HD
HETATM   21  C21 UNL     1       9.102  67.162  30.015  1.00  0.00     0.049 C 
HETATM   22  N5  UNL     1      10.233  69.146  29.644  1.00  0.00    -0.059 N 
HETATM   23  C22 UNL     1      10.034  67.351  31.169  1.00  0.00     0.030 C 
HETATM   24  C23 UNL     1      10.766  68.624  30.863  1.00  0.00     0.233 C 
ATOM     25  H52 UNL     1      10.869  69.041  28.854  1.00  0.00     0.278 HD
ATOM     26  H51 UNL     1      10.179  70.165  29.637  1.00  0.00     0.278 HD
ENDBRANCH   8  10
ENDBRANCH   5   8
BRANCH   4  27
HETATM   27  C8  UNL     1       7.045  73.938  26.798  1.00  0.00    -0.027 C 
HETATM   28  C9  UNL     1       7.135  74.176  25.513  1.00  0.00     0.009 C 
HETATM   29  C10 UNL     1       8.518  74.283  24.929  1.00  0.00     0.195 C 
HETATM   30  O2  UNL     1       9.217  75.109  25.808  1.00  0.00    -0.387 OA
HETATM   31  C11 UNL     1       9.471  74.498  27.014  1.00  0.00     0.172 C 
HETATM   32  C12 UNL     1       8.306  73.784  27.620  1.00  0.00     0.067 C 
ENDBRANCH   4  27
BRANCH   1  33
HETATM   33  C5  UNL     1       2.807  75.486  28.732  1.00  0.00     0.079 C 
BRANCH  33  34
HETATM   34  C4  UNL     1       3.130  76.890  28.300  1.00  0.00     0.044 C 
BRANCH  34  35
HETATM   35  C2  UNL     1       1.980  77.827  28.377  1.00  0.00     0.051 C 
HETATM   36  C1  UNL     1       0.882  77.487  27.394  1.00  0.00     0.045 C 
HETATM   37  C3  UNL     1       2.358  79.273  28.191  1.00  0.00     0.045 C 
BRANCH  35  38
HETATM   38  O1  UNL     1       1.442  77.720  29.675  1.00  0.00    -0.391 OA
ATOM     39  H1  UNL     1       2.079  78.077  30.282  1.00  0.00     0.210 HD
ENDBRANCH  35  38
ENDBRANCH  34  35
ENDBRANCH  33  34
ENDBRANCH   1  33
TORSDOF 7
ENDMDL
MODEL 4
REMARK VINA RESULT: -6.735141585      3.402      6.163
REMARK  7 active torsions:
REMARK  status: ('A' for Active; 'I' for Inactive)
REMARK    1  A    between atoms: C2_2  and  O1_4 
REMARK    2  A    between atoms: C2_2  and  C4_6 
REMARK    3  A    between atoms: C4_6  and  C5_7 
REMARK    4  A    between atoms: C5_7  and  C6_8 
REMARK    5  A    between atoms: C7_11  and  C8_12 
REMARK    6  A    between atoms: C13_18  and  N2_19 
REMARK    7  A    between atoms: N2_19  and  C14_21 
ROOT
HETATM    1  C6  UNL     1       6.000  74.283  27.226  1.00  0.00     0.083 A 
HETATM    2  N1  UNL     1       5.561  75.542  27.210  1.00  0.00    -0.342 N 
ATOM      3  H1  UNL     1       6.022  76.322  26.740  1.00  0.00     0.167 HD
HETATM    4  C7  UNL     1       4.394  75.625  27.923  1.00  0.00     0.084 A 
HETATM    5  C13 UNL     1       4.113  74.369  28.391  1.00  0.00     0.135 A 
HETATM    6  N6  UNL     1       5.136  73.583  27.930  1.00  0.00    -0.330 N 
ATOM      7  H6  UNL     1       5.217  72.583  28.110  1.00  0.00     0.168 HD
ENDROOT
BRANCH   5   8
HETATM    8  N2  UNL     1       3.019  73.974  29.168  1.00  0.00    -0.339 N 
ATOM      9  H2  UNL     1       2.587  74.690  29.753  1.00  0.00     0.167 HD
BRANCH   8  10
HETATM   10  C14 UNL     1       2.504  72.791  29.216  1.00  0.00     0.063 A 
HETATM   11  C15 UNL     1       1.634  72.394  28.252  1.00  0.00     0.049 A 
HETATM   12  C16 UNL     1       1.107  71.107  28.358  1.00  0.00     0.090 A 
HETATM   13  N3  UNL     1       1.431  70.277  29.364  1.00  0.00    -0.365 N 
HETATM   14  C17 UNL     1       2.292  70.645  30.334  1.00  0.00     0.076 A 
ATOM     15  H3  UNL     1       1.017  69.345  29.395  1.00  0.00     0.165 HD
HETATM   16  C18 UNL     1       2.818  71.915  30.238  1.00  0.00     0.080 A 
HETATM   17  C20 UNL     1       2.830  69.966  31.540  1.00  0.00     0.185 C 
HETATM   18  N4  UNL     1       3.694  72.068  31.369  1.00  0.00    -0.384 N 
HETATM   19  C19 UNL     1       4.115  70.729  31.800  1.00  0.00     0.165 C 
ATOM     20  H4  UNL     1       3.973  72.952  31.796  1.00  0.00     0.159 HD
HETATM   21  C21 UNL     1       3.185  68.535  31.336  1.00  0.00     0.049 C 
HETATM   22  N5  UNL     1       1.946  69.972  32.659  1.00  0.00    -0.059 N 
HETATM   23  C22 UNL     1       1.958  67.788  31.753  1.00  0.00     0.030 C 
HETATM   24  C23 UNL     1       1.212  68.745  32.636  1.00  0.00     0.233 C 
ATOM     25  H52 UNL     1       2.427  70.131  33.544  1.00  0.00     0.278 HD
ATOM     26  H51 UNL     1       1.343  70.795  32.685  1.00  0.00     0.278 HD
ENDBRANCH   8  10
ENDBRANCH   5   8
BRANCH   4  27
HETATM   27  C8  UNL     1       3.700  76.885  28.066  1.00  0.00    -0.027 C 
HETATM   28  C9  UNL     1       4.319  78.039  28.079  1.00  0.00     0.009 C 
HETATM   29  C10 UNL     1       3.471  79.272  28.234  1.00  0.00     0.195 C 
HETATM   30  O2  UNL     1       2.413  79.096  27.344  1.00  0.00    -0.387 OA
HETATM   31  C11 UNL     1       1.544  78.109  27.748  1.00  0.00     0.172 C 
HETATM   32  C12 UNL     1       2.194  76.842  28.205  1.00  0.00     0.067 C 
ENDBRANCH   4  27
BRANCH   1  33
HETATM   33  C5  UNL     1       7.249  73.856  26.540  1.00  0.00     0.079 C 
BRANCH  33  34
HETATM   34  C4  UNL     1       6.965  73.242  25.198  1.00  0.00     0.044 C 
BRANCH  34  35
HETATM   35  C2  UNL     1       7.476  74.034  24.049  1.00  0.00     0.051 C 
HETATM   36  C1  UNL     1       6.386  74.810  23.344  1.00  0.00     0.045 C 
HETATM   37  C3  UNL     1       8.218  73.215  23.026  1.00  0.00     0.045 C 
BRANCH  35  38
HETATM   38  O1  UNL     1       8.401  74.964  24.563  1.00  0.00    -0.391 OA
ATOM     39  H1  UNL     1       9.229  74.513  24.680  1.00  0.00     0.210 HD
ENDBRANCH  35  38
ENDBRANCH  34  35
ENDBRANCH  33  34
ENDBRANCH   1  33
TORSDOF 7
ENDMDL
MODEL 5
REMARK VINA RESULT: -6.734357414      3.345      4.777
REMARK  7 active torsions:
REMARK  status: ('A' for Active; 'I' for Inactive)
REMARK    1  A    between atoms: C2_2  and  O1_4 
REMARK    2  A    between atoms: C2_2  and  C4_6 
REMARK    3  A    between atoms: C4_6  and  C5_7 
REMARK    4  A    between atoms: C5_7  and  C6_8 
REMARK    5  A    between atoms: C7_11  and  C8_12 
REMARK    6  A    between atoms: C13_18  and  N2_19 
REMARK    7  A    between atoms: N2_19  and  C14_21 
ROOT
HETATM    1  C6  UNL     1       1.614  75.378  28.375  1.00  0.00     0.083 A 
HETATM    2  N1  UNL     1       1.196  74.315  27.687  1.00  0.00    -0.342 N 
ATOM      3  H1  UNL     1       0.670  74.347  26.813  1.00  0.00     0.167 HD
HETATM    4  C7  UNL     1       1.584  73.172  28.336  1.00  0.00     0.084 A 
HETATM    5  C13 UNL     1       2.263  73.555  29.462  1.00  0.00     0.135 A 
HETATM    6  N6  UNL     1       2.251  74.925  29.434  1.00  0.00    -0.330 N 
ATOM      7  H6  UNL     1       2.681  75.517  30.144  1.00  0.00     0.168 HD
ENDROOT
BRANCH   5   8
HETATM    8  N2  UNL     1       2.843  72.729  30.430  1.00  0.00    -0.339 N 
ATOM      9  H2  UNL     1       2.720  73.003  31.404  1.00  0.00     0.167 HD
BRANCH   8  10
HETATM   10  C14 UNL     1       3.520  71.651  30.208  1.00  0.00     0.063 A 
HETATM   11  C15 UNL     1       4.706  71.722  29.552  1.00  0.00     0.049 A 
HETATM   12  C16 UNL     1       5.391  70.526  29.337  1.00  0.00     0.090 A 
HETATM   13  N3  UNL     1       4.915  69.340  29.754  1.00  0.00    -0.365 N 
HETATM   14  C17 UNL     1       3.740  69.241  30.407  1.00  0.00     0.076 A 
ATOM     15  H3  UNL     1       5.455  68.494  29.571  1.00  0.00     0.165 HD
HETATM   16  C18 UNL     1       3.057  70.417  30.623  1.00  0.00     0.080 A 
HETATM   17  C20 UNL     1       2.975  68.101  30.975  1.00  0.00     0.185 C 
HETATM   18  N4  UNL     1       1.855  70.055  31.327  1.00  0.00    -0.384 N 
HETATM   19  C19 UNL     1       2.099  68.778  32.012  1.00  0.00     0.165 C 
ATOM     20  H4  UNL     1       0.987  70.590  31.347  1.00  0.00     0.159 HD
HETATM   21  C21 UNL     1       3.809  67.087  31.676  1.00  0.00     0.049 C 
HETATM   22  N5  UNL     1       2.224  67.362  30.013  1.00  0.00    -0.059 N 
HETATM   23  C22 UNL     1       4.101  66.061  30.629  1.00  0.00     0.030 C 
HETATM   24  C23 UNL     1       3.028  66.255  29.597  1.00  0.00     0.233 C 
ATOM     25  H52 UNL     1       1.307  67.080  30.357  1.00  0.00     0.278 HD
ATOM     26  H51 UNL     1       1.904  67.935  29.233  1.00  0.00     0.278 HD
ENDBRANCH   8  10
ENDBRANCH   5   8
BRANCH   4  27
HETATM   27  C8  UNL     1       1.259  71.869  27.802  1.00  0.00    -0.027 C 
HETATM   28  C9  UNL     1       1.977  71.281  26.879  1.00  0.00     0.009 C 
HETATM   29  C10 UNL     1       1.522  69.924  26.415  1.00  0.00     0.195 C 
HETATM   30  O2  UNL     1       1.239  69.220  27.584  1.00  0.00    -0.387 OA
HETATM   31  C11 UNL     1       0.111  69.688  28.220  1.00  0.00     0.172 C 
HETATM   32  C12 UNL     1       0.031  71.175  28.350  1.00  0.00     0.067 C 
ENDBRANCH   4  27
BRANCH   1  33
HETATM   33  C5  UNL     1       1.355  76.775  27.936  1.00  0.00     0.079 C 
BRANCH  33  34
HETATM   34  C4  UNL     1       2.016  77.775  28.843  1.00  0.00     0.044 C 
BRANCH  34  35
HETATM   35  C2  UNL     1       2.681  78.894  28.128  1.00  0.00     0.051 C 
HETATM   36  C1  UNL     1       4.190  78.815  28.193  1.00  0.00     0.045 C 
HETATM   37  C3  UNL     1       2.253  80.259  28.599  1.00  0.00     0.045 C 
BRANCH  35  38
HETATM   38  O1  UNL     1       2.305  78.806  26.773  1.00  0.00    -0.391 OA
ATOM     39  H1  UNL     1       1.666  78.107  26.696  1.00  0.00     0.210 HD
ENDBRANCH  35  38
ENDBRANCH  34  35
ENDBRANCH  33  34
ENDBRANCH   1  33
TORSDOF 7
ENDMDL
