MODEL 1
REMARK VINA RESULT: -6.895552168      0.000      0.000
REMARK  10 active torsions:
REMARK  status: ('A' for Active; 'I' for Inactive)
REMARK    1  A    between atoms: C2_2  and  C3_3 
REMARK    2  A    between atoms: C3_3  and  C4_4 
REMARK    3  A    between atoms: C4_4  and  C5_5 
REMARK    4  A    between atoms: C5_5  and  C6_6 
REMARK    5  A    between atoms: C6_6  and  O1_10 
REMARK    6  A    between atoms: O1_10  and  C7_11 
REMARK    7  A    between atoms: C11_15  and  O2_16 
REMARK    8  A    between atoms: C12_18  and  O3_19 
REMARK    9  A    between atoms: C20_28  and  O4_29 
REMARK   10  A    between atoms: C21_31  and  O5_32 
ROOT
HETATM    1  C7  UNL     1       3.745  72.147  28.817  1.00  0.00     0.130 C 
HETATM    2  C8  UNL     1       4.969  71.561  28.135  1.00  0.00     0.033 C 
HETATM    3  C9  UNL     1       6.242  71.862  28.860  1.00  0.00     0.010 C 
HETATM    4  C10 UNL     1       6.948  70.692  29.422  1.00  0.00     0.022 C 
HETATM    5  C11 UNL     1       7.725  70.053  28.257  1.00  0.00     0.151 C 
HETATM    6  C12 UNL     1       8.833  69.249  28.895  1.00  0.00     0.147 C 
HETATM    7  C13 UNL     1       8.207  68.163  29.680  1.00  0.00     0.035 C 
HETATM    8  C14 UNL     1       7.098  68.563  30.586  1.00  0.00     0.008 C 
HETATM    9  C15 UNL     1       6.179  69.632  30.070  1.00  0.00     0.001 C 
HETATM   10  C16 UNL     1       5.235  70.039  31.164  1.00  0.00    -0.034 C 
HETATM   11  C17 UNL     1       5.828  71.059  32.115  1.00  0.00     0.016 C 
HETATM   12  C18 UNL     1       4.923  68.835  32.072  1.00  0.00     0.012 C 
HETATM   13  C19 UNL     1       3.927  67.923  31.429  1.00  0.00     0.035 C 
HETATM   14  C20 UNL     1       2.570  68.572  31.572  1.00  0.00     0.147 C 
HETATM   15  C21 UNL     1       2.704  70.037  31.383  1.00  0.00     0.151 C 
HETATM   16  C22 UNL     1       3.931  70.454  30.569  1.00  0.00     0.028 C 
HETATM   17  C23 UNL     1       3.786  71.921  30.316  1.00  0.00     0.040 C 
ENDROOT
BRANCH   1  18
HETATM   18  O1  UNL     1       3.558  73.501  28.461  1.00  0.00    -0.334 OA
BRANCH  18  19
HETATM   19  C6  UNL     1       2.295  74.062  28.377  1.00  0.00     0.111 C 
HETATM   20  N1  UNL     1       1.353  73.299  27.942  1.00  0.00    -0.384 N 
ATOM     21  H12 UNL     1       0.422  73.712  27.880  1.00  0.00     0.157 HD
ATOM     22  H11 UNL     1       1.548  72.333  27.676  1.00  0.00     0.157 HD
BRANCH  19  23
HETATM   23  C5  UNL     1       2.007  75.485  28.769  1.00  0.00     0.083 C 
BRANCH  23  24
HETATM   24  C4  UNL     1       3.301  76.096  29.237  1.00  0.00     0.008 C 
BRANCH  24  25
HETATM   25  C3  UNL     1       3.633  77.392  28.544  1.00  0.00     0.000 C 
BRANCH  25  26
HETATM   26  C2  UNL     1       2.419  78.245  28.384  1.00  0.00    -0.005 C 
HETATM   27  C1  UNL     1       2.846  79.481  27.603  1.00  0.00     0.005 C 
ENDBRANCH  25  26
ENDBRANCH  24  25
ENDBRANCH  23  24
ENDBRANCH  19  23
ENDBRANCH  18  19
ENDBRANCH   1  18
BRANCH  15  28
HETATM   28  O5  UNL     1       2.557  70.798  32.534  1.00  0.00    -0.393 OA
ATOM     29  H5  UNL     1       2.322  71.707  32.391  1.00  0.00     0.210 HD
ENDBRANCH  15  28
BRANCH   5  30
HETATM   30  O2  UNL     1       8.331  71.010  27.454  1.00  0.00    -0.393 OA
ATOM     31  H2  UNL     1       8.969  71.522  27.935  1.00  0.00     0.210 HD
ENDBRANCH   5  30
BRANCH  14  32
HETATM   32  O4  UNL     1       1.966  68.264  32.790  1.00  0.00    -0.393 OA
ATOM     33  H4  UNL     1       1.046  68.050  32.690  1.00  0.00     0.210 HD
ENDBRANCH  14  32
BRANCH   6  34
HETATM   34  O3  UNL     1       9.689  70.059  29.616  1.00  0.00    -0.393 OA
ATOM     35  H3  UNL     1      10.251  69.547  30.186  1.00  0.00     0.210 HD
ENDBRANCH   6  34
TORSDOF 10
ENDMDL
MODEL 2
REMARK VINA RESULT: -6.847358479      4.364      6.899
REMARK  10 active torsions:
REMARK  status: ('A' for Active; 'I' for Inactive)
REMARK    1  A    between atoms: C2_2  and  C3_3 
REMARK    2  A    between atoms: C3_3  and  C4_4 
REMARK    3  A    between atoms: C4_4  and  C5_5 
REMARK    4  A    between atoms: C5_5  and  C6_6 
REMARK    5  A    between atoms: C6_6  and  O1_10 
REMARK    6  A    between atoms: O1_10  and  C7_11 
REMARK    7  A    between atoms: C11_15  and  O2_16 
REMARK    8  A    between atoms: C12_18  and  O3_19 
REMARK    9  A    between atoms: C20_28  and  O4_29 
REMARK   10  A    between atoms: C21_31  and  O5_32 
ROOT
HETATM    1  C7  UNL     1       6.549  74.182  26.668  1.00  0.00     0.130 C 
HETATM    2  C8  UNL     1       7.667  73.671  27.560  1.00  0.00     0.033 C 
HETATM    3  C9  UNL     1       7.900  72.201  27.420  1.00  0.00     0.010 C 
HETATM    4  C10 UNL     1       9.211  71.812  26.861  1.00  0.00     0.022 C 
HETATM    5  C11 UNL     1      10.219  71.895  28.020  1.00  0.00     0.151 C 
HETATM    6  C12 UNL     1      11.374  71.005  27.624  1.00  0.00     0.147 C 
HETATM    7  C13 UNL     1      12.006  71.596  26.423  1.00  0.00     0.035 C 
HETATM    8  C14 UNL     1      11.086  71.986  25.323  1.00  0.00     0.008 C 
HETATM    9  C15 UNL     1       9.767  72.570  25.742  1.00  0.00     0.001 C 
HETATM   10  C16 UNL     1       8.898  72.741  24.529  1.00  0.00    -0.034 C 
HETATM   11  C17 UNL     1       8.171  71.473  24.132  1.00  0.00     0.016 C 
HETATM   12  C18 UNL     1       9.764  73.064  23.297  1.00  0.00     0.012 C 
HETATM   13  C19 UNL     1      10.192  74.496  23.304  1.00  0.00     0.035 C 
HETATM   14  C20 UNL     1       9.003  75.321  22.869  1.00  0.00     0.147 C 
HETATM   15  C21 UNL     1       7.768  74.747  23.456  1.00  0.00     0.151 C 
HETATM   16  C22 UNL     1       8.002  73.918  24.722  1.00  0.00     0.028 C 
HETATM   17  C23 UNL     1       6.647  73.602  25.271  1.00  0.00     0.040 C 
ENDROOT
BRANCH   1  18
HETATM   18  O1  UNL     1       5.285  73.986  27.268  1.00  0.00    -0.334 OA
BRANCH  18  19
HETATM   19  C6  UNL     1       4.618  75.017  27.910  1.00  0.00     0.111 C 
HETATM   20  N1  UNL     1       3.447  74.744  28.373  1.00  0.00    -0.384 N 
ATOM     21  H12 UNL     1       2.956  75.503  28.846  1.00  0.00     0.157 HD
ATOM     22  H11 UNL     1       3.049  73.811  28.262  1.00  0.00     0.157 HD
BRANCH  19  23
HETATM   23  C5  UNL     1       5.205  76.391  28.073  1.00  0.00     0.083 C 
BRANCH  23  24
HETATM   24  C4  UNL     1       4.105  77.297  28.559  1.00  0.00     0.008 C 
BRANCH  24  25
HETATM   25  C3  UNL     1       4.314  78.741  28.183  1.00  0.00     0.000 C 
BRANCH  25  26
HETATM   26  C2  UNL     1       3.019  79.404  27.845  1.00  0.00    -0.005 C 
HETATM   27  C1  UNL     1       1.958  78.312  27.813  1.00  0.00     0.005 C 
ENDBRANCH  25  26
ENDBRANCH  24  25
ENDBRANCH  23  24
ENDBRANCH  19  23
ENDBRANCH  18  19
ENDBRANCH   1  18
BRANCH  15  28
HETATM   28  O5  UNL     1       6.928  74.104  22.558  1.00  0.00    -0.393 OA
ATOM     29  H5  UNL     1       6.063  73.895  22.889  1.00  0.00     0.210 HD
ENDBRANCH  15  28
BRANCH   5  30
HETATM   30  O2  UNL     1       9.697  71.376  29.197  1.00  0.00    -0.393 OA
ATOM     31  H2  UNL     1       9.565  70.437  29.142  1.00  0.00     0.210 HD
ENDBRANCH   5  30
BRANCH  14  32
HETATM   32  O4  UNL     1       8.913  75.423  21.482  1.00  0.00    -0.393 OA
ATOM     33  H4  UNL     1       8.318  76.113  21.211  1.00  0.00     0.210 HD
ENDBRANCH  14  32
BRANCH   6  34
HETATM   34  O3  UNL     1      10.969  69.694  27.473  1.00  0.00    -0.393 OA
ATOM     35  H3  UNL     1      11.696  69.133  27.232  1.00  0.00     0.210 HD
ENDBRANCH   6  34
TORSDOF 10
ENDMDL
MODEL 3
REMARK VINA RESULT: -6.783074302      1.074      1.133
REMARK  10 active torsions:
REMARK  status: ('A' for Active; 'I' for Inactive)
REMARK    1  A    between atoms: C2_2  and  C3_3 
REMARK    2  A    between atoms: C3_3  and  C4_4 
REMARK    3  A    between atoms: C4_4  and  C5_5 
REMARK    4  A    between atoms: C5_5  and  C6_6 
REMARK    5  A    between atoms: C6_6  and  O1_10 
REMARK    6  A    between atoms: O1_10  and  C7_11 
REMARK    7  A    between atoms: C11_15  and  O2_16 
REMARK    8  A    between atoms: C12_18  and  O3_19 
REMARK    9  A    between atoms: C20_28  and  O4_29 
REMARK   10  A    between atoms: C21_31  and  O5_32 
ROOT
HETATM    1  C7  UNL     1       3.701  72.273  28.626  1.00  0.00     0.130 C 
HETATM    2  C8  UNL     1       4.489  71.264  27.809  1.00  0.00     0.033 C 
HETATM    3  C9  UNL     1       5.948  71.258  28.136  1.00  0.00     0.010 C 
HETATM    4  C10 UNL     1       6.461  70.012  28.742  1.00  0.00     0.022 C 
HETATM    5  C11 UNL     1       6.685  69.025  27.583  1.00  0.00     0.151 C 
HETATM    6  C12 UNL     1       7.685  68.014  28.092  1.00  0.00     0.147 C 
HETATM    7  C13 UNL     1       7.052  67.276  29.207  1.00  0.00     0.035 C 
HETATM    8  C14 UNL     1       6.387  68.104  30.247  1.00  0.00     0.008 C 
HETATM    9  C15 UNL     1       5.663  69.325  29.755  1.00  0.00     0.001 C 
HETATM   10  C16 UNL     1       5.207  70.134  30.935  1.00  0.00    -0.034 C 
HETATM   11  C17 UNL     1       6.285  71.041  31.491  1.00  0.00     0.016 C 
HETATM   12  C18 UNL     1       4.868  69.206  32.117  1.00  0.00     0.012 C 
HETATM   13  C19 UNL     1       3.533  68.561  31.926  1.00  0.00     0.035 C 
HETATM   14  C20 UNL     1       2.484  69.601  32.250  1.00  0.00     0.147 C 
HETATM   15  C21 UNL     1       2.930  70.921  31.740  1.00  0.00     0.151 C 
HETATM   16  C22 UNL     1       3.938  70.841  30.592  1.00  0.00     0.028 C 
HETATM   17  C23 UNL     1       4.107  72.239  30.086  1.00  0.00     0.040 C 
ENDROOT
BRANCH   1  18
HETATM   18  O1  UNL     1       3.773  73.562  28.055  1.00  0.00    -0.334 OA
BRANCH  18  19
HETATM   19  C6  UNL     1       2.905  74.574  28.434  1.00  0.00     0.111 C 
HETATM   20  N1  UNL     1       1.661  74.403  28.145  1.00  0.00    -0.384 N 
ATOM     21  H12 UNL     1       1.022  75.148  28.423  1.00  0.00     0.157 HD
ATOM     22  H11 UNL     1       1.351  73.560  27.662  1.00  0.00     0.157 HD
BRANCH  19  23
HETATM   23  C5  UNL     1       3.362  75.817  29.145  1.00  0.00     0.083 C 
BRANCH  23  24
HETATM   24  C4  UNL     1       4.501  76.400  28.351  1.00  0.00     0.008 C 
BRANCH  24  25
HETATM   25  C3  UNL     1       4.337  77.870  28.067  1.00  0.00     0.000 C 
BRANCH  25  26
HETATM   26  C2  UNL     1       2.901  78.274  28.120  1.00  0.00    -0.005 C 
HETATM   27  C1  UNL     1       2.822  79.698  27.585  1.00  0.00     0.005 C 
ENDBRANCH  25  26
ENDBRANCH  24  25
ENDBRANCH  23  24
ENDBRANCH  19  23
ENDBRANCH  18  19
ENDBRANCH   1  18
BRANCH  15  28
HETATM   28  O5  UNL     1       3.314  71.832  32.713  1.00  0.00    -0.393 OA
ATOM     29  H5  UNL     1       4.244  72.024  32.743  1.00  0.00     0.210 HD
ENDBRANCH  15  28
BRANCH   5  30
HETATM   30  O2  UNL     1       7.261  69.644  26.482  1.00  0.00    -0.393 OA
ATOM     31  H2  UNL     1       6.623  69.819  25.800  1.00  0.00     0.210 HD
ENDBRANCH   5  30
BRANCH  14  32
HETATM   32  O4  UNL     1       2.194  69.648  33.612  1.00  0.00    -0.393 OA
ATOM     33  H4  UNL     1       1.284  69.863  33.777  1.00  0.00     0.210 HD
ENDBRANCH  14  32
BRANCH   6  34
HETATM   34  O3  UNL     1       8.888  68.614  28.409  1.00  0.00    -0.393 OA
ATOM     35  H3  UNL     1       8.759  69.369  28.972  1.00  0.00     0.210 HD
ENDBRANCH   6  34
TORSDOF 10
ENDMDL
MODEL 4
REMARK VINA RESULT: -6.750032177      4.623      7.133
REMARK  10 active torsions:
REMARK  status: ('A' for Active; 'I' for Inactive)
REMARK    1  A    between atoms: C2_2  and  C3_3 
REMARK    2  A    between atoms: C3_3  and  C4_4 
REMARK    3  A    between atoms: C4_4  and  C5_5 
REMARK    4  A    between atoms: C5_5  and  C6_6 
REMARK    5  A    between atoms: C6_6  and  O1_10 
REMARK    6  A    between atoms: O1_10  and  C7_11 
REMARK    7  A    between atoms: C11_15  and  O2_16 
REMARK    8  A    between atoms: C12_18  and  O3_19 
REMARK    9  A    between atoms: C20_28  and  O4_29 
REMARK   10  A    between atoms: C21_31  and  O5_32 
ROOT
HETATM    1  C7  UNL     1       6.481  74.468  26.675  1.00  0.00     0.130 C 
HETATM    2  C8  UNL     1       7.808  73.949  27.202  1.00  0.00     0.033 C 
HETATM    3  C9  UNL     1       8.021  72.496  26.920  1.00  0.00     0.010 C 
HETATM    4  C10 UNL     1       9.139  72.180  26.007  1.00  0.00     0.022 C 
HETATM    5  C11 UNL     1      10.421  72.237  26.855  1.00  0.00     0.151 C 
HETATM    6  C12 UNL     1      11.442  71.407  26.112  1.00  0.00     0.147 C 
HETATM    7  C13 UNL     1      11.714  72.080  24.822  1.00  0.00     0.035 C 
HETATM    8  C14 UNL     1      10.524  72.494  24.034  1.00  0.00     0.008 C 
HETATM    9  C15 UNL     1       9.358  73.012  24.826  1.00  0.00     0.001 C 
HETATM   10  C16 UNL     1       8.190  73.216  23.904  1.00  0.00    -0.034 C 
HETATM   11  C17 UNL     1       7.405  71.947  23.644  1.00  0.00     0.016 C 
HETATM   12  C18 UNL     1       8.684  73.630  22.505  1.00  0.00     0.012 C 
HETATM   13  C19 UNL     1       9.073  75.073  22.480  1.00  0.00     0.035 C 
HETATM   14  C20 UNL     1       7.796  75.880  22.430  1.00  0.00     0.147 C 
HETATM   15  C21 UNL     1       6.776  75.236  23.293  1.00  0.00     0.151 C 
HETATM   16  C22 UNL     1       7.358  74.352  24.398  1.00  0.00     0.028 C 
HETATM   17  C23 UNL     1       6.208  73.964  25.272  1.00  0.00     0.040 C 
ENDROOT
BRANCH   1  18
HETATM   18  O1  UNL     1       5.431  74.200  27.580  1.00  0.00    -0.334 OA
BRANCH  18  19
HETATM   19  C6  UNL     1       4.608  75.207  28.058  1.00  0.00     0.111 C 
HETATM   20  N1  UNL     1       3.401  74.871  28.358  1.00  0.00    -0.384 N 
ATOM     21  H12 UNL     1       2.795  75.613  28.709  1.00  0.00     0.157 HD
ATOM     22  H11 UNL     1       3.086  73.908  28.242  1.00  0.00     0.157 HD
BRANCH  19  23
HETATM   23  C5  UNL     1       5.073  76.626  28.229  1.00  0.00     0.083 C 
BRANCH  23  24
HETATM   24  C4  UNL     1       3.876  77.449  28.628  1.00  0.00     0.008 C 
BRANCH  24  25
HETATM   25  C3  UNL     1       3.984  78.895  28.220  1.00  0.00     0.000 C 
BRANCH  25  26
HETATM   26  C2  UNL     1       2.672  79.420  27.738  1.00  0.00    -0.005 C 
HETATM   27  C1  UNL     1       1.730  78.228  27.635  1.00  0.00     0.005 C 
ENDBRANCH  25  26
ENDBRANCH  24  25
ENDBRANCH  23  24
ENDBRANCH  19  23
ENDBRANCH  18  19
ENDBRANCH   1  18
BRANCH  15  28
HETATM   28  O5  UNL     1       5.736  74.612  22.617  1.00  0.00    -0.393 OA
ATOM     29  H5  UNL     1       5.399  73.826  23.029  1.00  0.00     0.210 HD
ENDBRANCH  15  28
BRANCH   5  30
HETATM   30  O2  UNL     1      10.246  71.642  28.097  1.00  0.00    -0.393 OA
ATOM     31  H2  UNL     1      10.821  72.018  28.754  1.00  0.00     0.210 HD
ENDBRANCH   5  30
BRANCH  14  32
HETATM   32  O4  UNL     1       7.332  76.049  21.126  1.00  0.00    -0.393 OA
ATOM     33  H4  UNL     1       7.628  75.356  20.547  1.00  0.00     0.210 HD
ENDBRANCH  14  32
BRANCH   6  34
HETATM   34  O3  UNL     1      11.034  70.093  26.000  1.00  0.00    -0.393 OA
ATOM     35  H3  UNL     1      10.485  69.965  25.235  1.00  0.00     0.210 HD
ENDBRANCH   6  34
TORSDOF 10
ENDMDL
MODEL 5
REMARK VINA RESULT: -6.661107787      2.555      4.213
REMARK  10 active torsions:
REMARK  status: ('A' for Active; 'I' for Inactive)
REMARK    1  A    between atoms: C2_2  and  C3_3 
REMARK    2  A    between atoms: C3_3  and  C4_4 
REMARK    3  A    between atoms: C4_4  and  C5_5 
REMARK    4  A    between atoms: C5_5  and  C6_6 
REMARK    5  A    between atoms: C6_6  and  O1_10 
REMARK    6  A    between atoms: O1_10  and  C7_11 
REMARK    7  A    between atoms: C11_15  and  O2_16 
REMARK    8  A    between atoms: C12_18  and  O3_19 
REMARK    9  A    between atoms: C20_28  and  O4_29 
REMARK   10  A    between atoms: C21_31  and  O5_32 
ROOT
HETATM    1  C7  UNL     1       2.370  73.420  28.667  1.00  0.00     0.130 C 
HETATM    2  C8  UNL     1       3.448  72.983  29.645  1.00  0.00     0.033 C 
HETATM    3  C9  UNL     1       2.929  72.087  30.724  1.00  0.00     0.010 C 
HETATM    4  C10 UNL     1       3.459  70.708  30.718  1.00  0.00     0.022 C 
HETATM    5  C11 UNL     1       4.841  70.771  31.389  1.00  0.00     0.151 C 
HETATM    6  C12 UNL     1       5.126  69.369  31.875  1.00  0.00     0.147 C 
HETATM    7  C13 UNL     1       5.233  68.495  30.686  1.00  0.00     0.035 C 
HETATM    8  C14 UNL     1       4.146  68.620  29.680  1.00  0.00     0.008 C 
HETATM    9  C15 UNL     1       3.621  70.007  29.446  1.00  0.00     0.001 C 
HETATM   10  C16 UNL     1       2.422  69.933  28.545  1.00  0.00    -0.034 C 
HETATM   11  C17 UNL     1       1.139  69.611  29.282  1.00  0.00     0.016 C 
HETATM   12  C18 UNL     1       2.574  68.764  27.553  1.00  0.00     0.012 C 
HETATM   13  C19 UNL     1       3.504  69.125  26.439  1.00  0.00     0.035 C 
HETATM   14  C20 UNL     1       2.740  70.023  25.492  1.00  0.00     0.147 C 
HETATM   15  C21 UNL     1       1.874  70.937  26.276  1.00  0.00     0.151 C 
HETATM   16  C22 UNL     1       2.348  71.170  27.713  1.00  0.00     0.028 C 
HETATM   17  C23 UNL     1       1.483  72.257  28.267  1.00  0.00     0.040 C 
ENDROOT
BRANCH   1  18
HETATM   18  O1  UNL     1       1.650  74.530  29.160  1.00  0.00    -0.334 OA
BRANCH  18  19
HETATM   19  C6  UNL     1       1.992  75.828  28.817  1.00  0.00     0.111 C 
HETATM   20  N1  UNL     1       1.227  76.419  27.965  1.00  0.00    -0.384 N 
ATOM     21  H12 UNL     1       1.479  77.374  27.713  1.00  0.00     0.157 HD
ATOM     22  H11 UNL     1       0.416  75.939  27.574  1.00  0.00     0.157 HD
BRANCH  19  23
HETATM   23  C5  UNL     1       3.187  76.535  29.393  1.00  0.00     0.083 C 
BRANCH  23  24
HETATM   24  C4  UNL     1       4.047  76.981  28.241  1.00  0.00     0.008 C 
BRANCH  24  25
HETATM   25  C3  UNL     1       4.277  78.469  28.210  1.00  0.00     0.000 C 
BRANCH  25  26
HETATM   26  C2  UNL     1       3.244  79.158  27.381  1.00  0.00    -0.005 C 
HETATM   27  C1  UNL     1       2.433  80.036  28.326  1.00  0.00     0.005 C 
ENDBRANCH  25  26
ENDBRANCH  24  25
ENDBRANCH  23  24
ENDBRANCH  19  23
ENDBRANCH  18  19
ENDBRANCH   1  18
BRANCH  15  28
HETATM   28  O5  UNL     1       0.515  70.668  26.210  1.00  0.00    -0.393 OA
ATOM     29  H5  UNL     1       0.002  70.991  26.941  1.00  0.00     0.210 HD
ENDBRANCH  15  28
BRANCH   5  30
HETATM   30  O2  UNL     1       4.835  71.592  32.509  1.00  0.00    -0.393 OA
ATOM     31  H2  UNL     1       4.126  72.224  32.480  1.00  0.00     0.210 HD
ENDBRANCH   5  30
BRANCH  14  32
HETATM   32  O4  UNL     1       2.005  69.296  24.557  1.00  0.00    -0.393 OA
ATOM     33  H4  UNL     1       1.954  69.740  23.718  1.00  0.00     0.210 HD
ENDBRANCH  14  32
BRANCH   6  34
HETATM   34  O3  UNL     1       4.192  68.961  32.806  1.00  0.00    -0.393 OA
ATOM     35  H3  UNL     1       3.713  69.700  33.162  1.00  0.00     0.210 HD
ENDBRANCH   6  34
TORSDOF 10
ENDMDL
