MODEL 1
REMARK VINA RESULT: -8.402962765      0.000      0.000
REMARK  9 active torsions:
REMARK  status: ('A' for Active; 'I' for Inactive)
REMARK    1  A    between atoms: C3_4  and  O2_5 
REMARK    2  A    between atoms: O2_5  and  C4_6 
REMARK    3  A    between atoms: C10_12  and  C11_13 
REMARK    4  A    between atoms: C11_13  and  C12_14 
REMARK    5  A    between atoms: C14_16  and  C15_17 
REMARK    6  A    between atoms: C18_20  and  O3_21 
REMARK    7  A    between atoms: C19_23  and  O4_24 
REMARK    8  A    between atoms: C21_27  and  O5_28 
REMARK    9  A    between atoms: C23_33  and  O6_34 
ROOT
HETATM    1  C12 UNL     1       6.380  73.856  26.941  1.00  0.00     0.016 A 
HETATM    2  C13 UNL     1       6.003  75.077  27.369  1.00  0.00     0.041 A 
HETATM    3  C14 UNL     1       4.849  75.015  28.164  1.00  0.00     0.019 A 
HETATM    4  C21 UNL     1       4.565  73.630  28.177  1.00  0.00     0.150 A 
HETATM    5  N1  UNL     1       5.443  72.950  27.474  1.00  0.00    -0.340 N 
ATOM      6  H1  UNL     1       5.445  71.940  27.337  1.00  0.00     0.168 HD
ENDROOT
BRANCH   1   7
HETATM    7  C11 UNL     1       7.420  73.350  26.008  1.00  0.00     0.096 C 
BRANCH   7   8
HETATM    8  C10 UNL     1       7.551  73.998  24.699  1.00  0.00    -0.021 C 
HETATM    9  C3  UNL     1       8.780  74.743  24.438  1.00  0.00     0.291 C 
HETATM   10  O1  UNL     1       8.546  75.711  23.392  1.00  0.00    -0.350 OA
HETATM   11  C2  UNL     1       8.109  74.939  22.305  1.00  0.00     0.153 C 
HETATM   12  C1  UNL     1       8.414  75.586  20.977  1.00  0.00     0.042 C 
HETATM   13  C23 UNL     1       6.659  74.624  22.526  1.00  0.00     0.170 C 
HETATM   14  C22 UNL     1       6.549  73.916  23.849  1.00  0.00     0.015 C 
BRANCH   9  15
HETATM   15  O2  UNL     1       9.309  75.320  25.546  1.00  0.00    -0.352 OA
BRANCH  15  16
HETATM   16  C4  UNL     1      10.618  75.003  25.864  1.00  0.00     0.125 C 
HETATM   17  C5  UNL     1      10.883  75.041  27.374  1.00  0.00     0.032 C 
HETATM   18  C6  UNL     1      12.257  74.430  27.607  1.00  0.00     0.002 C 
HETATM   19  C7  UNL     1      13.302  75.129  26.756  1.00  0.00     0.000 C 
HETATM   20  C8  UNL     1      12.701  76.388  26.163  1.00  0.00     0.002 C 
HETATM   21  C9  UNL     1      11.497  76.044  25.266  1.00  0.00     0.032 C 
ENDBRANCH  15  16
ENDBRANCH   9  15
BRANCH  13  22
HETATM   22  O6  UNL     1       5.947  75.810  22.662  1.00  0.00    -0.389 OA
ATOM     23  H6  UNL     1       5.557  76.039  21.828  1.00  0.00     0.210 HD
ENDBRANCH  13  22
ENDBRANCH   7   8
ENDBRANCH   1   7
BRANCH   3  24
HETATM   24  C15 UNL     1       4.000  76.102  28.640  1.00  0.00    -0.063 C 
HETATM   25  C16 UNL     1       2.523  75.974  28.500  1.00  0.00     0.038 C 
HETATM   26  C17 UNL     1       1.858  77.333  28.224  1.00  0.00     0.039 C 
HETATM   27  C18 UNL     1       2.658  78.256  27.373  1.00  0.00     0.147 C 
HETATM   28  C19 UNL     1       4.062  78.534  27.871  1.00  0.00     0.151 C 
HETATM   29  C20 UNL     1       4.579  77.471  28.755  1.00  0.00     0.069 C 
BRANCH  27  30
HETATM   30  O3  UNL     1       1.948  79.460  27.206  1.00  0.00    -0.393 OA
ATOM     31  H3  UNL     1       2.500  80.185  27.472  1.00  0.00     0.210 HD
ENDBRANCH  27  30
BRANCH  28  32
HETATM   32  O4  UNL     1       3.997  79.740  28.650  1.00  0.00    -0.393 OA
ATOM     33  H4  UNL     1       4.052  79.482  29.562  1.00  0.00     0.210 HD
ENDBRANCH  28  32
ENDBRANCH   3  24
BRANCH   4  34
HETATM   34  O5  UNL     1       3.497  73.066  28.858  1.00  0.00    -0.345 OA
ATOM     35  H5  UNL     1       3.584  72.577  29.667  1.00  0.00     0.219 HD
ENDBRANCH   4  34
TORSDOF 9
ENDMDL
MODEL 2
REMARK VINA RESULT: -8.226544482      0.742      1.110
REMARK  9 active torsions:
REMARK  status: ('A' for Active; 'I' for Inactive)
REMARK    1  A    between atoms: C3_4  and  O2_5 
REMARK    2  A    between atoms: O2_5  and  C4_6 
REMARK    3  A    between atoms: C10_12  and  C11_13 
REMARK    4  A    between atoms: C11_13  and  C12_14 
REMARK    5  A    between atoms: C14_16  and  C15_17 
REMARK    6  A    between atoms: C18_20  and  O3_21 
REMARK    7  A    between atoms: C19_23  and  O4_24 
REMARK    8  A    between atoms: C21_27  and  O5_28 
REMARK    9  A    between atoms: C23_33  and  O6_34 
ROOT
HETATM    1  C12 UNL     1       6.087  73.696  27.120  1.00  0.00     0.016 A 
HETATM    2  C13 UNL     1       5.771  74.947  27.507  1.00  0.00     0.041 A 
HETATM    3  C14 UNL     1       4.593  74.973  28.269  1.00  0.00     0.019 A 
HETATM    4  C21 UNL     1       4.228  73.607  28.307  1.00  0.00     0.150 A 
HETATM    5  N1  UNL     1       5.083  72.860  27.646  1.00  0.00    -0.340 N 
ATOM      6  H1  UNL     1       5.030  71.848  27.533  1.00  0.00     0.168 HD
ENDROOT
BRANCH   1   7
HETATM    7  C11 UNL     1       7.121  73.106  26.230  1.00  0.00     0.096 C 
BRANCH   7   8
HETATM    8  C10 UNL     1       7.369  73.749  24.936  1.00  0.00    -0.021 C 
HETATM    9  C3  UNL     1       8.593  74.534  24.799  1.00  0.00     0.291 C 
HETATM   10  O1  UNL     1       8.439  75.487  23.724  1.00  0.00    -0.350 OA
HETATM   11  C2  UNL     1       8.148  74.692  22.605  1.00  0.00     0.153 C 
HETATM   12  C1  UNL     1       8.571  75.341  21.310  1.00  0.00     0.042 C 
HETATM   13  C23 UNL     1       6.694  74.329  22.673  1.00  0.00     0.170 C 
HETATM   14  C22 UNL     1       6.467  73.626  23.984  1.00  0.00     0.015 C 
BRANCH   9  15
HETATM   15  O2  UNL     1       8.981  75.138  25.951  1.00  0.00    -0.352 OA
BRANCH  15  16
HETATM   16  C4  UNL     1      10.296  74.966  26.347  1.00  0.00     0.125 C 
HETATM   17  C5  UNL     1      11.005  73.851  25.569  1.00  0.00     0.032 C 
HETATM   18  C6  UNL     1      12.486  73.937  25.905  1.00  0.00     0.002 C 
HETATM   19  C7  UNL     1      12.693  73.898  27.409  1.00  0.00     0.000 C 
HETATM   20  C8  UNL     1      11.394  73.505  28.081  1.00  0.00     0.002 C 
HETATM   21  C9  UNL     1      10.289  74.533  27.771  1.00  0.00     0.032 C 
ENDBRANCH  15  16
ENDBRANCH   9  15
BRANCH  13  22
HETATM   22  O6  UNL     1       5.933  75.490  22.720  1.00  0.00    -0.389 OA
ATOM     23  H6  UNL     1       5.347  75.511  21.973  1.00  0.00     0.210 HD
ENDBRANCH  13  22
ENDBRANCH   7   8
ENDBRANCH   1   7
BRANCH   3  24
HETATM   24  C15 UNL     1       3.796  76.119  28.694  1.00  0.00    -0.063 C 
HETATM   25  C16 UNL     1       2.324  76.090  28.478  1.00  0.00     0.038 C 
HETATM   26  C17 UNL     1       1.768  77.488  28.160  1.00  0.00     0.039 C 
HETATM   27  C18 UNL     1       2.672  78.347  27.346  1.00  0.00     0.147 C 
HETATM   28  C19 UNL     1       4.064  78.534  27.916  1.00  0.00     0.151 C 
HETATM   29  C20 UNL     1       4.461  77.447  28.832  1.00  0.00     0.069 C 
BRANCH  27  30
HETATM   30  O3  UNL     1       2.056  79.595  27.136  1.00  0.00    -0.393 OA
ATOM     31  H3  UNL     1       1.870  79.995  27.977  1.00  0.00     0.210 HD
ENDBRANCH  27  30
BRANCH  28  32
HETATM   32  O4  UNL     1       4.041  79.749  28.684  1.00  0.00    -0.393 OA
ATOM     33  H4  UNL     1       3.713  80.431  28.110  1.00  0.00     0.210 HD
ENDBRANCH  28  32
ENDBRANCH   3  24
BRANCH   4  34
HETATM   34  O5  UNL     1       3.110  73.124  28.970  1.00  0.00    -0.345 OA
ATOM     35  H5  UNL     1       2.249  73.055  28.574  1.00  0.00     0.219 HD
ENDBRANCH   4  34
TORSDOF 9
ENDMDL
MODEL 3
REMARK VINA RESULT: -7.772120869      2.771      7.765
REMARK  9 active torsions:
REMARK  status: ('A' for Active; 'I' for Inactive)
REMARK    1  A    between atoms: C3_4  and  O2_5 
REMARK    2  A    between atoms: O2_5  and  C4_6 
REMARK    3  A    between atoms: C10_12  and  C11_13 
REMARK    4  A    between atoms: C11_13  and  C12_14 
REMARK    5  A    between atoms: C14_16  and  C15_17 
REMARK    6  A    between atoms: C18_20  and  O3_21 
REMARK    7  A    between atoms: C19_23  and  O4_24 
REMARK    8  A    between atoms: C21_27  and  O5_28 
REMARK    9  A    between atoms: C23_33  and  O6_34 
ROOT
HETATM    1  C12 UNL     1       6.282  72.775  27.518  1.00  0.00     0.016 A 
HETATM    2  C13 UNL     1       6.131  72.521  26.204  1.00  0.00     0.041 A 
HETATM    3  C14 UNL     1       6.979  73.318  25.420  1.00  0.00     0.019 A 
HETATM    4  C21 UNL     1       7.663  74.080  26.395  1.00  0.00     0.150 A 
HETATM    5  N1  UNL     1       7.268  73.776  27.611  1.00  0.00    -0.340 N 
ATOM      6  H1  UNL     1       7.616  74.193  28.474  1.00  0.00     0.168 HD
ENDROOT
BRANCH   1   7
HETATM    7  C11 UNL     1       5.587  72.333  28.756  1.00  0.00     0.096 C 
BRANCH   7   8
HETATM    8  C10 UNL     1       4.168  71.975  28.664  1.00  0.00    -0.021 C 
HETATM    9  C3  UNL     1       3.209  73.065  28.505  1.00  0.00     0.291 C 
HETATM   10  O1  UNL     1       1.905  72.630  28.947  1.00  0.00    -0.350 OA
HETATM   11  C2  UNL     1       1.629  71.512  28.146  1.00  0.00     0.153 C 
HETATM   12  C1  UNL     1       0.150  71.286  27.957  1.00  0.00     0.042 C 
HETATM   13  C23 UNL     1       2.368  70.343  28.729  1.00  0.00     0.170 C 
HETATM   14  C22 UNL     1       3.827  70.708  28.771  1.00  0.00     0.015 C 
BRANCH   9  15
HETATM   15  O2  UNL     1       3.589  74.214  29.119  1.00  0.00    -0.352 OA
BRANCH  15  16
HETATM   16  C4  UNL     1       3.339  75.402  28.454  1.00  0.00     0.125 C 
HETATM   17  C5  UNL     1       4.315  76.516  28.851  1.00  0.00     0.032 C 
HETATM   18  C6  UNL     1       4.106  77.667  27.878  1.00  0.00     0.002 C 
HETATM   19  C7  UNL     1       2.645  78.079  27.846  1.00  0.00     0.000 C 
HETATM   20  C8  UNL     1       1.913  77.408  28.990  1.00  0.00     0.002 C 
HETATM   21  C9  UNL     1       1.987  75.875  28.859  1.00  0.00     0.032 C 
ENDBRANCH  15  16
ENDBRANCH   9  15
BRANCH  13  22
HETATM   22  O6  UNL     1       1.976  70.166  30.051  1.00  0.00    -0.389 OA
ATOM     23  H6  UNL     1       2.565  69.553  30.473  1.00  0.00     0.210 HD
ENDBRANCH  13  22
ENDBRANCH   7   8
ENDBRANCH   1   7
BRANCH   3  24
HETATM   24  C15 UNL     1       6.982  73.513  23.974  1.00  0.00    -0.063 C 
HETATM   25  C16 UNL     1       8.002  72.803  23.155  1.00  0.00     0.038 C 
HETATM   26  C17 UNL     1       8.449  73.645  21.949  1.00  0.00     0.039 C 
HETATM   27  C18 UNL     1       8.517  75.110  22.203  1.00  0.00     0.147 C 
HETATM   28  C19 UNL     1       7.241  75.729  22.736  1.00  0.00     0.151 C 
HETATM   29  C20 UNL     1       6.367  74.751  23.414  1.00  0.00     0.069 C 
BRANCH  27  30
HETATM   30  O3  UNL     1       8.925  75.763  21.025  1.00  0.00    -0.393 OA
ATOM     31  H3  UNL     1       8.157  76.044  20.543  1.00  0.00     0.210 HD
ENDBRANCH  27  30
BRANCH  28  32
HETATM   32  O4  UNL     1       6.515  76.231  21.601  1.00  0.00    -0.393 OA
ATOM     33  H4  UNL     1       6.470  75.524  20.968  1.00  0.00     0.210 HD
ENDBRANCH  28  32
ENDBRANCH   3  24
BRANCH   4  34
HETATM   34  O5  UNL     1       8.634  75.023  26.097  1.00  0.00    -0.345 OA
ATOM     35  H5  UNL     1       8.532  75.955  26.251  1.00  0.00     0.219 HD
ENDBRANCH   4  34
TORSDOF 9
ENDMDL
MODEL 4
REMARK VINA RESULT: -7.711839991      4.359      8.809
REMARK  9 active torsions:
REMARK  status: ('A' for Active; 'I' for Inactive)
REMARK    1  A    between atoms: C3_4  and  O2_5 
REMARK    2  A    between atoms: O2_5  and  C4_6 
REMARK    3  A    between atoms: C10_12  and  C11_13 
REMARK    4  A    between atoms: C11_13  and  C12_14 
REMARK    5  A    between atoms: C14_16  and  C15_17 
REMARK    6  A    between atoms: C18_20  and  O3_21 
REMARK    7  A    between atoms: C19_23  and  O4_24 
REMARK    8  A    between atoms: C21_27  and  O5_28 
REMARK    9  A    between atoms: C23_33  and  O6_34 
ROOT
HETATM    1  C12 UNL     1       4.057  72.525  28.146  1.00  0.00     0.016 A 
HETATM    2  C13 UNL     1       3.294  73.554  28.561  1.00  0.00     0.041 A 
HETATM    3  C14 UNL     1       3.919  74.790  28.333  1.00  0.00     0.019 A 
HETATM    4  C21 UNL     1       5.140  74.404  27.733  1.00  0.00     0.150 A 
HETATM    5  N1  UNL     1       5.231  73.098  27.620  1.00  0.00    -0.340 N 
ATOM      6  H1  UNL     1       6.018  72.586  27.221  1.00  0.00     0.168 HD
ENDROOT
BRANCH   1   7
HETATM    7  C11 UNL     1       3.958  71.045  28.239  1.00  0.00     0.096 C 
BRANCH   7   8
HETATM    8  C10 UNL     1       3.829  70.442  29.569  1.00  0.00    -0.021 C 
HETATM    9  C3  UNL     1       3.007  69.240  29.686  1.00  0.00     0.291 C 
HETATM   10  O1  UNL     1       2.562  69.089  31.052  1.00  0.00    -0.350 OA
HETATM   11  C2  UNL     1       3.751  69.037  31.793  1.00  0.00     0.153 C 
HETATM   12  C1  UNL     1       3.595  68.267  33.081  1.00  0.00     0.042 C 
HETATM   13  C23 UNL     1       4.241  70.444  31.965  1.00  0.00     0.170 C 
HETATM   14  C22 UNL     1       4.416  71.031  30.591  1.00  0.00     0.015 C 
BRANCH   9  15
HETATM   15  O2  UNL     1       1.969  69.208  28.813  1.00  0.00    -0.352 OA
BRANCH  15  16
HETATM   16  C4  UNL     1       0.708  69.484  29.315  1.00  0.00     0.125 C 
HETATM   17  C5  UNL     1      -0.257  68.301  29.168  1.00  0.00     0.032 C 
HETATM   18  C6  UNL     1      -1.502  68.631  29.978  1.00  0.00     0.002 C 
HETATM   19  C7  UNL     1      -2.069  69.976  29.558  1.00  0.00     0.000 C 
HETATM   20  C8  UNL     1      -1.386  70.428  28.283  1.00  0.00     0.002 C 
HETATM   21  C9  UNL     1       0.129  70.591  28.507  1.00  0.00     0.032 C 
ENDBRANCH  15  16
ENDBRANCH   9  15
BRANCH  13  22
HETATM   22  O6  UNL     1       3.254  71.201  32.586  1.00  0.00    -0.389 OA
ATOM     23  H6  UNL     1       3.302  71.069  33.525  1.00  0.00     0.210 HD
ENDBRANCH  13  22
ENDBRANCH   7   8
ENDBRANCH   1   7
BRANCH   3  24
HETATM   24  C15 UNL     1       3.545  76.114  28.818  1.00  0.00    -0.063 C 
HETATM   25  C16 UNL     1       2.103  76.480  28.869  1.00  0.00     0.038 C 
HETATM   26  C17 UNL     1       1.883  77.971  28.566  1.00  0.00     0.039 C 
HETATM   27  C18 UNL     1       2.810  78.544  27.552  1.00  0.00     0.147 C 
HETATM   28  C19 UNL     1       4.284  78.357  27.851  1.00  0.00     0.151 C 
HETATM   29  C20 UNL     1       4.548  77.216  28.750  1.00  0.00     0.069 C 
BRANCH  27  30
HETATM   30  O3  UNL     1       2.513  79.908  27.375  1.00  0.00    -0.393 OA
ATOM     31  H3  UNL     1       1.823  79.995  26.729  1.00  0.00     0.210 HD
ENDBRANCH  27  30
BRANCH  28  32
HETATM   32  O4  UNL     1       4.725  79.544  28.532  1.00  0.00    -0.393 OA
ATOM     33  H4  UNL     1       4.862  80.208  27.867  1.00  0.00     0.210 HD
ENDBRANCH  28  32
ENDBRANCH   3  24
BRANCH   4  34
HETATM   34  O5  UNL     1       6.111  75.300  27.312  1.00  0.00    -0.345 OA
ATOM     35  H5  UNL     1       5.942  76.023  26.720  1.00  0.00     0.219 HD
ENDBRANCH   4  34
TORSDOF 9
ENDMDL
MODEL 5
REMARK VINA RESULT: -7.602478368      2.337      4.359
REMARK  9 active torsions:
REMARK  status: ('A' for Active; 'I' for Inactive)
REMARK    1  A    between atoms: C3_4  and  O2_5 
REMARK    2  A    between atoms: O2_5  and  C4_6 
REMARK    3  A    between atoms: C10_12  and  C11_13 
REMARK    4  A    between atoms: C11_13  and  C12_14 
REMARK    5  A    between atoms: C14_16  and  C15_17 
REMARK    6  A    between atoms: C18_20  and  O3_21 
REMARK    7  A    between atoms: C19_23  and  O4_24 
REMARK    8  A    between atoms: C21_27  and  O5_28 
REMARK    9  A    between atoms: C23_33  and  O6_34 
ROOT
HETATM    1  C12 UNL     1       4.803  72.998  27.785  1.00  0.00     0.016 A 
HETATM    2  C13 UNL     1       4.842  74.327  27.997  1.00  0.00     0.041 A 
HETATM    3  C14 UNL     1       3.757  74.761  28.775  1.00  0.00     0.019 A 
HETATM    4  C21 UNL     1       3.058  73.555  29.016  1.00  0.00     0.150 A 
HETATM    5  N1  UNL     1       3.652  72.530  28.448  1.00  0.00    -0.340 N 
ATOM      6  H1  UNL     1       3.335  71.561  28.482  1.00  0.00     0.168 HD
ENDROOT
BRANCH   1   7
HETATM    7  C11 UNL     1       5.597  72.046  26.964  1.00  0.00     0.096 C 
BRANCH   7   8
HETATM    8  C10 UNL     1       6.970  71.748  27.384  1.00  0.00    -0.021 C 
HETATM    9  C3  UNL     1       8.042  72.040  26.434  1.00  0.00     0.291 C 
HETATM   10  O1  UNL     1       9.202  71.243  26.755  1.00  0.00    -0.350 OA
HETATM   11  C2  UNL     1       9.505  71.598  28.077  1.00  0.00     0.153 C 
HETATM   12  C1  UNL     1      10.967  71.419  28.404  1.00  0.00     0.042 C 
HETATM   13  C23 UNL     1       8.570  70.843  28.975  1.00  0.00     0.170 C 
HETATM   14  C22 UNL     1       7.166  71.198  28.564  1.00  0.00     0.015 C 
BRANCH   9  15
HETATM   15  O2  UNL     1       7.672  71.889  25.138  1.00  0.00    -0.352 OA
BRANCH  15  16
HETATM   16  C4  UNL     1       8.008  72.904  24.259  1.00  0.00     0.125 C 
HETATM   17  C5  UNL     1       8.518  74.160  24.976  1.00  0.00     0.032 C 
HETATM   18  C6  UNL     1       9.091  75.085  23.912  1.00  0.00     0.002 C 
HETATM   19  C7  UNL     1       8.065  75.344  22.823  1.00  0.00     0.000 C 
HETATM   20  C8  UNL     1       6.714  74.831  23.280  1.00  0.00     0.002 C 
HETATM   21  C9  UNL     1       6.769  73.314  23.543  1.00  0.00     0.032 C 
ENDBRANCH  15  16
ENDBRANCH   9  15
BRANCH  13  22
HETATM   22  O6  UNL     1       8.708  69.481  28.741  1.00  0.00    -0.389 OA
ATOM     23  H6  UNL     1       9.312  69.113  29.375  1.00  0.00     0.210 HD
ENDBRANCH  13  22
ENDBRANCH   7   8
ENDBRANCH   1   7
BRANCH   3  24
HETATM   24  C15 UNL     1       3.307  76.121  29.051  1.00  0.00    -0.063 C 
HETATM   25  C16 UNL     1       1.866  76.450  28.874  1.00  0.00     0.038 C 
HETATM   26  C17 UNL     1       1.669  77.891  28.373  1.00  0.00     0.039 C 
HETATM   27  C18 UNL     1       2.714  78.369  27.426  1.00  0.00     0.147 C 
HETATM   28  C19 UNL     1       4.138  78.258  27.931  1.00  0.00     0.151 C 
HETATM   29  C20 UNL     1       4.296  77.235  28.983  1.00  0.00     0.069 C 
BRANCH  27  30
HETATM   30  O3  UNL     1       2.426  79.695  27.055  1.00  0.00    -0.393 OA
ATOM     31  H3  UNL     1       2.086  79.703  26.168  1.00  0.00     0.210 HD
ENDBRANCH  27  30
BRANCH  28  32
HETATM   32  O4  UNL     1       4.472  79.526  28.519  1.00  0.00    -0.393 OA
ATOM     33  H4  UNL     1       5.420  79.581  28.536  1.00  0.00     0.210 HD
ENDBRANCH  28  32
ENDBRANCH   3  24
BRANCH   4  34
HETATM   34  O5  UNL     1       1.895  73.473  29.766  1.00  0.00    -0.345 OA
ATOM     35  H5  UNL     1       1.022  73.476  29.391  1.00  0.00     0.219 HD
ENDBRANCH   4  34
TORSDOF 9
ENDMDL
