MODEL 1
REMARK VINA RESULT: -6.755116017      0.000      0.000
REMARK  14 active torsions:
REMARK  status: ('A' for Active; 'I' for Inactive)
REMARK    1  A    between atoms: C2_2  and  C4_4 
REMARK    2  A    between atoms: C4_4  and  O1_6 
REMARK    3  A    between atoms: C4_4  and  C6_8 
REMARK    4  A    between atoms: C6_8  and  O2_9 
REMARK    5  A    between atoms: C6_8  and  C7_11 
REMARK    6  A    between atoms: C7_11  and  O3_12 
REMARK    7  A    between atoms: O3_12  and  N1_13 
REMARK    8  A    between atoms: N1_13  and  C8_15 
REMARK    9  A    between atoms: C8_15  and  O4_16 
REMARK   10  A    between atoms: C8_15  and  N2_18 
REMARK   11  A    between atoms: N2_18  and  C9_20 
REMARK   12  A    between atoms: C14_30  and  N6_31 
REMARK   13  A    between atoms: N6_31  and  N7_33 
REMARK   14  A    between atoms: N11_44  and  N12_45 
ROOT
HETATM    1  C9  UNL     1       7.332  -2.067  -0.739  1.00  0.00     0.173 A 
HETATM    2  C10 UNL     1       6.108  -1.697  -0.175  1.00  0.00     0.176 A 
HETATM    3  N3  UNL     1       4.944  -2.401  -0.099  1.00  0.00    -0.281 N 
ATOM      4  H3  UNL     1       4.790  -3.343  -0.459  1.00  0.00     0.188 HD
HETATM    5  N4  UNL     1       4.059  -1.663   0.514  1.00  0.00    -0.294 N 
ATOM      6  H4  UNL     1       3.096  -1.932   0.712  1.00  0.00     0.187 HD
HETATM    7  C11 UNL     1       4.640  -0.458   0.849  1.00  0.00     0.208 A 
HETATM    8  N5  UNL     1       5.888  -0.518   0.411  1.00  0.00    -0.271 N 
HETATM    9  C12 UNL     1       6.896   0.385   0.473  1.00  0.00     0.165 A 
HETATM   10  C13 UNL     1       8.132   0.021  -0.092  1.00  0.00     0.149 A 
HETATM   11  C14 UNL     1       9.178   0.909  -0.052  1.00  0.00     0.168 A 
HETATM   12  N8  UNL     1       8.994   2.095   0.522  1.00  0.00    -0.173 N 
ATOM     13  H8  UNL     1       9.763   2.764   0.557  1.00  0.00     0.186 HD
HETATM   14  C15 UNL     1       7.821   2.417   1.050  1.00  0.00     0.681 A 
HETATM   15  N9  UNL     1       7.621   3.580   1.619  1.00  0.00    -0.234 N 
ATOM     16  H91 UNL     1       6.718   3.827   2.025  1.00  0.00     0.174 HD
ATOM     17  H92 UNL     1       8.431   4.199   1.620  1.00  0.00     0.174 HD
HETATM   18  N10 UNL     1       6.729   1.583   1.049  1.00  0.00    -0.170 N 
HETATM   19  C16 UNL     1       5.514   2.016   1.639  1.00  0.00     0.177 C 
HETATM   20  N11 UNL     1       8.321  -1.174  -0.675  1.00  0.00    -0.235 N 
ENDROOT
BRANCH   1  21
HETATM   21  N2  UNL     1       7.424  -3.192  -1.263  1.00  0.00    -0.328 N 
ATOM     22  H2  UNL     1       7.310  -3.122  -2.274  1.00  0.00     0.165 HD
BRANCH  21  23
HETATM   23  C8  UNL     1       7.634  -4.518  -0.891  1.00  0.00     0.348 C 
BRANCH  23  24
HETATM   24  N1  UNL     1       9.045  -4.805  -0.807  1.00  0.00    -0.256 N 
ATOM     25  H1  UNL     1       9.430  -5.442  -0.110  1.00  0.00     0.192 HD
BRANCH  24  26
HETATM   26  O3  UNL     1       9.801  -4.189  -1.688  1.00  0.00    -0.279 OA
BRANCH  26  27
HETATM   27  C7  UNL     1      10.326  -4.908  -2.720  1.00  0.00     0.235 C 
BRANCH  27  28
HETATM   28  C6  UNL     1      11.121  -6.090  -2.191  1.00  0.00     0.178 C 
BRANCH  28  29
HETATM   29  C4  UNL     1      10.815  -7.375  -2.885  1.00  0.00     0.085 C 
HETATM   30  C5  UNL     1      11.507  -8.533  -2.172  1.00  0.00     0.049 C 
BRANCH  29  31
HETATM   31  C2  UNL     1       9.363  -7.691  -3.026  1.00  0.00     0.014 C 
HETATM   32  C1  UNL     1       9.096  -8.697  -4.110  1.00  0.00     0.012 C 
HETATM   33  C3  UNL     1       8.918  -8.339  -1.710  1.00  0.00     0.012 C 
ENDBRANCH  29  31
BRANCH  29  34
HETATM   34  O1  UNL     1      11.378  -7.312  -4.156  1.00  0.00    -0.387 OA
ATOM     35  H1  UNL     1      12.311  -7.475  -4.081  1.00  0.00     0.210 HD
ENDBRANCH  29  34
ENDBRANCH  28  29
BRANCH  28  36
HETATM   36  O2  UNL     1      12.453  -5.790  -2.327  1.00  0.00    -0.390 OA
ATOM     37  H2  UNL     1      12.678  -5.054  -1.770  1.00  0.00     0.210 HD
ENDBRANCH  28  36
ENDBRANCH  27  28
ENDBRANCH  26  27
ENDBRANCH  24  26
ENDBRANCH  23  24
BRANCH  23  38
HETATM   38  O4  UNL     1       7.096  -4.813   0.388  1.00  0.00    -0.358 OA
ATOM     39  H4  UNL     1       7.783  -5.266   0.864  1.00  0.00     0.214 HD
ENDBRANCH  23  38
ENDBRANCH  21  23
ENDBRANCH   1  21
BRANCH  20  40
HETATM   40  N12 UNL     1       9.576  -1.463  -1.209  1.00  0.00    -0.336 N 
ATOM     41 2H12 UNL     1       9.713  -2.362  -1.671  1.00  0.00     0.177 HD
ATOM     42 1H12 UNL     1      10.337  -0.788  -1.143  1.00  0.00     0.177 HD
ENDBRANCH  20  40
BRANCH  11  43
HETATM   43  N6  UNL     1      10.325   0.585  -0.573  1.00  0.00    -0.290 N 
ATOM     44  H6  UNL     1      10.467  -0.333  -0.994  1.00  0.00     0.188 HD
BRANCH  43  45
HETATM   45  N7  UNL     1      11.360   1.524  -0.543  1.00  0.00    -0.344 N 
ATOM     46  H72 UNL     1      12.211   1.325  -0.016  1.00  0.00     0.176 HD
ATOM     47  H71 UNL     1      11.240   2.398  -1.055  1.00  0.00     0.176 HD
ENDBRANCH  43  45
ENDBRANCH  11  43
TORSDOF 14
ENDMDL
MODEL 2
REMARK VINA RESULT: -6.710295039      3.866      9.660
REMARK  14 active torsions:
REMARK  status: ('A' for Active; 'I' for Inactive)
REMARK    1  A    between atoms: C2_2  and  C4_4 
REMARK    2  A    between atoms: C4_4  and  O1_6 
REMARK    3  A    between atoms: C4_4  and  C6_8 
REMARK    4  A    between atoms: C6_8  and  O2_9 
REMARK    5  A    between atoms: C6_8  and  C7_11 
REMARK    6  A    between atoms: C7_11  and  O3_12 
REMARK    7  A    between atoms: O3_12  and  N1_13 
REMARK    8  A    between atoms: N1_13  and  C8_15 
REMARK    9  A    between atoms: C8_15  and  O4_16 
REMARK   10  A    between atoms: C8_15  and  N2_18 
REMARK   11  A    between atoms: N2_18  and  C9_20 
REMARK   12  A    between atoms: C14_30  and  N6_31 
REMARK   13  A    between atoms: N6_31  and  N7_33 
REMARK   14  A    between atoms: N11_44  and  N12_45 
ROOT
HETATM    1  C9  UNL     1      10.116  -7.180  -2.647  1.00  0.00     0.173 A 
HETATM    2  C10 UNL     1       9.093  -7.826  -3.346  1.00  0.00     0.176 A 
HETATM    3  N3  UNL     1       7.869  -7.356  -3.715  1.00  0.00    -0.281 N 
ATOM      4  H3  UNL     1       7.505  -6.422  -3.526  1.00  0.00     0.188 HD
HETATM    5  N4  UNL     1       7.241  -8.307  -4.353  1.00  0.00    -0.294 N 
ATOM      6  H4  UNL     1       6.302  -8.239  -4.745  1.00  0.00     0.187 HD
HETATM    7  C11 UNL     1       8.056  -9.418  -4.408  1.00  0.00     0.208 A 
HETATM    8  N5  UNL     1       9.175  -9.085  -3.784  1.00  0.00    -0.271 N 
HETATM    9  C12 UNL     1      10.305  -9.793  -3.546  1.00  0.00     0.165 A 
HETATM   10  C13 UNL     1      11.340  -9.151  -2.843  1.00  0.00     0.149 A 
HETATM   11  C14 UNL     1      12.500  -9.835  -2.580  1.00  0.00     0.168 A 
HETATM   12  N8  UNL     1      12.615 -11.093  -2.999  1.00  0.00    -0.173 N 
ATOM     13  H8  UNL     1      13.472 -11.612  -2.809  1.00  0.00     0.186 HD
HETATM   14  C15 UNL     1      11.627 -11.678  -3.661  1.00  0.00     0.681 A 
HETATM   15  N9  UNL     1      11.722 -12.916  -4.081  1.00  0.00    -0.234 N 
ATOM     16  H91 UNL     1      10.961 -13.366  -4.590  1.00  0.00     0.174 HD
ATOM     17  H92 UNL     1      12.605 -13.375  -3.858  1.00  0.00     0.174 HD
HETATM   18  N10 UNL     1      10.438 -11.060  -3.962  1.00  0.00    -0.170 N 
HETATM   19  C16 UNL     1       9.438 -11.769  -4.676  1.00  0.00     0.177 C 
HETATM   20  N11 UNL     1      11.227  -7.882  -2.416  1.00  0.00    -0.235 N 
ENDROOT
BRANCH   1  21
HETATM   21  N2  UNL     1       9.931  -6.005  -2.285  1.00  0.00    -0.328 N 
ATOM     22  H2  UNL     1       9.514  -5.983  -1.354  1.00  0.00     0.165 HD
BRANCH  21  23
HETATM   23  C8  UNL     1      10.119  -4.709  -2.760  1.00  0.00     0.348 C 
BRANCH  23  24
HETATM   24  N1  UNL     1       9.369  -3.764  -1.970  1.00  0.00    -0.256 N 
ATOM     25  H1  UNL     1       9.784  -2.905  -1.609  1.00  0.00     0.192 HD
BRANCH  24  26
HETATM   26  O3  UNL     1       8.114  -4.084  -1.745  1.00  0.00    -0.279 OA
BRANCH  26  27
HETATM   27  C7  UNL     1       7.407  -3.368  -0.827  1.00  0.00     0.235 C 
BRANCH  27  28
HETATM   28  C6  UNL     1       6.679  -2.216  -1.501  1.00  0.00     0.178 C 
BRANCH  28  29
HETATM   29  C4  UNL     1       7.175  -0.871  -1.085  1.00  0.00     0.085 C 
HETATM   30  C5  UNL     1       6.779   0.176  -2.122  1.00  0.00     0.049 C 
BRANCH  29  31
HETATM   31  C2  UNL     1       6.722  -0.415   0.261  1.00  0.00     0.014 C 
HETATM   32  C1  UNL     1       6.979   1.048   0.489  1.00  0.00     0.012 C 
HETATM   33  C3  UNL     1       5.202  -0.604   0.309  1.00  0.00     0.012 C 
ENDBRANCH  29  31
BRANCH  29  34
HETATM   34  O1  UNL     1       8.566  -0.915  -1.091  1.00  0.00    -0.387 OA
ATOM     35  H1  UNL     1       8.860  -1.045  -1.986  1.00  0.00     0.210 HD
ENDBRANCH  29  34
ENDBRANCH  28  29
BRANCH  28  36
HETATM   36  O2  UNL     1       6.822  -2.370  -2.857  1.00  0.00    -0.390 OA
ATOM     37  H2  UNL     1       7.485  -3.024  -3.041  1.00  0.00     0.210 HD
ENDBRANCH  28  36
ENDBRANCH  27  28
ENDBRANCH  26  27
ENDBRANCH  24  26
ENDBRANCH  23  24
BRANCH  23  38
HETATM   38  O4  UNL     1      11.474  -4.296  -2.683  1.00  0.00    -0.358 OA
ATOM     39  H4  UNL     1      11.990  -5.092  -2.640  1.00  0.00     0.214 HD
ENDBRANCH  23  38
ENDBRANCH  21  23
ENDBRANCH   1  21
BRANCH  20  40
HETATM   40  N12 UNL     1      12.298  -7.314  -1.730  1.00  0.00    -0.336 N 
ATOM     41 2H12 UNL     1      12.132  -6.468  -1.183  1.00  0.00     0.177 HD
ATOM     42 1H12 UNL     1      13.226  -7.735  -1.771  1.00  0.00     0.177 HD
ENDBRANCH  20  40
BRANCH  11  43
HETATM   43  N6  UNL     1      13.464  -9.252  -1.929  1.00  0.00    -0.290 N 
ATOM     44  H6  UNL     1      13.264  -8.622  -1.153  1.00  0.00     0.188 HD
BRANCH  43  45
HETATM   45  N7  UNL     1      14.783  -9.510  -2.317  1.00  0.00    -0.344 N 
ATOM     46  H72 UNL     1      15.011 -10.388  -2.786  1.00  0.00     0.176 HD
ATOM     47  H71 UNL     1      15.494  -8.807  -2.120  1.00  0.00     0.176 HD
ENDBRANCH  43  45
ENDBRANCH  11  43
TORSDOF 14
ENDMDL
MODEL 3
REMARK VINA RESULT: -6.704889871      4.055      9.780
REMARK  14 active torsions:
REMARK  status: ('A' for Active; 'I' for Inactive)
REMARK    1  A    between atoms: C2_2  and  C4_4 
REMARK    2  A    between atoms: C4_4  and  O1_6 
REMARK    3  A    between atoms: C4_4  and  C6_8 
REMARK    4  A    between atoms: C6_8  and  O2_9 
REMARK    5  A    between atoms: C6_8  and  C7_11 
REMARK    6  A    between atoms: C7_11  and  O3_12 
REMARK    7  A    between atoms: O3_12  and  N1_13 
REMARK    8  A    between atoms: N1_13  and  C8_15 
REMARK    9  A    between atoms: C8_15  and  O4_16 
REMARK   10  A    between atoms: C8_15  and  N2_18 
REMARK   11  A    between atoms: N2_18  and  C9_20 
REMARK   12  A    between atoms: C14_30  and  N6_31 
REMARK   13  A    between atoms: N6_31  and  N7_33 
REMARK   14  A    between atoms: N11_44  and  N12_45 
ROOT
HETATM    1  C9  UNL     1      10.359  -7.564  -2.823  1.00  0.00     0.173 A 
HETATM    2  C10 UNL     1       9.269  -8.180  -3.443  1.00  0.00     0.176 A 
HETATM    3  N3  UNL     1       8.081  -7.639  -3.838  1.00  0.00    -0.281 N 
ATOM      4  H3  UNL     1       7.805  -6.663  -3.733  1.00  0.00     0.188 HD
HETATM    5  N4  UNL     1       7.360  -8.586  -4.374  1.00  0.00    -0.294 N 
ATOM      6  H4  UNL     1       6.422  -8.472  -4.757  1.00  0.00     0.187 HD
HETATM    7  C11 UNL     1       8.073  -9.765  -4.335  1.00  0.00     0.208 A 
HETATM    8  N5  UNL     1       9.230  -9.476  -3.760  1.00  0.00    -0.271 N 
HETATM    9  C12 UNL     1      10.300 -10.256  -3.472  1.00  0.00     0.165 A 
HETATM   10  C13 UNL     1      11.402  -9.645  -2.847  1.00  0.00     0.149 A 
HETATM   11  C14 UNL     1      12.504 -10.401  -2.537  1.00  0.00     0.168 A 
HETATM   12  N8  UNL     1      12.500 -11.698  -2.836  1.00  0.00    -0.173 N 
ATOM     13  H8  UNL     1      13.313 -12.271  -2.609  1.00  0.00     0.186 HD
HETATM   14  C15 UNL     1      11.451 -12.253  -3.426  1.00  0.00     0.681 A 
HETATM   15  N9  UNL     1      11.428 -13.528  -3.728  1.00  0.00    -0.234 N 
ATOM     16  H91 UNL     1      10.620 -13.955  -4.181  1.00  0.00     0.174 HD
ATOM     17  H92 UNL     1      12.272 -14.041  -3.474  1.00  0.00     0.174 HD
HETATM   18  N10 UNL     1      10.313 -11.562  -3.767  1.00  0.00    -0.170 N 
HETATM   19  C16 UNL     1       9.240 -12.244  -4.398  1.00  0.00     0.177 C 
HETATM   20  N11 UNL     1      11.409  -8.337  -2.541  1.00  0.00    -0.235 N 
ENDROOT
BRANCH   1  21
HETATM   21  N2  UNL     1      10.285  -6.348  -2.570  1.00  0.00    -0.328 N 
ATOM     22  H2  UNL     1       9.593  -6.179  -1.840  1.00  0.00     0.165 HD
BRANCH  21  23
HETATM   23  C8  UNL     1      10.856  -5.146  -2.981  1.00  0.00     0.348 C 
BRANCH  23  24
HETATM   24  N1  UNL     1       9.989  -4.037  -2.665  1.00  0.00    -0.256 N 
ATOM     25  H1  UNL     1      10.304  -3.239  -2.114  1.00  0.00     0.192 HD
BRANCH  24  26
HETATM   26  O3  UNL     1       8.765  -4.124  -3.136  1.00  0.00    -0.279 OA
BRANCH  26  27
HETATM   27  C7  UNL     1       7.722  -3.810  -2.317  1.00  0.00     0.235 C 
BRANCH  27  28
HETATM   28  C6  UNL     1       8.183  -2.882  -1.205  1.00  0.00     0.178 C 
BRANCH  28  29
HETATM   29  C4  UNL     1       7.264  -1.732  -0.968  1.00  0.00     0.085 C 
HETATM   30  C5  UNL     1       5.899  -2.237  -0.506  1.00  0.00     0.049 C 
BRANCH  29  31
HETATM   31  C2  UNL     1       7.757  -0.714   0.006  1.00  0.00     0.014 C 
HETATM   32  C1  UNL     1       8.989  -0.002  -0.481  1.00  0.00     0.012 C 
HETATM   33  C3  UNL     1       6.661   0.349   0.135  1.00  0.00     0.012 C 
ENDBRANCH  29  31
BRANCH  29  34
HETATM   34  O1  UNL     1       7.050  -1.103  -2.191  1.00  0.00    -0.387 OA
ATOM     35  H1  UNL     1       7.875  -1.067  -2.660  1.00  0.00     0.210 HD
ENDBRANCH  29  34
ENDBRANCH  28  29
BRANCH  28  36
HETATM   36  O2  UNL     1       8.301  -3.631  -0.062  1.00  0.00    -0.390 OA
ATOM     37  H2  UNL     1       7.832  -4.451  -0.161  1.00  0.00     0.210 HD
ENDBRANCH  28  36
ENDBRANCH  27  28
ENDBRANCH  26  27
ENDBRANCH  24  26
ENDBRANCH  23  24
BRANCH  23  38
HETATM   38  O4  UNL     1      12.087  -4.880  -2.326  1.00  0.00    -0.358 OA
ATOM     39  H4  UNL     1      12.423  -5.723  -2.047  1.00  0.00     0.214 HD
ENDBRANCH  23  38
ENDBRANCH  21  23
ENDBRANCH   1  21
BRANCH  20  40
HETATM   40  N12 UNL     1      12.541  -7.804  -1.926  1.00  0.00    -0.336 N 
ATOM     41 2H12 UNL     1      12.907  -8.269  -1.096  1.00  0.00     0.177 HD
ATOM     42 1H12 UNL     1      12.993  -6.970  -2.301  1.00  0.00     0.177 HD
ENDBRANCH  20  40
BRANCH  11  43
HETATM   43  N6  UNL     1      13.529  -9.848  -1.957  1.00  0.00    -0.290 N 
ATOM     44  H6  UNL     1      13.428  -9.371  -1.062  1.00  0.00     0.188 HD
BRANCH  43  45
HETATM   45  N7  UNL     1      14.774  -9.924  -2.589  1.00  0.00    -0.344 N 
ATOM     46  H72 UNL     1      14.881 -10.489  -3.432  1.00  0.00     0.176 HD
ATOM     47  H71 UNL     1      15.556  -9.406  -2.188  1.00  0.00     0.176 HD
ENDBRANCH  43  45
ENDBRANCH  11  43
TORSDOF 14
ENDMDL
MODEL 4
REMARK VINA RESULT: -6.689040954      1.308      1.744
REMARK  14 active torsions:
REMARK  status: ('A' for Active; 'I' for Inactive)
REMARK    1  A    between atoms: C2_2  and  C4_4 
REMARK    2  A    between atoms: C4_4  and  O1_6 
REMARK    3  A    between atoms: C4_4  and  C6_8 
REMARK    4  A    between atoms: C6_8  and  O2_9 
REMARK    5  A    between atoms: C6_8  and  C7_11 
REMARK    6  A    between atoms: C7_11  and  O3_12 
REMARK    7  A    between atoms: O3_12  and  N1_13 
REMARK    8  A    between atoms: N1_13  and  C8_15 
REMARK    9  A    between atoms: C8_15  and  O4_16 
REMARK   10  A    between atoms: C8_15  and  N2_18 
REMARK   11  A    between atoms: N2_18  and  C9_20 
REMARK   12  A    between atoms: C14_30  and  N6_31 
REMARK   13  A    between atoms: N6_31  and  N7_33 
REMARK   14  A    between atoms: N11_44  and  N12_45 
ROOT
HETATM    1  C9  UNL     1       7.302  -2.199  -1.087  1.00  0.00     0.173 A 
HETATM    2  C10 UNL     1       6.053  -2.616  -0.619  1.00  0.00     0.176 A 
HETATM    3  N3  UNL     1       5.383  -3.777  -0.864  1.00  0.00    -0.281 N 
ATOM      4  H3  UNL     1       5.711  -4.545  -1.450  1.00  0.00     0.188 HD
HETATM    5  N4  UNL     1       4.249  -3.737  -0.218  1.00  0.00    -0.294 N 
ATOM      6  H4  UNL     1       3.541  -4.471  -0.217  1.00  0.00     0.187 HD
HETATM    7  C11 UNL     1       4.165  -2.540   0.461  1.00  0.00     0.208 A 
HETATM    8  N5  UNL     1       5.283  -1.885   0.191  1.00  0.00    -0.271 N 
HETATM    9  C12 UNL     1       5.721  -0.668   0.594  1.00  0.00     0.165 A 
HETATM   10  C13 UNL     1       6.977  -0.240   0.128  1.00  0.00     0.149 A 
HETATM   11  C14 UNL     1       7.454   0.988   0.511  1.00  0.00     0.168 A 
HETATM   12  N8  UNL     1       6.712   1.745   1.316  1.00  0.00    -0.173 N 
ATOM     13  H8  UNL     1       7.055   2.660   1.607  1.00  0.00     0.186 HD
HETATM   14  C15 UNL     1       5.531   1.321   1.743  1.00  0.00     0.681 A 
HETATM   15  N9  UNL     1       4.787   2.052   2.536  1.00  0.00    -0.234 N 
ATOM     16  H91 UNL     1       3.878   1.726   2.865  1.00  0.00     0.174 HD
ATOM     17  H92 UNL     1       5.190   2.954   2.788  1.00  0.00     0.174 HD
HETATM   18  N10 UNL     1       4.987   0.106   1.405  1.00  0.00    -0.170 N 
HETATM   19  C16 UNL     1       3.715  -0.261   1.914  1.00  0.00     0.177 C 
HETATM   20  N11 UNL     1       7.727  -1.000  -0.687  1.00  0.00    -0.235 N 
ENDROOT
BRANCH   1  21
HETATM   21  N2  UNL     1       7.934  -2.961  -1.841  1.00  0.00    -0.328 N 
ATOM     22  H2  UNL     1       7.769  -2.712  -2.816  1.00  0.00     0.165 HD
BRANCH  21  23
HETATM   23  C8  UNL     1       8.797  -4.051  -1.761  1.00  0.00     0.348 C 
BRANCH  23  24
HETATM   24  N1  UNL     1      10.046  -3.760  -2.422  1.00  0.00    -0.256 N 
ATOM     25  H1  UNL     1      10.464  -2.830  -2.409  1.00  0.00     0.192 HD
BRANCH  24  26
HETATM   26  O3  UNL     1      10.608  -4.773  -3.042  1.00  0.00    -0.279 OA
BRANCH  26  27
HETATM   27  C7  UNL     1      11.598  -5.463  -2.410  1.00  0.00     0.235 C 
BRANCH  27  28
HETATM   28  C6  UNL     1      11.097  -6.831  -1.978  1.00  0.00     0.178 C 
BRANCH  28  29
HETATM   29  C4  UNL     1      10.667  -7.697  -3.114  1.00  0.00     0.085 C 
HETATM   30  C5  UNL     1      11.265  -9.093  -2.965  1.00  0.00     0.049 C 
BRANCH  29  31
HETATM   31  C2  UNL     1       9.191  -7.819  -3.296  1.00  0.00     0.014 C 
HETATM   32  C1  UNL     1       8.797  -9.118  -3.941  1.00  0.00     0.012 C 
HETATM   33  C3  UNL     1       8.567  -7.821  -1.896  1.00  0.00     0.012 C 
ENDBRANCH  29  31
BRANCH  29  34
HETATM   34  O1  UNL     1      11.212  -7.165  -4.279  1.00  0.00    -0.387 OA
ATOM     35  H1  UNL     1      11.918  -7.732  -4.567  1.00  0.00     0.210 HD
ENDBRANCH  29  34
ENDBRANCH  28  29
BRANCH  28  36
HETATM   36  O2  UNL     1      12.108  -7.442  -1.279  1.00  0.00    -0.390 OA
ATOM     37  H2  UNL     1      11.751  -8.120  -0.718  1.00  0.00     0.210 HD
ENDBRANCH  28  36
ENDBRANCH  27  28
ENDBRANCH  26  27
ENDBRANCH  24  26
ENDBRANCH  23  24
BRANCH  23  38
HETATM   38  O4  UNL     1       9.130  -4.382  -0.422  1.00  0.00    -0.358 OA
ATOM     39  H4  UNL     1       8.366  -4.815  -0.061  1.00  0.00     0.214 HD
ENDBRANCH  23  38
ENDBRANCH  21  23
ENDBRANCH   1  21
BRANCH  20  40
HETATM   40  N12 UNL     1       8.964  -0.508  -1.103  1.00  0.00    -0.336 N 
ATOM     41 2H12 UNL     1       9.522  -1.074  -1.742  1.00  0.00     0.177 HD
ATOM     42 1H12 UNL     1       9.300   0.398  -0.778  1.00  0.00     0.177 HD
ENDBRANCH  20  40
BRANCH  11  43
HETATM   43  N6  UNL     1       8.614   1.397   0.085  1.00  0.00    -0.290 N 
ATOM     44  H6  UNL     1       8.976   1.089  -0.817  1.00  0.00     0.188 HD
BRANCH  43  45
HETATM   45  N7  UNL     1       9.353   2.266   0.893  1.00  0.00    -0.344 N 
ATOM     46  H72 UNL     1       8.869   2.911   1.518  1.00  0.00     0.176 HD
ATOM     47  H71 UNL     1      10.371   2.235   0.837  1.00  0.00     0.176 HD
ENDBRANCH  43  45
ENDBRANCH  11  43
TORSDOF 14
ENDMDL
MODEL 5
REMARK VINA RESULT: -6.684759664      0.947      1.233
REMARK  14 active torsions:
REMARK  status: ('A' for Active; 'I' for Inactive)
REMARK    1  A    between atoms: C2_2  and  C4_4 
REMARK    2  A    between atoms: C4_4  and  O1_6 
REMARK    3  A    between atoms: C4_4  and  C6_8 
REMARK    4  A    between atoms: C6_8  and  O2_9 
REMARK    5  A    between atoms: C6_8  and  C7_11 
REMARK    6  A    between atoms: C7_11  and  O3_12 
REMARK    7  A    between atoms: O3_12  and  N1_13 
REMARK    8  A    between atoms: N1_13  and  C8_15 
REMARK    9  A    between atoms: C8_15  and  O4_16 
REMARK   10  A    between atoms: C8_15  and  N2_18 
REMARK   11  A    between atoms: N2_18  and  C9_20 
REMARK   12  A    between atoms: C14_30  and  N6_31 
REMARK   13  A    between atoms: N6_31  and  N7_33 
REMARK   14  A    between atoms: N11_44  and  N12_45 
ROOT
HETATM    1  C9  UNL     1       6.698  -2.655  -0.719  1.00  0.00     0.173 A 
HETATM    2  C10 UNL     1       5.403  -2.643  -0.193  1.00  0.00     0.176 A 
HETATM    3  N3  UNL     1       4.479  -3.644  -0.151  1.00  0.00    -0.281 N 
ATOM      4  H3  UNL     1       4.605  -4.590  -0.513  1.00  0.00     0.188 HD
HETATM    5  N4  UNL     1       3.406  -3.184   0.433  1.00  0.00    -0.294 N 
ATOM      6  H4  UNL     1       2.550  -3.713   0.603  1.00  0.00     0.187 HD
HETATM    7  C11 UNL     1       3.618  -1.868   0.782  1.00  0.00     0.208 A 
HETATM    8  N5  UNL     1       4.846  -1.575   0.383  1.00  0.00    -0.271 N 
HETATM    9  C12 UNL     1       5.561  -0.428   0.473  1.00  0.00     0.165 A 
HETATM   10  C13 UNL     1       6.866  -0.430  -0.053  1.00  0.00     0.149 A 
HETATM   11  C14 UNL     1       7.621   0.713   0.016  1.00  0.00     0.168 A 
HETATM   12  N8  UNL     1       7.098   1.798   0.582  1.00  0.00    -0.173 N 
ATOM     13  H8  UNL     1       7.649   2.654   0.638  1.00  0.00     0.186 HD
HETATM   14  C15 UNL     1       5.866   1.777   1.072  1.00  0.00     0.681 A 
HETATM   15  N9  UNL     1       5.334   2.835   1.632  1.00  0.00    -0.234 N 
ATOM     16  H91 UNL     1       4.386   2.819   2.010  1.00  0.00     0.174 HD
ATOM     17  H92 UNL     1       5.940   3.655   1.656  1.00  0.00     0.174 HD
HETATM   18  N10 UNL     1       5.050   0.673   1.040  1.00  0.00    -0.170 N 
HETATM   19  C16 UNL     1       3.745   0.747   1.592  1.00  0.00     0.177 C 
HETATM   20  N11 UNL     1       7.397  -1.523  -0.627  1.00  0.00    -0.235 N 
ENDROOT
BRANCH   1  21
HETATM   21  N2  UNL     1       7.115  -3.707  -1.236  1.00  0.00    -0.328 N 
ATOM     22  H2  UNL     1       7.004  -3.671  -2.250  1.00  0.00     0.165 HD
BRANCH  21  23
HETATM   23  C8  UNL     1       7.686  -4.919  -0.856  1.00  0.00     0.348 C 
BRANCH  23  24
HETATM   24  N1  UNL     1       9.124  -4.811  -0.812  1.00  0.00    -0.256 N 
ATOM     25  H1  UNL     1       9.679  -5.235  -0.069  1.00  0.00     0.192 HD
BRANCH  24  26
HETATM   26  O3  UNL     1       9.671  -4.129  -1.793  1.00  0.00    -0.279 OA
BRANCH  26  27
HETATM   27  C7  UNL     1      10.312  -4.807  -2.787  1.00  0.00     0.235 C 
BRANCH  27  28
HETATM   28  C6  UNL     1      11.099  -5.972  -2.211  1.00  0.00     0.178 C 
BRANCH  28  29
HETATM   29  C4  UNL     1      10.809  -7.276  -2.875  1.00  0.00     0.085 C 
HETATM   30  C5  UNL     1      11.505  -8.410  -2.129  1.00  0.00     0.049 C 
BRANCH  29  31
HETATM   31  C2  UNL     1       9.361  -7.607  -3.019  1.00  0.00     0.014 C 
HETATM   32  C1  UNL     1       9.098  -8.552  -4.158  1.00  0.00     0.012 C 
HETATM   33  C3  UNL     1       8.942  -8.340  -1.739  1.00  0.00     0.012 C 
ENDBRANCH  29  31
BRANCH  29  34
HETATM   34  O1  UNL     1      11.381  -7.239  -4.144  1.00  0.00    -0.387 OA
ATOM     35  H1  UNL     1      12.314  -7.394  -4.058  1.00  0.00     0.210 HD
ENDBRANCH  29  34
ENDBRANCH  28  29
BRANCH  28  36
HETATM   36  O2  UNL     1      12.433  -5.671  -2.330  1.00  0.00    -0.390 OA
ATOM     37  H2  UNL     1      12.607  -5.304  -3.188  1.00  0.00     0.210 HD
ENDBRANCH  28  36
ENDBRANCH  27  28
ENDBRANCH  26  27
ENDBRANCH  24  26
ENDBRANCH  23  24
BRANCH  23  38
HETATM   38  O4  UNL     1       7.283  -5.324   0.443  1.00  0.00    -0.358 OA
ATOM     39  H4  UNL     1       6.868  -4.566   0.837  1.00  0.00     0.214 HD
ENDBRANCH  23  38
ENDBRANCH  21  23
ENDBRANCH   1  21
BRANCH  20  40
HETATM   40  N12 UNL     1       8.698  -1.447  -1.122  1.00  0.00    -0.336 N 
ATOM     41 2H12 UNL     1       9.191  -2.317  -1.328  1.00  0.00     0.177 HD
ATOM     42 1H12 UNL     1       9.145  -0.544  -1.278  1.00  0.00     0.177 HD
ENDBRANCH  20  40
BRANCH  11  43
HETATM   43  N6  UNL     1       8.829   0.724  -0.469  1.00  0.00    -0.290 N 
ATOM     44  H6  UNL     1       9.102   0.071  -1.203  1.00  0.00     0.188 HD
BRANCH  43  45
HETATM   45  N7  UNL     1       9.743   1.652   0.039  1.00  0.00    -0.344 N 
ATOM     46  H72 UNL     1       9.418   2.402   0.650  1.00  0.00     0.176 HD
ATOM     47  H71 UNL     1      10.726   1.557  -0.217  1.00  0.00     0.176 HD
ENDBRANCH  43  45
ENDBRANCH  11  43
TORSDOF 14
ENDMDL
