MODEL 1
REMARK VINA RESULT: -7.590139036      0.000      0.000
REMARK  10 active torsions:
REMARK  status: ('A' for Active; 'I' for Inactive)
REMARK    1  A    between atoms: O1_2  and  C2_3 
REMARK    2  A    between atoms: C3_6  and  C4_7 
REMARK    3  A    between atoms: C9_23  and  N6_24 
REMARK    4  A    between atoms: N6_24  and  C10_26 
REMARK    5  A    between atoms: C10_26  and  C11_27 
REMARK    6  A    between atoms: C10_26  and  N8_33 
REMARK    7  A    between atoms: C11_27  and  C12_28 
REMARK    8  A    between atoms: C12_28  and  N7_29 
REMARK    9  A    between atoms: N8_33  and  N9_35 
REMARK   10  A    between atoms: C15_44  and  O4_45 
ROOT
HETATM    1  C2  UNL     1       8.714  -6.024  -1.632  1.00  0.00     0.176 A 
HETATM    2  N1  UNL     1       9.492  -7.155  -1.710  1.00  0.00    -0.319 N 
ATOM      3  H1  UNL     1       9.161  -8.019  -1.282  1.00  0.00     0.169 HD
HETATM    4  C3  UNL     1      10.668  -7.144  -2.332  1.00  0.00     0.138 A 
HETATM    5  N5  UNL     1      11.084  -5.985  -2.892  1.00  0.00    -0.306 N 
ATOM      6  H5  UNL     1      11.985  -5.971  -3.371  1.00  0.00     0.170 HD
HETATM    7  C8  UNL     1      10.359  -4.847  -2.845  1.00  0.00     0.278 A 
HETATM    8  O3  UNL     1      10.823  -3.807  -3.395  1.00  0.00    -0.265 OA
HETATM    9  C9  UNL     1       9.141  -4.847  -2.202  1.00  0.00     0.154 A 
ENDROOT
BRANCH   9  10
HETATM   10  N6  UNL     1       8.383  -3.680  -2.146  1.00  0.00    -0.337 N 
ATOM     11  H6  UNL     1       8.811  -2.909  -1.634  1.00  0.00     0.167 HD
BRANCH  10  12
HETATM   12  C10 UNL     1       7.239  -3.430  -2.638  1.00  0.00     0.098 C 
BRANCH  12  13
HETATM   13  C11 UNL     1       6.935  -3.940  -3.995  1.00  0.00     0.105 C 
BRANCH  13  14
HETATM   14  C12 UNL     1       5.976  -2.969  -4.648  1.00  0.00     0.237 C 
BRANCH  14  15
HETATM   15  N7  UNL     1       6.685  -1.881  -5.304  1.00  0.00    -0.079 N 
ATOM     16  H73 UNL     1       6.782  -1.074  -4.688  1.00  0.00     0.274 HD
ATOM     17  H72 UNL     1       7.673  -2.102  -5.430  1.00  0.00     0.274 HD
ATOM     18  H71 UNL     1       6.243  -1.626  -6.186  1.00  0.00     0.274 HD
ENDBRANCH  14  15
ENDBRANCH  13  14
ENDBRANCH  12  13
BRANCH  12  19
HETATM   19  N8  UNL     1       6.254  -2.695  -1.947  1.00  0.00    -0.281 N 
ATOM     20  H8  UNL     1       5.300  -3.056  -1.948  1.00  0.00     0.188 HD
BRANCH  19  21
HETATM   21  N9  UNL     1       6.502  -1.502  -1.262  1.00  0.00    -0.215 N 
HETATM   22  C13 UNL     1       6.015  -1.373   0.057  1.00  0.00     0.215 A 
HETATM   23  N10 UNL     1       5.305  -2.462   0.696  1.00  0.00    -0.061 NA
HETATM   24  N11 UNL     1       6.207  -0.282   0.706  1.00  0.00    -0.303 N 
HETATM   25  C14 UNL     1       6.897   0.835   0.177  1.00  0.00     0.194 A 
ATOM     26  H11 UNL     1       5.841  -0.217   1.656  1.00  0.00     0.171 HD
HETATM   27  N12 UNL     1       7.085   2.037   0.937  1.00  0.00    -0.063 NA
HETATM   28  N13 UNL     1       7.348   0.716  -1.023  1.00  0.00    -0.320 N 
HETATM   29  C15 UNL     1       7.227  -0.422  -1.872  1.00  0.00     0.354 A 
ATOM     30  H13 UNL     1       7.844   1.521  -1.406  1.00  0.00     0.166 HD
BRANCH  29  31
HETATM   31  O4  UNL     1       6.700  -0.050  -3.106  1.00  0.00    -0.358 OA
ATOM     32  H4  UNL     1       6.901  -0.674  -3.794  1.00  0.00     0.214 HD
ENDBRANCH  29  31
ENDBRANCH  19  21
ENDBRANCH  12  19
ENDBRANCH  10  12
ENDBRANCH   9  10
BRANCH   1  33
HETATM   33  O1  UNL     1       7.501  -6.123  -0.965  1.00  0.00    -0.339 OA
HETATM   34  C1  UNL     1       6.463  -6.938  -1.512  1.00  0.00     0.211 C 
ENDBRANCH   1  33
BRANCH   4  35
HETATM   35  C4  UNL     1      11.522  -8.348  -2.426  1.00  0.00     0.098 A 
HETATM   36  C5  UNL     1      12.532  -8.545  -1.541  1.00  0.00     0.108 A 
HETATM   37  C6  UNL     1      13.316  -9.694  -1.658  1.00  0.00     0.261 A 
HETATM   38  O2  UNL     1      14.254  -9.884  -0.841  1.00  0.00    -0.268 OA
HETATM   39  N2  UNL     1      13.076 -10.589  -2.629  1.00  0.00    -0.156 N 
HETATM   40  C7  UNL     1      12.064 -10.337  -3.471  1.00  0.00     0.679 A 
ATOM     41  H2  UNL     1      13.643 -11.432  -2.722  1.00  0.00     0.187 HD
HETATM   42  N3  UNL     1      11.858 -11.229  -4.404  1.00  0.00    -0.234 N 
HETATM   43  N4  UNL     1      11.294  -9.254  -3.392  1.00  0.00    -0.188 N 
ATOM     44  H32 UNL     1      12.448 -12.059  -4.465  1.00  0.00     0.174 HD
ATOM     45  H31 UNL     1      11.088 -11.037  -5.045  1.00  0.00     0.174 HD
ATOM     46  H4  UNL     1      10.536  -9.113  -4.060  1.00  0.00     0.184 HD
ENDBRANCH   4  35
TORSDOF 10
ENDMDL
MODEL 2
REMARK VINA RESULT: -7.435587191      2.102      8.981
REMARK  10 active torsions:
REMARK  status: ('A' for Active; 'I' for Inactive)
REMARK    1  A    between atoms: O1_2  and  C2_3 
REMARK    2  A    between atoms: C3_6  and  C4_7 
REMARK    3  A    between atoms: C9_23  and  N6_24 
REMARK    4  A    between atoms: N6_24  and  C10_26 
REMARK    5  A    between atoms: C10_26  and  C11_27 
REMARK    6  A    between atoms: C10_26  and  N8_33 
REMARK    7  A    between atoms: C11_27  and  C12_28 
REMARK    8  A    between atoms: C12_28  and  N7_29 
REMARK    9  A    between atoms: N8_33  and  N9_35 
REMARK   10  A    between atoms: C15_44  and  O4_45 
ROOT
HETATM    1  C2  UNL     1       8.077  -5.432  -1.091  1.00  0.00     0.176 A 
HETATM    2  N1  UNL     1       7.690  -4.119  -0.969  1.00  0.00    -0.319 N 
ATOM      3  H1  UNL     1       6.819  -3.897  -0.486  1.00  0.00     0.169 HD
HETATM    4  C3  UNL     1       8.428  -3.130  -1.468  1.00  0.00     0.138 A 
HETATM    5  N5  UNL     1       9.578  -3.450  -2.103  1.00  0.00    -0.306 N 
ATOM      6  H5  UNL     1      10.148  -2.697  -2.488  1.00  0.00     0.170 HD
HETATM    7  C8  UNL     1      10.005  -4.723  -2.250  1.00  0.00     0.278 A 
HETATM    8  O3  UNL     1      11.094  -4.933  -2.858  1.00  0.00    -0.265 OA
HETATM    9  C9  UNL     1       9.248  -5.754  -1.738  1.00  0.00     0.154 A 
ENDROOT
BRANCH   9  10
HETATM   10  N6  UNL     1       9.677  -7.071  -1.882  1.00  0.00    -0.337 N 
ATOM     11  H6  UNL     1       9.964  -7.530  -1.017  1.00  0.00     0.167 HD
BRANCH  10  12
HETATM   12  C10 UNL     1       9.764  -7.787  -2.926  1.00  0.00     0.098 C 
BRANCH  12  13
HETATM   13  C11 UNL     1       8.522  -8.082  -3.678  1.00  0.00     0.105 C 
BRANCH  13  14
HETATM   14  C12 UNL     1       7.746  -9.119  -2.897  1.00  0.00     0.237 C 
BRANCH  14  15
HETATM   15  N7  UNL     1       6.484  -8.582  -2.411  1.00  0.00    -0.079 N 
ATOM     16  H73 UNL     1       6.544  -7.578  -2.243  1.00  0.00     0.274 HD
ATOM     17  H72 UNL     1       5.774  -8.576  -3.143  1.00  0.00     0.274 HD
ATOM     18  H71 UNL     1       6.162  -9.081  -1.582  1.00  0.00     0.274 HD
ENDBRANCH  14  15
ENDBRANCH  13  14
ENDBRANCH  12  13
BRANCH  12  19
HETATM   19  N8  UNL     1      10.987  -8.308  -3.396  1.00  0.00    -0.281 N 
ATOM     20  H8  UNL     1      11.395  -7.890  -4.233  1.00  0.00     0.188 HD
BRANCH  19  21
HETATM   21  N9  UNL     1      11.677  -9.361  -2.788  1.00  0.00    -0.215 N 
HETATM   22  C13 UNL     1      12.587  -9.057  -1.752  1.00  0.00     0.215 A 
HETATM   23  N10 UNL     1      12.776  -7.691  -1.307  1.00  0.00    -0.061 NA
HETATM   24  N11 UNL     1      13.252  -9.999  -1.188  1.00  0.00    -0.303 N 
HETATM   25  C14 UNL     1      13.132 -11.365  -1.541  1.00  0.00     0.194 A 
ATOM     26  H11 UNL     1      13.904  -9.749  -0.444  1.00  0.00     0.171 HD
HETATM   27  N12 UNL     1      13.899 -12.385  -0.887  1.00  0.00    -0.063 NA
HETATM   28  N13 UNL     1      12.298 -11.644  -2.480  1.00  0.00    -0.320 N 
HETATM   29  C15 UNL     1      11.483 -10.724  -3.200  1.00  0.00     0.354 A 
ATOM     30  H13 UNL     1      12.212 -12.628  -2.737  1.00  0.00     0.166 HD
BRANCH  29  31
HETATM   31  O4  UNL     1      11.649 -10.900  -4.572  1.00  0.00    -0.358 OA
ATOM     32  H4  UNL     1      12.370 -11.481  -4.782  1.00  0.00     0.214 HD
ENDBRANCH  29  31
ENDBRANCH  19  21
ENDBRANCH  12  19
ENDBRANCH  10  12
ENDBRANCH   9  10
BRANCH   1  33
HETATM   33  O1  UNL     1       7.249  -6.400  -0.541  1.00  0.00    -0.339 OA
HETATM   34  C1  UNL     1       6.473  -6.086   0.617  1.00  0.00     0.211 C 
ENDBRANCH   1  33
BRANCH   4  35
HETATM   35  C4  UNL     1       8.028  -1.711  -1.351  1.00  0.00     0.098 A 
HETATM   36  C5  UNL     1       8.643  -0.895  -0.458  1.00  0.00     0.108 A 
HETATM   37  C6  UNL     1       8.242   0.439  -0.377  1.00  0.00     0.261 A 
HETATM   38  O2  UNL     1       8.807   1.202   0.449  1.00  0.00    -0.268 OA
HETATM   39  N2  UNL     1       7.265   0.908  -1.169  1.00  0.00    -0.156 N 
HETATM   40  C7  UNL     1       6.697   0.052  -2.030  1.00  0.00     0.679 A 
ATOM     41  H2  UNL     1       6.966   1.882  -1.117  1.00  0.00     0.187 HD
HETATM   42  N3  UNL     1       5.749   0.542  -2.786  1.00  0.00    -0.234 N 
HETATM   43  N4  UNL     1       7.052  -1.226  -2.137  1.00  0.00    -0.188 N 
ATOM     44  H32 UNL     1       5.478   1.522  -2.703  1.00  0.00     0.174 HD
ATOM     45  H31 UNL     1       5.317  -0.109  -3.441  1.00  0.00     0.174 HD
ATOM     46  H4  UNL     1       6.586  -1.833  -2.811  1.00  0.00     0.184 HD
ENDBRANCH   4  35
TORSDOF 10
ENDMDL
MODEL 3
REMARK VINA RESULT: -7.399904960      2.633      8.156
REMARK  10 active torsions:
REMARK  status: ('A' for Active; 'I' for Inactive)
REMARK    1  A    between atoms: O1_2  and  C2_3 
REMARK    2  A    between atoms: C3_6  and  C4_7 
REMARK    3  A    between atoms: C9_23  and  N6_24 
REMARK    4  A    between atoms: N6_24  and  C10_26 
REMARK    5  A    between atoms: C10_26  and  C11_27 
REMARK    6  A    between atoms: C10_26  and  N8_33 
REMARK    7  A    between atoms: C11_27  and  C12_28 
REMARK    8  A    between atoms: C12_28  and  N7_29 
REMARK    9  A    between atoms: N8_33  and  N9_35 
REMARK   10  A    between atoms: C15_44  and  O4_45 
ROOT
HETATM    1  C2  UNL     1       6.785  -2.059  -2.224  1.00  0.00     0.176 A 
HETATM    2  N1  UNL     1       7.408  -0.925  -1.760  1.00  0.00    -0.319 N 
ATOM      3  H1  UNL     1       7.178  -0.023  -2.175  1.00  0.00     0.169 HD
HETATM    4  C3  UNL     1       8.306  -0.981  -0.779  1.00  0.00     0.138 A 
HETATM    5  N5  UNL     1       8.593  -2.191  -0.245  1.00  0.00    -0.306 N 
ATOM      6  H5  UNL     1       9.280  -2.240   0.507  1.00  0.00     0.170 HD
HETATM    7  C8  UNL     1       8.009  -3.334  -0.663  1.00  0.00     0.278 A 
HETATM    8  O3  UNL     1       8.335  -4.422  -0.107  1.00  0.00    -0.265 OA
HETATM    9  C9  UNL     1       7.079  -3.287  -1.679  1.00  0.00     0.154 A 
ENDROOT
BRANCH   9  10
HETATM   10  N6  UNL     1       6.469  -4.459  -2.119  1.00  0.00    -0.337 N 
ATOM     11  H6  UNL     1       5.620  -4.720  -1.618  1.00  0.00     0.167 HD
BRANCH  10  12
HETATM   12  C10 UNL     1       6.810  -5.251  -3.051  1.00  0.00     0.098 C 
BRANCH  12  13
HETATM   13  C11 UNL     1       5.789  -6.182  -3.586  1.00  0.00     0.105 C 
BRANCH  13  14
HETATM   14  C12 UNL     1       6.033  -6.331  -5.071  1.00  0.00     0.237 C 
BRANCH  14  15
HETATM   15  N7  UNL     1       6.349  -7.707  -5.423  1.00  0.00    -0.079 N 
ATOM     16  H73 UNL     1       6.454  -8.290  -4.592  1.00  0.00     0.274 HD
ATOM     17  H72 UNL     1       5.549  -8.177  -5.845  1.00  0.00     0.274 HD
ATOM     18  H71 UNL     1       7.173  -7.759  -6.022  1.00  0.00     0.274 HD
ENDBRANCH  14  15
ENDBRANCH  13  14
ENDBRANCH  12  13
BRANCH  12  19
HETATM   19  N8  UNL     1       8.111  -5.278  -3.594  1.00  0.00    -0.281 N 
ATOM     20  H8  UNL     1       8.269  -4.798  -4.480  1.00  0.00     0.188 HD
BRANCH  19  21
HETATM   21  N9  UNL     1       9.198  -5.921  -2.995  1.00  0.00    -0.215 N 
HETATM   22  C13 UNL     1      10.401  -5.199  -2.839  1.00  0.00     0.215 A 
HETATM   23  N10 UNL     1      10.497  -3.816  -3.258  1.00  0.00    -0.061 NA
HETATM   24  N11 UNL     1      11.425  -5.768  -2.312  1.00  0.00    -0.303 N 
HETATM   25  C14 UNL     1      11.431  -7.109  -1.860  1.00  0.00     0.194 A 
ATOM     26  H11 UNL     1      12.281  -5.222  -2.214  1.00  0.00     0.171 HD
HETATM   27  N12 UNL     1      12.600  -7.706  -1.281  1.00  0.00    -0.063 NA
HETATM   28  N13 UNL     1      10.333  -7.766  -1.995  1.00  0.00    -0.320 N 
HETATM   29  C15 UNL     1       9.112  -7.284  -2.550  1.00  0.00     0.354 A 
ATOM     30  H13 UNL     1      10.337  -8.733  -1.671  1.00  0.00     0.166 HD
BRANCH  29  31
HETATM   31  O4  UNL     1       8.659  -8.147  -3.545  1.00  0.00    -0.358 OA
ATOM     32  H4  UNL     1       9.367  -8.590  -3.996  1.00  0.00     0.214 HD
ENDBRANCH  29  31
ENDBRANCH  19  21
ENDBRANCH  12  19
ENDBRANCH  10  12
ENDBRANCH   9  10
BRANCH   1  33
HETATM   33  O1  UNL     1       5.861  -1.910  -3.249  1.00  0.00    -0.339 OA
HETATM   34  C1  UNL     1       5.991  -0.816  -4.159  1.00  0.00     0.211 C 
ENDBRANCH   1  33
BRANCH   4  35
HETATM   35  C4  UNL     1       8.991   0.225  -0.266  1.00  0.00     0.098 A 
HETATM   36  C5  UNL     1       8.286   1.203   0.358  1.00  0.00     0.108 A 
HETATM   37  C6  UNL     1       8.967   2.325   0.832  1.00  0.00     0.261 A 
HETATM   38  O2  UNL     1       8.320   3.236   1.412  1.00  0.00    -0.268 OA
HETATM   39  N2  UNL     1      10.295   2.437   0.673  1.00  0.00    -0.156 N 
HETATM   40  C7  UNL     1      10.933   1.438   0.047  1.00  0.00     0.679 A 
ATOM     41  H2  UNL     1      10.801   3.254   1.016  1.00  0.00     0.187 HD
HETATM   42  N3  UNL     1      12.225   1.580  -0.091  1.00  0.00    -0.234 N 
HETATM   43  N4  UNL     1      10.320   0.352  -0.418  1.00  0.00    -0.188 N 
ATOM     44  H32 UNL     1      12.694   2.412   0.265  1.00  0.00     0.174 HD
ATOM     45  H31 UNL     1      12.711   0.819  -0.567  1.00  0.00     0.174 HD
ATOM     46  H4  UNL     1      10.856  -0.379  -0.885  1.00  0.00     0.184 HD
ENDBRANCH   4  35
TORSDOF 10
ENDMDL
MODEL 4
REMARK VINA RESULT: -7.372359979      2.561      8.290
REMARK  10 active torsions:
REMARK  status: ('A' for Active; 'I' for Inactive)
REMARK    1  A    between atoms: O1_2  and  C2_3 
REMARK    2  A    between atoms: C3_6  and  C4_7 
REMARK    3  A    between atoms: C9_23  and  N6_24 
REMARK    4  A    between atoms: N6_24  and  C10_26 
REMARK    5  A    between atoms: C10_26  and  C11_27 
REMARK    6  A    between atoms: C10_26  and  N8_33 
REMARK    7  A    between atoms: C11_27  and  C12_28 
REMARK    8  A    between atoms: C12_28  and  N7_29 
REMARK    9  A    between atoms: N8_33  and  N9_35 
REMARK   10  A    between atoms: C15_44  and  O4_45 
ROOT
HETATM    1  C2  UNL     1       6.700  -2.450  -2.811  1.00  0.00     0.176 A 
HETATM    2  N1  UNL     1       7.015  -1.268  -2.183  1.00  0.00    -0.319 N 
ATOM      3  H1  UNL     1       7.268  -0.456  -2.746  1.00  0.00     0.169 HD
HETATM    4  C3  UNL     1       6.998  -1.163  -0.857  1.00  0.00     0.138 A 
HETATM    5  N5  UNL     1       6.659  -2.255  -0.134  1.00  0.00    -0.306 N 
ATOM      6  H5  UNL     1       6.643  -2.180   0.883  1.00  0.00     0.170 HD
HETATM    7  C8  UNL     1       6.339  -3.439  -0.700  1.00  0.00     0.278 A 
HETATM    8  O3  UNL     1       6.033  -4.409   0.051  1.00  0.00    -0.265 OA
HETATM    9  C9  UNL     1       6.355  -3.559  -2.072  1.00  0.00     0.154 A 
ENDROOT
BRANCH   9  10
HETATM   10  N6  UNL     1       6.028  -4.773  -2.669  1.00  0.00    -0.337 N 
ATOM     11  H6  UNL     1       5.054  -4.865  -2.960  1.00  0.00     0.167 HD
BRANCH  10  12
HETATM   12  C10 UNL     1       6.758  -5.784  -2.907  1.00  0.00     0.098 C 
BRANCH  12  13
HETATM   13  C11 UNL     1       6.734  -6.358  -4.273  1.00  0.00     0.105 C 
BRANCH  13  14
HETATM   14  C12 UNL     1       5.584  -5.721  -5.021  1.00  0.00     0.237 C 
BRANCH  14  15
HETATM   15  N7  UNL     1       6.056  -4.929  -6.146  1.00  0.00    -0.079 N 
ATOM     16  H73 UNL     1       6.583  -4.114  -5.835  1.00  0.00     0.274 HD
ATOM     17  H72 UNL     1       6.798  -5.410  -6.656  1.00  0.00     0.274 HD
ATOM     18  H71 UNL     1       5.289  -4.665  -6.764  1.00  0.00     0.274 HD
ENDBRANCH  14  15
ENDBRANCH  13  14
ENDBRANCH  12  13
BRANCH  12  19
HETATM   19  N8  UNL     1       7.584  -6.377  -1.931  1.00  0.00    -0.281 N 
ATOM     20  H8  UNL     1       7.136  -6.907  -1.183  1.00  0.00     0.188 HD
BRANCH  19  21
HETATM   21  N9  UNL     1       8.979  -6.284  -1.921  1.00  0.00    -0.215 N 
HETATM   22  C13 UNL     1       9.731  -7.458  -2.150  1.00  0.00     0.215 A 
HETATM   23  N10 UNL     1       9.073  -8.720  -2.420  1.00  0.00    -0.061 NA
HETATM   24  N11 UNL     1      11.013  -7.410  -2.126  1.00  0.00    -0.303 N 
HETATM   25  C14 UNL     1      11.751  -6.227  -1.883  1.00  0.00     0.194 A 
ATOM     26  H11 UNL     1      11.530  -8.274  -2.292  1.00  0.00     0.171 HD
HETATM   27  N12 UNL     1      13.185  -6.221  -1.861  1.00  0.00    -0.063 NA
HETATM   28  N13 UNL     1      11.067  -5.155  -1.682  1.00  0.00    -0.320 N 
HETATM   29  C15 UNL     1       9.647  -5.035  -1.680  1.00  0.00     0.354 A 
ATOM     30  H13 UNL     1      11.597  -4.302  -1.505  1.00  0.00     0.166 HD
BRANCH  29  31
HETATM   31  O4  UNL     1       9.215  -4.411  -0.513  1.00  0.00    -0.358 OA
ATOM     32  H4  UNL     1       9.933  -4.169   0.060  1.00  0.00     0.214 HD
ENDBRANCH  29  31
ENDBRANCH  19  21
ENDBRANCH  12  19
ENDBRANCH  10  12
ENDBRANCH   9  10
BRANCH   1  33
HETATM   33  O1  UNL     1       6.743  -2.473  -4.198  1.00  0.00    -0.339 OA
HETATM   34  C1  UNL     1       5.974  -1.524  -4.941  1.00  0.00     0.211 C 
ENDBRANCH   1  33
BRANCH   4  35
HETATM   35  C4  UNL     1       7.337   0.098  -0.161  1.00  0.00     0.098 A 
HETATM   36  C5  UNL     1       8.592   0.608  -0.235  1.00  0.00     0.108 A 
HETATM   37  C6  UNL     1       8.875   1.801   0.432  1.00  0.00     0.261 A 
HETATM   38  O2  UNL     1      10.037   2.280   0.369  1.00  0.00    -0.268 OA
HETATM   39  N2  UNL     1       7.922   2.433   1.135  1.00  0.00    -0.156 N 
HETATM   40  C7  UNL     1       6.702   1.877   1.169  1.00  0.00     0.679 A 
ATOM     41  H2  UNL     1       8.119   3.305   1.626  1.00  0.00     0.187 HD
HETATM   42  N3  UNL     1       5.799   2.519   1.863  1.00  0.00    -0.234 N 
HETATM   43  N4  UNL     1       6.394   0.743   0.547  1.00  0.00    -0.188 N 
ATOM     44  H32 UNL     1       6.036   3.389   2.341  1.00  0.00     0.174 HD
ATOM     45  H31 UNL     1       4.871   2.097   1.889  1.00  0.00     0.174 HD
ATOM     46  H4  UNL     1       5.448   0.366   0.606  1.00  0.00     0.184 HD
ENDBRANCH   4  35
TORSDOF 10
ENDMDL
MODEL 5
REMARK VINA RESULT: -7.328107327      1.041      1.545
REMARK  10 active torsions:
REMARK  status: ('A' for Active; 'I' for Inactive)
REMARK    1  A    between atoms: O1_2  and  C2_3 
REMARK    2  A    between atoms: C3_6  and  C4_7 
REMARK    3  A    between atoms: C9_23  and  N6_24 
REMARK    4  A    between atoms: N6_24  and  C10_26 
REMARK    5  A    between atoms: C10_26  and  C11_27 
REMARK    6  A    between atoms: C10_26  and  N8_33 
REMARK    7  A    between atoms: C11_27  and  C12_28 
REMARK    8  A    between atoms: C12_28  and  N7_29 
REMARK    9  A    between atoms: N8_33  and  N9_35 
REMARK   10  A    between atoms: C15_44  and  O4_45 
ROOT
HETATM    1  C2  UNL     1       8.464  -6.164  -2.127  1.00  0.00     0.176 A 
HETATM    2  N1  UNL     1       9.267  -7.280  -2.114  1.00  0.00    -0.319 N 
ATOM      3  H1  UNL     1       8.889  -8.164  -1.774  1.00  0.00     0.169 HD
HETATM    4  C3  UNL     1      10.528  -7.230  -2.535  1.00  0.00     0.138 A 
HETATM    5  N5  UNL     1      11.006  -6.046  -2.982  1.00  0.00    -0.306 N 
ATOM      6  H5  UNL     1      11.972  -6.001  -3.307  1.00  0.00     0.170 HD
HETATM    7  C8  UNL     1      10.259  -4.921  -3.017  1.00  0.00     0.278 A 
HETATM    8  O3  UNL     1      10.786  -3.856  -3.451  1.00  0.00    -0.265 OA
HETATM    9  C9  UNL     1       8.953  -4.961  -2.582  1.00  0.00     0.154 A 
ENDROOT
BRANCH   9  10
HETATM   10  N6  UNL     1       8.172  -3.809  -2.613  1.00  0.00    -0.337 N 
ATOM     11  H6  UNL     1       8.556  -3.012  -2.104  1.00  0.00     0.167 HD
BRANCH  10  12
HETATM   12  C10 UNL     1       7.055  -3.600  -3.179  1.00  0.00     0.098 C 
BRANCH  12  13
HETATM   13  C11 UNL     1       6.783  -4.286  -4.464  1.00  0.00     0.105 C 
BRANCH  13  14
HETATM   14  C12 UNL     1       5.665  -3.540  -5.157  1.00  0.00     0.237 C 
BRANCH  14  15
HETATM   15  N7  UNL     1       6.184  -2.568  -6.108  1.00  0.00    -0.079 N 
ATOM     16  H73 UNL     1       6.633  -1.784  -5.634  1.00  0.00     0.274 HD
ATOM     17  H72 UNL     1       6.994  -2.933  -6.610  1.00  0.00     0.274 HD
ATOM     18  H71 UNL     1       5.458  -2.250  -6.750  1.00  0.00     0.274 HD
ENDBRANCH  14  15
ENDBRANCH  13  14
ENDBRANCH  12  13
BRANCH  12  19
HETATM   19  N8  UNL     1       6.071  -2.748  -2.637  1.00  0.00    -0.281 N 
ATOM     20  H8  UNL     1       5.094  -2.956  -2.842  1.00  0.00     0.188 HD
BRANCH  19  21
HETATM   21  N9  UNL     1       6.349  -1.636  -1.837  1.00  0.00    -0.215 N 
HETATM   22  C13 UNL     1       6.575  -0.394  -2.470  1.00  0.00     0.215 A 
HETATM   23  N10 UNL     1       6.487  -0.268  -3.910  1.00  0.00    -0.061 NA
HETATM   24  N11 UNL     1       6.855   0.641  -1.764  1.00  0.00    -0.303 N 
HETATM   25  C14 UNL     1       6.953   0.626  -0.352  1.00  0.00     0.194 A 
ATOM     26  H11 UNL     1       7.015   1.524  -2.249  1.00  0.00     0.171 HD
HETATM   27  N12 UNL     1       7.273   1.807   0.396  1.00  0.00    -0.063 NA
HETATM   28  N13 UNL     1       6.741  -0.504   0.226  1.00  0.00    -0.320 N 
HETATM   29  C15 UNL     1       6.415  -1.739  -0.405  1.00  0.00     0.354 A 
ATOM     30  H13 UNL     1       6.813  -0.516   1.244  1.00  0.00     0.166 HD
BRANCH  29  31
HETATM   31  O4  UNL     1       7.280  -2.744   0.023  1.00  0.00    -0.358 OA
ATOM     32  H4  UNL     1       6.900  -3.290   0.700  1.00  0.00     0.214 HD
ENDBRANCH  29  31
ENDBRANCH  19  21
ENDBRANCH  12  19
ENDBRANCH  10  12
ENDBRANCH   9  10
BRANCH   1  33
HETATM   33  O1  UNL     1       7.161  -6.305  -1.670  1.00  0.00    -0.339 OA
HETATM   34  C1  UNL     1       6.903  -6.275  -0.265  1.00  0.00     0.211 C 
ENDBRANCH   1  33
BRANCH   4  35
HETATM   35  C4  UNL     1      11.411  -8.417  -2.527  1.00  0.00     0.098 A 
HETATM   36  C5  UNL     1      12.374  -8.551  -1.581  1.00  0.00     0.108 A 
HETATM   37  C6  UNL     1      13.186  -9.686  -1.602  1.00  0.00     0.261 A 
HETATM   38  O2  UNL     1      14.082  -9.817  -0.728  1.00  0.00    -0.268 OA
HETATM   39  N2  UNL     1      13.018 -10.629  -2.543  1.00  0.00    -0.156 N 
HETATM   40  C7  UNL     1      12.050 -10.437  -3.450  1.00  0.00     0.679 A 
ATOM     41  H2  UNL     1      13.607 -11.462  -2.566  1.00  0.00     0.187 HD
HETATM   42  N3  UNL     1      11.914 -11.375  -4.351  1.00  0.00    -0.234 N 
HETATM   43  N4  UNL     1      11.255  -9.370  -3.462  1.00  0.00    -0.188 N 
ATOM     44  H32 UNL     1      12.524 -12.192  -4.341  1.00  0.00     0.174 HD
ATOM     45  H31 UNL     1      11.177 -11.229  -5.041  1.00  0.00     0.174 HD
ATOM     46  H4  UNL     1      10.533  -9.277  -4.176  1.00  0.00     0.184 HD
ENDBRANCH   4  35
TORSDOF 10
ENDMDL
