MODEL 1
REMARK VINA RESULT: -8.486914843      0.000      0.000
REMARK  3 active torsions:
REMARK  status: ('A' for Active; 'I' for Inactive)
REMARK    1  A    between atoms: C4_6  and  N2_7 
REMARK    2  A    between atoms: C7_10  and  C8_11 
REMARK    3  A    between atoms: N4_18  and  C13_19 
ROOT
HETATM    1  N2  UNL     1       4.600  15.632 -44.987  1.00  0.00    -0.216 N 
HETATM    2  C5  UNL     1       3.346  14.951 -44.993  1.00  0.00     0.142 C 
HETATM    3  C6  UNL     1       2.681  14.793 -43.687  1.00  0.00     0.033 C 
HETATM    4  C7  UNL     1       2.868  15.912 -42.711  1.00  0.00     0.057 C 
HETATM    5  C18 UNL     1       4.036  16.808 -43.016  1.00  0.00     0.033 C 
HETATM    6  C19 UNL     1       5.153  16.103 -43.747  1.00  0.00     0.142 C 
ENDROOT
BRANCH   4   7
HETATM    7  C8  UNL     1       3.091  15.338 -41.358  1.00  0.00     0.088 A 
HETATM    8  N3  UNL     1       3.861  14.255 -41.176  1.00  0.00    -0.347 N 
HETATM    9  C9  UNL     1       3.879  13.973 -39.882  1.00  0.00     0.029 A 
ATOM     10  H3  UNL     1       4.348  13.737 -41.907  1.00  0.00     0.167 HD
HETATM   11  C10 UNL     1       4.624  12.839 -39.278  1.00  0.00     0.070 C 
HETATM   12  C11 UNL     1       3.086  14.925 -39.242  1.00  0.00     0.032 A 
HETATM   13  C12 UNL     1       2.849  14.965 -37.803  1.00  0.00     0.070 C 
HETATM   14  N4  UNL     1       2.604  15.763 -40.162  1.00  0.00    -0.334 N 
BRANCH  14  15
HETATM   15  C13 UNL     1       1.763  16.874 -40.006  1.00  0.00     0.091 C 
HETATM   16  C14 UNL     1       0.322  16.627 -39.671  1.00  0.00     0.026 C 
HETATM   17  C15 UNL     1      -0.175  18.087 -39.716  1.00  0.00     0.002 C 
HETATM   18  C16 UNL     1       0.924  18.804 -38.969  1.00  0.00     0.002 C 
HETATM   19  C17 UNL     1       2.125  17.853 -38.915  1.00  0.00     0.026 C 
ENDBRANCH  14  15
ENDBRANCH   4   7
BRANCH   1  20
HETATM   20  C4  UNL     1       5.278  15.830 -46.222  1.00  0.00     0.694 A 
HETATM   21  N1  UNL     1       4.710  15.518 -47.393  1.00  0.00    -0.199 N 
HETATM   22  C3  UNL     1       5.384  15.720 -48.533  1.00  0.00     0.132 A 
ATOM     23  H1  UNL     1       3.768  15.129 -47.417  1.00  0.00     0.183 HD
HETATM   24  C2  UNL     1       6.656  16.244 -48.549  1.00  0.00     0.038 A 
HETATM   25  C1  UNL     1       7.410  16.472 -49.808  1.00  0.00     0.071 C 
HETATM   26  N6  UNL     1       7.177  16.540 -47.332  1.00  0.00    -0.290 N 
HETATM   27  N5  UNL     1       6.515  16.341 -46.216  1.00  0.00    -0.132 N 
ATOM     28  H6  UNL     1       8.118  16.931 -47.282  1.00  0.00     0.187 HD
ATOM     29  H5  UNL     1       6.952  16.579 -45.326  1.00  0.00     0.205 HD
ENDBRANCH   1  20
TORSDOF 3
ENDMDL
MODEL 2
REMARK VINA RESULT: -8.312787260      1.608      2.968
REMARK  3 active torsions:
REMARK  status: ('A' for Active; 'I' for Inactive)
REMARK    1  A    between atoms: C4_6  and  N2_7 
REMARK    2  A    between atoms: C7_10  and  C8_11 
REMARK    3  A    between atoms: N4_18  and  C13_19 
ROOT
HETATM    1  N2  UNL     1       5.001  16.474 -44.300  1.00  0.00    -0.216 N 
HETATM    2  C5  UNL     1       6.042  16.138 -43.383  1.00  0.00     0.142 C 
HETATM    3  C6  UNL     1       5.723  16.280 -41.951  1.00  0.00     0.033 C 
HETATM    4  C7  UNL     1       4.312  15.974 -41.555  1.00  0.00     0.057 C 
HETATM    5  C18 UNL     1       3.333  15.999 -42.695  1.00  0.00     0.033 C 
HETATM    6  C19 UNL     1       3.734  16.939 -43.806  1.00  0.00     0.142 C 
ENDROOT
BRANCH   4   7
HETATM    7  C8  UNL     1       3.862  16.984 -40.562  1.00  0.00     0.088 A 
HETATM    8  N3  UNL     1       4.440  18.193 -40.482  1.00  0.00    -0.347 N 
HETATM    9  C9  UNL     1       3.839  18.875 -39.518  1.00  0.00     0.029 A 
ATOM     10  H3  UNL     1       5.208  18.528 -41.063  1.00  0.00     0.167 HD
HETATM   11  C10 UNL     1       4.195  20.261 -39.122  1.00  0.00     0.070 C 
HETATM   12  C11 UNL     1       2.851  18.049 -38.984  1.00  0.00     0.032 A 
HETATM   13  C12 UNL     1       1.959  18.434 -37.895  1.00  0.00     0.070 C 
HETATM   14  N4  UNL     1       2.873  16.884 -39.635  1.00  0.00    -0.334 N 
BRANCH  14  15
HETATM   15  C13 UNL     1       2.075  15.745 -39.456  1.00  0.00     0.091 C 
HETATM   16  C14 UNL     1       1.947  15.183 -38.072  1.00  0.00     0.026 C 
HETATM   17  C15 UNL     1       1.102  13.937 -38.411  1.00  0.00     0.002 C 
HETATM   18  C16 UNL     1       0.081  14.514 -39.362  1.00  0.00     0.002 C 
HETATM   19  C17 UNL     1       0.617  15.872 -39.828  1.00  0.00     0.026 C 
ENDBRANCH  14  15
ENDBRANCH   4   7
BRANCH   1  20
HETATM   20  C4  UNL     1       5.246  16.338 -45.695  1.00  0.00     0.694 A 
HETATM   21  N1  UNL     1       4.261  16.054 -46.557  1.00  0.00    -0.199 N 
HETATM   22  C3  UNL     1       4.535  15.935 -47.863  1.00  0.00     0.132 A 
ATOM     23  H1  UNL     1       3.306  15.930 -46.220  1.00  0.00     0.183 HD
HETATM   24  C2  UNL     1       5.807  16.096 -48.362  1.00  0.00     0.038 A 
HETATM   25  C1  UNL     1       6.119  15.966 -49.808  1.00  0.00     0.071 C 
HETATM   26  N6  UNL     1       6.760  16.382 -47.441  1.00  0.00    -0.290 N 
HETATM   27  N5  UNL     1       6.489  16.498 -46.161  1.00  0.00    -0.132 N 
ATOM     28  H6  UNL     1       7.723  16.512 -47.753  1.00  0.00     0.187 HD
ATOM     29  H5  UNL     1       7.243  16.714 -45.509  1.00  0.00     0.205 HD
ENDBRANCH   1  20
TORSDOF 3
ENDMDL
MODEL 3
REMARK VINA RESULT: -7.977098691      3.433      5.221
REMARK  3 active torsions:
REMARK  status: ('A' for Active; 'I' for Inactive)
REMARK    1  A    between atoms: C4_6  and  N2_7 
REMARK    2  A    between atoms: C7_10  and  C8_11 
REMARK    3  A    between atoms: N4_18  and  C13_19 
ROOT
HETATM    1  N2  UNL     1       2.782  12.755 -44.007  1.00  0.00    -0.216 N 
HETATM    2  C5  UNL     1       4.045  12.907 -43.360  1.00  0.00     0.142 C 
HETATM    3  C6  UNL     1       4.278  14.191 -42.674  1.00  0.00     0.033 C 
HETATM    4  C7  UNL     1       3.081  14.827 -42.039  1.00  0.00     0.057 C 
HETATM    5  C18 UNL     1       1.765  14.315 -42.553  1.00  0.00     0.033 C 
HETATM    6  C19 UNL     1       1.830  13.832 -43.981  1.00  0.00     0.142 C 
ENDROOT
BRANCH   4   7
HETATM    7  C8  UNL     1       3.120  16.290 -42.298  1.00  0.00     0.088 A 
HETATM    8  N3  UNL     1       3.533  16.781 -43.477  1.00  0.00    -0.347 N 
HETATM    9  C9  UNL     1       3.460  18.103 -43.422  1.00  0.00     0.029 A 
ATOM     10  H3  UNL     1       3.847  16.232 -44.276  1.00  0.00     0.167 HD
HETATM   11  C10 UNL     1       3.833  19.012 -44.535  1.00  0.00     0.070 C 
HETATM   12  C11 UNL     1       2.983  18.437 -42.155  1.00  0.00     0.032 A 
HETATM   13  C12 UNL     1       2.759  19.803 -41.696  1.00  0.00     0.070 C 
HETATM   14  N4  UNL     1       2.776  17.311 -41.469  1.00  0.00    -0.334 N 
BRANCH  14  15
HETATM   15  C13 UNL     1       2.305  17.136 -40.160  1.00  0.00     0.091 C 
HETATM   16  C14 UNL     1       3.025  17.843 -39.050  1.00  0.00     0.026 C 
HETATM   17  C15 UNL     1       2.230  17.265 -37.861  1.00  0.00     0.002 C 
HETATM   18  C16 UNL     1       0.811  17.367 -38.366  1.00  0.00     0.002 C 
HETATM   19  C17 UNL     1       0.889  17.579 -39.882  1.00  0.00     0.026 C 
ENDBRANCH  14  15
ENDBRANCH   4   7
BRANCH   1  20
HETATM   20  C4  UNL     1       2.494  11.529 -44.670  1.00  0.00     0.694 A 
HETATM   21  N1  UNL     1       1.356  11.350 -45.351  1.00  0.00    -0.199 N 
HETATM   22  C3  UNL     1       1.124  10.179 -45.961  1.00  0.00     0.132 A 
ATOM     23  H1  UNL     1       0.669  12.101 -45.407  1.00  0.00     0.183 HD
HETATM   24  C2  UNL     1       2.023   9.138 -45.914  1.00  0.00     0.038 A 
HETATM   25  C1  UNL     1       1.774   7.839 -46.587  1.00  0.00     0.071 C 
HETATM   26  N6  UNL     1       3.156   9.381 -45.209  1.00  0.00    -0.290 N 
HETATM   27  N5  UNL     1       3.381  10.529 -44.612  1.00  0.00    -0.132 N 
ATOM     28  H6  UNL     1       3.859   8.646 -45.139  1.00  0.00     0.187 HD
ATOM     29  H5  UNL     1       4.249  10.661 -44.094  1.00  0.00     0.205 HD
ENDBRANCH   1  20
TORSDOF 3
ENDMDL
MODEL 4
REMARK VINA RESULT: -7.939280838      1.649      2.054
REMARK  3 active torsions:
REMARK  status: ('A' for Active; 'I' for Inactive)
REMARK    1  A    between atoms: C4_6  and  N2_7 
REMARK    2  A    between atoms: C7_10  and  C8_11 
REMARK    3  A    between atoms: N4_18  and  C13_19 
ROOT
HETATM    1  N2  UNL     1       4.670  16.190 -44.680  1.00  0.00    -0.216 N 
HETATM    2  C5  UNL     1       3.296  15.840 -44.519  1.00  0.00     0.142 C 
HETATM    3  C6  UNL     1       2.766  15.884 -43.144  1.00  0.00     0.033 C 
HETATM    4  C7  UNL     1       3.329  16.948 -42.254  1.00  0.00     0.057 C 
HETATM    5  C18 UNL     1       4.636  17.519 -42.727  1.00  0.00     0.033 C 
HETATM    6  C19 UNL     1       5.458  16.542 -43.531  1.00  0.00     0.142 C 
ENDROOT
BRANCH   4   7
HETATM    7  C8  UNL     1       3.559  16.372 -40.903  1.00  0.00     0.088 A 
HETATM    8  N3  UNL     1       3.430  15.057 -40.672  1.00  0.00    -0.347 N 
HETATM    9  C9  UNL     1       3.694  14.835 -39.393  1.00  0.00     0.029 A 
ATOM     10  H3  UNL     1       3.173  14.351 -41.361  1.00  0.00     0.167 HD
HETATM   11  C10 UNL     1       3.657  13.498 -38.747  1.00  0.00     0.070 C 
HETATM   12  C11 UNL     1       3.999  16.067 -38.815  1.00  0.00     0.032 A 
HETATM   13  C12 UNL     1       4.350  16.251 -37.411  1.00  0.00     0.070 C 
HETATM   14  N4  UNL     1       3.913  17.010 -39.755  1.00  0.00    -0.334 N 
BRANCH  14  15
HETATM   15  C13 UNL     1       4.126  18.392 -39.657  1.00  0.00     0.091 C 
HETATM   16  C14 UNL     1       3.457  19.132 -38.538  1.00  0.00     0.026 C 
HETATM   17  C15 UNL     1       3.894  20.562 -38.917  1.00  0.00     0.002 C 
HETATM   18  C16 UNL     1       5.350  20.353 -39.258  1.00  0.00     0.002 C 
HETATM   19  C17 UNL     1       5.552  18.847 -39.461  1.00  0.00     0.026 C 
ENDBRANCH  14  15
ENDBRANCH   4   7
BRANCH   1  20
HETATM   20  C4  UNL     1       5.231  16.182 -45.988  1.00  0.00     0.694 A 
HETATM   21  N1  UNL     1       4.514  15.814 -47.056  1.00  0.00    -0.199 N 
HETATM   22  C3  UNL     1       5.081  15.820 -48.271  1.00  0.00     0.132 A 
ATOM     23  H1  UNL     1       3.540  15.531 -46.947  1.00  0.00     0.183 HD
HETATM   24  C2  UNL     1       6.389  16.196 -48.466  1.00  0.00     0.038 A 
HETATM   25  C1  UNL     1       7.025  16.206 -49.808  1.00  0.00     0.071 C 
HETATM   26  N6  UNL     1       7.063  16.557 -47.345  1.00  0.00    -0.290 N 
HETATM   27  N5  UNL     1       6.506  16.550 -46.157  1.00  0.00    -0.132 N 
ATOM     28  H6  UNL     1       8.038  16.845 -47.429  1.00  0.00     0.187 HD
ATOM     29  H5  UNL     1       7.056  16.830 -45.345  1.00  0.00     0.205 HD
ENDBRANCH   1  20
TORSDOF 3
ENDMDL
MODEL 5
REMARK VINA RESULT: -7.892767079      3.633      4.761
REMARK  3 active torsions:
REMARK  status: ('A' for Active; 'I' for Inactive)
REMARK    1  A    between atoms: C4_6  and  N2_7 
REMARK    2  A    between atoms: C7_10  and  C8_11 
REMARK    3  A    between atoms: N4_18  and  C13_19 
ROOT
HETATM    1  N2  UNL     1       3.759  12.898 -43.281  1.00  0.00    -0.216 N 
HETATM    2  C5  UNL     1       5.049  12.713 -42.697  1.00  0.00     0.142 C 
HETATM    3  C6  UNL     1       5.466  13.717 -41.701  1.00  0.00     0.033 C 
HETATM    4  C7  UNL     1       4.380  14.284 -40.841  1.00  0.00     0.057 C 
HETATM    5  C18 UNL     1       2.995  14.094 -41.392  1.00  0.00     0.033 C 
HETATM    6  C19 UNL     1       2.956  14.027 -42.899  1.00  0.00     0.142 C 
ENDROOT
BRANCH   4   7
HETATM    7  C8  UNL     1       4.601  15.746 -40.690  1.00  0.00     0.088 A 
HETATM    8  N3  UNL     1       5.417  16.419 -41.515  1.00  0.00    -0.347 N 
HETATM    9  C9  UNL     1       5.419  17.692 -41.147  1.00  0.00     0.029 A 
ATOM     10  H3  UNL     1       5.944  16.020 -42.291  1.00  0.00     0.167 HD
HETATM   11  C10 UNL     1       6.203  18.760 -41.817  1.00  0.00     0.070 C 
HETATM   12  C11 UNL     1       4.567  17.804 -40.049  1.00  0.00     0.032 A 
HETATM   13  C12 UNL     1       4.293  19.052 -39.346  1.00  0.00     0.070 C 
HETATM   14  N4  UNL     1       4.067  16.597 -39.774  1.00  0.00    -0.334 N 
BRANCH  14  15
HETATM   15  C13 UNL     1       3.173  16.208 -38.766  1.00  0.00     0.091 C 
HETATM   16  C14 UNL     1       3.441  16.674 -37.367  1.00  0.00     0.026 C 
HETATM   17  C15 UNL     1       2.296  15.924 -36.655  1.00  0.00     0.002 C 
HETATM   18  C16 UNL     1       1.141  16.172 -37.595  1.00  0.00     0.002 C 
HETATM   19  C17 UNL     1       1.738  16.650 -38.923  1.00  0.00     0.026 C 
ENDBRANCH  14  15
ENDBRANCH   4   7
BRANCH   1  20
HETATM   20  C4  UNL     1       3.296  11.950 -44.235  1.00  0.00     0.694 A 
HETATM   21  N1  UNL     1       2.363  12.264 -45.142  1.00  0.00    -0.199 N 
HETATM   22  C3  UNL     1       1.955  11.341 -46.023  1.00  0.00     0.132 A 
ATOM     23  H1  UNL     1       1.965  13.203 -45.162  1.00  0.00     0.183 HD
HETATM   24  C2  UNL     1       2.464  10.063 -46.034  1.00  0.00     0.038 A 
HETATM   25  C1  UNL     1       2.018   9.034 -47.007  1.00  0.00     0.071 C 
HETATM   26  N6  UNL     1       3.406   9.806 -45.092  1.00  0.00    -0.290 N 
HETATM   27  N5  UNL     1       3.804  10.712 -44.229  1.00  0.00    -0.132 N 
ATOM     28  H6  UNL     1       3.820   8.874 -45.052  1.00  0.00     0.187 HD
ATOM     29  H5  UNL     1       4.515  10.467 -43.540  1.00  0.00     0.205 HD
ENDBRANCH   1  20
TORSDOF 3
ENDMDL
