MODEL 1
REMARK VINA RESULT: -7.829960010      0.000      0.000
REMARK  4 active torsions:
REMARK  status: ('A' for Active; 'I' for Inactive)
REMARK    1  A    between atoms: C2_2  and  C5_5 
REMARK    2  A    between atoms: C7_7  and  C8_8 
REMARK    3  A    between atoms: C8_8  and  N1_9 
REMARK    4  A    between atoms: C15_16  and  C16_17 
ROOT
HETATM    1  N1  UNL     1       5.248  13.886 -42.126  1.00  0.00    -0.348 N 
HETATM    2  C9  UNL     1       4.828  12.680 -42.662  1.00  0.00     0.071 C 
HETATM    3  C10 UNL     1       3.579  12.960 -43.494  1.00  0.00     0.083 C 
HETATM    4  C11 UNL     1       3.996  13.802 -44.640  1.00  0.00     0.073 C 
HETATM    5  C12 UNL     1       4.878  14.947 -44.308  1.00  0.00     0.083 C 
HETATM    6  C13 UNL     1       5.488  14.986 -42.951  1.00  0.00     0.071 C 
HETATM    7  C14 UNL     1       2.751  14.198 -45.435  1.00  0.00     0.079 C 
HETATM    8  C15 UNL     1       3.513  13.633 -46.615  1.00  0.00     0.200 C 
HETATM    9  O2  UNL     1       4.461  13.119 -45.764  1.00  0.00    -0.366 OA
ENDROOT
BRANCH   1  10
HETATM   10  C8  UNL     1       5.547  14.016 -40.761  1.00  0.00     0.126 C 
BRANCH  10  11
HETATM   11  C7  UNL     1       4.369  13.942 -39.870  1.00  0.00     0.073 A 
HETATM   12  C6  UNL     1       3.149  14.611 -40.075  1.00  0.00     0.068 A 
HETATM   13  C5  UNL     1       2.316  14.284 -39.022  1.00  0.00     0.086 A 
HETATM   14  O3  UNL     1       2.986  13.474 -38.240  1.00  0.00    -0.241 OA
HETATM   15  N3  UNL     1       4.184  13.274 -38.731  1.00  0.00    -0.260 N 
ATOM     16  H3  UNL     1       4.890  12.680 -38.294  1.00  0.00     0.195 HD
BRANCH  13  17
HETATM   17  C2  UNL     1       0.958  14.800 -38.898  1.00  0.00     0.000 C 
HETATM   18  C1  UNL     1       0.693  15.112 -37.424  1.00  0.00     0.021 C 
HETATM   19  C3  UNL     1       0.731  16.034 -39.712  1.00  0.00     0.021 C 
HETATM   20  C4  UNL     1      -0.059  13.721 -39.312  1.00  0.00     0.021 C 
ENDBRANCH  13  17
ENDBRANCH  10  11
ENDBRANCH   1  10
BRANCH   8  21
HETATM   21  C16 UNL     1       3.980  14.761 -47.489  1.00  0.00     0.152 A 
HETATM   22  N2  UNL     1       5.255  14.864 -47.896  1.00  0.00    -0.346 N 
HETATM   23  C17 UNL     1       5.345  15.968 -48.650  1.00  0.00     0.114 A 
ATOM     24  H2  UNL     1       6.014  14.221 -47.673  1.00  0.00     0.167 HD
HETATM   25  C18 UNL     1       4.082  16.532 -48.686  1.00  0.00     0.161 A 
HETATM   26  O1  UNL     1       3.287  15.769 -47.972  1.00  0.00    -0.306 OA
ENDBRANCH   8  21
TORSDOF 4
ENDMDL
MODEL 2
REMARK VINA RESULT: -7.825314501      4.100      5.263
REMARK  4 active torsions:
REMARK  status: ('A' for Active; 'I' for Inactive)
REMARK    1  A    between atoms: C2_2  and  C5_5 
REMARK    2  A    between atoms: C7_7  and  C8_8 
REMARK    3  A    between atoms: C8_8  and  N1_9 
REMARK    4  A    between atoms: C15_16  and  C16_17 
ROOT
HETATM    1  N1  UNL     1       2.571  13.292 -44.853  1.00  0.00    -0.348 N 
HETATM    2  C9  UNL     1       3.611  12.668 -45.520  1.00  0.00     0.071 C 
HETATM    3  C10 UNL     1       3.674  11.226 -45.021  1.00  0.00     0.083 C 
HETATM    4  C11 UNL     1       2.430  10.554 -45.466  1.00  0.00     0.073 C 
HETATM    5  C12 UNL     1       1.175  11.311 -45.241  1.00  0.00     0.083 C 
HETATM    6  C13 UNL     1       1.286  12.748 -44.870  1.00  0.00     0.071 C 
HETATM    7  C14 UNL     1       2.405   9.139 -44.888  1.00  0.00     0.079 C 
HETATM    8  C15 UNL     1       2.186   8.720 -46.327  1.00  0.00     0.200 C 
HETATM    9  O2  UNL     1       2.460   9.999 -46.746  1.00  0.00    -0.366 OA
ENDROOT
BRANCH   1  10
HETATM   10  C8  UNL     1       2.745  14.537 -44.229  1.00  0.00     0.126 C 
BRANCH  10  11
HETATM   11  C7  UNL     1       2.663  14.496 -42.753  1.00  0.00     0.073 A 
HETATM   12  C6  UNL     1       1.570  14.936 -41.986  1.00  0.00     0.068 A 
HETATM   13  C5  UNL     1       1.889  14.730 -40.656  1.00  0.00     0.086 A 
HETATM   14  O3  UNL     1       3.088  14.202 -40.627  1.00  0.00    -0.241 OA
HETATM   15  N3  UNL     1       3.543  14.066 -41.848  1.00  0.00    -0.260 N 
ATOM     16  H3  UNL     1       4.458  13.678 -42.077  1.00  0.00     0.195 HD
BRANCH  13  17
HETATM   17  C2  UNL     1       0.986  15.073 -39.564  1.00  0.00     0.000 C 
HETATM   18  C1  UNL     1       0.062  13.881 -39.309  1.00  0.00     0.021 C 
HETATM   19  C3  UNL     1       1.710  15.414 -38.300  1.00  0.00     0.021 C 
HETATM   20  C4  UNL     1       0.086  16.254 -39.971  1.00  0.00     0.021 C 
ENDBRANCH  13  17
ENDBRANCH  10  11
ENDBRANCH   1  10
BRANCH   8  21
HETATM   21  C16 UNL     1       0.761   8.279 -46.502  1.00  0.00     0.152 A 
HETATM   22  N2  UNL     1       0.254   7.976 -47.707  1.00  0.00    -0.346 N 
HETATM   23  C17 UNL     1      -1.026   7.626 -47.525  1.00  0.00     0.114 A 
ATOM     24  H2  UNL     1       0.751   8.007 -48.597  1.00  0.00     0.167 HD
HETATM   25  C18 UNL     1      -1.278   7.725 -46.168  1.00  0.00     0.161 A 
HETATM   26  O1  UNL     1      -0.170   8.123 -45.586  1.00  0.00    -0.306 OA
ENDBRANCH   8  21
TORSDOF 4
ENDMDL
MODEL 3
REMARK VINA RESULT: -7.814070273      1.182      1.222
REMARK  4 active torsions:
REMARK  status: ('A' for Active; 'I' for Inactive)
REMARK    1  A    between atoms: C2_2  and  C5_5 
REMARK    2  A    between atoms: C7_7  and  C8_8 
REMARK    3  A    between atoms: C8_8  and  N1_9 
REMARK    4  A    between atoms: C15_16  and  C16_17 
ROOT
HETATM    1  N1  UNL     1       5.098  13.926 -43.056  1.00  0.00    -0.348 N 
HETATM    2  C9  UNL     1       5.038  12.583 -43.390  1.00  0.00     0.071 C 
HETATM    3  C10 UNL     1       3.703  12.347 -44.093  1.00  0.00     0.083 C 
HETATM    4  C11 UNL     1       3.743  13.093 -45.372  1.00  0.00     0.073 C 
HETATM    5  C12 UNL     1       4.245  14.486 -45.288  1.00  0.00     0.083 C 
HETATM    6  C13 UNL     1       4.915  14.910 -44.028  1.00  0.00     0.071 C 
HETATM    7  C14 UNL     1       2.379  12.973 -46.053  1.00  0.00     0.079 C 
HETATM    8  C15 UNL     1       3.186  12.492 -47.241  1.00  0.00     0.200 C 
HETATM    9  O2  UNL     1       4.310  12.420 -46.455  1.00  0.00    -0.366 OA
ENDROOT
BRANCH   1  10
HETATM   10  C8  UNL     1       5.446  14.343 -41.762  1.00  0.00     0.126 C 
BRANCH  10  11
HETATM   11  C7  UNL     1       4.370  14.187 -40.761  1.00  0.00     0.073 A 
HETATM   12  C6  UNL     1       3.115  14.820 -40.808  1.00  0.00     0.068 A 
HETATM   13  C5  UNL     1       2.405  14.415 -39.693  1.00  0.00     0.086 A 
HETATM   14  O3  UNL     1       3.177  13.595 -39.023  1.00  0.00    -0.241 OA
HETATM   15  N3  UNL     1       4.324  13.461 -39.642  1.00  0.00    -0.260 N 
ATOM     16  H3  UNL     1       5.089  12.873 -39.309  1.00  0.00     0.195 HD
BRANCH  13  17
HETATM   17  C2  UNL     1       1.052  14.876 -39.407  1.00  0.00     0.000 C 
HETATM   18  C1  UNL     1       1.040  15.502 -38.011  1.00  0.00     0.021 C 
HETATM   19  C3  UNL     1       0.559  15.879 -40.401  1.00  0.00     0.021 C 
HETATM   20  C4  UNL     1       0.083  13.680 -39.365  1.00  0.00     0.021 C 
ENDBRANCH  13  17
ENDBRANCH  10  11
ENDBRANCH   1  10
BRANCH   8  21
HETATM   21  C16 UNL     1       3.205  13.563 -48.292  1.00  0.00     0.152 A 
HETATM   22  N2  UNL     1       4.340  13.943 -48.899  1.00  0.00    -0.346 N 
HETATM   23  C17 UNL     1       4.022  14.909 -49.772  1.00  0.00     0.114 A 
ATOM     24  H2  UNL     1       5.272  13.567 -48.728  1.00  0.00     0.167 HD
HETATM   25  C18 UNL     1       2.655  15.101 -49.674  1.00  0.00     0.161 A 
HETATM   26  O1  UNL     1       2.201  14.267 -48.768  1.00  0.00    -0.306 OA
ENDBRANCH   8  21
TORSDOF 4
ENDMDL
MODEL 4
REMARK VINA RESULT: -7.766196534      1.098      1.419
REMARK  4 active torsions:
REMARK  status: ('A' for Active; 'I' for Inactive)
REMARK    1  A    between atoms: C2_2  and  C5_5 
REMARK    2  A    between atoms: C7_7  and  C8_8 
REMARK    3  A    between atoms: C8_8  and  N1_9 
REMARK    4  A    between atoms: C15_16  and  C16_17 
ROOT
HETATM    1  N1  UNL     1       5.558  13.427 -41.426  1.00  0.00    -0.348 N 
HETATM    2  C9  UNL     1       5.500  12.214 -42.090  1.00  0.00     0.071 C 
HETATM    3  C10 UNL     1       4.339  12.289 -43.079  1.00  0.00     0.083 C 
HETATM    4  C11 UNL     1       4.696  13.305 -44.097  1.00  0.00     0.073 C 
HETATM    5  C12 UNL     1       5.241  14.579 -43.570  1.00  0.00     0.083 C 
HETATM    6  C13 UNL     1       5.644  14.625 -42.138  1.00  0.00     0.071 C 
HETATM    7  C14 UNL     1       3.508  13.490 -45.041  1.00  0.00     0.079 C 
HETATM    8  C15 UNL     1       4.526  13.218 -46.128  1.00  0.00     0.200 C 
HETATM    9  O2  UNL     1       5.447  12.847 -45.180  1.00  0.00    -0.366 OA
ENDROOT
BRANCH   1  10
HETATM   10  C8  UNL     1       5.639  13.492 -40.026  1.00  0.00     0.126 C 
BRANCH  10  11
HETATM   11  C7  UNL     1       4.595  14.325 -39.393  1.00  0.00     0.073 A 
HETATM   12  C6  UNL     1       3.210  14.095 -39.473  1.00  0.00     0.068 A 
HETATM   13  C5  UNL     1       2.583  15.094 -38.752  1.00  0.00     0.086 A 
HETATM   14  O3  UNL     1       3.523  15.869 -38.271  1.00  0.00    -0.241 OA
HETATM   15  N3  UNL     1       4.698  15.424 -38.644  1.00  0.00    -0.260 N 
ATOM     16  H3  UNL     1       5.583  15.865 -38.393  1.00  0.00     0.195 HD
BRANCH  13  17
HETATM   17  C2  UNL     1       1.133  15.180 -38.615  1.00  0.00     0.000 C 
HETATM   18  C1  UNL     1       0.520  13.886 -39.153  1.00  0.00     0.021 C 
HETATM   19  C3  UNL     1       0.697  15.380 -37.198  1.00  0.00     0.021 C 
HETATM   20  C4  UNL     1       0.586  16.326 -39.485  1.00  0.00     0.021 C 
ENDBRANCH  13  17
ENDBRANCH  10  11
ENDBRANCH   1  10
BRANCH   8  21
HETATM   21  C16 UNL     1       4.830  14.497 -46.853  1.00  0.00     0.152 A 
HETATM   22  N2  UNL     1       6.070  15.005 -46.907  1.00  0.00    -0.346 N 
HETATM   23  C17 UNL     1       6.007  16.140 -47.616  1.00  0.00     0.114 A 
ATOM     24  H2  UNL     1       6.907  14.603 -46.486  1.00  0.00     0.167 HD
HETATM   25  C18 UNL     1       4.684  16.302 -47.992  1.00  0.00     0.161 A 
HETATM   26  O1  UNL     1       4.008  15.286 -47.510  1.00  0.00    -0.306 OA
ENDBRANCH   8  21
TORSDOF 4
ENDMDL
MODEL 5
REMARK VINA RESULT: -7.761892020      2.436      3.261
REMARK  4 active torsions:
REMARK  status: ('A' for Active; 'I' for Inactive)
REMARK    1  A    between atoms: C2_2  and  C5_5 
REMARK    2  A    between atoms: C7_7  and  C8_8 
REMARK    3  A    between atoms: C8_8  and  N1_9 
REMARK    4  A    between atoms: C15_16  and  C16_17 
ROOT
HETATM    1  N1  UNL     1       4.482  13.664 -40.760  1.00  0.00    -0.348 N 
HETATM    2  C9  UNL     1       5.744  13.201 -41.092  1.00  0.00     0.071 C 
HETATM    3  C10 UNL     1       5.561  11.978 -41.988  1.00  0.00     0.083 C 
HETATM    4  C11 UNL     1       4.943  12.449 -43.250  1.00  0.00     0.073 C 
HETATM    5  C12 UNL     1       3.795  13.374 -43.098  1.00  0.00     0.083 C 
HETATM    6  C13 UNL     1       3.550  13.964 -41.753  1.00  0.00     0.071 C 
HETATM    7  C14 UNL     1       4.640  11.234 -44.129  1.00  0.00     0.079 C 
HETATM    8  C15 UNL     1       5.428  11.990 -45.179  1.00  0.00     0.200 C 
HETATM    9  O2  UNL     1       5.827  12.901 -44.231  1.00  0.00    -0.366 OA
ENDROOT
BRANCH   1  10
HETATM   10  C8  UNL     1       4.134  13.947 -39.430  1.00  0.00     0.126 C 
BRANCH  10  11
HETATM   11  C7  UNL     1       4.227  15.377 -39.067  1.00  0.00     0.073 A 
HETATM   12  C6  UNL     1       3.286  16.366 -39.404  1.00  0.00     0.068 A 
HETATM   13  C5  UNL     1       3.740  17.564 -38.884  1.00  0.00     0.086 A 
HETATM   14  O3  UNL     1       4.873  17.313 -38.275  1.00  0.00    -0.241 OA
HETATM   15  N3  UNL     1       5.160  16.039 -38.381  1.00  0.00    -0.260 N 
ATOM     16  H3  UNL     1       5.997  15.606 -37.988  1.00  0.00     0.195 HD
BRANCH  13  17
HETATM   17  C2  UNL     1       3.016  18.820 -39.040  1.00  0.00     0.000 C 
HETATM   18  C1  UNL     1       1.728  18.740 -38.218  1.00  0.00     0.021 C 
HETATM   19  C3  UNL     1       3.812  20.006 -38.596  1.00  0.00     0.021 C 
HETATM   20  C4  UNL     1       2.595  19.009 -40.509  1.00  0.00     0.021 C 
ENDBRANCH  13  17
ENDBRANCH  10  11
ENDBRANCH   1  10
BRANCH   8  21
HETATM   21  C16 UNL     1       4.484  12.518 -46.220  1.00  0.00     0.152 A 
HETATM   22  N2  UNL     1       4.624  13.743 -46.750  1.00  0.00    -0.346 N 
HETATM   23  C17 UNL     1       3.634  13.911 -47.636  1.00  0.00     0.114 A 
ATOM     24  H2  UNL     1       5.350  14.421 -46.521  1.00  0.00     0.167 HD
HETATM   25  C18 UNL     1       2.888  12.745 -47.626  1.00  0.00     0.161 A 
HETATM   26  O1  UNL     1       3.438  11.929 -46.756  1.00  0.00    -0.306 OA
ENDBRANCH   8  21
TORSDOF 4
ENDMDL
