MODEL 1
REMARK VINA RESULT: -7.226439368      0.000      0.000
REMARK  3 active torsions:
REMARK  status: ('A' for Active; 'I' for Inactive)
REMARK    1  A    between atoms: S1_2  and  C2_3 
REMARK    2  A    between atoms: C5_8  and  N2_9 
REMARK    3  A    between atoms: N4_17  and  C11_18 
ROOT
HETATM    1  C2  UNL     1       2.136  11.315 -45.975  1.00  0.00     0.147 A 
HETATM    2  N1  UNL     1       2.378  11.755 -47.218  1.00  0.00    -0.321 N 
ATOM      3  H1  UNL     1       1.981  11.247 -48.008  1.00  0.00     0.169 HD
HETATM    4  C3  UNL     1       3.126  12.845 -47.455  1.00  0.00     0.138 A 
HETATM    5  C4  UNL     1       3.661  13.528 -46.351  1.00  0.00     0.124 A 
HETATM    6  C5  UNL     1       3.445  13.103 -45.087  1.00  0.00     0.136 A 
HETATM    7  N3  UNL     1       2.640  11.948 -44.949  1.00  0.00    -0.321 N 
ATOM      8  H3  UNL     1       2.446  11.595 -44.012  1.00  0.00     0.169 HD
HETATM    9  N4  UNL     1       4.465  14.641 -46.653  1.00  0.00    -0.335 N 
HETATM   10  C14 UNL     1       4.758  15.040 -47.982  1.00  0.00     0.052 A 
HETATM   11  C15 UNL     1       5.686  15.855 -48.337  1.00  0.00    -0.059 C 
HETATM   12  C16 UNL     1       5.827  16.176 -49.808  1.00  0.00     0.045 C 
HETATM   13  C17 UNL     1       6.755  16.387 -47.503  1.00  0.00     0.045 C 
HETATM   14  C18 UNL     1       4.146  14.241 -49.088  1.00  0.00     0.119 A 
HETATM   15  N5  UNL     1       3.415  13.261 -48.772  1.00  0.00    -0.348 N 
ATOM     16  H5  UNL     1       2.998  12.725 -49.534  1.00  0.00     0.167 HD
ENDROOT
BRANCH   6  17
HETATM   17  N2  UNL     1       4.049  13.446 -43.887  1.00  0.00    -0.365 N 
HETATM   18  C6  UNL     1       3.208  13.892 -42.795  1.00  0.00     0.124 C 
HETATM   19  C7  UNL     1       4.041  14.187 -41.567  1.00  0.00     0.020 C 
HETATM   20  C8  UNL     1       4.707  12.910 -41.142  1.00  0.00     0.003 C 
HETATM   21  C9  UNL     1       5.419  12.238 -42.287  1.00  0.00     0.020 C 
HETATM   22  C10 UNL     1       5.391  13.187 -43.510  1.00  0.00     0.124 C 
ENDBRANCH   6  17
BRANCH   9  23
HETATM   23  C11 UNL     1       4.656  15.651 -45.585  1.00  0.00     0.091 A 
HETATM   24  C12 UNL     1       4.044  17.018 -46.100  1.00  0.00     0.028 A 
HETATM   25  C13 UNL     1       3.386  16.304 -45.059  1.00  0.00     0.028 A 
ENDBRANCH   9  23
BRANCH   1  26
HETATM   26  S1  UNL     1       1.113   9.843 -45.720  1.00  0.00    -0.098 SA
HETATM   27  C1  UNL     1       1.983   8.401 -46.438  1.00  0.00     0.099 C 
ENDBRANCH   1  26
TORSDOF 3
ENDMDL
MODEL 2
REMARK VINA RESULT: -7.099695940      4.066      7.512
REMARK  3 active torsions:
REMARK  status: ('A' for Active; 'I' for Inactive)
REMARK    1  A    between atoms: S1_2  and  C2_3 
REMARK    2  A    between atoms: C5_8  and  N2_9 
REMARK    3  A    between atoms: N4_17  and  C11_18 
ROOT
HETATM    1  C2  UNL     1       4.653  14.000 -42.899  1.00  0.00     0.147 A 
HETATM    2  N1  UNL     1       4.302  13.590 -41.672  1.00  0.00    -0.321 N 
ATOM      3  H1  UNL     1       4.231  12.590 -41.486  1.00  0.00     0.169 HD
HETATM    4  C3  UNL     1       4.040  14.456 -40.679  1.00  0.00     0.138 A 
HETATM    5  C4  UNL     1       4.146  15.828 -40.959  1.00  0.00     0.124 A 
HETATM    6  C5  UNL     1       4.487  16.273 -42.188  1.00  0.00     0.136 A 
HETATM    7  N3  UNL     1       4.745  15.277 -43.159  1.00  0.00    -0.321 N 
ATOM      8  H3  UNL     1       5.012  15.567 -44.100  1.00  0.00     0.169 HD
HETATM    9  N4  UNL     1       3.829  16.693 -39.896  1.00  0.00    -0.335 N 
HETATM   10  C14 UNL     1       3.393  16.228 -38.630  1.00  0.00     0.052 A 
HETATM   11  C15 UNL     1       2.829  16.939 -37.719  1.00  0.00    -0.059 C 
HETATM   12  C16 UNL     1       2.457  16.264 -36.418  1.00  0.00     0.045 C 
HETATM   13  C17 UNL     1       2.336  18.303 -37.849  1.00  0.00     0.045 C 
HETATM   14  C18 UNL     1       3.306  14.748 -38.436  1.00  0.00     0.119 A 
HETATM   15  N5  UNL     1       3.618  14.007 -39.409  1.00  0.00    -0.348 N 
ATOM     16  H5  UNL     1       3.561  12.999 -39.265  1.00  0.00     0.167 HD
ENDROOT
BRANCH   6  17
HETATM   17  N2  UNL     1       4.416  17.533 -42.761  1.00  0.00    -0.365 N 
HETATM   18  C6  UNL     1       5.632  18.121 -43.284  1.00  0.00     0.124 C 
HETATM   19  C7  UNL     1       5.347  19.476 -43.896  1.00  0.00     0.020 C 
HETATM   20  C8  UNL     1       4.401  19.277 -45.044  1.00  0.00     0.003 C 
HETATM   21  C9  UNL     1       3.201  18.456 -44.649  1.00  0.00     0.020 C 
HETATM   22  C10 UNL     1       3.237  18.236 -43.117  1.00  0.00     0.124 C 
ENDBRANCH   6  17
BRANCH   9  23
HETATM   23  C11 UNL     1       4.361  18.075 -39.965  1.00  0.00     0.091 A 
HETATM   24  C12 UNL     1       5.373  18.261 -38.762  1.00  0.00     0.028 A 
HETATM   25  C13 UNL     1       5.872  18.195 -40.093  1.00  0.00     0.028 A 
ENDBRANCH   9  23
BRANCH   1  26
HETATM   26  S1  UNL     1       5.000  12.782 -44.193  1.00  0.00    -0.098 SA
HETATM   27  C1  UNL     1       5.619  11.253 -43.400  1.00  0.00     0.099 C 
ENDBRANCH   1  26
TORSDOF 3
ENDMDL
MODEL 3
REMARK VINA RESULT: -7.033564489      3.909      6.406
REMARK  3 active torsions:
REMARK  status: ('A' for Active; 'I' for Inactive)
REMARK    1  A    between atoms: S1_2  and  C2_3 
REMARK    2  A    between atoms: C5_8  and  N2_9 
REMARK    3  A    between atoms: N4_17  and  C11_18 
ROOT
HETATM    1  C2  UNL     1       3.024  18.148 -42.146  1.00  0.00     0.147 A 
HETATM    2  N1  UNL     1       3.695  17.730 -43.229  1.00  0.00    -0.321 N 
ATOM      3  H1  UNL     1       3.872  18.391 -43.986  1.00  0.00     0.169 HD
HETATM    4  C3  UNL     1       4.141  16.470 -43.348  1.00  0.00     0.138 A 
HETATM    5  C4  UNL     1       3.886  15.580 -42.293  1.00  0.00     0.124 A 
HETATM    6  C5  UNL     1       3.203  15.967 -41.194  1.00  0.00     0.136 A 
HETATM    7  N3  UNL     1       2.782  17.317 -41.168  1.00  0.00    -0.321 N 
ATOM      8  H3  UNL     1       2.268  17.655 -40.354  1.00  0.00     0.169 HD
HETATM    9  N4  UNL     1       4.343  14.263 -42.482  1.00  0.00    -0.335 N 
HETATM   10  C14 UNL     1       4.988  13.836 -43.670  1.00  0.00     0.052 A 
HETATM   11  C15 UNL     1       5.181  12.616 -44.026  1.00  0.00    -0.059 C 
HETATM   12  C16 UNL     1       5.915  12.361 -45.323  1.00  0.00     0.045 C 
HETATM   13  C17 UNL     1       4.618  11.421 -43.411  1.00  0.00     0.045 C 
HETATM   14  C18 UNL     1       5.206  14.859 -44.738  1.00  0.00     0.119 A 
HETATM   15  N5  UNL     1       4.797  16.034 -44.520  1.00  0.00    -0.348 N 
ATOM     16  H5  UNL     1       4.955  16.726 -45.253  1.00  0.00     0.167 HD
ENDROOT
BRANCH   6  17
HETATM   17  N2  UNL     1       2.626  15.236 -40.166  1.00  0.00    -0.365 N 
HETATM   18  C6  UNL     1       2.995  15.556 -38.803  1.00  0.00     0.124 C 
HETATM   19  C7  UNL     1       2.240  14.679 -37.827  1.00  0.00     0.020 C 
HETATM   20  C8  UNL     1       0.775  14.963 -37.986  1.00  0.00     0.003 C 
HETATM   21  C9  UNL     1       0.340  14.889 -39.427  1.00  0.00     0.020 C 
HETATM   22  C10 UNL     1       1.521  14.354 -40.272  1.00  0.00     0.124 C 
ENDBRANCH   6  17
BRANCH   9  23
HETATM   23  C11 UNL     1       4.533  13.431 -41.270  1.00  0.00     0.091 A 
HETATM   24  C12 UNL     1       6.078  13.106 -41.146  1.00  0.00     0.028 A 
HETATM   25  C13 UNL     1       5.474  14.000 -40.219  1.00  0.00     0.028 A 
ENDBRANCH   9  23
BRANCH   1  26
HETATM   26  S1  UNL     1       2.455  19.864 -42.041  1.00  0.00    -0.098 SA
HETATM   27  C1  UNL     1       3.447  20.727 -40.768  1.00  0.00     0.099 C 
ENDBRANCH   1  26
TORSDOF 3
ENDMDL
MODEL 4
REMARK VINA RESULT: -6.984023385      4.262      6.798
REMARK  3 active torsions:
REMARK  status: ('A' for Active; 'I' for Inactive)
REMARK    1  A    between atoms: S1_2  and  C2_3 
REMARK    2  A    between atoms: C5_8  and  N2_9 
REMARK    3  A    between atoms: N4_17  and  C11_18 
ROOT
HETATM    1  C2  UNL     1       4.554  18.292 -40.114  1.00  0.00     0.147 A 
HETATM    2  N1  UNL     1       5.216  18.296 -41.279  1.00  0.00    -0.321 N 
ATOM      3  H1  UNL     1       5.755  19.123 -41.539  1.00  0.00     0.169 HD
HETATM    4  C3  UNL     1       5.193  17.246 -42.116  1.00  0.00     0.138 A 
HETATM    5  C4  UNL     1       4.446  16.120 -41.736  1.00  0.00     0.124 A 
HETATM    6  C5  UNL     1       3.758  16.089 -40.573  1.00  0.00     0.136 A 
HETATM    7  N3  UNL     1       3.854  17.246 -39.765  1.00  0.00    -0.321 N 
ATOM      8  H3  UNL     1       3.356  17.264 -38.875  1.00  0.00     0.169 HD
HETATM    9  N4  UNL     1       4.425  15.061 -42.661  1.00  0.00    -0.335 N 
HETATM   10  C14 UNL     1       5.080  15.125 -43.917  1.00  0.00     0.052 A 
HETATM   11  C15 UNL     1       4.883  14.333 -44.911  1.00  0.00    -0.059 C 
HETATM   12  C16 UNL     1       5.701  14.548 -46.164  1.00  0.00     0.045 C 
HETATM   13  C17 UNL     1       3.826  13.340 -45.048  1.00  0.00     0.045 C 
HETATM   14  C18 UNL     1       5.843  16.372 -44.231  1.00  0.00     0.119 A 
HETATM   15  N5  UNL     1       5.851  17.290 -43.364  1.00  0.00    -0.348 N 
ATOM     16  H5  UNL     1       6.379  18.135 -43.585  1.00  0.00     0.167 HD
ENDROOT
BRANCH   6  17
HETATM   17  N2  UNL     1       2.780  15.224 -40.108  1.00  0.00    -0.365 N 
HETATM   18  C6  UNL     1       2.907  14.700 -38.764  1.00  0.00     0.124 C 
HETATM   19  C7  UNL     1       1.732  13.807 -38.427  1.00  0.00     0.020 C 
HETATM   20  C8  UNL     1       0.485  14.642 -38.479  1.00  0.00     0.003 C 
HETATM   21  C9  UNL     1       0.385  15.424 -39.763  1.00  0.00     0.020 C 
HETATM   22  C10 UNL     1       1.522  14.967 -40.709  1.00  0.00     0.124 C 
ENDBRANCH   6  17
BRANCH   9  23
HETATM   23  C11 UNL     1       4.077  13.716 -42.145  1.00  0.00     0.091 A 
HETATM   24  C12 UNL     1       5.350  12.790 -42.319  1.00  0.00     0.028 A 
HETATM   25  C13 UNL     1       4.953  13.196 -41.014  1.00  0.00     0.028 A 
ENDBRANCH   9  23
BRANCH   1  26
HETATM   26  S1  UNL     1       4.631  19.737 -39.025  1.00  0.00    -0.098 SA
HETATM   27  C1  UNL     1       6.134  20.697 -39.440  1.00  0.00     0.099 C 
ENDBRANCH   1  26
TORSDOF 3
ENDMDL
MODEL 5
REMARK VINA RESULT: -6.929988157      3.374      6.914
REMARK  3 active torsions:
REMARK  status: ('A' for Active; 'I' for Inactive)
REMARK    1  A    between atoms: S1_2  and  C2_3 
REMARK    2  A    between atoms: C5_8  and  N2_9 
REMARK    3  A    between atoms: N4_17  and  C11_18 
ROOT
HETATM    1  C2  UNL     1       4.990  13.055 -42.346  1.00  0.00     0.147 A 
HETATM    2  N1  UNL     1       4.639  13.175 -41.058  1.00  0.00    -0.321 N 
ATOM      3  H1  UNL     1       4.601  12.338 -40.477  1.00  0.00     0.169 HD
HETATM    4  C3  UNL     1       4.336  14.362 -40.509  1.00  0.00     0.138 A 
HETATM    5  C4  UNL     1       4.396  15.500 -41.329  1.00  0.00     0.124 A 
HETATM    6  C5  UNL     1       4.735  15.411 -42.634  1.00  0.00     0.136 A 
HETATM    7  N3  UNL     1       5.039  14.114 -43.110  1.00  0.00    -0.321 N 
ATOM      8  H3  UNL     1       5.306  14.001 -44.088  1.00  0.00     0.169 HD
HETATM    9  N4  UNL     1       4.037  16.713 -40.716  1.00  0.00    -0.335 N 
HETATM   10  C14 UNL     1       3.603  16.795 -39.369  1.00  0.00     0.052 A 
HETATM   11  C15 UNL     1       3.005  17.797 -38.829  1.00  0.00    -0.059 C 
HETATM   12  C16 UNL     1       2.642  17.704 -37.364  1.00  0.00     0.045 C 
HETATM   13  C17 UNL     1       2.466  18.968 -39.507  1.00  0.00     0.045 C 
HETATM   14  C18 UNL     1       3.566  15.525 -38.582  1.00  0.00     0.119 A 
HETATM   15  N5  UNL     1       3.915  14.460 -39.165  1.00  0.00    -0.348 N 
ATOM     16  H5  UNL     1       3.892  13.599 -38.618  1.00  0.00     0.167 HD
ENDROOT
BRANCH   6  17
HETATM   17  N2  UNL     1       4.626  16.321 -43.675  1.00  0.00    -0.365 N 
HETATM   18  C6  UNL     1       5.780  16.537 -44.524  1.00  0.00     0.124 C 
HETATM   19  C7  UNL     1       5.458  17.533 -45.616  1.00  0.00     0.020 C 
HETATM   20  C8  UNL     1       4.365  16.952 -46.466  1.00  0.00     0.003 C 
HETATM   21  C9  UNL     1       3.203  16.470 -45.636  1.00  0.00     0.020 C 
HETATM   22  C10 UNL     1       3.432  16.905 -44.167  1.00  0.00     0.124 C 
ENDBRANCH   6  17
BRANCH   9  23
HETATM   23  C11 UNL     1       4.521  17.963 -41.350  1.00  0.00     0.091 A 
HETATM   24  C12 UNL     1       5.561  18.633 -40.362  1.00  0.00     0.028 A 
HETATM   25  C13 UNL     1       6.023  18.050 -41.576  1.00  0.00     0.028 A 
ENDBRANCH   9  23
BRANCH   1  26
HETATM   26  S1  UNL     1       5.394  11.427 -43.026  1.00  0.00    -0.098 SA
HETATM   27  C1  UNL     1       5.387  11.543 -44.853  1.00  0.00     0.099 C 
ENDBRANCH   1  26
TORSDOF 3
ENDMDL
