MODEL 1
REMARK VINA RESULT: -7.268808673      0.000      0.000
REMARK  5 active torsions:
REMARK  status: ('A' for Active; 'I' for Inactive)
REMARK    1  A    between atoms: C5_7  and  C6_8 
REMARK    2  A    between atoms: C6_8  and  N2_9 
REMARK    3  A    between atoms: N2_9  and  C8_11 
REMARK       I    between atoms: N3_14  and  C11_15 
REMARK    4  A    between atoms: C11_15  and  O2_17 
REMARK    5  A    between atoms: O2_17  and  C12_18 
ROOT
HETATM    1  C12 UNL     1       2.835  14.347 -38.059  1.00  0.00     0.235 C 
HETATM    2  C13 UNL     1       2.614  15.600 -37.245  1.00  0.00     0.056 C 
HETATM    3  C14 UNL     1       1.528  13.894 -38.533  1.00  0.00     0.091 C 
HETATM    4  N4  UNL     1       0.502  13.522 -38.917  1.00  0.00    -0.195 NA
ENDROOT
BRANCH   1   5
HETATM    5  O2  UNL     1       3.619  14.621 -39.220  1.00  0.00    -0.284 OA
BRANCH   5   6
HETATM    6  C11 UNL     1       4.436  13.630 -39.720  1.00  0.00     0.364 C 
HETATM    7  N3  UNL     1       4.742  13.537 -41.101  1.00  0.00    -0.328 N 
HETATM    8  C10 UNL     1       4.177  14.519 -42.003  1.00  0.00     0.130 C 
HETATM    9  C15 UNL     1       5.585  12.517 -41.644  1.00  0.00     0.130 C 
HETATM   10  C9  UNL     1       3.570  13.828 -43.206  1.00  0.00     0.045 C 
HETATM   11  C8  UNL     1       4.547  12.849 -43.829  1.00  0.00     0.086 C 
HETATM   12  C16 UNL     1       4.926  11.803 -42.812  1.00  0.00     0.045 C 
HETATM   13  O1  UNL     1       4.916  12.792 -38.928  1.00  0.00    -0.238 OA
BRANCH  11  14
HETATM   14  N2  UNL     1       3.991  12.374 -45.033  1.00  0.00    -0.388 N 
HETATM   15  C7  UNL     1       3.970  10.973 -45.246  1.00  0.00     0.149 C 
BRANCH  14  16
HETATM   16  C6  UNL     1       3.018  13.143 -45.694  1.00  0.00     0.106 C 
BRANCH  16  17
HETATM   17  C5  UNL     1       3.676  13.771 -46.900  1.00  0.00     0.044 A 
HETATM   18  C3  UNL     1       3.523  13.432 -48.223  1.00  0.00     0.024 A 
HETATM   19  N1  UNL     1       4.192  14.116 -49.094  1.00  0.00    -0.357 N 
HETATM   20  C4  UNL     1       2.592  12.287 -48.595  1.00  0.00     0.069 C 
HETATM   21  C2  UNL     1       4.984  15.099 -48.694  1.00  0.00     0.048 A 
ATOM     22  H1  UNL     1       4.109  13.899 -50.088  1.00  0.00     0.166 HD
HETATM   23  C1  UNL     1       5.842  16.011 -49.545  1.00  0.00     0.076 C 
HETATM   24  S1  UNL     1       4.784  15.068 -46.998  1.00  0.00    -0.074 SA
ENDBRANCH  16  17
ENDBRANCH  14  16
ENDBRANCH  11  14
ENDBRANCH   5   6
ENDBRANCH   1   5
TORSDOF 5
ENDMDL
MODEL 2
REMARK VINA RESULT: -7.213512482      3.799      7.525
REMARK  5 active torsions:
REMARK  status: ('A' for Active; 'I' for Inactive)
REMARK    1  A    between atoms: C5_7  and  C6_8 
REMARK    2  A    between atoms: C6_8  and  N2_9 
REMARK    3  A    between atoms: N2_9  and  C8_11 
REMARK       I    between atoms: N3_14  and  C11_15 
REMARK    4  A    between atoms: C11_15  and  O2_17 
REMARK    5  A    between atoms: O2_17  and  C12_18 
ROOT
HETATM    1  C12 UNL     1       2.996  10.183 -44.765  1.00  0.00     0.235 C 
HETATM    2  C13 UNL     1       2.030  11.286 -45.128  1.00  0.00     0.056 C 
HETATM    3  C14 UNL     1       2.578   8.978 -45.480  1.00  0.00     0.091 C 
HETATM    4  N4  UNL     1       2.261   8.017 -46.040  1.00  0.00    -0.195 NA
ENDROOT
BRANCH   1   5
HETATM    5  O2  UNL     1       4.316  10.488 -45.212  1.00  0.00    -0.284 OA
BRANCH   5   6
HETATM    6  C11 UNL     1       4.648  11.803 -45.460  1.00  0.00     0.364 C 
HETATM    7  N3  UNL     1       5.212  12.635 -44.461  1.00  0.00    -0.328 N 
HETATM    8  C10 UNL     1       5.444  12.076 -43.146  1.00  0.00     0.130 C 
HETATM    9  C15 UNL     1       5.563  14.002 -44.694  1.00  0.00     0.130 C 
HETATM   10  C9  UNL     1       4.909  13.014 -42.083  1.00  0.00     0.045 C 
HETATM   11  C8  UNL     1       5.413  14.429 -42.295  1.00  0.00     0.086 C 
HETATM   12  C16 UNL     1       4.964  14.924 -43.646  1.00  0.00     0.045 C 
HETATM   13  O1  UNL     1       4.442  12.268 -46.601  1.00  0.00    -0.238 OA
BRANCH  11  14
HETATM   14  N2  UNL     1       5.024  15.208 -41.186  1.00  0.00    -0.388 N 
HETATM   15  C7  UNL     1       5.042  14.596 -39.908  1.00  0.00     0.149 C 
BRANCH  14  16
HETATM   16  C6  UNL     1       5.175  16.604 -41.237  1.00  0.00     0.106 C 
BRANCH  16  17
HETATM   17  C5  UNL     1       3.959  17.218 -40.584  1.00  0.00     0.044 A 
HETATM   18  C3  UNL     1       3.918  18.157 -39.580  1.00  0.00     0.024 A 
HETATM   19  N1  UNL     1       2.752  18.542 -39.174  1.00  0.00    -0.357 N 
HETATM   20  C4  UNL     1       5.222  18.689 -39.006  1.00  0.00     0.069 C 
HETATM   21  C2  UNL     1       1.660  18.032 -39.722  1.00  0.00     0.048 A 
ATOM     22  H1  UNL     1       2.673  19.237 -38.431  1.00  0.00     0.166 HD
HETATM   23  C1  UNL     1       0.216  18.346 -39.393  1.00  0.00     0.076 C 
HETATM   24  S1  UNL     1       2.297  16.948 -40.878  1.00  0.00    -0.074 SA
ENDBRANCH  16  17
ENDBRANCH  14  16
ENDBRANCH  11  14
ENDBRANCH   5   6
ENDBRANCH   1   5
TORSDOF 5
ENDMDL
MODEL 3
REMARK VINA RESULT: -7.210147210      3.704      7.559
REMARK  5 active torsions:
REMARK  status: ('A' for Active; 'I' for Inactive)
REMARK    1  A    between atoms: C5_7  and  C6_8 
REMARK    2  A    between atoms: C6_8  and  N2_9 
REMARK    3  A    between atoms: N2_9  and  C8_11 
REMARK       I    between atoms: N3_14  and  C11_15 
REMARK    4  A    between atoms: C11_15  and  O2_17 
REMARK    5  A    between atoms: O2_17  and  C12_18 
ROOT
HETATM    1  C12 UNL     1       3.105  10.917 -45.298  1.00  0.00     0.235 C 
HETATM    2  C13 UNL     1       2.438  11.534 -46.504  1.00  0.00     0.056 C 
HETATM    3  C14 UNL     1       2.959   9.466 -45.408  1.00  0.00     0.091 C 
HETATM    4  N4  UNL     1       2.853   8.316 -45.481  1.00  0.00    -0.195 NA
ENDROOT
BRANCH   1   5
HETATM    5  O2  UNL     1       4.506  11.189 -45.290  1.00  0.00    -0.284 OA
BRANCH   5   6
HETATM    6  C11 UNL     1       5.145  11.354 -44.080  1.00  0.00     0.364 C 
HETATM    7  N3  UNL     1       4.733  12.335 -43.142  1.00  0.00    -0.328 N 
HETATM    8  C10 UNL     1       3.606  13.181 -43.476  1.00  0.00     0.130 C 
HETATM    9  C15 UNL     1       5.380  12.526 -41.881  1.00  0.00     0.130 C 
HETATM   10  C9  UNL     1       3.947  14.630 -43.200  1.00  0.00     0.045 C 
HETATM   11  C8  UNL     1       4.510  14.806 -41.801  1.00  0.00     0.086 C 
HETATM   12  C16 UNL     1       5.763  13.979 -41.658  1.00  0.00     0.045 C 
HETATM   13  O1  UNL     1       6.114  10.615 -43.807  1.00  0.00    -0.238 OA
BRANCH  11  14
HETATM   14  N2  UNL     1       4.643  16.186 -41.548  1.00  0.00    -0.388 N 
HETATM   15  C7  UNL     1       5.764  16.855 -42.097  1.00  0.00     0.149 C 
BRANCH  14  16
HETATM   16  C6  UNL     1       3.494  16.952 -41.289  1.00  0.00     0.106 C 
BRANCH  16  17
HETATM   17  C5  UNL     1       3.041  16.634 -39.883  1.00  0.00     0.044 A 
HETATM   18  C3  UNL     1       1.829  16.128 -39.476  1.00  0.00     0.024 A 
HETATM   19  N1  UNL     1       1.663  15.932 -38.208  1.00  0.00    -0.357 N 
HETATM   20  C4  UNL     1       0.760  15.829 -40.516  1.00  0.00     0.069 C 
HETATM   21  C2  UNL     1       2.641  16.217 -37.362  1.00  0.00     0.048 A 
ATOM     22  H1  UNL     1       0.779  15.558 -37.860  1.00  0.00     0.166 HD
HETATM   23  C1  UNL     1       2.647  16.061 -35.856  1.00  0.00     0.076 C 
HETATM   24  S1  UNL     1       3.870  16.795 -38.398  1.00  0.00    -0.074 SA
ENDBRANCH  16  17
ENDBRANCH  14  16
ENDBRANCH  11  14
ENDBRANCH   5   6
ENDBRANCH   1   5
TORSDOF 5
ENDMDL
MODEL 4
REMARK VINA RESULT: -7.150216624      1.629      1.776
REMARK  5 active torsions:
REMARK  status: ('A' for Active; 'I' for Inactive)
REMARK    1  A    between atoms: C5_7  and  C6_8 
REMARK    2  A    between atoms: C6_8  and  N2_9 
REMARK    3  A    between atoms: N2_9  and  C8_11 
REMARK       I    between atoms: N3_14  and  C11_15 
REMARK    4  A    between atoms: C11_15  and  O2_17 
REMARK    5  A    between atoms: O2_17  and  C12_18 
ROOT
HETATM    1  C12 UNL     1       3.630  16.565 -37.869  1.00  0.00     0.235 C 
HETATM    2  C13 UNL     1       3.293  18.006 -38.170  1.00  0.00     0.056 C 
HETATM    3  C14 UNL     1       2.763  16.130 -36.774  1.00  0.00     0.091 C 
HETATM    4  N4  UNL     1       2.084  15.770 -35.908  1.00  0.00    -0.195 NA
ENDROOT
BRANCH   1   5
HETATM    5  O2  UNL     1       3.335  15.724 -38.983  1.00  0.00    -0.284 OA
BRANCH   5   6
HETATM    6  C11 UNL     1       4.378  15.197 -39.714  1.00  0.00     0.364 C 
HETATM    7  N3  UNL     1       4.372  15.189 -41.131  1.00  0.00    -0.328 N 
HETATM    8  C10 UNL     1       3.231  15.755 -41.821  1.00  0.00     0.130 C 
HETATM    9  C15 UNL     1       5.441  14.648 -41.911  1.00  0.00     0.130 C 
HETATM   10  C9  UNL     1       2.755  14.806 -42.900  1.00  0.00     0.045 C 
HETATM   11  C8  UNL     1       3.903  14.358 -43.785  1.00  0.00     0.086 C 
HETATM   12  C16 UNL     1       4.939  13.655 -42.945  1.00  0.00     0.045 C 
HETATM   13  O1  UNL     1       5.355  14.715 -39.103  1.00  0.00    -0.238 OA
BRANCH  11  14
HETATM   14  N2  UNL     1       3.371  13.622 -44.862  1.00  0.00    -0.388 N 
HETATM   15  C7  UNL     1       3.155  12.234 -44.674  1.00  0.00     0.149 C 
BRANCH  14  16
HETATM   16  C6  UNL     1       2.577  14.276 -45.819  1.00  0.00     0.106 C 
BRANCH  16  17
HETATM   17  C5  UNL     1       3.451  14.565 -47.017  1.00  0.00     0.044 A 
HETATM   18  C3  UNL     1       3.546  13.853 -48.189  1.00  0.00     0.024 A 
HETATM   19  N1  UNL     1       4.368  14.291 -49.086  1.00  0.00    -0.357 N 
HETATM   20  C4  UNL     1       2.694  12.605 -48.373  1.00  0.00     0.069 C 
HETATM   21  C2  UNL     1       5.077  15.385 -48.854  1.00  0.00     0.048 A 
ATOM     22  H1  UNL     1       4.471  13.795 -49.972  1.00  0.00     0.166 HD
HETATM   23  C1  UNL     1       6.083  16.056 -49.764  1.00  0.00     0.076 C 
HETATM   24  S1  UNL     1       4.565  15.832 -47.287  1.00  0.00    -0.074 SA
ENDBRANCH  16  17
ENDBRANCH  14  16
ENDBRANCH  11  14
ENDBRANCH   5   6
ENDBRANCH   1   5
TORSDOF 5
ENDMDL
MODEL 5
REMARK VINA RESULT: -7.117484112      3.721      7.837
REMARK  5 active torsions:
REMARK  status: ('A' for Active; 'I' for Inactive)
REMARK    1  A    between atoms: C5_7  and  C6_8 
REMARK    2  A    between atoms: C6_8  and  N2_9 
REMARK    3  A    between atoms: N2_9  and  C8_11 
REMARK       I    between atoms: N3_14  and  C11_15 
REMARK    4  A    between atoms: C11_15  and  O2_17 
REMARK    5  A    between atoms: O2_17  and  C12_18 
ROOT
HETATM    1  C12 UNL     1       3.057  10.653 -44.651  1.00  0.00     0.235 C 
HETATM    2  C13 UNL     1       2.331  11.638 -45.536  1.00  0.00     0.056 C 
HETATM    3  C14 UNL     1       2.873   9.323 -45.230  1.00  0.00     0.091 C 
HETATM    4  N4  UNL     1       2.737   8.264 -45.676  1.00  0.00    -0.195 NA
ENDROOT
BRANCH   1   5
HETATM    5  O2  UNL     1       4.461  10.906 -44.643  1.00  0.00    -0.284 OA
BRANCH   5   6
HETATM    6  C11 UNL     1       4.909  12.177 -44.933  1.00  0.00     0.364 C 
HETATM    7  N3  UNL     1       4.939  13.203 -43.954  1.00  0.00    -0.328 N 
HETATM    8  C10 UNL     1       4.483  12.894 -42.615  1.00  0.00     0.130 C 
HETATM    9  C15 UNL     1       5.399  14.528 -44.230  1.00  0.00     0.130 C 
HETATM   10  C9  UNL     1       3.526  13.964 -42.134  1.00  0.00     0.045 C 
HETATM   11  C8  UNL     1       4.110  15.352 -42.327  1.00  0.00     0.086 C 
HETATM   12  C16 UNL     1       4.392  15.577 -43.791  1.00  0.00     0.045 C 
HETATM   13  O1  UNL     1       5.300  12.425 -46.093  1.00  0.00    -0.238 OA
BRANCH  11  14
HETATM   14  N2  UNL     1       3.253  16.283 -41.708  1.00  0.00    -0.388 N 
HETATM   15  C7  UNL     1       3.368  17.643 -42.086  1.00  0.00     0.149 C 
BRANCH  14  16
HETATM   16  C6  UNL     1       2.011  15.852 -41.211  1.00  0.00     0.106 C 
BRANCH  16  17
HETATM   17  C5  UNL     1       2.018  16.069 -39.716  1.00  0.00     0.044 A 
HETATM   18  C3  UNL     1       1.229  16.919 -38.977  1.00  0.00     0.024 A 
HETATM   19  N1  UNL     1       1.412  16.937 -37.697  1.00  0.00    -0.357 N 
HETATM   20  C4  UNL     1       0.198  17.783 -39.689  1.00  0.00     0.069 C 
HETATM   21  C2  UNL     1       2.330  16.156 -37.149  1.00  0.00     0.048 A 
ATOM     22  H1  UNL     1       0.849  17.553 -37.109  1.00  0.00     0.166 HD
HETATM   23  C1  UNL     1       2.695  16.029 -35.686  1.00  0.00     0.076 C 
HETATM   24  S1  UNL     1       2.981  15.344 -38.504  1.00  0.00    -0.074 SA
ENDBRANCH  16  17
ENDBRANCH  14  16
ENDBRANCH  11  14
ENDBRANCH   5   6
ENDBRANCH   1   5
TORSDOF 5
ENDMDL
