MODEL 1
REMARK VINA RESULT: -7.464217000      0.000      0.000
REMARK  3 active torsions:
REMARK  status: ('A' for Active; 'I' for Inactive)
REMARK    1  A    between atoms: C2_2  and  C4_4 
REMARK    2  A    between atoms: C4_4  and  C5_5 
REMARK    3  A    between atoms: C5_5  and  C6_6 
ROOT
HETATM    1  C6  UNL     1       3.314  16.541 -38.991  1.00  0.00     0.019 C 
HETATM    2  C7  UNL     1       4.708  16.250 -39.385  1.00  0.00     0.051 C 
HETATM    3  C8  UNL     1       5.142  14.856 -39.410  1.00  0.00     0.073 C 
HETATM    4  N1  UNL     1       4.549  13.933 -40.278  1.00  0.00    -0.314 N 
HETATM    5  S1  UNL     1       5.541  12.454 -40.454  1.00  0.00     0.040 SA
HETATM    6  C9  UNL     1       5.331  12.080 -42.176  1.00  0.00     0.236 A 
HETATM    7  N2  UNL     1       5.456  11.532 -43.290  1.00  0.00    -0.345 N 
ATOM      8  H2  UNL     1       6.100  10.746 -43.378  1.00  0.00     0.163 HD
HETATM    9  C10 UNL     1       4.699  11.981 -44.505  1.00  0.00     0.150 A 
HETATM   10  C11 UNL     1       3.894  10.811 -45.028  1.00  0.00     0.044 C 
HETATM   11  S2  UNL     1       3.547  13.438 -44.282  1.00  0.00    -0.075 SA
HETATM   12  C12 UNL     1       3.721  13.841 -42.575  1.00  0.00     0.152 A 
HETATM   13  N3  UNL     1       4.477  13.011 -42.399  1.00  0.00    -0.374 NA
HETATM   14  C13 UNL     1       3.606  14.447 -41.257  1.00  0.00     0.203 C 
HETATM   15  C14 UNL     1       2.230  14.111 -40.751  1.00  0.00     0.282 A 
HETATM   16  C15 UNL     1       1.272  15.308 -40.860  1.00  0.00     0.311 A 
HETATM   17  N4  UNL     1       1.718  14.773 -39.657  1.00  0.00     0.100 N 
HETATM   18  C16 UNL     1       2.492  15.321 -38.653  1.00  0.00     0.278 C 
ENDROOT
BRANCH   1  19
HETATM   19  C5  UNL     1       3.309  17.521 -37.836  1.00  0.00     0.007 C 
BRANCH  19  20
HETATM   20  C4  UNL     1       2.770  18.871 -38.176  1.00  0.00     0.004 C 
BRANCH  20  21
HETATM   21  C2  UNL     1       1.912  18.691 -39.434  1.00  0.00    -0.023 C 
HETATM   22  C1  UNL     1       2.318  19.845 -40.359  1.00  0.00     0.009 C 
HETATM   23  C3  UNL     1       0.455  18.858 -39.144  1.00  0.00     0.009 C 
ENDBRANCH  20  21
ENDBRANCH  19  20
ENDBRANCH   1  19
TORSDOF 3
ENDMDL
MODEL 2
REMARK VINA RESULT: -7.276994386      1.176      1.255
REMARK  3 active torsions:
REMARK  status: ('A' for Active; 'I' for Inactive)
REMARK    1  A    between atoms: C2_2  and  C4_4 
REMARK    2  A    between atoms: C4_4  and  C5_5 
REMARK    3  A    between atoms: C5_5  and  C6_6 
ROOT
HETATM    1  C6  UNL     1       3.403  15.877 -38.883  1.00  0.00     0.019 C 
HETATM    2  C7  UNL     1       4.791  15.643 -39.331  1.00  0.00     0.051 C 
HETATM    3  C8  UNL     1       5.137  14.323 -39.848  1.00  0.00     0.073 C 
HETATM    4  N1  UNL     1       4.524  13.816 -40.999  1.00  0.00    -0.314 N 
HETATM    5  S1  UNL     1       5.428  12.429 -41.678  1.00  0.00     0.040 SA
HETATM    6  C9  UNL     1       5.268  12.711 -43.422  1.00  0.00     0.236 A 
HETATM    7  N2  UNL     1       5.405  12.590 -44.657  1.00  0.00    -0.345 N 
ATOM      8  H2  UNL     1       6.001  11.842 -45.011  1.00  0.00     0.163 HD
HETATM    9  C10 UNL     1       4.730  13.498 -45.642  1.00  0.00     0.150 A 
HETATM   10  C11 UNL     1       3.876  12.654 -46.564  1.00  0.00     0.044 C 
HETATM   11  S2  UNL     1       3.664  14.859 -44.930  1.00  0.00    -0.075 SA
HETATM   12  C12 UNL     1       3.790  14.613 -43.189  1.00  0.00     0.152 A 
HETATM   13  N3  UNL     1       4.484  13.721 -43.310  1.00  0.00    -0.374 NA
HETATM   14  C13 UNL     1       3.658  14.715 -41.744  1.00  0.00     0.203 C 
HETATM   15  C14 UNL     1       2.243  14.323 -41.416  1.00  0.00     0.282 A 
HETATM   16  C15 UNL     1       1.369  15.547 -41.104  1.00  0.00     0.311 A 
HETATM   17  N4  UNL     1       1.729  14.587 -40.166  1.00  0.00     0.100 N 
HETATM   18  C16 UNL     1       2.493  14.681 -39.019  1.00  0.00     0.278 C 
ENDROOT
BRANCH   1  19
HETATM   19  C5  UNL     1       3.411  16.378 -37.453  1.00  0.00     0.007 C 
BRANCH  19  20
HETATM   20  C4  UNL     1       2.575  17.593 -37.221  1.00  0.00     0.004 C 
BRANCH  20  21
HETATM   21  C2  UNL     1       2.457  18.302 -38.575  1.00  0.00    -0.023 C 
HETATM   22  C1  UNL     1       3.322  19.562 -38.439  1.00  0.00     0.009 C 
HETATM   23  C3  UNL     1       1.060  18.762 -38.845  1.00  0.00     0.009 C 
ENDBRANCH  20  21
ENDBRANCH  19  20
ENDBRANCH   1  19
TORSDOF 3
ENDMDL
MODEL 3
REMARK VINA RESULT: -7.260923400      1.440      1.751
REMARK  3 active torsions:
REMARK  status: ('A' for Active; 'I' for Inactive)
REMARK    1  A    between atoms: C2_2  and  C4_4 
REMARK    2  A    between atoms: C4_4  and  C5_5 
REMARK    3  A    between atoms: C5_5  and  C6_6 
ROOT
HETATM    1  C6  UNL     1       3.920  17.570 -39.251  1.00  0.00     0.019 C 
HETATM    2  C7  UNL     1       5.155  16.786 -39.037  1.00  0.00     0.051 C 
HETATM    3  C8  UNL     1       5.039  15.337 -38.906  1.00  0.00     0.073 C 
HETATM    4  N1  UNL     1       4.550  14.556 -39.959  1.00  0.00    -0.314 N 
HETATM    5  S1  UNL     1       4.938  12.823 -39.736  1.00  0.00     0.040 SA
HETATM    6  C9  UNL     1       5.305  12.317 -41.396  1.00  0.00     0.236 A 
HETATM    7  N2  UNL     1       5.656  11.618 -42.369  1.00  0.00    -0.345 N 
ATOM      8  H2  UNL     1       5.958  10.659 -42.197  1.00  0.00     0.163 HD
HETATM    9  C10 UNL     1       5.652  12.129 -43.779  1.00  0.00     0.150 A 
HETATM   10  C11 UNL     1       4.761  11.231 -44.611  1.00  0.00     0.044 C 
HETATM   11  S2  UNL     1       5.103  13.899 -44.026  1.00  0.00    -0.075 SA
HETATM   12  C12 UNL     1       4.721  14.443 -42.394  1.00  0.00     0.152 A 
HETATM   13  N3  UNL     1       4.998  13.441 -41.936  1.00  0.00    -0.374 NA
HETATM   14  C13 UNL     1       4.319  15.220 -41.231  1.00  0.00     0.203 C 
HETATM   15  C14 UNL     1       2.833  15.425 -41.348  1.00  0.00     0.282 A 
HETATM   16  C15 UNL     1       2.488  16.846 -41.821  1.00  0.00     0.311 A 
HETATM   17  N4  UNL     1       2.203  16.357 -40.552  1.00  0.00     0.100 N 
HETATM   18  C16 UNL     1       2.658  16.745 -39.307  1.00  0.00     0.278 C 
ENDROOT
BRANCH   1  19
HETATM   19  C5  UNL     1       3.809  18.639 -38.184  1.00  0.00     0.007 C 
BRANCH  19  20
HETATM   20  C4  UNL     1       3.318  19.958 -38.682  1.00  0.00     0.004 C 
BRANCH  20  21
HETATM   21  C2  UNL     1       4.245  20.358 -39.835  1.00  0.00    -0.023 C 
HETATM   22  C1  UNL     1       5.084  21.518 -39.284  1.00  0.00     0.009 C 
HETATM   23  C3  UNL     1       3.482  20.891 -41.006  1.00  0.00     0.009 C 
ENDBRANCH  20  21
ENDBRANCH  19  20
ENDBRANCH   1  19
TORSDOF 3
ENDMDL
MODEL 4
REMARK VINA RESULT: -7.237827364      1.568      2.100
REMARK  3 active torsions:
REMARK  status: ('A' for Active; 'I' for Inactive)
REMARK    1  A    between atoms: C2_2  and  C4_4 
REMARK    2  A    between atoms: C4_4  and  C5_5 
REMARK    3  A    between atoms: C5_5  and  C6_6 
ROOT
HETATM    1  C6  UNL     1       4.461  16.843 -41.078  1.00  0.00     0.019 C 
HETATM    2  C7  UNL     1       5.497  16.274 -41.966  1.00  0.00     0.051 C 
HETATM    3  C8  UNL     1       5.860  14.871 -41.792  1.00  0.00     0.073 C 
HETATM    4  N1  UNL     1       4.921  13.854 -41.992  1.00  0.00    -0.314 N 
HETATM    5  S1  UNL     1       5.702  12.255 -42.178  1.00  0.00     0.040 SA
HETATM    6  C9  UNL     1       4.694  11.502 -43.428  1.00  0.00     0.236 A 
HETATM    7  N2  UNL     1       4.269  10.685 -44.271  1.00  0.00    -0.345 N 
ATOM      8  H2  UNL     1       4.790   9.820 -44.417  1.00  0.00     0.163 HD
HETATM    9  C10 UNL     1       3.026  10.921 -45.076  1.00  0.00     0.150 A 
HETATM   10  C11 UNL     1       2.064   9.781 -44.820  1.00  0.00     0.044 C 
HETATM   11  S2  UNL     1       2.127  12.533 -44.773  1.00  0.00    -0.075 SA
HETATM   12  C12 UNL     1       3.096  13.316 -43.526  1.00  0.00     0.152 A 
HETATM   13  N3  UNL     1       3.841  12.458 -43.489  1.00  0.00    -0.374 NA
HETATM   14  C13 UNL     1       3.627  14.237 -42.533  1.00  0.00     0.203 C 
HETATM   15  C14 UNL     1       2.658  14.229 -41.383  1.00  0.00     0.282 A 
HETATM   16  C15 UNL     1       1.770  15.483 -41.374  1.00  0.00     0.311 A 
HETATM   17  N4  UNL     1       2.734  15.205 -40.413  1.00  0.00     0.100 N 
HETATM   18  C16 UNL     1       3.896  15.871 -40.074  1.00  0.00     0.278 C 
ENDROOT
BRANCH   1  19
HETATM   19  C5  UNL     1       5.013  18.069 -40.379  1.00  0.00     0.007 C 
BRANCH  19  20
HETATM   20  C4  UNL     1       4.897  18.033 -38.891  1.00  0.00     0.004 C 
BRANCH  20  21
HETATM   21  C2  UNL     1       4.117  19.289 -38.487  1.00  0.00    -0.023 C 
HETATM   22  C1  UNL     1       2.720  18.783 -38.107  1.00  0.00     0.009 C 
HETATM   23  C3  UNL     1       3.940  20.230 -39.637  1.00  0.00     0.009 C 
ENDBRANCH  20  21
ENDBRANCH  19  20
ENDBRANCH   1  19
TORSDOF 3
ENDMDL
MODEL 5
REMARK VINA RESULT: -7.210531909      3.301      6.495
REMARK  3 active torsions:
REMARK  status: ('A' for Active; 'I' for Inactive)
REMARK    1  A    between atoms: C2_2  and  C4_4 
REMARK    2  A    between atoms: C4_4  and  C5_5 
REMARK    3  A    between atoms: C5_5  and  C6_6 
ROOT
HETATM    1  C6  UNL     1       4.907  14.734 -44.990  1.00  0.00     0.019 C 
HETATM    2  C7  UNL     1       4.746  13.419 -44.334  1.00  0.00     0.051 C 
HETATM    3  C8  UNL     1       5.380  13.215 -43.034  1.00  0.00     0.073 C 
HETATM    4  N1  UNL     1       5.008  13.980 -41.924  1.00  0.00    -0.314 N 
HETATM    5  S1  UNL     1       5.569  13.244 -40.392  1.00  0.00     0.040 SA
HETATM    6  C9  UNL     1       4.203  13.575 -39.310  1.00  0.00     0.236 A 
HETATM    7  N2  UNL     1       3.469  13.581 -38.300  1.00  0.00    -0.345 N 
ATOM      8  H2  UNL     1       3.776  13.075 -37.470  1.00  0.00     0.163 HD
HETATM    9  C10 UNL     1       2.153  14.301 -38.257  1.00  0.00     0.150 A 
HETATM   10  C11 UNL     1       2.192  15.301 -37.121  1.00  0.00     0.044 C 
HETATM   11  S2  UNL     1       1.638  15.196 -39.816  1.00  0.00    -0.075 SA
HETATM   12  C12 UNL     1       2.976  14.897 -40.923  1.00  0.00     0.152 A 
HETATM   13  N3  UNL     1       3.543  14.278 -40.158  1.00  0.00    -0.374 NA
HETATM   14  C13 UNL     1       3.864  14.864 -42.075  1.00  0.00     0.203 C 
HETATM   15  C14 UNL     1       4.411  16.257 -42.231  1.00  0.00     0.282 A 
HETATM   16  C15 UNL     1       3.728  17.014 -43.381  1.00  0.00     0.311 A 
HETATM   17  N4  UNL     1       5.059  16.615 -43.393  1.00  0.00     0.100 N 
HETATM   18  C16 UNL     1       5.732  15.726 -44.210  1.00  0.00     0.278 C 
ENDROOT
BRANCH   1  19
HETATM   19  C5  UNL     1       5.483  14.539 -46.378  1.00  0.00     0.007 C 
BRANCH  19  20
HETATM   20  C4  UNL     1       5.891  15.803 -47.059  1.00  0.00     0.004 C 
BRANCH  20  21
HETATM   21  C2  UNL     1       5.496  15.648 -48.531  1.00  0.00    -0.023 C 
HETATM   22  C1  UNL     1       6.664  16.253 -49.321  1.00  0.00     0.009 C 
HETATM   23  C3  UNL     1       4.280  16.451 -48.871  1.00  0.00     0.009 C 
ENDBRANCH  20  21
ENDBRANCH  19  20
ENDBRANCH   1  19
TORSDOF 3
ENDMDL
