MODEL 1
REMARK VINA RESULT: -5.881562995      0.000      0.000
REMARK  11 active torsions:
REMARK  status: ('A' for Active; 'I' for Inactive)
REMARK    1  A    between atoms: C2_2  and  C4_4 
REMARK    2  A    between atoms: C4_4  and  O2_6 
REMARK    3  A    between atoms: O2_6  and  C5_7 
REMARK    4  A    between atoms: C5_7  and  C6_8 
REMARK    5  A    between atoms: C22_24  and  O3_25 
REMARK    6  A    between atoms: C22_24  and  C23_27 
REMARK    7  A    between atoms: C23_27  and  C24_28 
REMARK    8  A    between atoms: C24_28  and  C25_29 
REMARK    9  A    between atoms: C25_29  and  O4_32 
REMARK   10  A    between atoms: C28_34  and  C30_36 
REMARK   11  A    between atoms: C30_36  and  O5_37 
ROOT
HETATM    1  C6  UNL     1      -5.319  10.702 -23.453  1.00  0.00    -0.012 C 
HETATM    2  C7  UNL     1      -5.853  10.488 -22.058  1.00  0.00     0.018 C 
HETATM    3  C8  UNL     1      -6.274   9.933 -24.381  1.00  0.00     0.013 C 
HETATM    4  C9  UNL     1      -7.528  10.711 -24.677  1.00  0.00     0.011 C 
HETATM    5  C10 UNL     1      -7.294  11.954 -25.425  1.00  0.00    -0.029 C 
HETATM    6  C11 UNL     1      -6.456  11.594 -26.654  1.00  0.00     0.016 C 
HETATM    7  C12 UNL     1      -6.378  12.781 -24.532  1.00  0.00     0.005 C 
HETATM    8  C13 UNL     1      -7.390  13.484 -23.656  1.00  0.00     0.007 C 
HETATM    9  C14 UNL     1      -8.375  13.939 -24.753  1.00  0.00     0.014 C 
HETATM   10  C15 UNL     1      -8.381  12.870 -25.783  1.00  0.00    -0.001 C 
HETATM   11  C16 UNL     1      -7.893  13.612 -27.047  1.00  0.00     0.013 C 
HETATM   12  C17 UNL     1      -8.774  14.787 -27.388  1.00  0.00     0.002 C 
HETATM   13  C18 UNL     1     -10.200  14.552 -27.095  1.00  0.00     0.012 C 
HETATM   14  C19 UNL     1     -10.458  13.050 -27.157  1.00  0.00    -0.016 C 
HETATM   15  C20 UNL     1     -11.957  12.990 -27.213  1.00  0.00     0.018 C 
HETATM   16  C21 UNL     1     -10.036  12.627 -28.564  1.00  0.00     0.018 C 
HETATM   17  C22 UNL     1      -9.773  12.267 -26.073  1.00  0.00     0.073 C 
HETATM   18  C28 UNL     1      -5.262  12.129 -23.849  1.00  0.00    -0.009 C 
HETATM   19  C29 UNL     1      -5.124  12.877 -22.486  1.00  0.00     0.018 C 
ENDROOT
BRANCH  17  20
HETATM   20  O3  UNL     1      -9.558  11.025 -26.746  1.00  0.00    -0.388 OA
ATOM     21  H3  UNL     1     -10.404  10.731 -27.063  1.00  0.00     0.210 HD
ENDBRANCH  17  20
BRANCH  17  22
HETATM   22  C23 UNL     1     -10.536  12.011 -24.859  1.00  0.00     0.042 C 
BRANCH  22  23
HETATM   23  C24 UNL     1     -11.093  10.728 -24.437  1.00  0.00     0.040 C 
BRANCH  23  24
HETATM   24  C25 UNL     1     -12.431  10.991 -23.638  1.00  0.00     0.051 C 
HETATM   25  C26 UNL     1     -12.826  12.433 -23.857  1.00  0.00     0.045 C 
HETATM   26  C27 UNL     1     -12.274  10.633 -22.202  1.00  0.00     0.045 C 
BRANCH  24  27
HETATM   27  O4  UNL     1     -13.454  10.211 -24.169  1.00  0.00    -0.391 OA
ATOM     28  H4  UNL     1     -13.805   9.642 -23.493  1.00  0.00     0.210 HD
ENDBRANCH  24  27
ENDBRANCH  23  24
ENDBRANCH  22  23
ENDBRANCH  17  22
BRANCH  18  29
HETATM   29  C30 UNL     1      -3.960  12.507 -24.556  1.00  0.00     0.174 C 
BRANCH  29  30
HETATM   30  O5  UNL     1      -3.170  13.407 -23.867  1.00  0.00    -0.400 OA
ATOM     31  H5  UNL     1      -2.244  13.194 -23.857  1.00  0.00     0.209 HD
ENDBRANCH  29  30
ENDBRANCH  18  29
BRANCH   1  32
HETATM   32  C5  UNL     1      -4.030   9.951 -23.622  1.00  0.00     0.189 C 
BRANCH  32  33
HETATM   33  O2  UNL     1      -3.772   8.823 -22.906  1.00  0.00    -0.317 OA
BRANCH  33  34
HETATM   34  C4  UNL     1      -3.310   7.579 -23.131  1.00  0.00     0.288 C 
HETATM   35  O1  UNL     1      -2.098   7.369 -23.288  1.00  0.00    -0.260 OA
BRANCH  34  36
HETATM   36  C2  UNL     1      -4.192   6.393 -23.206  1.00  0.00     0.004 C 
HETATM   37  C1  UNL     1      -5.437   6.473 -23.597  1.00  0.00     0.024 C 
HETATM   38  C3  UNL     1      -3.614   5.094 -22.820  1.00  0.00     0.054 C 
ENDBRANCH  34  36
ENDBRANCH  33  34
ENDBRANCH  32  33
ENDBRANCH   1  32
TORSDOF 11
ENDMDL
MODEL 2
REMARK VINA RESULT: -5.797237622      3.237      6.447
REMARK  11 active torsions:
REMARK  status: ('A' for Active; 'I' for Inactive)
REMARK    1  A    between atoms: C2_2  and  C4_4 
REMARK    2  A    between atoms: C4_4  and  O2_6 
REMARK    3  A    between atoms: O2_6  and  C5_7 
REMARK    4  A    between atoms: C5_7  and  C6_8 
REMARK    5  A    between atoms: C22_24  and  O3_25 
REMARK    6  A    between atoms: C22_24  and  C23_27 
REMARK    7  A    between atoms: C23_27  and  C24_28 
REMARK    8  A    between atoms: C24_28  and  C25_29 
REMARK    9  A    between atoms: C25_29  and  O4_32 
REMARK   10  A    between atoms: C28_34  and  C30_36 
REMARK   11  A    between atoms: C30_36  and  O5_37 
ROOT
HETATM    1  C6  UNL     1      -2.347  14.355 -25.748  1.00  0.00    -0.012 C 
HETATM    2  C7  UNL     1      -1.434  13.568 -24.841  1.00  0.00     0.018 C 
HETATM    3  C8  UNL     1      -3.049  13.309 -26.631  1.00  0.00     0.013 C 
HETATM    4  C9  UNL     1      -4.210  12.659 -25.928  1.00  0.00     0.011 C 
HETATM    5  C10 UNL     1      -5.304  13.585 -25.604  1.00  0.00    -0.029 C 
HETATM    6  C11 UNL     1      -5.668  14.327 -26.893  1.00  0.00     0.016 C 
HETATM    7  C12 UNL     1      -4.675  14.630 -24.693  1.00  0.00     0.005 C 
HETATM    8  C13 UNL     1      -4.825  13.963 -23.344  1.00  0.00     0.007 C 
HETATM    9  C14 UNL     1      -6.296  13.514 -23.466  1.00  0.00     0.014 C 
HETATM   10  C15 UNL     1      -6.511  13.154 -24.890  1.00  0.00    -0.001 C 
HETATM   11  C16 UNL     1      -7.619  14.138 -25.328  1.00  0.00     0.013 C 
HETATM   12  C17 UNL     1      -8.857  14.008 -24.477  1.00  0.00     0.002 C 
HETATM   13  C18 UNL     1      -9.133  12.621 -24.056  1.00  0.00     0.012 C 
HETATM   14  C19 UNL     1      -8.515  11.679 -25.084  1.00  0.00    -0.016 C 
HETATM   15  C20 UNL     1      -9.172  10.371 -24.747  1.00  0.00     0.018 C 
HETATM   16  C21 UNL     1      -9.157  12.062 -26.418  1.00  0.00     0.018 C 
HETATM   17  C22 UNL     1      -7.014  11.712 -25.118  1.00  0.00     0.073 C 
HETATM   18  C28 UNL     1      -3.352  15.162 -25.017  1.00  0.00    -0.009 C 
HETATM   19  C29 UNL     1      -2.670  15.425 -23.638  1.00  0.00     0.018 C 
ENDROOT
BRANCH  17  20
HETATM   20  O3  UNL     1      -6.778  11.401 -26.493  1.00  0.00    -0.388 OA
ATOM     21  H3  UNL     1      -7.583  11.029 -26.835  1.00  0.00     0.210 HD
ENDBRANCH  17  20
BRANCH  17  22
HETATM   22  C23 UNL     1      -6.311  10.737 -24.295  1.00  0.00     0.042 C 
BRANCH  22  23
HETATM   23  C24 UNL     1      -5.420   9.680 -24.769  1.00  0.00     0.040 C 
BRANCH  23  24
HETATM   24  C25 UNL     1      -4.565   9.151 -23.550  1.00  0.00     0.051 C 
HETATM   25  C26 UNL     1      -4.580   7.640 -23.594  1.00  0.00     0.045 C 
HETATM   26  C27 UNL     1      -5.065   9.710 -22.265  1.00  0.00     0.045 C 
BRANCH  24  27
HETATM   27  O4  UNL     1      -3.238   9.542 -23.705  1.00  0.00    -0.391 OA
ATOM     28  H4  UNL     1      -3.204  10.435 -24.027  1.00  0.00     0.210 HD
ENDBRANCH  24  27
ENDBRANCH  23  24
ENDBRANCH  22  23
ENDBRANCH  17  22
BRANCH  18  29
HETATM   29  C30 UNL     1      -3.510  16.578 -25.573  1.00  0.00     0.174 C 
BRANCH  29  30
HETATM   30  O5  UNL     1      -4.499  17.327 -24.966  1.00  0.00    -0.400 OA
ATOM     31  H5  UNL     1      -4.404  18.267 -25.070  1.00  0.00     0.209 HD
ENDBRANCH  29  30
ENDBRANCH  18  29
BRANCH   1  32
HETATM   32  C5  UNL     1      -1.530  15.123 -26.746  1.00  0.00     0.189 C 
BRANCH  32  33
HETATM   33  O2  UNL     1      -0.228  15.434 -26.502  1.00  0.00    -0.317 OA
BRANCH  33  34
HETATM   34  C4  UNL     1       0.495  16.516 -26.159  1.00  0.00     0.288 C 
HETATM   35  O1  UNL     1       1.392  16.943 -26.902  1.00  0.00    -0.260 OA
BRANCH  34  36
HETATM   36  C2  UNL     1       0.282  17.263 -24.900  1.00  0.00     0.004 C 
HETATM   37  C1  UNL     1      -0.375  18.393 -24.862  1.00  0.00     0.024 C 
HETATM   38  C3  UNL     1       0.841  16.685 -23.666  1.00  0.00     0.054 C 
ENDBRANCH  34  36
ENDBRANCH  33  34
ENDBRANCH  32  33
ENDBRANCH   1  32
TORSDOF 11
ENDMDL
MODEL 3
REMARK VINA RESULT: -5.667498526      1.975      7.253
REMARK  11 active torsions:
REMARK  status: ('A' for Active; 'I' for Inactive)
REMARK    1  A    between atoms: C2_2  and  C4_4 
REMARK    2  A    between atoms: C4_4  and  O2_6 
REMARK    3  A    between atoms: O2_6  and  C5_7 
REMARK    4  A    between atoms: C5_7  and  C6_8 
REMARK    5  A    between atoms: C22_24  and  O3_25 
REMARK    6  A    between atoms: C22_24  and  C23_27 
REMARK    7  A    between atoms: C23_27  and  C24_28 
REMARK    8  A    between atoms: C24_28  and  C25_29 
REMARK    9  A    between atoms: C25_29  and  O4_32 
REMARK   10  A    between atoms: C28_34  and  C30_36 
REMARK   11  A    between atoms: C30_36  and  O5_37 
ROOT
HETATM    1  C6  UNL     1     -10.181  12.348 -25.168  1.00  0.00    -0.012 C 
HETATM    2  C7  UNL     1     -10.190  10.882 -24.810  1.00  0.00     0.018 C 
HETATM    3  C8  UNL     1      -9.388  13.039 -24.045  1.00  0.00     0.013 C 
HETATM    4  C9  UNL     1      -7.901  12.920 -24.244  1.00  0.00     0.011 C 
HETATM    5  C10 UNL     1      -7.406  13.603 -25.447  1.00  0.00    -0.029 C 
HETATM    6  C11 UNL     1      -7.936  15.038 -25.407  1.00  0.00     0.016 C 
HETATM    7  C12 UNL     1      -8.132  12.930 -26.605  1.00  0.00     0.005 C 
HETATM    8  C13 UNL     1      -7.215  11.759 -26.877  1.00  0.00     0.007 C 
HETATM    9  C14 UNL     1      -5.865  12.507 -26.857  1.00  0.00     0.014 C 
HETATM   10  C15 UNL     1      -5.992  13.578 -25.837  1.00  0.00    -0.001 C 
HETATM   11  C16 UNL     1      -5.772  14.865 -26.663  1.00  0.00     0.013 C 
HETATM   12  C17 UNL     1      -4.442  14.859 -27.374  1.00  0.00     0.002 C 
HETATM   13  C18 UNL     1      -3.369  14.209 -26.598  1.00  0.00     0.012 C 
HETATM   14  C19 UNL     1      -3.719  14.317 -25.117  1.00  0.00    -0.016 C 
HETATM   15  C20 UNL     1      -2.415  13.968 -24.460  1.00  0.00     0.018 C 
HETATM   16  C21 UNL     1      -3.860  15.815 -24.846  1.00  0.00     0.018 C 
HETATM   17  C22 UNL     1      -4.931  13.525 -24.716  1.00  0.00     0.073 C 
HETATM   18  C28 UNL     1      -9.558  12.630 -26.481  1.00  0.00    -0.009 C 
HETATM   19  C29 UNL     1      -9.765  11.301 -27.273  1.00  0.00     0.018 C 
ENDROOT
BRANCH  17  20
HETATM   20  O3  UNL     1      -5.421  14.328 -23.640  1.00  0.00    -0.388 OA
ATOM     21  H3  UNL     1      -5.160  15.223 -23.820  1.00  0.00     0.210 HD
ENDBRANCH  17  20
BRANCH  17  22
HETATM   22  C23 UNL     1      -4.705  12.174 -24.222  1.00  0.00     0.042 C 
BRANCH  22  23
HETATM   23  C24 UNL     1      -4.883  11.710 -22.848  1.00  0.00     0.040 C 
BRANCH  23  24
HETATM   24  C25 UNL     1      -5.058  10.139 -22.859  1.00  0.00     0.051 C 
HETATM   25  C26 UNL     1      -5.914   9.776 -24.050  1.00  0.00     0.045 C 
HETATM   26  C27 UNL     1      -5.608   9.655 -21.564  1.00  0.00     0.045 C 
BRANCH  24  27
HETATM   27  O4  UNL     1      -3.820   9.533 -23.057  1.00  0.00    -0.391 OA
ATOM     28  H4  UNL     1      -3.615   9.521 -23.985  1.00  0.00     0.210 HD
ENDBRANCH  24  27
ENDBRANCH  23  24
ENDBRANCH  22  23
ENDBRANCH  17  22
BRANCH  18  29
HETATM   29  C30 UNL     1     -10.349  13.633 -27.323  1.00  0.00     0.174 C 
BRANCH  29  30
HETATM   30  O5  UNL     1      -9.656  14.157 -28.397  1.00  0.00    -0.400 OA
ATOM     31  H5  UNL     1     -10.124  14.825 -28.883  1.00  0.00     0.209 HD
ENDBRANCH  29  30
ENDBRANCH  18  29
BRANCH   1  32
HETATM   32  C5  UNL     1     -11.558  12.920 -24.990  1.00  0.00     0.189 C 
BRANCH  32  33
HETATM   33  O2  UNL     1     -12.023  13.269 -23.760  1.00  0.00    -0.317 OA
BRANCH  33  34
HETATM   34  C4  UNL     1     -13.169  13.174 -23.059  1.00  0.00     0.288 C 
HETATM   35  O1  UNL     1     -14.032  14.061 -23.128  1.00  0.00    -0.260 OA
BRANCH  34  36
HETATM   36  C2  UNL     1     -13.479  12.030 -22.173  1.00  0.00     0.004 C 
HETATM   37  C1  UNL     1     -12.716  10.970 -22.109  1.00  0.00     0.024 C 
HETATM   38  C3  UNL     1     -14.697  12.122 -21.350  1.00  0.00     0.054 C 
ENDBRANCH  34  36
ENDBRANCH  33  34
ENDBRANCH  32  33
ENDBRANCH   1  32
TORSDOF 11
ENDMDL
MODEL 4
REMARK VINA RESULT: -5.558059984      1.557      2.066
REMARK  11 active torsions:
REMARK  status: ('A' for Active; 'I' for Inactive)
REMARK    1  A    between atoms: C2_2  and  C4_4 
REMARK    2  A    between atoms: C4_4  and  O2_6 
REMARK    3  A    between atoms: O2_6  and  C5_7 
REMARK    4  A    between atoms: C5_7  and  C6_8 
REMARK    5  A    between atoms: C22_24  and  O3_25 
REMARK    6  A    between atoms: C22_24  and  C23_27 
REMARK    7  A    between atoms: C23_27  and  C24_28 
REMARK    8  A    between atoms: C24_28  and  C25_29 
REMARK    9  A    between atoms: C25_29  and  O4_32 
REMARK   10  A    between atoms: C28_34  and  C30_36 
REMARK   11  A    between atoms: C30_36  and  O5_37 
ROOT
HETATM    1  C6  UNL     1      -5.837  11.983 -24.576  1.00  0.00    -0.012 C 
HETATM    2  C7  UNL     1      -5.911  12.175 -23.081  1.00  0.00     0.018 C 
HETATM    3  C8  UNL     1      -6.869  10.890 -24.901  1.00  0.00     0.013 C 
HETATM    4  C9  UNL     1      -8.269  11.437 -24.981  1.00  0.00     0.011 C 
HETATM    5  C10 UNL     1      -8.470  12.397 -26.074  1.00  0.00    -0.029 C 
HETATM    6  C11 UNL     1      -7.965  11.737 -27.359  1.00  0.00     0.016 C 
HETATM    7  C12 UNL     1      -7.495  13.531 -25.785  1.00  0.00     0.005 C 
HETATM    8  C13 UNL     1      -8.323  14.393 -24.859  1.00  0.00     0.007 C 
HETATM    9  C14 UNL     1      -9.640  14.404 -25.662  1.00  0.00     0.014 C 
HETATM   10  C15 UNL     1      -9.755  13.068 -26.302  1.00  0.00    -0.001 C 
HETATM   11  C16 UNL     1      -9.776  13.412 -27.808  1.00  0.00     0.013 C 
HETATM   12  C17 UNL     1     -10.904  14.350 -28.157  1.00  0.00     0.002 C 
HETATM   13  C18 UNL     1     -12.129  14.108 -27.370  1.00  0.00     0.012 C 
HETATM   14  C19 UNL     1     -12.134  12.647 -26.932  1.00  0.00    -0.016 C 
HETATM   15  C20 UNL     1     -13.555  12.457 -26.486  1.00  0.00     0.018 C 
HETATM   16  C21 UNL     1     -12.059  11.839 -28.228  1.00  0.00     0.018 C 
HETATM   17  C22 UNL     1     -11.048  12.299 -25.954  1.00  0.00     0.073 C 
HETATM   18  C28 UNL     1      -6.137  13.213 -25.344  1.00  0.00    -0.009 C 
HETATM   19  C29 UNL     1      -5.751  14.359 -24.358  1.00  0.00     0.018 C 
ENDROOT
BRANCH  17  20
HETATM   20  O3  UNL     1     -10.823  10.929 -26.293  1.00  0.00    -0.388 OA
ATOM     21  H3  UNL     1     -11.675  10.514 -26.352  1.00  0.00     0.210 HD
ENDBRANCH  17  20
BRANCH  17  22
HETATM   22  C23 UNL     1     -11.382  12.378 -24.538  1.00  0.00     0.042 C 
BRANCH  22  23
HETATM   23  C24 UNL     1     -11.549  11.253 -23.621  1.00  0.00     0.040 C 
BRANCH  23  24
HETATM   24  C25 UNL     1     -12.881  11.462 -22.797  1.00  0.00     0.051 C 
HETATM   25  C26 UNL     1     -13.925  10.523 -23.356  1.00  0.00     0.045 C 
HETATM   26  C27 UNL     1     -13.300  12.890 -22.813  1.00  0.00     0.045 C 
BRANCH  24  27
HETATM   27  O4  UNL     1     -12.675  11.087 -21.472  1.00  0.00    -0.391 OA
ATOM     28  H4  UNL     1     -11.928  11.557 -21.120  1.00  0.00     0.210 HD
ENDBRANCH  24  27
ENDBRANCH  23  24
ENDBRANCH  22  23
ENDBRANCH  17  22
BRANCH  18  29
HETATM   29  C30 UNL     1      -5.172  13.451 -26.506  1.00  0.00     0.174 C 
BRANCH  29  30
HETATM   30  O5  UNL     1      -5.525  14.490 -27.345  1.00  0.00    -0.400 OA
ATOM     31  H5  UNL     1      -6.349  14.367 -27.803  1.00  0.00     0.209 HD
ENDBRANCH  29  30
ENDBRANCH  18  29
BRANCH   1  32
HETATM   32  C5  UNL     1      -4.539  11.318 -24.936  1.00  0.00     0.189 C 
BRANCH  32  33
HETATM   33  O2  UNL     1      -3.807  10.649 -24.005  1.00  0.00    -0.317 OA
BRANCH  33  34
HETATM   34  C4  UNL     1      -3.576   9.374 -23.641  1.00  0.00     0.288 C 
HETATM   35  O1  UNL     1      -2.429   8.904 -23.664  1.00  0.00    -0.260 OA
BRANCH  34  36
HETATM   36  C2  UNL     1      -4.648   8.455 -23.197  1.00  0.00     0.004 C 
HETATM   37  C1  UNL     1      -5.090   7.483 -23.952  1.00  0.00     0.024 C 
HETATM   38  C3  UNL     1      -5.213   8.673 -21.855  1.00  0.00     0.054 C 
ENDBRANCH  34  36
ENDBRANCH  33  34
ENDBRANCH  32  33
ENDBRANCH   1  32
TORSDOF 11
ENDMDL
MODEL 5
REMARK VINA RESULT: -5.529441069      3.077      6.396
REMARK  11 active torsions:
REMARK  status: ('A' for Active; 'I' for Inactive)
REMARK    1  A    between atoms: C2_2  and  C4_4 
REMARK    2  A    between atoms: C4_4  and  O2_6 
REMARK    3  A    between atoms: O2_6  and  C5_7 
REMARK    4  A    between atoms: C5_7  and  C6_8 
REMARK    5  A    between atoms: C22_24  and  O3_25 
REMARK    6  A    between atoms: C22_24  and  C23_27 
REMARK    7  A    between atoms: C23_27  and  C24_28 
REMARK    8  A    between atoms: C24_28  and  C25_29 
REMARK    9  A    between atoms: C25_29  and  O4_32 
REMARK   10  A    between atoms: C28_34  and  C30_36 
REMARK   11  A    between atoms: C30_36  and  O5_37 
ROOT
HETATM    1  C6  UNL     1      -2.287  14.388 -25.716  1.00  0.00    -0.012 C 
HETATM    2  C7  UNL     1      -1.387  13.572 -24.821  1.00  0.00     0.018 C 
HETATM    3  C8  UNL     1      -2.999  13.368 -26.622  1.00  0.00     0.013 C 
HETATM    4  C9  UNL     1      -4.170  12.718 -25.935  1.00  0.00     0.011 C 
HETATM    5  C10 UNL     1      -5.253  13.651 -25.598  1.00  0.00    -0.029 C 
HETATM    6  C11 UNL     1      -5.604  14.423 -26.872  1.00  0.00     0.016 C 
HETATM    7  C12 UNL     1      -4.615  14.671 -24.664  1.00  0.00     0.005 C 
HETATM    8  C13 UNL     1      -4.778  13.980 -23.329  1.00  0.00     0.007 C 
HETATM    9  C14 UNL     1      -6.254  13.551 -23.464  1.00  0.00     0.014 C 
HETATM   10  C15 UNL     1      -6.468  13.222 -24.896  1.00  0.00    -0.001 C 
HETATM   11  C16 UNL     1      -7.562  14.227 -25.319  1.00  0.00     0.013 C 
HETATM   12  C17 UNL     1      -8.805  14.096 -24.474  1.00  0.00     0.002 C 
HETATM   13  C18 UNL     1      -9.100  12.705 -24.081  1.00  0.00     0.012 C 
HETATM   14  C19 UNL     1      -8.489  11.775 -25.125  1.00  0.00    -0.016 C 
HETATM   15  C20 UNL     1      -9.163  10.469 -24.816  1.00  0.00     0.018 C 
HETATM   16  C21 UNL     1      -9.122  12.192 -26.454  1.00  0.00     0.018 C 
HETATM   17  C22 UNL     1      -6.988  11.791 -25.154  1.00  0.00     0.073 C 
HETATM   18  C28 UNL     1      -3.284  15.193 -24.973  1.00  0.00    -0.009 C 
HETATM   19  C29 UNL     1      -2.604  15.420 -23.587  1.00  0.00     0.018 C 
ENDROOT
BRANCH  17  20
HETATM   20  O3  UNL     1      -6.751  11.503 -26.534  1.00  0.00    -0.388 OA
ATOM     21  H3  UNL     1      -7.046  10.613 -26.686  1.00  0.00     0.210 HD
ENDBRANCH  17  20
BRANCH  17  22
HETATM   22  C23 UNL     1      -6.300  10.791 -24.348  1.00  0.00     0.042 C 
BRANCH  22  23
HETATM   23  C24 UNL     1      -5.383   9.763 -24.834  1.00  0.00     0.040 C 
BRANCH  23  24
HETATM   24  C25 UNL     1      -4.562   9.193 -23.610  1.00  0.00     0.051 C 
HETATM   25  C26 UNL     1      -4.576   7.684 -23.703  1.00  0.00     0.045 C 
HETATM   26  C27 UNL     1      -5.096   9.711 -22.321  1.00  0.00     0.045 C 
BRANCH  24  27
HETATM   27  O4  UNL     1      -3.231   9.587 -23.716  1.00  0.00    -0.391 OA
ATOM     28  H4  UNL     1      -2.741   8.930 -24.196  1.00  0.00     0.210 HD
ENDBRANCH  24  27
ENDBRANCH  23  24
ENDBRANCH  22  23
ENDBRANCH  17  22
BRANCH  18  29
HETATM   29  C30 UNL     1      -3.423  16.621 -25.502  1.00  0.00     0.174 C 
BRANCH  29  30
HETATM   30  O5  UNL     1      -4.486  17.329 -24.975  1.00  0.00    -0.400 OA
ATOM     31  H5  UNL     1      -4.522  18.242 -25.236  1.00  0.00     0.209 HD
ENDBRANCH  29  30
ENDBRANCH  18  29
BRANCH   1  32
HETATM   32  C5  UNL     1      -1.457  15.165 -26.696  1.00  0.00     0.189 C 
BRANCH  32  33
HETATM   33  O2  UNL     1      -1.664  15.060 -28.037  1.00  0.00    -0.317 OA
BRANCH  33  34
HETATM   34  C4  UNL     1      -2.051  15.852 -29.054  1.00  0.00     0.288 C 
HETATM   35  O1  UNL     1      -1.221  16.499 -29.708  1.00  0.00    -0.260 OA
BRANCH  34  36
HETATM   36  C2  UNL     1      -3.465  16.007 -29.461  1.00  0.00     0.004 C 
HETATM   37  C1  UNL     1      -4.168  17.066 -29.154  1.00  0.00     0.024 C 
HETATM   38  C3  UNL     1      -4.070  14.912 -30.239  1.00  0.00     0.054 C 
ENDBRANCH  34  36
ENDBRANCH  33  34
ENDBRANCH  32  33
ENDBRANCH   1  32
TORSDOF 11
ENDMDL
