MODEL 1
REMARK VINA RESULT: -6.179026782      0.000      0.000
REMARK  11 active torsions:
REMARK  status: ('A' for Active; 'I' for Inactive)
REMARK    1  A    between atoms: C2_2  and  C3_3 
REMARK    2  A    between atoms: C3_3  and  C5_5 
REMARK    3  A    between atoms: C5_5  and  C6_6 
REMARK    4  A    between atoms: C7_7  and  C8_8 
REMARK    5  A    between atoms: C8_8  and  O1_9 
REMARK    6  A    between atoms: C8_8  and  C9_11 
REMARK    7  A    between atoms: C10_12  and  C11_13 
REMARK    8  A    between atoms: N1_19  and  O2_21 
REMARK    9  A    between atoms: O2_21  and  C17_22 
REMARK   10  A    between atoms: C17_22  and  N2_23 
REMARK   11  A    between atoms: C26_34  and  O3_35 
ROOT
HETATM    1  C11 UNL     1      -6.902  12.873 -25.207  1.00  0.00     0.025 C 
HETATM    2  C12 UNL     1      -6.314  12.027 -24.127  1.00  0.00    -0.032 C 
HETATM    3  C13 UNL     1      -5.919  12.919 -22.942  1.00  0.00     0.016 C 
HETATM    4  C14 UNL     1      -4.983  11.467 -24.644  1.00  0.00     0.016 C 
HETATM    5  C15 UNL     1      -4.327  10.519 -23.728  1.00  0.00     0.055 C 
HETATM    6  C16 UNL     1      -5.195   9.757 -22.840  1.00  0.00     0.010 C 
HETATM    7  N1  UNL     1      -4.809   8.643 -22.341  1.00  0.00    -0.273 N 
ATOM      8  H1  UNL     1      -5.449   8.144 -21.724  1.00  0.00     0.193 HD
HETATM    9  C21 UNL     1      -6.571  10.236 -22.469  1.00  0.00     0.060 C 
HETATM   10  C22 UNL     1      -7.130  10.861 -23.713  1.00  0.00     0.000 C 
HETATM   11  C23 UNL     1      -8.612  11.147 -23.623  1.00  0.00     0.011 C 
HETATM   12  C24 UNL     1      -8.992  11.503 -25.067  1.00  0.00    -0.003 C 
HETATM   13  C25 UNL     1     -10.449  11.437 -25.294  1.00  0.00     0.037 C 
HETATM   14  C26 UNL     1     -10.731  11.681 -26.753  1.00  0.00     0.118 C 
HETATM   15  C27 UNL     1     -10.175  13.032 -27.111  1.00  0.00     0.032 C 
HETATM   16  C28 UNL     1      -8.700  13.139 -26.840  1.00  0.00     0.012 C 
HETATM   17  C29 UNL     1      -8.374  12.819 -25.372  1.00  0.00    -0.033 C 
HETATM   18  C30 UNL     1      -9.059  13.940 -24.586  1.00  0.00     0.016 C 
ENDROOT
BRANCH   1  19
HETATM   19  C10 UNL     1      -6.526  14.302 -25.011  1.00  0.00    -0.022 C 
HETATM   20  C9  UNL     1      -5.694  14.943 -25.827  1.00  0.00     0.005 C 
BRANCH  20  21
HETATM   21  C8  UNL     1      -5.307  16.351 -25.655  1.00  0.00     0.163 C 
BRANCH  21  22
HETATM   22  C7  UNL     1      -4.010  16.495 -24.913  1.00  0.00     0.004 C 
HETATM   23  C6  UNL     1      -3.406  15.493 -24.327  1.00  0.00    -0.027 C 
BRANCH  23  24
HETATM   24  C5  UNL     1      -2.164  15.456 -23.576  1.00  0.00     0.031 C 
BRANCH  24  25
HETATM   25  C3  UNL     1      -1.186  14.385 -23.911  1.00  0.00    -0.016 C 
HETATM   26  C4  UNL     1      -1.772  13.542 -25.037  1.00  0.00     0.010 C 
BRANCH  25  27
HETATM   27  C2  UNL     1       0.140  14.989 -24.362  1.00  0.00    -0.000 C 
HETATM   28  C1  UNL     1       0.308  16.396 -23.901  1.00  0.00     0.005 C 
ENDBRANCH  25  27
ENDBRANCH  24  25
ENDBRANCH  23  24
ENDBRANCH  21  22
BRANCH  21  29
HETATM   29  O1  UNL     1      -6.258  17.072 -24.927  1.00  0.00    -0.388 OA
ATOM     30  H1  UNL     1      -6.278  17.944 -25.304  1.00  0.00     0.210 HD
ENDBRANCH  21  29
ENDBRANCH  20  21
ENDBRANCH   1  19
BRANCH  14  31
HETATM   31  O3  UNL     1     -10.020  10.726 -27.486  1.00  0.00    -0.396 OA
ATOM     32  H3  UNL     1     -10.452  10.628 -28.326  1.00  0.00     0.210 HD
ENDBRANCH  14  31
BRANCH   7  33
HETATM   33  O2  UNL     1      -3.581   8.085 -22.592  1.00  0.00    -0.261 OA
BRANCH  33  34
HETATM   34  C17 UNL     1      -3.455   6.874 -23.350  1.00  0.00     0.332 C 
BRANCH  34  35
HETATM   35  N2  UNL     1      -2.983   5.791 -22.531  1.00  0.00    -0.328 N 
HETATM   36  C18 UNL     1      -2.028   5.837 -21.593  1.00  0.00     0.111 A 
HETATM   37  C19 UNL     1      -1.882   4.575 -21.041  1.00  0.00     0.106 A 
HETATM   38  N3  UNL     1      -2.756   3.777 -21.657  1.00  0.00    -0.361 N 
HETATM   39  C20 UNL     1      -3.424   4.526 -22.564  1.00  0.00     0.184 A 
ATOM     40  H3  UNL     1      -2.895   2.783 -21.476  1.00  0.00     0.166 HD
ENDBRANCH  34  35
ENDBRANCH  33  34
ENDBRANCH   7  33
TORSDOF 11
ENDMDL
MODEL 2
REMARK VINA RESULT: -6.152666885      0.970      1.383
REMARK  11 active torsions:
REMARK  status: ('A' for Active; 'I' for Inactive)
REMARK    1  A    between atoms: C2_2  and  C3_3 
REMARK    2  A    between atoms: C3_3  and  C5_5 
REMARK    3  A    between atoms: C5_5  and  C6_6 
REMARK    4  A    between atoms: C7_7  and  C8_8 
REMARK    5  A    between atoms: C8_8  and  O1_9 
REMARK    6  A    between atoms: C8_8  and  C9_11 
REMARK    7  A    between atoms: C10_12  and  C11_13 
REMARK    8  A    between atoms: N1_19  and  O2_21 
REMARK    9  A    between atoms: O2_21  and  C17_22 
REMARK   10  A    between atoms: C17_22  and  N2_23 
REMARK   11  A    between atoms: C26_34  and  O3_35 
ROOT
HETATM    1  C11 UNL     1      -6.732  12.896 -25.295  1.00  0.00     0.025 C 
HETATM    2  C12 UNL     1      -6.189  12.065 -24.182  1.00  0.00    -0.032 C 
HETATM    3  C13 UNL     1      -5.772  12.979 -23.022  1.00  0.00     0.016 C 
HETATM    4  C14 UNL     1      -4.875  11.436 -24.664  1.00  0.00     0.016 C 
HETATM    5  C15 UNL     1      -4.266  10.495 -23.711  1.00  0.00     0.055 C 
HETATM    6  C16 UNL     1      -5.174   9.796 -22.808  1.00  0.00     0.010 C 
HETATM    7  N1  UNL     1      -4.837   8.685 -22.269  1.00  0.00    -0.273 N 
ATOM      8  H1  UNL     1      -5.502   8.232 -21.644  1.00  0.00     0.193 HD
HETATM    9  C21 UNL     1      -6.533  10.340 -22.469  1.00  0.00     0.060 C 
HETATM   10  C22 UNL     1      -7.054  10.945 -23.739  1.00  0.00     0.000 C 
HETATM   11  C23 UNL     1      -8.525  11.291 -23.677  1.00  0.00     0.011 C 
HETATM   12  C24 UNL     1      -8.875  11.614 -25.136  1.00  0.00    -0.003 C 
HETATM   13  C25 UNL     1     -10.331  11.597 -25.378  1.00  0.00     0.037 C 
HETATM   14  C26 UNL     1     -10.589  11.804 -26.847  1.00  0.00     0.118 C 
HETATM   15  C27 UNL     1      -9.976  13.119 -27.242  1.00  0.00     0.032 C 
HETATM   16  C28 UNL     1      -8.501  13.178 -26.957  1.00  0.00     0.012 C 
HETATM   17  C29 UNL     1      -8.203  12.894 -25.476  1.00  0.00    -0.033 C 
HETATM   18  C30 UNL     1      -8.853  14.066 -24.734  1.00  0.00     0.016 C 
ENDROOT
BRANCH   1  19
HETATM   19  C10 UNL     1      -6.303  14.316 -25.141  1.00  0.00    -0.022 C 
HETATM   20  C9  UNL     1      -5.546  14.938 -26.041  1.00  0.00     0.005 C 
BRANCH  20  21
HETATM   21  C8  UNL     1      -5.109  16.335 -25.912  1.00  0.00     0.163 C 
BRANCH  21  22
HETATM   22  C7  UNL     1      -3.683  16.442 -25.454  1.00  0.00     0.004 C 
HETATM   23  C6  UNL     1      -3.343  16.569 -24.197  1.00  0.00    -0.027 C 
BRANCH  23  24
HETATM   24  C5  UNL     1      -2.030  16.685 -23.588  1.00  0.00     0.031 C 
BRANCH  24  25
HETATM   25  C3  UNL     1      -1.425  18.042 -23.502  1.00  0.00    -0.016 C 
HETATM   26  C4  UNL     1      -1.055  18.305 -22.048  1.00  0.00     0.010 C 
BRANCH  25  27
HETATM   27  C2  UNL     1      -0.175  18.130 -24.371  1.00  0.00    -0.000 C 
HETATM   28  C1  UNL     1      -0.469  18.650 -25.736  1.00  0.00     0.005 C 
ENDBRANCH  25  27
ENDBRANCH  24  25
ENDBRANCH  23  24
ENDBRANCH  21  22
BRANCH  21  29
HETATM   29  O1  UNL     1      -5.874  17.041 -24.980  1.00  0.00    -0.388 OA
ATOM     30  H1  UNL     1      -6.199  17.812 -25.431  1.00  0.00     0.210 HD
ENDBRANCH  21  29
ENDBRANCH  20  21
ENDBRANCH   1  19
BRANCH  14  31
HETATM   31  O3  UNL     1      -9.907  10.798 -27.540  1.00  0.00    -0.396 OA
ATOM     32  H3  UNL     1     -10.358   9.978 -27.373  1.00  0.00     0.210 HD
ENDBRANCH  14  31
BRANCH   7  33
HETATM   33  O2  UNL     1      -3.628   8.071 -22.488  1.00  0.00    -0.261 OA
BRANCH  33  34
HETATM   34  C17 UNL     1      -3.531   6.882 -23.281  1.00  0.00     0.332 C 
BRANCH  34  35
HETATM   35  N2  UNL     1      -3.022   5.780 -22.513  1.00  0.00    -0.328 N 
HETATM   36  C18 UNL     1      -2.046   5.810 -21.595  1.00  0.00     0.111 A 
HETATM   37  C19 UNL     1      -1.866   4.532 -21.092  1.00  0.00     0.106 A 
HETATM   38  N3  UNL     1      -2.740   3.741 -21.716  1.00  0.00    -0.361 N 
HETATM   39  C20 UNL     1      -3.441   4.508 -22.580  1.00  0.00     0.184 A 
ATOM     40  H3  UNL     1      -2.857   2.738 -21.567  1.00  0.00     0.166 HD
ENDBRANCH  34  35
ENDBRANCH  33  34
ENDBRANCH   7  33
TORSDOF 11
ENDMDL
MODEL 3
REMARK VINA RESULT: -5.833601106      0.949      1.213
REMARK  11 active torsions:
REMARK  status: ('A' for Active; 'I' for Inactive)
REMARK    1  A    between atoms: C2_2  and  C3_3 
REMARK    2  A    between atoms: C3_3  and  C5_5 
REMARK    3  A    between atoms: C5_5  and  C6_6 
REMARK    4  A    between atoms: C7_7  and  C8_8 
REMARK    5  A    between atoms: C8_8  and  O1_9 
REMARK    6  A    between atoms: C8_8  and  C9_11 
REMARK    7  A    between atoms: C10_12  and  C11_13 
REMARK    8  A    between atoms: N1_19  and  O2_21 
REMARK    9  A    between atoms: O2_21  and  C17_22 
REMARK   10  A    between atoms: C17_22  and  N2_23 
REMARK   11  A    between atoms: C26_34  and  O3_35 
ROOT
HETATM    1  C11 UNL     1      -7.768  12.914 -25.529  1.00  0.00     0.025 C 
HETATM    2  C12 UNL     1      -6.943  12.046 -24.638  1.00  0.00    -0.032 C 
HETATM    3  C13 UNL     1      -6.227  12.920 -23.599  1.00  0.00     0.016 C 
HETATM    4  C14 UNL     1      -5.810  11.450 -25.484  1.00  0.00     0.016 C 
HETATM    5  C15 UNL     1      -4.966  10.479 -24.769  1.00  0.00     0.055 C 
HETATM    6  C16 UNL     1      -5.593   9.738 -23.683  1.00  0.00     0.010 C 
HETATM    7  N1  UNL     1      -5.123   8.610 -23.300  1.00  0.00    -0.273 N 
ATOM      8  H1  UNL     1      -5.594   8.126 -22.536  1.00  0.00     0.193 HD
HETATM    9  C21 UNL     1      -6.810  10.254 -22.966  1.00  0.00     0.060 C 
HETATM   10  C22 UNL     1      -7.656  10.901 -24.022  1.00  0.00     0.000 C 
HETATM   11  C23 UNL     1      -9.054  11.229 -23.548  1.00  0.00     0.011 C 
HETATM   12  C24 UNL     1      -9.788  11.604 -24.844  1.00  0.00    -0.003 C 
HETATM   13  C25 UNL     1     -11.255  11.581 -24.681  1.00  0.00     0.037 C 
HETATM   14  C26 UNL     1     -11.902  11.841 -26.016  1.00  0.00     0.118 C 
HETATM   15  C27 UNL     1     -11.419  13.177 -26.510  1.00  0.00     0.032 C 
HETATM   16  C28 UNL     1      -9.922  13.240 -26.635  1.00  0.00     0.012 C 
HETATM   17  C29 UNL     1      -9.233  12.903 -25.303  1.00  0.00    -0.033 C 
HETATM   18  C30 UNL     1      -9.656  14.039 -24.367  1.00  0.00     0.016 C 
ENDROOT
BRANCH   1  19
HETATM   19  C10 UNL     1      -7.313  14.331 -25.441  1.00  0.00    -0.022 C 
HETATM   20  C9  UNL     1      -6.714  14.955 -26.451  1.00  0.00     0.005 C 
BRANCH  20  21
HETATM   21  C8  UNL     1      -6.256  16.350 -26.390  1.00  0.00     0.163 C 
BRANCH  21  22
HETATM   22  C7  UNL     1      -5.295  16.581 -25.260  1.00  0.00     0.004 C 
HETATM   23  C6  UNL     1      -4.112  16.025 -25.202  1.00  0.00    -0.027 C 
BRANCH  23  24
HETATM   24  C5  UNL     1      -3.072  16.137 -24.195  1.00  0.00     0.031 C 
BRANCH  24  25
HETATM   25  C3  UNL     1      -2.323  14.902 -23.835  1.00  0.00    -0.016 C 
HETATM   26  C4  UNL     1      -2.841  13.763 -24.704  1.00  0.00     0.010 C 
BRANCH  25  27
HETATM   27  C2  UNL     1      -0.828  15.089 -24.076  1.00  0.00    -0.000 C 
HETATM   28  C1  UNL     1      -0.378  16.479 -23.788  1.00  0.00     0.005 C 
ENDBRANCH  25  27
ENDBRANCH  24  25
ENDBRANCH  23  24
ENDBRANCH  21  22
BRANCH  21  29
HETATM   29  O1  UNL     1      -7.313  17.243 -26.194  1.00  0.00    -0.388 OA
ATOM     30  H1  UNL     1      -7.869  16.856 -25.527  1.00  0.00     0.210 HD
ENDBRANCH  21  29
ENDBRANCH  20  21
ENDBRANCH   1  19
BRANCH  14  31
HETATM   31  O3  UNL     1     -11.435  10.869 -26.908  1.00  0.00    -0.396 OA
ATOM     32  H3  UNL     1     -11.232  11.306 -27.727  1.00  0.00     0.210 HD
ENDBRANCH  14  31
BRANCH   7  33
HETATM   33  O2  UNL     1      -4.020   8.018 -23.862  1.00  0.00    -0.261 OA
BRANCH  33  34
HETATM   34  C17 UNL     1      -2.935   7.545 -23.053  1.00  0.00     0.332 C 
BRANCH  34  35
HETATM   35  N2  UNL     1      -3.042   6.133 -22.808  1.00  0.00    -0.328 N 
HETATM   36  C18 UNL     1      -4.120   5.357 -22.979  1.00  0.00     0.111 A 
HETATM   37  C19 UNL     1      -3.796   4.058 -22.627  1.00  0.00     0.106 A 
HETATM   38  N3  UNL     1      -2.519   4.064 -22.245  1.00  0.00    -0.361 N 
HETATM   39  C20 UNL     1      -2.065   5.333 -22.358  1.00  0.00     0.184 A 
ATOM     40  H3  UNL     1      -1.981   3.258 -21.925  1.00  0.00     0.166 HD
ENDBRANCH  34  35
ENDBRANCH  33  34
ENDBRANCH   7  33
TORSDOF 11
ENDMDL
MODEL 4
REMARK VINA RESULT: -5.679568454      1.831      3.621
REMARK  11 active torsions:
REMARK  status: ('A' for Active; 'I' for Inactive)
REMARK    1  A    between atoms: C2_2  and  C3_3 
REMARK    2  A    between atoms: C3_3  and  C5_5 
REMARK    3  A    between atoms: C5_5  and  C6_6 
REMARK    4  A    between atoms: C7_7  and  C8_8 
REMARK    5  A    between atoms: C8_8  and  O1_9 
REMARK    6  A    between atoms: C8_8  and  C9_11 
REMARK    7  A    between atoms: C10_12  and  C11_13 
REMARK    8  A    between atoms: N1_19  and  O2_21 
REMARK    9  A    between atoms: O2_21  and  C17_22 
REMARK   10  A    between atoms: C17_22  and  N2_23 
REMARK   11  A    between atoms: C26_34  and  O3_35 
ROOT
HETATM    1  C11 UNL     1      -6.353  12.706 -25.311  1.00  0.00     0.025 C 
HETATM    2  C12 UNL     1      -5.840  11.856 -24.198  1.00  0.00    -0.032 C 
HETATM    3  C13 UNL     1      -5.324  12.757 -23.067  1.00  0.00     0.016 C 
HETATM    4  C14 UNL     1      -4.590  11.125 -24.705  1.00  0.00     0.016 C 
HETATM    5  C15 UNL     1      -4.023  10.157 -23.752  1.00  0.00     0.055 C 
HETATM    6  C16 UNL     1      -4.952   9.543 -22.811  1.00  0.00     0.010 C 
HETATM    7  N1  UNL     1      -4.681   8.419 -22.261  1.00  0.00    -0.273 N 
ATOM      8  H1  UNL     1      -5.359   8.025 -21.609  1.00  0.00     0.193 HD
HETATM    9  C21 UNL     1      -6.258  10.190 -22.444  1.00  0.00     0.060 C 
HETATM   10  C22 UNL     1      -6.771  10.810 -23.710  1.00  0.00     0.000 C 
HETATM   11  C23 UNL     1      -8.210  11.264 -23.612  1.00  0.00     0.011 C 
HETATM   12  C24 UNL     1      -8.579  11.587 -25.067  1.00  0.00    -0.003 C 
HETATM   13  C25 UNL     1     -10.038  11.673 -25.267  1.00  0.00     0.037 C 
HETATM   14  C26 UNL     1     -10.323  11.873 -26.732  1.00  0.00     0.118 C 
HETATM   15  C27 UNL     1      -9.628  13.134 -27.169  1.00  0.00     0.032 C 
HETATM   16  C28 UNL     1      -8.145  13.089 -26.927  1.00  0.00     0.012 C 
HETATM   17  C29 UNL     1      -7.825  12.809 -25.450  1.00  0.00    -0.033 C 
HETATM   18  C30 UNL     1      -8.366  14.037 -24.712  1.00  0.00     0.016 C 
ENDROOT
BRANCH   1  19
HETATM   19  C10 UNL     1      -5.818  14.093 -25.196  1.00  0.00    -0.022 C 
HETATM   20  C9  UNL     1      -4.996  14.622 -26.097  1.00  0.00     0.005 C 
BRANCH  20  21
HETATM   21  C8  UNL     1      -4.454  15.985 -26.007  1.00  0.00     0.163 C 
BRANCH  21  22
HETATM   22  C7  UNL     1      -5.212  16.953 -26.868  1.00  0.00     0.004 C 
HETATM   23  C6  UNL     1      -6.397  16.697 -27.359  1.00  0.00    -0.027 C 
BRANCH  23  24
HETATM   24  C5  UNL     1      -7.259  17.509 -28.199  1.00  0.00     0.031 C 
BRANCH  24  25
HETATM   25  C3  UNL     1      -8.714  17.529 -27.883  1.00  0.00    -0.016 C 
HETATM   26  C4  UNL     1      -9.402  16.483 -28.751  1.00  0.00     0.010 C 
BRANCH  25  27
HETATM   27  C2  UNL     1      -8.948  17.205 -26.411  1.00  0.00    -0.000 C 
HETATM   28  C1  UNL     1     -10.394  17.041 -26.090  1.00  0.00     0.005 C 
ENDBRANCH  25  27
ENDBRANCH  24  25
ENDBRANCH  23  24
ENDBRANCH  21  22
BRANCH  21  29
HETATM   29  O1  UNL     1      -3.121  16.049 -26.425  1.00  0.00    -0.388 OA
ATOM     30  H1  UNL     1      -2.806  15.153 -26.447  1.00  0.00     0.210 HD
ENDBRANCH  21  29
ENDBRANCH  20  21
ENDBRANCH   1  19
BRANCH  14  31
HETATM   31  O3  UNL     1      -9.737  10.809 -27.425  1.00  0.00    -0.396 OA
ATOM     32  H3  UNL     1      -9.852  10.974 -28.354  1.00  0.00     0.210 HD
ENDBRANCH  14  31
BRANCH   7  33
HETATM   33  O2  UNL     1      -3.527   7.715 -22.502  1.00  0.00    -0.261 OA
BRANCH  33  34
HETATM   34  C17 UNL     1      -3.550   6.471 -23.214  1.00  0.00     0.332 C 
BRANCH  34  35
HETATM   35  N2  UNL     1      -3.103   5.385 -22.384  1.00  0.00    -0.328 N 
HETATM   36  C18 UNL     1      -2.092   5.395 -21.506  1.00  0.00     0.111 A 
HETATM   37  C19 UNL     1      -1.999   4.145 -20.917  1.00  0.00     0.106 A 
HETATM   38  N3  UNL     1      -2.960   3.390 -21.451  1.00  0.00    -0.361 N 
HETATM   39  C20 UNL     1      -3.629   4.153 -22.345  1.00  0.00     0.184 A 
ATOM     40  H3  UNL     1      -3.154   2.414 -21.226  1.00  0.00     0.166 HD
ENDBRANCH  34  35
ENDBRANCH  33  34
ENDBRANCH   7  33
TORSDOF 11
ENDMDL
MODEL 5
REMARK VINA RESULT: -5.612811229      5.094      9.084
REMARK  11 active torsions:
REMARK  status: ('A' for Active; 'I' for Inactive)
REMARK    1  A    between atoms: C2_2  and  C3_3 
REMARK    2  A    between atoms: C3_3  and  C5_5 
REMARK    3  A    between atoms: C5_5  and  C6_6 
REMARK    4  A    between atoms: C7_7  and  C8_8 
REMARK    5  A    between atoms: C8_8  and  O1_9 
REMARK    6  A    between atoms: C8_8  and  C9_11 
REMARK    7  A    between atoms: C10_12  and  C11_13 
REMARK    8  A    between atoms: N1_19  and  O2_21 
REMARK    9  A    between atoms: O2_21  and  C17_22 
REMARK   10  A    between atoms: C17_22  and  N2_23 
REMARK   11  A    between atoms: C26_34  and  O3_35 
ROOT
HETATM    1  C11 UNL     1      -7.865  13.915 -25.150  1.00  0.00     0.025 C 
HETATM    2  C12 UNL     1      -8.297  14.958 -26.125  1.00  0.00    -0.032 C 
HETATM    3  C13 UNL     1      -7.205  15.142 -27.188  1.00  0.00     0.016 C 
HETATM    4  C14 UNL     1      -8.339  16.302 -25.385  1.00  0.00     0.016 C 
HETATM    5  C15 UNL     1      -8.854  17.422 -26.189  1.00  0.00     0.055 C 
HETATM    6  C16 UNL     1      -9.800  17.090 -27.247  1.00  0.00     0.010 C 
HETATM    7  N1  UNL     1     -10.616  17.968 -27.697  1.00  0.00    -0.273 N 
ATOM      8  H1  UNL     1     -11.261  17.692 -28.438  1.00  0.00     0.193 HD
HETATM    9  C21 UNL     1      -9.865  15.716 -27.855  1.00  0.00     0.060 C 
HETATM   10  C22 UNL     1      -9.641  14.762 -26.719  1.00  0.00     0.000 C 
HETATM   11  C23 UNL     1      -9.952  13.326 -27.076  1.00  0.00     0.011 C 
HETATM   12  C24 UNL     1      -9.924  12.609 -25.719  1.00  0.00    -0.003 C 
HETATM   13  C25 UNL     1     -10.579  11.288 -25.771  1.00  0.00     0.037 C 
HETATM   14  C26 UNL     1     -10.617  10.702 -24.384  1.00  0.00     0.118 C 
HETATM   15  C27 UNL     1      -9.200  10.600 -23.889  1.00  0.00     0.032 C 
HETATM   16  C28 UNL     1      -8.496  11.928 -23.875  1.00  0.00     0.012 C 
HETATM   17  C29 UNL     1      -8.509  12.585 -25.265  1.00  0.00    -0.033 C 
HETATM   18  C30 UNL     1      -7.674  11.639 -26.132  1.00  0.00     0.016 C 
ENDROOT
BRANCH   1  19
HETATM   19  C10 UNL     1      -6.391  13.706 -25.229  1.00  0.00    -0.022 C 
HETATM   20  C9  UNL     1      -5.586  13.870 -24.184  1.00  0.00     0.005 C 
BRANCH  20  21
HETATM   21  C8  UNL     1      -4.131  13.671 -24.236  1.00  0.00     0.163 C 
BRANCH  21  22
HETATM   22  C7  UNL     1      -3.764  12.228 -24.431  1.00  0.00     0.004 C 
HETATM   23  C6  UNL     1      -4.550  11.238 -24.093  1.00  0.00    -0.027 C 
BRANCH  23  24
HETATM   24  C5  UNL     1      -4.354   9.804 -24.208  1.00  0.00     0.031 C 
BRANCH  24  25
HETATM   25  C3  UNL     1      -5.257   8.918 -23.424  1.00  0.00    -0.016 C 
HETATM   26  C4  UNL     1      -5.129   7.504 -23.977  1.00  0.00     0.010 C 
BRANCH  25  27
HETATM   27  C2  UNL     1      -4.871   8.926 -21.949  1.00  0.00    -0.000 C 
HETATM   28  C1  UNL     1      -5.896   9.595 -21.099  1.00  0.00     0.005 C 
ENDBRANCH  25  27
ENDBRANCH  24  25
ENDBRANCH  23  24
ENDBRANCH  21  22
BRANCH  21  29
HETATM   29  O1  UNL     1      -3.503  14.080 -23.056  1.00  0.00    -0.388 OA
ATOM     30  H1  UNL     1      -4.158  14.549 -22.553  1.00  0.00     0.210 HD
ENDBRANCH  21  29
ENDBRANCH  20  21
ENDBRANCH   1  19
BRANCH  14  31
HETATM   31  O3  UNL     1     -11.285  11.613 -23.559  1.00  0.00    -0.396 OA
ATOM     32  H3  UNL     1     -10.925  12.475 -23.733  1.00  0.00     0.210 HD
ENDBRANCH  14  31
BRANCH   7  33
HETATM   33  O2  UNL     1     -10.670  19.260 -27.237  1.00  0.00    -0.261 OA
BRANCH  33  34
HETATM   34  C17 UNL     1     -11.923  19.900 -26.962  1.00  0.00     0.332 C 
BRANCH  34  35
HETATM   35  N2  UNL     1     -12.743  19.095 -26.098  1.00  0.00    -0.328 N 
HETATM   36  C18 UNL     1     -13.910  18.511 -26.397  1.00  0.00     0.111 A 
HETATM   37  C19 UNL     1     -14.368  17.829 -25.282  1.00  0.00     0.106 A 
HETATM   38  N3  UNL     1     -13.466  18.011 -24.317  1.00  0.00    -0.361 N 
HETATM   39  C20 UNL     1     -12.477  18.784 -24.822  1.00  0.00     0.184 A 
ATOM     40  H3  UNL     1     -13.513  17.635 -23.369  1.00  0.00     0.166 HD
ENDBRANCH  34  35
ENDBRANCH  33  34
ENDBRANCH   7  33
TORSDOF 11
ENDMDL
