MODEL 1
REMARK VINA RESULT: -5.421260978      0.000      0.000
REMARK  9 active torsions:
REMARK  status: ('A' for Active; 'I' for Inactive)
REMARK    1  A    between atoms: C2_2  and  O2_4 
REMARK    2  A    between atoms: O2_4  and  C3_5 
REMARK    3  A    between atoms: C16_19  and  C17_20 
REMARK    4  A    between atoms: C18_21  and  C19_22 
REMARK    5  A    between atoms: C19_22  and  C21_24 
REMARK    6  A    between atoms: C21_24  and  C22_25 
REMARK    7  A    between atoms: C22_25  and  C23_26 
REMARK    8  A    between atoms: C25_32  and  C27_34 
REMARK    9  A    between atoms: C27_34  and  C28_35 
ROOT
HETATM    1  C3  UNL     1      -5.723  11.779 -23.877  1.00  0.00     0.177 C 
HETATM    2  C4  UNL     1      -5.551  12.807 -22.790  1.00  0.00     0.063 C 
HETATM    3  C5  UNL     1      -4.238  13.467 -22.972  1.00  0.00    -0.022 C 
HETATM    4  C6  UNL     1      -3.794  14.417 -23.771  1.00  0.00    -0.087 C 
HETATM    5  C7  UNL     1      -2.361  14.709 -23.535  1.00  0.00     0.043 C 
HETATM    6  C8  UNL     1      -4.412  15.237 -24.834  1.00  0.00     0.041 C 
HETATM    7  C9  UNL     1      -4.750  14.475 -26.069  1.00  0.00     0.086 C 
HETATM    8  C10 UNL     1      -5.206  13.097 -25.835  1.00  0.00     0.164 C 
HETATM    9  O3  UNL     1      -4.464  12.263 -26.355  1.00  0.00    -0.295 OA
HETATM   10  C11 UNL     1      -6.320  12.380 -25.140  1.00  0.00     0.148 C 
HETATM   11  C12 UNL     1      -6.784  11.185 -25.969  1.00  0.00     0.049 C 
HETATM   12  C13 UNL     1      -7.375  11.612 -27.288  1.00  0.00     0.010 C 
HETATM   13  C14 UNL     1      -8.113  12.896 -27.077  1.00  0.00     0.014 C 
HETATM   14  C15 UNL     1      -9.416  12.818 -27.871  1.00  0.00     0.012 C 
HETATM   15  C16 UNL     1      -8.471  12.974 -25.587  1.00  0.00     0.149 C 
HETATM   16  O5  UNL     1      -7.343  13.240 -24.843  1.00  0.00    -0.360 OA
ENDROOT
BRANCH  15  17
HETATM   17  C17 UNL     1      -9.490  14.050 -25.466  1.00  0.00     0.001 C 
HETATM   18  C18 UNL     1      -9.989  14.449 -24.316  1.00  0.00    -0.024 C 
BRANCH  18  19
HETATM   19  C19 UNL     1     -11.005  15.524 -24.217  1.00  0.00     0.004 C 
HETATM   20  C20 UNL     1     -12.268  15.143 -24.948  1.00  0.00     0.014 C 
BRANCH  19  21
HETATM   21  C21 UNL     1     -10.433  16.824 -24.673  1.00  0.00     0.009 C 
BRANCH  21  22
HETATM   22  C22 UNL     1     -11.197  17.425 -25.832  1.00  0.00     0.016 C 
BRANCH  22  23
HETATM   23  C23 UNL     1     -10.492  18.578 -26.459  1.00  0.00     0.095 C 
HETATM   24  C24 UNL     1     -11.322  19.499 -27.254  1.00  0.00     0.119 C 
HETATM   25  N1  UNL     1     -11.980  20.604 -27.152  1.00  0.00    -0.383 N 
HETATM   26  O4  UNL     1     -11.135  18.643 -28.344  1.00  0.00    -0.328 OA
ATOM     27  H12 UNL     1     -12.117  21.229 -26.357  1.00  0.00     0.158 HD
ATOM     28  H11 UNL     1     -12.556  21.242 -27.702  1.00  0.00     0.158 HD
HETATM   29  C25 UNL     1      -9.863  18.347 -27.805  1.00  0.00     0.076 C 
HETATM   30  C26 UNL     1      -8.869  19.413 -28.176  1.00  0.00     0.047 C 
BRANCH  29  31
HETATM   31  C27 UNL     1      -9.399  16.931 -28.064  1.00  0.00     0.043 C 
BRANCH  31  32
HETATM   32  C28 UNL     1      -7.883  16.945 -28.152  1.00  0.00    -0.020 C 
HETATM   33  C29 UNL     1      -7.339  15.949 -29.120  1.00  0.00     0.009 C 
HETATM   34  C30 UNL     1      -7.377  16.556 -26.763  1.00  0.00     0.009 C 
ENDBRANCH  31  32
ENDBRANCH  29  31
ENDBRANCH  22  23
ENDBRANCH  21  22
ENDBRANCH  19  21
ENDBRANCH  18  19
ENDBRANCH  15  17
BRANCH   1  35
HETATM   35  O2  UNL     1      -4.441  11.271 -24.192  1.00  0.00    -0.312 OA
BRANCH  35  36
HETATM   36  C2  UNL     1      -4.022   9.992 -23.949  1.00  0.00     0.255 C 
HETATM   37  C1  UNL     1      -4.964   8.866 -23.708  1.00  0.00     0.126 C 
HETATM   38  O1  UNL     1      -2.791   9.749 -23.928  1.00  0.00    -0.266 OA
ENDBRANCH  35  36
ENDBRANCH   1  35
TORSDOF 9
ENDMDL
MODEL 2
REMARK VINA RESULT: -5.360425915      2.172      3.015
REMARK  9 active torsions:
REMARK  status: ('A' for Active; 'I' for Inactive)
REMARK    1  A    between atoms: C2_2  and  O2_4 
REMARK    2  A    between atoms: O2_4  and  C3_5 
REMARK    3  A    between atoms: C16_19  and  C17_20 
REMARK    4  A    between atoms: C18_21  and  C19_22 
REMARK    5  A    between atoms: C19_22  and  C21_24 
REMARK    6  A    between atoms: C21_24  and  C22_25 
REMARK    7  A    between atoms: C22_25  and  C23_26 
REMARK    8  A    between atoms: C25_32  and  C27_34 
REMARK    9  A    between atoms: C27_34  and  C28_35 
ROOT
HETATM    1  C3  UNL     1      -6.140  11.934 -22.849  1.00  0.00     0.177 C 
HETATM    2  C4  UNL     1      -5.243  13.138 -22.971  1.00  0.00     0.063 C 
HETATM    3  C5  UNL     1      -4.106  12.788 -23.854  1.00  0.00    -0.022 C 
HETATM    4  C6  UNL     1      -3.956  12.697 -25.161  1.00  0.00    -0.087 C 
HETATM    5  C7  UNL     1      -2.578  12.299 -25.530  1.00  0.00     0.043 C 
HETATM    6  C8  UNL     1      -4.857  12.903 -26.314  1.00  0.00     0.041 C 
HETATM    7  C9  UNL     1      -5.917  11.864 -26.450  1.00  0.00     0.086 C 
HETATM    8  C10 UNL     1      -6.447  11.358 -25.175  1.00  0.00     0.164 C 
HETATM    9  O3  UNL     1      -6.252  10.150 -25.032  1.00  0.00    -0.295 OA
HETATM   10  C11 UNL     1      -7.167  11.873 -23.969  1.00  0.00     0.148 C 
HETATM   11  C12 UNL     1      -8.210  10.862 -23.499  1.00  0.00     0.049 C 
HETATM   12  C13 UNL     1      -9.294  10.655 -24.525  1.00  0.00     0.010 C 
HETATM   13  C14 UNL     1      -9.556  11.964 -25.200  1.00  0.00     0.014 C 
HETATM   14  C15 UNL     1     -11.068  12.103 -25.369  1.00  0.00     0.012 C 
HETATM   15  C16 UNL     1      -9.083  13.069 -24.247  1.00  0.00     0.149 C 
HETATM   16  O5  UNL     1      -7.707  13.107 -24.214  1.00  0.00    -0.360 OA
ENDROOT
BRANCH  15  17
HETATM   17  C17 UNL     1      -9.667  14.334 -24.764  1.00  0.00     0.001 C 
HETATM   18  C18 UNL     1      -8.945  15.379 -25.109  1.00  0.00    -0.024 C 
BRANCH  18  19
HETATM   19  C19 UNL     1      -9.548  16.631 -25.621  1.00  0.00     0.004 C 
HETATM   20  C20 UNL     1     -10.775  17.006 -24.828  1.00  0.00     0.014 C 
BRANCH  19  21
HETATM   21  C21 UNL     1      -9.808  16.523 -27.086  1.00  0.00     0.009 C 
BRANCH  21  22
HETATM   22  C22 UNL     1      -8.572  16.148 -27.873  1.00  0.00     0.016 C 
BRANCH  22  23
HETATM   23  C23 UNL     1      -7.753  17.327 -28.270  1.00  0.00     0.095 C 
HETATM   24  C24 UNL     1      -7.628  17.580 -29.716  1.00  0.00     0.119 C 
HETATM   25  N1  UNL     1      -8.165  18.266 -30.669  1.00  0.00    -0.383 N 
HETATM   26  O4  UNL     1      -6.553  16.686 -29.726  1.00  0.00    -0.328 OA
ATOM     27  H12 UNL     1      -8.949  18.918 -30.661  1.00  0.00     0.158 HD
ATOM     28  H11 UNL     1      -8.078  18.440 -31.670  1.00  0.00     0.158 HD
HETATM   29  C25 UNL     1      -6.271  17.117 -28.410  1.00  0.00     0.076 C 
HETATM   30  C26 UNL     1      -5.498  18.407 -28.429  1.00  0.00     0.047 C 
BRANCH  29  31
HETATM   31  C27 UNL     1      -5.687  16.042 -27.521  1.00  0.00     0.043 C 
BRANCH  31  32
HETATM   32  C28 UNL     1      -4.804  16.719 -26.488  1.00  0.00    -0.020 C 
HETATM   33  C29 UNL     1      -3.399  16.217 -26.493  1.00  0.00     0.009 C 
HETATM   34  C30 UNL     1      -5.408  16.374 -25.127  1.00  0.00     0.009 C 
ENDBRANCH  31  32
ENDBRANCH  29  31
ENDBRANCH  22  23
ENDBRANCH  21  22
ENDBRANCH  19  21
ENDBRANCH  18  19
ENDBRANCH  15  17
BRANCH   1  35
HETATM   35  O2  UNL     1      -5.324  10.782 -22.934  1.00  0.00    -0.312 OA
BRANCH  35  36
HETATM   36  C2  UNL     1      -5.112   9.894 -21.916  1.00  0.00     0.255 C 
HETATM   37  C1  UNL     1      -5.767  10.017 -20.586  1.00  0.00     0.126 C 
HETATM   38  O1  UNL     1      -4.332   8.928 -22.104  1.00  0.00    -0.266 OA
ENDBRANCH  35  36
ENDBRANCH   1  35
TORSDOF 9
ENDMDL
MODEL 3
REMARK VINA RESULT: -5.343675649      1.371      1.842
REMARK  9 active torsions:
REMARK  status: ('A' for Active; 'I' for Inactive)
REMARK    1  A    between atoms: C2_2  and  O2_4 
REMARK    2  A    between atoms: O2_4  and  C3_5 
REMARK    3  A    between atoms: C16_19  and  C17_20 
REMARK    4  A    between atoms: C18_21  and  C19_22 
REMARK    5  A    between atoms: C19_22  and  C21_24 
REMARK    6  A    between atoms: C21_24  and  C22_25 
REMARK    7  A    between atoms: C22_25  and  C23_26 
REMARK    8  A    between atoms: C25_32  and  C27_34 
REMARK    9  A    between atoms: C27_34  and  C28_35 
ROOT
HETATM    1  C3  UNL     1      -6.116  11.767 -23.211  1.00  0.00     0.177 C 
HETATM    2  C4  UNL     1      -5.690  12.932 -22.356  1.00  0.00     0.063 C 
HETATM    3  C5  UNL     1      -4.425  13.476 -22.903  1.00  0.00    -0.022 C 
HETATM    4  C6  UNL     1      -4.131  14.269 -23.914  1.00  0.00    -0.087 C 
HETATM    5  C7  UNL     1      -2.673  14.504 -24.023  1.00  0.00     0.043 C 
HETATM    6  C8  UNL     1      -4.935  14.959 -24.945  1.00  0.00     0.041 C 
HETATM    7  C9  UNL     1      -5.546  14.046 -25.950  1.00  0.00     0.086 C 
HETATM    8  C10 UNL     1      -5.982  12.748 -25.415  1.00  0.00     0.164 C 
HETATM    9  O3  UNL     1      -5.392  11.802 -25.938  1.00  0.00    -0.295 OA
HETATM   10  C11 UNL     1      -6.947  12.211 -24.405  1.00  0.00     0.148 C 
HETATM   11  C12 UNL     1      -7.610  10.937 -24.925  1.00  0.00     0.049 C 
HETATM   12  C13 UNL     1      -8.451  11.201 -26.147  1.00  0.00     0.010 C 
HETATM   13  C14 UNL     1      -9.090  12.545 -25.995  1.00  0.00     0.014 C 
HETATM   14  C15 UNL     1     -10.533  12.430 -26.486  1.00  0.00     0.012 C 
HETATM   15  C16 UNL     1      -9.126  12.863 -24.495  1.00  0.00     0.149 C 
HETATM   16  O5  UNL     1      -7.859  13.167 -24.046  1.00  0.00    -0.360 OA
ENDROOT
BRANCH  15  17
HETATM   17  C17 UNL     1     -10.064  14.005 -24.339  1.00  0.00     0.001 C 
HETATM   18  C18 UNL     1      -9.782  15.232 -24.720  1.00  0.00    -0.024 C 
BRANCH  18  19
HETATM   19  C19 UNL     1     -10.733  16.357 -24.555  1.00  0.00     0.004 C 
HETATM   20  C20 UNL     1     -12.159  15.889 -24.715  1.00  0.00     0.014 C 
BRANCH  19  21
HETATM   21  C21 UNL     1     -10.379  17.478 -25.473  1.00  0.00     0.009 C 
BRANCH  21  22
HETATM   22  C22 UNL     1      -9.907  16.999 -26.827  1.00  0.00     0.016 C 
BRANCH  22  23
HETATM   23  C23 UNL     1      -8.515  17.426 -27.145  1.00  0.00     0.095 C 
HETATM   24  C24 UNL     1      -8.376  18.586 -28.043  1.00  0.00     0.119 C 
HETATM   25  N1  UNL     1      -8.227  19.868 -28.016  1.00  0.00    -0.383 N 
HETATM   26  O4  UNL     1      -8.471  17.698 -29.118  1.00  0.00    -0.328 OA
ATOM     27  H12 UNL     1      -8.158  20.516 -27.231  1.00  0.00     0.158 HD
ATOM     28  H11 UNL     1      -8.131  20.671 -28.637  1.00  0.00     0.158 HD
HETATM   29  C25 UNL     1      -7.833  16.742 -28.296  1.00  0.00     0.076 C 
HETATM   30  C26 UNL     1      -6.344  16.949 -28.300  1.00  0.00     0.047 C 
BRANCH  29  31
HETATM   31  C27 UNL     1      -8.275  15.318 -28.551  1.00  0.00     0.043 C 
BRANCH  31  32
HETATM   32  C28 UNL     1      -7.273  14.681 -29.498  1.00  0.00    -0.020 C 
HETATM   33  C29 UNL     1      -7.686  14.753 -30.930  1.00  0.00     0.009 C 
HETATM   34  C30 UNL     1      -7.212  13.203 -29.114  1.00  0.00     0.009 C 
ENDBRANCH  31  32
ENDBRANCH  29  31
ENDBRANCH  22  23
ENDBRANCH  21  22
ENDBRANCH  19  21
ENDBRANCH  18  19
ENDBRANCH  15  17
BRANCH   1  35
HETATM   35  O2  UNL     1      -4.944  11.140 -23.696  1.00  0.00    -0.312 OA
BRANCH  35  36
HETATM   36  C2  UNL     1      -4.443   9.954 -23.239  1.00  0.00     0.255 C 
HETATM   37  C1  UNL     1      -5.146   9.113 -22.233  1.00  0.00     0.126 C 
HETATM   38  O1  UNL     1      -3.340   9.548 -23.682  1.00  0.00    -0.266 OA
ENDBRANCH  35  36
ENDBRANCH   1  35
TORSDOF 9
ENDMDL
MODEL 4
REMARK VINA RESULT: -5.228837529      1.972      3.072
REMARK  9 active torsions:
REMARK  status: ('A' for Active; 'I' for Inactive)
REMARK    1  A    between atoms: C2_2  and  O2_4 
REMARK    2  A    between atoms: O2_4  and  C3_5 
REMARK    3  A    between atoms: C16_19  and  C17_20 
REMARK    4  A    between atoms: C18_21  and  C19_22 
REMARK    5  A    between atoms: C19_22  and  C21_24 
REMARK    6  A    between atoms: C21_24  and  C22_25 
REMARK    7  A    between atoms: C22_25  and  C23_26 
REMARK    8  A    between atoms: C25_32  and  C27_34 
REMARK    9  A    between atoms: C27_34  and  C28_35 
ROOT
HETATM    1  C3  UNL     1      -6.160  11.958 -22.887  1.00  0.00     0.177 C 
HETATM    2  C4  UNL     1      -5.295  13.189 -22.806  1.00  0.00     0.063 C 
HETATM    3  C5  UNL     1      -4.138  13.009 -23.713  1.00  0.00    -0.022 C 
HETATM    4  C6  UNL     1      -3.968  13.126 -25.015  1.00  0.00    -0.087 C 
HETATM    5  C7  UNL     1      -2.575  12.826 -25.418  1.00  0.00     0.043 C 
HETATM    6  C8  UNL     1      -4.860  13.487 -26.138  1.00  0.00     0.041 C 
HETATM    7  C9  UNL     1      -5.888  12.456 -26.451  1.00  0.00     0.086 C 
HETATM    8  C10 UNL     1      -6.421  11.744 -25.280  1.00  0.00     0.164 C 
HETATM    9  O3  UNL     1      -6.194  10.534 -25.323  1.00  0.00    -0.295 OA
HETATM   10  C11 UNL     1      -7.170  12.046 -24.021  1.00  0.00     0.148 C 
HETATM   11  C12 UNL     1      -8.191  10.949 -23.731  1.00  0.00     0.049 C 
HETATM   12  C13 UNL     1      -9.255  10.876 -24.795  1.00  0.00     0.010 C 
HETATM   13  C14 UNL     1      -9.545  12.267 -25.263  1.00  0.00     0.014 C 
HETATM   14  C15 UNL     1     -11.058  12.393 -25.434  1.00  0.00     0.012 C 
HETATM   15  C16 UNL     1      -9.115  13.222 -24.142  1.00  0.00     0.149 C 
HETATM   16  O5  UNL     1      -7.741  13.289 -24.080  1.00  0.00    -0.360 OA
ENDROOT
BRANCH  15  17
HETATM   17  C17 UNL     1      -9.727  14.537 -24.466  1.00  0.00     0.001 C 
HETATM   18  C18 UNL     1      -9.063  15.530 -25.019  1.00  0.00    -0.024 C 
BRANCH  18  19
HETATM   19  C19 UNL     1      -9.693  16.834 -25.333  1.00  0.00     0.004 C 
HETATM   20  C20 UNL     1     -11.170  16.809 -25.028  1.00  0.00     0.014 C 
BRANCH  19  21
HETATM   21  C21 UNL     1      -9.392  17.233 -26.738  1.00  0.00     0.009 C 
BRANCH  21  22
HETATM   22  C22 UNL     1      -8.805  16.103 -27.555  1.00  0.00     0.016 C 
BRANCH  22  23
HETATM   23  C23 UNL     1      -9.612  15.779 -28.764  1.00  0.00     0.095 C 
HETATM   24  C24 UNL     1     -11.075  15.759 -28.589  1.00  0.00     0.119 C 
HETATM   25  N1  UNL     1     -12.114  16.513 -28.715  1.00  0.00    -0.383 N 
HETATM   26  O4  UNL     1     -10.954  14.430 -28.173  1.00  0.00    -0.328 OA
ATOM     27  H12 UNL     1     -12.202  17.483 -29.020  1.00  0.00     0.158 HD
ATOM     28  H11 UNL     1     -13.127  16.500 -28.594  1.00  0.00     0.158 HD
HETATM   29  C25 UNL     1      -9.856  14.324 -29.056  1.00  0.00     0.076 C 
HETATM   30  C26 UNL     1     -10.330  14.082 -30.462  1.00  0.00     0.047 C 
BRANCH  29  31
HETATM   31  C27 UNL     1      -8.772  13.383 -28.582  1.00  0.00     0.043 C 
BRANCH  31  32
HETATM   32  C28 UNL     1      -8.843  12.124 -29.429  1.00  0.00    -0.020 C 
HETATM   33  C29 UNL     1      -9.416  10.955 -28.702  1.00  0.00     0.009 C 
HETATM   34  C30 UNL     1      -7.399  11.777 -29.789  1.00  0.00     0.009 C 
ENDBRANCH  31  32
ENDBRANCH  29  31
ENDBRANCH  22  23
ENDBRANCH  21  22
ENDBRANCH  19  21
ENDBRANCH  18  19
ENDBRANCH  15  17
BRANCH   1  35
HETATM   35  O2  UNL     1      -5.311  10.854 -23.136  1.00  0.00    -0.312 OA
BRANCH  35  36
HETATM   36  C2  UNL     1      -5.017   9.871 -22.233  1.00  0.00     0.255 C 
HETATM   37  C1  UNL     1      -5.672   9.776 -20.900  1.00  0.00     0.126 C 
HETATM   38  O1  UNL     1      -4.159   9.005 -22.533  1.00  0.00    -0.266 OA
ENDBRANCH  35  36
ENDBRANCH   1  35
TORSDOF 9
ENDMDL
MODEL 5
REMARK VINA RESULT: -5.210046074      2.672      4.551
REMARK  9 active torsions:
REMARK  status: ('A' for Active; 'I' for Inactive)
REMARK    1  A    between atoms: C2_2  and  O2_4 
REMARK    2  A    between atoms: O2_4  and  C3_5 
REMARK    3  A    between atoms: C16_19  and  C17_20 
REMARK    4  A    between atoms: C18_21  and  C19_22 
REMARK    5  A    between atoms: C19_22  and  C21_24 
REMARK    6  A    between atoms: C21_24  and  C22_25 
REMARK    7  A    between atoms: C22_25  and  C23_26 
REMARK    8  A    between atoms: C25_32  and  C27_34 
REMARK    9  A    between atoms: C27_34  and  C28_35 
ROOT
HETATM    1  C3  UNL     1      -6.212  12.278 -23.084  1.00  0.00     0.177 C 
HETATM    2  C4  UNL     1      -5.333  13.480 -23.307  1.00  0.00     0.063 C 
HETATM    3  C5  UNL     1      -4.111  13.042 -24.021  1.00  0.00    -0.022 C 
HETATM    4  C6  UNL     1      -3.837  12.761 -25.279  1.00  0.00    -0.087 C 
HETATM    5  C7  UNL     1      -2.423  12.360 -25.459  1.00  0.00     0.043 C 
HETATM    6  C8  UNL     1      -4.630  12.761 -26.527  1.00  0.00     0.041 C 
HETATM    7  C9  UNL     1      -5.651  11.678 -26.597  1.00  0.00     0.086 C 
HETATM    8  C10 UNL     1      -6.287  11.350 -25.313  1.00  0.00     0.164 C 
HETATM    9  O3  UNL     1      -6.082  10.185 -24.971  1.00  0.00    -0.295 OA
HETATM   10  C11 UNL     1      -7.128  12.014 -24.269  1.00  0.00     0.148 C 
HETATM   11  C12 UNL     1      -8.189  11.050 -23.745  1.00  0.00     0.049 C 
HETATM   12  C13 UNL     1      -9.168  10.654 -24.821  1.00  0.00     0.010 C 
HETATM   13  C14 UNL     1      -9.392  11.837 -25.708  1.00  0.00     0.014 C 
HETATM   14  C15 UNL     1     -10.885  11.898 -26.031  1.00  0.00     0.012 C 
HETATM   15  C16 UNL     1      -9.034  13.088 -24.896  1.00  0.00     0.149 C 
HETATM   16  O5  UNL     1      -7.668  13.178 -24.746  1.00  0.00    -0.360 OA
ENDROOT
BRANCH  15  17
HETATM   17  C17 UNL     1      -9.593  14.241 -25.650  1.00  0.00     0.001 C 
HETATM   18  C18 UNL     1      -9.859  15.407 -25.100  1.00  0.00    -0.024 C 
BRANCH  18  19
HETATM   19  C19 UNL     1     -10.416  16.543 -25.871  1.00  0.00     0.004 C 
HETATM   20  C20 UNL     1      -9.446  17.697 -25.912  1.00  0.00     0.014 C 
BRANCH  19  21
HETATM   21  C21 UNL     1     -11.757  16.924 -25.341  1.00  0.00     0.009 C 
BRANCH  21  22
HETATM   22  C22 UNL     1     -12.312  15.908 -24.368  1.00  0.00     0.016 C 
BRANCH  22  23
HETATM   23  C23 UNL     1     -13.404  15.078 -24.950  1.00  0.00     0.095 C 
HETATM   24  C24 UNL     1     -14.779  15.557 -24.729  1.00  0.00     0.119 C 
HETATM   25  N1  UNL     1     -15.702  16.265 -25.290  1.00  0.00    -0.383 N 
HETATM   26  O4  UNL     1     -14.762  14.880 -23.506  1.00  0.00    -0.328 OA
ATOM     27  H12 UNL     1     -15.714  16.758 -26.183  1.00  0.00     0.158 HD
ATOM     28  H11 UNL     1     -16.654  16.597 -25.136  1.00  0.00     0.158 HD
HETATM   29  C25 UNL     1     -13.913  13.933 -24.120  1.00  0.00     0.076 C 
HETATM   30  C26 UNL     1     -14.714  12.943 -24.919  1.00  0.00     0.047 C 
BRANCH  29  31
HETATM   31  C27 UNL     1     -12.898  13.317 -23.183  1.00  0.00     0.043 C 
BRANCH  31  32
HETATM   32  C28 UNL     1     -13.442  11.977 -22.720  1.00  0.00    -0.020 C 
HETATM   33  C29 UNL     1     -13.994  12.012 -21.335  1.00  0.00     0.009 C 
HETATM   34  C30 UNL     1     -12.252  11.018 -22.714  1.00  0.00     0.009 C 
ENDBRANCH  31  32
ENDBRANCH  29  31
ENDBRANCH  22  23
ENDBRANCH  21  22
ENDBRANCH  19  21
ENDBRANCH  18  19
ENDBRANCH  15  17
BRANCH   1  35
HETATM   35  O2  UNL     1      -5.368  11.155 -22.919  1.00  0.00    -0.312 OA
BRANCH  35  36
HETATM   36  C2  UNL     1      -5.331  10.357 -21.809  1.00  0.00     0.255 C 
HETATM   37  C1  UNL     1      -5.003   8.907 -21.867  1.00  0.00     0.126 C 
HETATM   38  O1  UNL     1      -5.585  10.862 -20.688  1.00  0.00    -0.266 OA
ENDBRANCH  35  36
ENDBRANCH   1  35
TORSDOF 9
ENDMDL
