MODEL 1
REMARK VINA RESULT: -9.011464985      0.000      0.000
REMARK  10 active torsions:
REMARK  status: ('A' for Active; 'I' for Inactive)
REMARK    1  A    between atoms: C1_2  and  C2_3 
REMARK    2  A    between atoms: C1_2  and  C12_13 
REMARK    3  A    between atoms: C2_3  and  C3_4 
REMARK    4  A    between atoms: C3_4  and  C4_5 
REMARK    5  A    between atoms: C4_5  and  C5_6 
REMARK    6  A    between atoms: C5_6  and  C6_7 
REMARK       I    between atoms: N2_16  and  C13_17 
REMARK    7  A    between atoms: C13_17  and  C14_19 
REMARK    8  A    between atoms: C14_19  and  C15_20 
REMARK    9  A    between atoms: C15_20  and  O3_21 
REMARK   10  A    between atoms: C17_25  and  O5_26 
ROOT
HETATM    1  C12 UNL     1       8.853  13.980  26.733  1.00  0.00     0.133 A 
HETATM    2  N1  UNL     1       8.450  13.110  25.785  1.00  0.00    -0.282 N 
ATOM      3  H1  UNL     1       7.485  12.996  25.474  1.00  0.00     0.188 HD
HETATM    4  N2  UNL     1       9.483  12.423  25.311  1.00  0.00    -0.184 N 
HETATM    5  C13 UNL     1       9.409  11.424  24.301  1.00  0.00     0.247 C 
HETATM    6  O2  UNL     1      10.441  10.830  23.919  1.00  0.00    -0.271 OA
HETATM    7  C16 UNL     1      10.611  12.815  25.931  1.00  0.00     0.305 A 
HETATM    8  O4  UNL     1      11.789  12.393  25.751  1.00  0.00    -0.263 OA
HETATM    9  C17 UNL     1      10.214  13.806  26.837  1.00  0.00     0.168 A 
ENDROOT
BRANCH   1  10
HETATM   10  C1  UNL     1       8.007  14.902  27.480  1.00  0.00     0.180 C 
HETATM   11  O1  UNL     1       8.343  15.420  28.564  1.00  0.00    -0.291 OA
BRANCH  10  12
HETATM   12  C2  UNL     1       6.648  15.258  26.922  1.00  0.00     0.085 C 
BRANCH  12  13
HETATM   13  C3  UNL     1       6.787  16.535  26.189  1.00  0.00     0.008 C 
BRANCH  13  14
HETATM   14  C4  UNL     1       5.574  17.310  25.892  1.00  0.00     0.001 C 
BRANCH  14  15
HETATM   15  C5  UNL     1       4.786  17.139  24.666  1.00  0.00     0.004 C 
BRANCH  15  16
HETATM   16  C6  UNL     1       3.307  17.220  24.688  1.00  0.00    -0.014 C 
HETATM   17  C7  UNL     1       2.861  18.104  23.509  1.00  0.00     0.004 C 
HETATM   18  C8  UNL     1       3.418  19.480  23.680  1.00  0.00     0.000 C 
HETATM   19  C9  UNL     1       3.152  20.009  25.049  1.00  0.00     0.000 C 
HETATM   20  C10 UNL     1       2.194  19.135  25.820  1.00  0.00     0.000 C 
HETATM   21  C11 UNL     1       2.760  17.731  25.973  1.00  0.00     0.004 C 
ENDBRANCH  15  16
ENDBRANCH  14  15
ENDBRANCH  13  14
ENDBRANCH  12  13
ENDBRANCH  10  12
ENDBRANCH   1  10
BRANCH   9  22
HETATM   22  O5  UNL     1      11.039  14.509  27.703  1.00  0.00    -0.354 OA
ATOM     23  H5  UNL     1      11.966  14.664  27.564  1.00  0.00     0.218 HD
ENDBRANCH   9  22
BRANCH   5  24
HETATM   24  C14 UNL     1       8.101  11.076  23.689  1.00  0.00     0.131 C 
BRANCH  24  25
HETATM   25  C15 UNL     1       8.068   9.645  23.213  1.00  0.00     0.173 C 
BRANCH  25  26
HETATM   26  O3  UNL     1       6.893   9.054  23.675  1.00  0.00    -0.400 OA
ATOM     27  H3  UNL     1       6.420   8.705  22.929  1.00  0.00     0.209 HD
ENDBRANCH  25  26
ENDBRANCH  24  25
ENDBRANCH   5  24
TORSDOF 10
ENDMDL
MODEL 2
REMARK VINA RESULT: -8.856974199      2.203      3.724
REMARK  10 active torsions:
REMARK  status: ('A' for Active; 'I' for Inactive)
REMARK    1  A    between atoms: C1_2  and  C2_3 
REMARK    2  A    between atoms: C1_2  and  C12_13 
REMARK    3  A    between atoms: C2_3  and  C3_4 
REMARK    4  A    between atoms: C3_4  and  C4_5 
REMARK    5  A    between atoms: C4_5  and  C5_6 
REMARK    6  A    between atoms: C5_6  and  C6_7 
REMARK       I    between atoms: N2_16  and  C13_17 
REMARK    7  A    between atoms: C13_17  and  C14_19 
REMARK    8  A    between atoms: C14_19  and  C15_20 
REMARK    9  A    between atoms: C15_20  and  O3_21 
REMARK   10  A    between atoms: C17_25  and  O5_26 
ROOT
HETATM    1  C12 UNL     1       8.647  14.582  23.576  1.00  0.00     0.133 A 
HETATM    2  N1  UNL     1       8.522  14.859  24.890  1.00  0.00    -0.282 N 
ATOM      3  H1  UNL     1       7.751  15.386  25.302  1.00  0.00     0.188 HD
HETATM    4  N2  UNL     1       9.542  14.352  25.574  1.00  0.00    -0.184 N 
HETATM    5  C13 UNL     1       9.721  14.462  26.981  1.00  0.00     0.247 C 
HETATM    6  O2  UNL     1      10.717  13.948  27.536  1.00  0.00    -0.271 OA
HETATM    7  C16 UNL     1      10.381  13.719  24.735  1.00  0.00     0.305 A 
HETATM    8  O4  UNL     1      11.456  13.115  25.011  1.00  0.00    -0.263 OA
HETATM    9  C17 UNL     1       9.815  13.863  23.461  1.00  0.00     0.168 A 
ENDROOT
BRANCH   1  10
HETATM   10  C1  UNL     1       7.727  14.973  22.516  1.00  0.00     0.180 C 
HETATM   11  O1  UNL     1       8.070  15.639  21.518  1.00  0.00    -0.291 OA
BRANCH  10  12
HETATM   12  C2  UNL     1       6.277  14.556  22.620  1.00  0.00     0.085 C 
BRANCH  12  13
HETATM   13  C3  UNL     1       5.494  15.755  22.987  1.00  0.00     0.008 C 
BRANCH  13  14
HETATM   14  C4  UNL     1       5.397  16.123  24.408  1.00  0.00     0.001 C 
BRANCH  14  15
HETATM   15  C5  UNL     1       4.666  17.299  24.890  1.00  0.00     0.004 C 
BRANCH  15  16
HETATM   16  C6  UNL     1       3.186  17.352  24.851  1.00  0.00    -0.014 C 
HETATM   17  C7  UNL     1       2.771  18.216  23.646  1.00  0.00     0.004 C 
HETATM   18  C8  UNL     1       3.296  19.603  23.825  1.00  0.00     0.000 C 
HETATM   19  C9  UNL     1       2.965  20.141  25.176  1.00  0.00     0.000 C 
HETATM   20  C10 UNL     1       1.993  19.257  25.918  1.00  0.00     0.000 C 
HETATM   21  C11 UNL     1       2.578  17.866  26.108  1.00  0.00     0.004 C 
ENDBRANCH  15  16
ENDBRANCH  14  15
ENDBRANCH  13  14
ENDBRANCH  12  13
ENDBRANCH  10  12
ENDBRANCH   1  10
BRANCH   9  22
HETATM   22  O5  UNL     1      10.329  13.370  22.271  1.00  0.00    -0.354 OA
ATOM     23  H5  UNL     1       9.806  13.055  21.542  1.00  0.00     0.218 HD
ENDBRANCH   9  22
BRANCH   5  24
HETATM   24  C14 UNL     1       8.721  15.190  27.806  1.00  0.00     0.131 C 
BRANCH  24  25
HETATM   25  C15 UNL     1       7.466  14.378  28.008  1.00  0.00     0.173 C 
BRANCH  25  26
HETATM   26  O3  UNL     1       7.832  13.074  28.333  1.00  0.00    -0.400 OA
ATOM     27  H3  UNL     1       8.762  12.973  28.167  1.00  0.00     0.209 HD
ENDBRANCH  25  26
ENDBRANCH  24  25
ENDBRANCH   5  24
TORSDOF 10
ENDMDL
MODEL 3
REMARK VINA RESULT: -8.840546046      2.304      3.944
REMARK  10 active torsions:
REMARK  status: ('A' for Active; 'I' for Inactive)
REMARK    1  A    between atoms: C1_2  and  C2_3 
REMARK    2  A    between atoms: C1_2  and  C12_13 
REMARK    3  A    between atoms: C2_3  and  C3_4 
REMARK    4  A    between atoms: C3_4  and  C4_5 
REMARK    5  A    between atoms: C4_5  and  C5_6 
REMARK    6  A    between atoms: C5_6  and  C6_7 
REMARK       I    between atoms: N2_16  and  C13_17 
REMARK    7  A    between atoms: C13_17  and  C14_19 
REMARK    8  A    between atoms: C14_19  and  C15_20 
REMARK    9  A    between atoms: C15_20  and  O3_21 
REMARK   10  A    between atoms: C17_25  and  O5_26 
ROOT
HETATM    1  C12 UNL     1       8.505  14.604  23.606  1.00  0.00     0.133 A 
HETATM    2  N1  UNL     1       8.404  14.875  24.923  1.00  0.00    -0.282 N 
ATOM      3  H1  UNL     1       7.628  15.379  25.354  1.00  0.00     0.188 HD
HETATM    4  N2  UNL     1       9.452  14.394  25.582  1.00  0.00    -0.184 N 
HETATM    5  C13 UNL     1       9.660  14.506  26.985  1.00  0.00     0.247 C 
HETATM    6  O2  UNL     1      10.683  14.018  27.516  1.00  0.00    -0.271 OA
HETATM    7  C16 UNL     1      10.288  13.785  24.722  1.00  0.00     0.305 A 
HETATM    8  O4  UNL     1      11.386  13.210  24.972  1.00  0.00    -0.263 OA
HETATM    9  C17 UNL     1       9.689  13.917  23.463  1.00  0.00     0.168 A 
ENDROOT
BRANCH   1  10
HETATM   10  C1  UNL     1       7.550  14.972  22.569  1.00  0.00     0.180 C 
HETATM   11  O1  UNL     1       7.829  15.722  21.612  1.00  0.00    -0.291 OA
BRANCH  10  12
HETATM   12  C2  UNL     1       6.144  14.421  22.645  1.00  0.00     0.085 C 
BRANCH  12  13
HETATM   13  C3  UNL     1       5.351  15.338  23.491  1.00  0.00     0.008 C 
BRANCH  13  14
HETATM   14  C4  UNL     1       4.788  16.550  22.876  1.00  0.00     0.001 C 
BRANCH  14  15
HETATM   15  C5  UNL     1       3.644  17.279  23.432  1.00  0.00     0.004 C 
BRANCH  15  16
HETATM   16  C6  UNL     1       3.821  18.588  24.104  1.00  0.00    -0.014 C 
HETATM   17  C7  UNL     1       4.530  18.340  25.449  1.00  0.00     0.004 C 
HETATM   18  C8  UNL     1       3.672  17.471  26.310  1.00  0.00     0.000 C 
HETATM   19  C9  UNL     1       2.273  17.982  26.378  1.00  0.00     0.000 C 
HETATM   20  C10 UNL     1       2.139  19.356  25.769  1.00  0.00     0.000 C 
HETATM   21  C11 UNL     1       2.547  19.330  24.303  1.00  0.00     0.004 C 
ENDBRANCH  15  16
ENDBRANCH  14  15
ENDBRANCH  13  14
ENDBRANCH  12  13
ENDBRANCH  10  12
ENDBRANCH   1  10
BRANCH   9  22
HETATM   22  O5  UNL     1      10.188  13.440  22.259  1.00  0.00    -0.354 OA
ATOM     23  H5  UNL     1      10.699  13.951  21.642  1.00  0.00     0.218 HD
ENDBRANCH   9  22
BRANCH   5  24
HETATM   24  C14 UNL     1       8.661  15.205  27.835  1.00  0.00     0.131 C 
BRANCH  24  25
HETATM   25  C15 UNL     1       7.436  14.357  28.069  1.00  0.00     0.173 C 
BRANCH  25  26
HETATM   26  O3  UNL     1       7.849  13.062  28.378  1.00  0.00    -0.400 OA
ATOM     27  H3  UNL     1       7.319  12.743  29.099  1.00  0.00     0.209 HD
ENDBRANCH  25  26
ENDBRANCH  24  25
ENDBRANCH   5  24
TORSDOF 10
ENDMDL
MODEL 4
REMARK VINA RESULT: -8.802507709      1.113      1.442
REMARK  10 active torsions:
REMARK  status: ('A' for Active; 'I' for Inactive)
REMARK    1  A    between atoms: C1_2  and  C2_3 
REMARK    2  A    between atoms: C1_2  and  C12_13 
REMARK    3  A    between atoms: C2_3  and  C3_4 
REMARK    4  A    between atoms: C3_4  and  C4_5 
REMARK    5  A    between atoms: C4_5  and  C5_6 
REMARK    6  A    between atoms: C5_6  and  C6_7 
REMARK       I    between atoms: N2_16  and  C13_17 
REMARK    7  A    between atoms: C13_17  and  C14_19 
REMARK    8  A    between atoms: C14_19  and  C15_20 
REMARK    9  A    between atoms: C15_20  and  O3_21 
REMARK   10  A    between atoms: C17_25  and  O5_26 
ROOT
HETATM    1  C12 UNL     1       8.953  14.390  26.735  1.00  0.00     0.133 A 
HETATM    2  N1  UNL     1       8.519  13.763  25.623  1.00  0.00    -0.282 N 
ATOM      3  H1  UNL     1       7.578  13.847  25.238  1.00  0.00     0.188 HD
HETATM    4  N2  UNL     1       9.486  13.019  25.098  1.00  0.00    -0.184 N 
HETATM    5  C13 UNL     1       9.365  12.226  23.922  1.00  0.00     0.247 C 
HETATM    6  O2  UNL     1      10.336  11.558  23.504  1.00  0.00    -0.271 OA
HETATM    7  C16 UNL     1      10.600  13.128  25.845  1.00  0.00     0.305 A 
HETATM    8  O4  UNL     1      11.720  12.573  25.665  1.00  0.00    -0.263 OA
HETATM    9  C17 UNL     1      10.264  14.000  26.889  1.00  0.00     0.168 A 
ENDROOT
BRANCH   1  10
HETATM   10  C1  UNL     1       8.179  15.288  27.581  1.00  0.00     0.180 C 
HETATM   11  O1  UNL     1       8.634  15.825  28.612  1.00  0.00    -0.291 OA
BRANCH  10  12
HETATM   12  C2  UNL     1       6.748  15.595  27.202  1.00  0.00     0.085 C 
BRANCH  12  13
HETATM   13  C3  UNL     1       6.764  16.789  26.331  1.00  0.00     0.008 C 
BRANCH  13  14
HETATM   14  C4  UNL     1       5.485  17.438  26.005  1.00  0.00     0.001 C 
BRANCH  14  15
HETATM   15  C5  UNL     1       4.743  17.184  24.766  1.00  0.00     0.004 C 
BRANCH  15  16
HETATM   16  C6  UNL     1       3.264  17.253  24.730  1.00  0.00    -0.014 C 
HETATM   17  C7  UNL     1       2.857  18.137  23.536  1.00  0.00     0.004 C 
HETATM   18  C8  UNL     1       3.397  19.516  23.731  1.00  0.00     0.000 C 
HETATM   19  C9  UNL     1       3.075  20.041  25.089  1.00  0.00     0.000 C 
HETATM   20  C10 UNL     1       2.094  19.159  25.821  1.00  0.00     0.000 C 
HETATM   21  C11 UNL     1       2.663  17.759  25.995  1.00  0.00     0.004 C 
ENDBRANCH  15  16
ENDBRANCH  14  15
ENDBRANCH  13  14
ENDBRANCH  12  13
ENDBRANCH  10  12
ENDBRANCH   1  10
BRANCH   9  22
HETATM   22  O5  UNL     1      11.100  14.416  27.916  1.00  0.00    -0.354 OA
ATOM     23  H5  UNL     1      11.904  14.907  27.796  1.00  0.00     0.218 HD
ENDBRANCH   9  22
BRANCH   5  24
HETATM   24  C14 UNL     1       8.079  12.186  23.179  1.00  0.00     0.131 C 
BRANCH  24  25
HETATM   25  C15 UNL     1       7.866  13.436  22.362  1.00  0.00     0.173 C 
BRANCH  25  26
HETATM   26  O3  UNL     1       8.970  13.613  21.531  1.00  0.00    -0.400 OA
ATOM     27  H3  UNL     1       9.742  13.714  22.076  1.00  0.00     0.209 HD
ENDBRANCH  25  26
ENDBRANCH  24  25
ENDBRANCH   5  24
TORSDOF 10
ENDMDL
MODEL 5
REMARK VINA RESULT: -8.566183925      1.666      1.988
REMARK  10 active torsions:
REMARK  status: ('A' for Active; 'I' for Inactive)
REMARK    1  A    between atoms: C1_2  and  C2_3 
REMARK    2  A    between atoms: C1_2  and  C12_13 
REMARK    3  A    between atoms: C2_3  and  C3_4 
REMARK    4  A    between atoms: C3_4  and  C4_5 
REMARK    5  A    between atoms: C4_5  and  C5_6 
REMARK    6  A    between atoms: C5_6  and  C6_7 
REMARK       I    between atoms: N2_16  and  C13_17 
REMARK    7  A    between atoms: C13_17  and  C14_19 
REMARK    8  A    between atoms: C14_19  and  C15_20 
REMARK    9  A    between atoms: C15_20  and  O3_21 
REMARK   10  A    between atoms: C17_25  and  O5_26 
ROOT
HETATM    1  C12 UNL     1       9.180  14.285  25.829  1.00  0.00     0.133 A 
HETATM    2  N1  UNL     1       9.108  13.864  24.550  1.00  0.00    -0.282 N 
ATOM      3  H1  UNL     1       8.367  14.117  23.896  1.00  0.00     0.188 HD
HETATM    4  N2  UNL     1      10.136  13.076  24.258  1.00  0.00    -0.184 N 
HETATM    5  C13 UNL     1      10.367  12.461  22.995  1.00  0.00     0.247 C 
HETATM    6  O2  UNL     1      11.367  11.733  22.817  1.00  0.00    -0.271 OA
HETATM    7  C16 UNL     1      10.929  12.946  25.337  1.00  0.00     0.305 A 
HETATM    8  O4  UNL     1      11.997  12.279  25.448  1.00  0.00    -0.263 OA
HETATM    9  C17 UNL     1      10.323  13.714  26.340  1.00  0.00     0.168 A 
ENDROOT
BRANCH   1  10
HETATM   10  C1  UNL     1       8.234  15.160  26.509  1.00  0.00     0.180 C 
HETATM   11  O1  UNL     1       8.452  15.676  27.624  1.00  0.00    -0.291 OA
BRANCH  10  12
HETATM   12  C2  UNL     1       6.914  15.466  25.838  1.00  0.00     0.085 C 
BRANCH  12  13
HETATM   13  C3  UNL     1       6.297  16.596  26.564  1.00  0.00     0.008 C 
BRANCH  13  14
HETATM   14  C4  UNL     1       5.522  17.584  25.797  1.00  0.00     0.001 C 
BRANCH  14  15
HETATM   15  C5  UNL     1       4.727  17.244  24.613  1.00  0.00     0.004 C 
BRANCH  15  16
HETATM   16  C6  UNL     1       3.247  17.309  24.638  1.00  0.00    -0.014 C 
HETATM   17  C7  UNL     1       2.790  18.214  23.479  1.00  0.00     0.004 C 
HETATM   18  C8  UNL     1       3.334  19.591  23.680  1.00  0.00     0.000 C 
HETATM   19  C9  UNL     1       3.064  20.087  25.060  1.00  0.00     0.000 C 
HETATM   20  C10 UNL     1       2.116  19.187  25.814  1.00  0.00     0.000 C 
HETATM   21  C11 UNL     1       2.697  17.786  25.935  1.00  0.00     0.004 C 
ENDBRANCH  15  16
ENDBRANCH  14  15
ENDBRANCH  13  14
ENDBRANCH  12  13
ENDBRANCH  10  12
ENDBRANCH   1  10
BRANCH   9  22
HETATM   22  O5  UNL     1      10.784  13.885  27.637  1.00  0.00    -0.354 OA
ATOM     23  H5  UNL     1      11.686  13.774  27.912  1.00  0.00     0.218 HD
ENDBRANCH   9  22
BRANCH   5  24
HETATM   24  C14 UNL     1       9.416  12.681  21.874  1.00  0.00     0.131 C 
BRANCH  24  25
HETATM   25  C15 UNL     1       9.789  13.889  21.053  1.00  0.00     0.173 C 
BRANCH  25  26
HETATM   26  O3  UNL     1       9.022  14.969  21.485  1.00  0.00    -0.400 OA
ATOM     27  H3  UNL     1       9.165  15.696  20.890  1.00  0.00     0.209 HD
ENDBRANCH  25  26
ENDBRANCH  24  25
ENDBRANCH   5  24
TORSDOF 10
ENDMDL
