MODEL 1
REMARK VINA RESULT: -7.735025583      0.000      0.000
REMARK  11 active torsions:
REMARK  status: ('A' for Active; 'I' for Inactive)
REMARK    1  A    between atoms: C2_2  and  C3_3 
REMARK    2  A    between atoms: C3_3  and  C4_4 
REMARK    3  A    between atoms: C4_4  and  C5_5 
REMARK    4  A    between atoms: C5_5  and  C6_6 
REMARK    5  A    between atoms: C6_6  and  C7_7 
REMARK    6  A    between atoms: C7_7  and  C8_8 
REMARK       I    between atoms: C8_8  and  N1_10 
REMARK    7  A    between atoms: N1_10  and  C9_12 
REMARK    8  A    between atoms: C10_17  and  S1_18 
REMARK    9  A    between atoms: S1_18  and  C11_19 
REMARK   10  A    between atoms: C11_19  and  C12_20 
REMARK   11  A    between atoms: N4_24  and  O4_26 
ROOT
HETATM    1  C8  UNL     1       7.986  15.245  27.647  1.00  0.00     0.246 C 
HETATM    2  O1  UNL     1       8.692  16.088  28.291  1.00  0.00    -0.268 OA
HETATM    3  N1  UNL     1       8.325  13.902  27.527  1.00  0.00    -0.302 N 
ATOM      4  H1  UNL     1       8.516  13.403  28.395  1.00  0.00     0.171 HD
ENDROOT
BRANCH   3   5
HETATM    5  C9  UNL     1       8.425  13.216  26.435  1.00  0.00     0.168 A 
HETATM    6  N2  UNL     1       7.513  12.465  25.809  1.00  0.00    -0.278 N 
HETATM    7  N3  UNL     1       7.838  11.866  24.743  1.00  0.00    -0.286 N 
ATOM      8  H2  UNL     1       6.570  12.376  26.185  1.00  0.00     0.189 HD
HETATM    9  C10 UNL     1       9.066  11.983  24.258  1.00  0.00     0.130 A 
ATOM     10  H3  UNL     1       7.151  11.290  24.256  1.00  0.00     0.188 HD
HETATM   11  S2  UNL     1       9.781  13.019  25.411  1.00  0.00    -0.026 SA
BRANCH   9  12
HETATM   12  S1  UNL     1       9.769  11.260  22.784  1.00  0.00    -0.093 SA
BRANCH  12  13
HETATM   13  C11 UNL     1       9.558  12.391  21.385  1.00  0.00     0.194 C 
BRANCH  13  14
HETATM   14  C12 UNL     1      10.135  13.699  21.730  1.00  0.00     0.182 C 
HETATM   15  O2  UNL     1       9.351  14.656  21.901  1.00  0.00    -0.647 OA
HETATM   16  O3  UNL     1      11.504  13.857  21.862  1.00  0.00    -0.647 OA
ENDBRANCH  13  14
ENDBRANCH  12  13
ENDBRANCH   9  12
ENDBRANCH   3   5
BRANCH   1  17
HETATM   17  C7  UNL     1       6.775  15.747  27.023  1.00  0.00     0.070 C 
BRANCH  17  18
HETATM   18  C6  UNL     1       6.781  16.411  25.884  1.00  0.00    -0.021 C 
BRANCH  18  19
HETATM   19  C5  UNL     1       5.605  17.234  25.538  1.00  0.00     0.027 C 
BRANCH  19  20
HETATM   20  C4  UNL     1       4.616  16.515  24.645  1.00  0.00     0.009 C 
BRANCH  20  21
HETATM   21  C3  UNL     1       3.647  17.586  24.161  1.00  0.00     0.054 C 
BRANCH  21  22
HETATM   22  C2  UNL     1       2.820  18.024  25.292  1.00  0.00     0.006 C 
HETATM   23  C1  UNL     1       2.403  19.438  25.360  1.00  0.00     0.065 C 
HETATM   24  N4  UNL     1       2.496  17.140  26.180  1.00  0.00    -0.278 N 
ATOM     25  H4  UNL     1       2.819  16.179  26.069  1.00  0.00     0.193 HD
BRANCH  24  26
HETATM   26  O4  UNL     1       1.734  17.466  27.260  1.00  0.00    -0.290 OA
ATOM     27  H4  UNL     1       0.800  17.291  27.279  1.00  0.00     0.244 HD
ENDBRANCH  24  26
ENDBRANCH  21  22
ENDBRANCH  20  21
ENDBRANCH  19  20
ENDBRANCH  18  19
ENDBRANCH  17  18
ENDBRANCH   1  17
TORSDOF 11
ENDMDL
MODEL 2
REMARK VINA RESULT: -7.715920987      1.145      1.300
REMARK  11 active torsions:
REMARK  status: ('A' for Active; 'I' for Inactive)
REMARK    1  A    between atoms: C2_2  and  C3_3 
REMARK    2  A    between atoms: C3_3  and  C4_4 
REMARK    3  A    between atoms: C4_4  and  C5_5 
REMARK    4  A    between atoms: C5_5  and  C6_6 
REMARK    5  A    between atoms: C6_6  and  C7_7 
REMARK    6  A    between atoms: C7_7  and  C8_8 
REMARK       I    between atoms: C8_8  and  N1_10 
REMARK    7  A    between atoms: N1_10  and  C9_12 
REMARK    8  A    between atoms: C10_17  and  S1_18 
REMARK    9  A    between atoms: S1_18  and  C11_19 
REMARK   10  A    between atoms: C11_19  and  C12_20 
REMARK   11  A    between atoms: N4_24  and  O4_26 
ROOT
HETATM    1  C8  UNL     1       7.307  15.787  26.892  1.00  0.00     0.246 C 
HETATM    2  O1  UNL     1       7.908  16.258  27.913  1.00  0.00    -0.268 OA
HETATM    3  N1  UNL     1       7.068  14.429  26.709  1.00  0.00    -0.302 N 
ATOM      4  H1  UNL     1       6.602  13.944  27.475  1.00  0.00     0.171 HD
ENDROOT
BRANCH   3   5
HETATM    5  C9  UNL     1       7.371  13.715  25.674  1.00  0.00     0.168 A 
HETATM    6  N2  UNL     1       6.590  13.260  24.690  1.00  0.00    -0.278 N 
HETATM    7  N3  UNL     1       7.106  12.560  23.770  1.00  0.00    -0.286 N 
ATOM      8  H2  UNL     1       5.593  13.473  24.680  1.00  0.00     0.189 HD
HETATM    9  C10 UNL     1       8.402  12.285  23.787  1.00  0.00     0.130 A 
ATOM     10  H3  UNL     1       6.521  12.207  23.013  1.00  0.00     0.188 HD
HETATM   11  S2  UNL     1       8.893  13.086  25.212  1.00  0.00    -0.026 SA
BRANCH   9  12
HETATM   12  S1  UNL     1       9.369  11.341  22.619  1.00  0.00    -0.093 SA
BRANCH  12  13
HETATM   13  C11 UNL     1       9.728  12.352  21.161  1.00  0.00     0.194 C 
BRANCH  13  14
HETATM   14  C12 UNL     1      10.208  13.673  21.594  1.00  0.00     0.182 C 
HETATM   15  O2  UNL     1       9.421  14.639  21.503  1.00  0.00    -0.647 OA
HETATM   16  O3  UNL     1      11.491  13.833  22.088  1.00  0.00    -0.647 OA
ENDBRANCH  13  14
ENDBRANCH  12  13
ENDBRANCH   9  12
ENDBRANCH   3   5
BRANCH   1  17
HETATM   17  C7  UNL     1       6.866  16.743  25.894  1.00  0.00     0.070 C 
BRANCH  17  18
HETATM   18  C6  UNL     1       5.593  16.968  25.634  1.00  0.00    -0.021 C 
BRANCH  18  19
HETATM   19  C5  UNL     1       5.062  16.583  24.310  1.00  0.00     0.027 C 
BRANCH  19  20
HETATM   20  C4  UNL     1       3.570  16.804  24.179  1.00  0.00     0.009 C 
BRANCH  20  21
HETATM   21  C3  UNL     1       3.415  18.092  23.381  1.00  0.00     0.054 C 
BRANCH  21  22
HETATM   22  C2  UNL     1       2.856  19.129  24.258  1.00  0.00     0.006 C 
HETATM   23  C1  UNL     1       2.923  20.537  23.822  1.00  0.00     0.065 C 
HETATM   24  N4  UNL     1       2.328  18.752  25.377  1.00  0.00    -0.278 N 
ATOM     25  H4  UNL     1       2.315  17.759  25.614  1.00  0.00     0.193 HD
BRANCH  24  26
HETATM   26  O4  UNL     1       1.790  19.651  26.247  1.00  0.00    -0.290 OA
ATOM     27  H4  UNL     1       0.947  19.499  26.658  1.00  0.00     0.244 HD
ENDBRANCH  24  26
ENDBRANCH  21  22
ENDBRANCH  20  21
ENDBRANCH  19  20
ENDBRANCH  18  19
ENDBRANCH  17  18
ENDBRANCH   1  17
TORSDOF 11
ENDMDL
MODEL 3
REMARK VINA RESULT: -7.670776001      1.496      1.716
REMARK  11 active torsions:
REMARK  status: ('A' for Active; 'I' for Inactive)
REMARK    1  A    between atoms: C2_2  and  C3_3 
REMARK    2  A    between atoms: C3_3  and  C4_4 
REMARK    3  A    between atoms: C4_4  and  C5_5 
REMARK    4  A    between atoms: C5_5  and  C6_6 
REMARK    5  A    between atoms: C6_6  and  C7_7 
REMARK    6  A    between atoms: C7_7  and  C8_8 
REMARK       I    between atoms: C8_8  and  N1_10 
REMARK    7  A    between atoms: N1_10  and  C9_12 
REMARK    8  A    between atoms: C10_17  and  S1_18 
REMARK    9  A    between atoms: S1_18  and  C11_19 
REMARK   10  A    between atoms: C11_19  and  C12_20 
REMARK   11  A    between atoms: N4_24  and  O4_26 
ROOT
HETATM    1  C8  UNL     1       8.240  15.074  27.699  1.00  0.00     0.246 C 
HETATM    2  O1  UNL     1       8.979  15.910  28.316  1.00  0.00    -0.268 OA
HETATM    3  N1  UNL     1       8.593  13.742  27.510  1.00  0.00    -0.302 N 
ATOM      4  H1  UNL     1       8.858  13.220  28.345  1.00  0.00     0.171 HD
ENDROOT
BRANCH   3   5
HETATM    5  C9  UNL     1       8.622  13.093  26.392  1.00  0.00     0.168 A 
HETATM    6  N2  UNL     1       7.650  12.421  25.767  1.00  0.00    -0.278 N 
HETATM    7  N3  UNL     1       7.909  11.844  24.671  1.00  0.00    -0.286 N 
ATOM      8  H2  UNL     1       6.714  12.373  26.168  1.00  0.00     0.189 HD
HETATM    9  C10 UNL     1       9.128  11.907  24.154  1.00  0.00     0.130 A 
ATOM     10  H3  UNL     1       7.176  11.328  24.184  1.00  0.00     0.188 HD
HETATM   11  S2  UNL     1       9.935  12.856  25.321  1.00  0.00    -0.026 SA
BRANCH   9  12
HETATM   12  S1  UNL     1       9.746  11.200  22.635  1.00  0.00    -0.093 SA
BRANCH  12  13
HETATM   13  C11 UNL     1       9.566  12.394  21.285  1.00  0.00     0.194 C 
BRANCH  13  14
HETATM   14  C12 UNL     1      10.049  13.708  21.734  1.00  0.00     0.182 C 
HETATM   15  O2  UNL     1      11.277  13.849  21.912  1.00  0.00    -0.647 OA
HETATM   16  O3  UNL     1       9.165  14.751  21.949  1.00  0.00    -0.647 OA
ENDBRANCH  13  14
ENDBRANCH  12  13
ENDBRANCH   9  12
ENDBRANCH   3   5
BRANCH   1  17
HETATM   17  C7  UNL     1       6.977  15.571  27.186  1.00  0.00     0.070 C 
BRANCH  17  18
HETATM   18  C6  UNL     1       6.849  16.082  25.978  1.00  0.00    -0.021 C 
BRANCH  18  19
HETATM   19  C5  UNL     1       5.960  17.248  25.793  1.00  0.00     0.027 C 
BRANCH  19  20
HETATM   20  C4  UNL     1       4.710  16.923  25.004  1.00  0.00     0.009 C 
BRANCH  20  21
HETATM   21  C3  UNL     1       3.664  17.934  25.459  1.00  0.00     0.054 C 
BRANCH  21  22
HETATM   22  C2  UNL     1       3.619  19.038  24.492  1.00  0.00     0.006 C 
HETATM   23  C1  UNL     1       3.282  18.737  23.088  1.00  0.00     0.065 C 
HETATM   24  N4  UNL     1       3.880  20.229  24.925  1.00  0.00    -0.278 N 
ATOM     25  H4  UNL     1       4.104  20.364  25.911  1.00  0.00     0.193 HD
BRANCH  24  26
HETATM   26  O4  UNL     1       3.861  21.306  24.092  1.00  0.00    -0.290 OA
ATOM     27  H4  UNL     1       4.538  21.972  24.128  1.00  0.00     0.244 HD
ENDBRANCH  24  26
ENDBRANCH  21  22
ENDBRANCH  20  21
ENDBRANCH  19  20
ENDBRANCH  18  19
ENDBRANCH  17  18
ENDBRANCH   1  17
TORSDOF 11
ENDMDL
MODEL 4
REMARK VINA RESULT: -7.670616458      2.132      2.434
REMARK  11 active torsions:
REMARK  status: ('A' for Active; 'I' for Inactive)
REMARK    1  A    between atoms: C2_2  and  C3_3 
REMARK    2  A    between atoms: C3_3  and  C4_4 
REMARK    3  A    between atoms: C4_4  and  C5_5 
REMARK    4  A    between atoms: C5_5  and  C6_6 
REMARK    5  A    between atoms: C6_6  and  C7_7 
REMARK    6  A    between atoms: C7_7  and  C8_8 
REMARK       I    between atoms: C8_8  and  N1_10 
REMARK    7  A    between atoms: N1_10  and  C9_12 
REMARK    8  A    between atoms: C10_17  and  S1_18 
REMARK    9  A    between atoms: S1_18  and  C11_19 
REMARK   10  A    between atoms: C11_19  and  C12_20 
REMARK   11  A    between atoms: N4_24  and  O4_26 
ROOT
HETATM    1  C8  UNL     1       7.434  15.800  26.868  1.00  0.00     0.246 C 
HETATM    2  O1  UNL     1       7.940  16.564  27.755  1.00  0.00    -0.268 OA
HETATM    3  N1  UNL     1       7.335  14.421  27.020  1.00  0.00    -0.302 N 
ATOM      4  H1  UNL     1       6.884  14.089  27.871  1.00  0.00     0.171 HD
ENDROOT
BRANCH   3   5
HETATM    5  C9  UNL     1       7.753  13.513  26.198  1.00  0.00     0.168 A 
HETATM    6  N2  UNL     1       7.060  12.635  25.468  1.00  0.00    -0.278 N 
HETATM    7  N3  UNL     1       7.685  11.819  24.730  1.00  0.00    -0.286 N 
ATOM      8  H2  UNL     1       6.041  12.622  25.505  1.00  0.00     0.189 HD
HETATM    9  C10 UNL     1       9.010  11.839  24.685  1.00  0.00     0.130 A 
ATOM     10  H3  UNL     1       7.167  11.145  24.167  1.00  0.00     0.188 HD
HETATM   11  S2  UNL     1       9.360  13.109  25.771  1.00  0.00    -0.026 SA
BRANCH   9  12
HETATM   12  S1  UNL     1      10.120  10.817  23.730  1.00  0.00    -0.093 SA
BRANCH  12  13
HETATM   13  C11 UNL     1      11.791  11.514  23.781  1.00  0.00     0.194 C 
BRANCH  13  14
HETATM   14  C12 UNL     1      12.412  11.187  25.073  1.00  0.00     0.182 C 
HETATM   15  O2  UNL     1      13.276  11.971  25.520  1.00  0.00    -0.647 OA
HETATM   16  O3  UNL     1      12.045  10.047  25.767  1.00  0.00    -0.647 OA
ENDBRANCH  13  14
ENDBRANCH  12  13
ENDBRANCH   9  12
ENDBRANCH   3   5
BRANCH   1  17
HETATM   17  C7  UNL     1       6.948  16.434  25.658  1.00  0.00     0.070 C 
BRANCH  17  18
HETATM   18  C6  UNL     1       5.681  16.753  25.477  1.00  0.00    -0.021 C 
BRANCH  18  19
HETATM   19  C5  UNL     1       5.033  16.383  24.203  1.00  0.00     0.027 C 
BRANCH  19  20
HETATM   20  C4  UNL     1       3.570  16.768  24.146  1.00  0.00     0.009 C 
BRANCH  20  21
HETATM   21  C3  UNL     1       3.523  18.091  23.390  1.00  0.00     0.054 C 
BRANCH  21  22
HETATM   22  C2  UNL     1       2.915  19.110  24.255  1.00  0.00     0.006 C 
HETATM   23  C1  UNL     1       2.943  20.519  23.818  1.00  0.00     0.065 C 
HETATM   24  N4  UNL     1       2.382  18.718  25.367  1.00  0.00    -0.278 N 
ATOM     25  H4  UNL     1       2.398  17.726  25.606  1.00  0.00     0.193 HD
BRANCH  24  26
HETATM   26  O4  UNL     1       1.801  19.600  26.225  1.00  0.00    -0.290 OA
ATOM     27  H4  UNL     1       1.754  19.426  27.158  1.00  0.00     0.244 HD
ENDBRANCH  24  26
ENDBRANCH  21  22
ENDBRANCH  20  21
ENDBRANCH  19  20
ENDBRANCH  18  19
ENDBRANCH  17  18
ENDBRANCH   1  17
TORSDOF 11
ENDMDL
MODEL 5
REMARK VINA RESULT: -7.664876474      2.234      2.794
REMARK  11 active torsions:
REMARK  status: ('A' for Active; 'I' for Inactive)
REMARK    1  A    between atoms: C2_2  and  C3_3 
REMARK    2  A    between atoms: C3_3  and  C4_4 
REMARK    3  A    between atoms: C4_4  and  C5_5 
REMARK    4  A    between atoms: C5_5  and  C6_6 
REMARK    5  A    between atoms: C6_6  and  C7_7 
REMARK    6  A    between atoms: C7_7  and  C8_8 
REMARK       I    between atoms: C8_8  and  N1_10 
REMARK    7  A    between atoms: N1_10  and  C9_12 
REMARK    8  A    between atoms: C10_17  and  S1_18 
REMARK    9  A    between atoms: S1_18  and  C11_19 
REMARK   10  A    between atoms: C11_19  and  C12_20 
REMARK   11  A    between atoms: N4_24  and  O4_26 
ROOT
HETATM    1  C8  UNL     1       6.846  15.402  25.010  1.00  0.00     0.246 C 
HETATM    2  O1  UNL     1       7.164  16.454  25.656  1.00  0.00    -0.268 OA
HETATM    3  N1  UNL     1       7.055  14.117  25.499  1.00  0.00    -0.302 N 
ATOM      4  H1  UNL     1       6.684  13.918  26.427  1.00  0.00     0.171 HD
ENDROOT
BRANCH   3   5
HETATM    5  C9  UNL     1       7.668  13.145  24.904  1.00  0.00     0.168 A 
HETATM    6  N2  UNL     1       7.175  12.145  24.169  1.00  0.00    -0.278 N 
HETATM    7  N3  UNL     1       7.970  11.287  23.685  1.00  0.00    -0.286 N 
ATOM      8  H2  UNL     1       6.172  12.072  24.000  1.00  0.00     0.189 HD
HETATM    9  C10 UNL     1       9.274  11.385  23.908  1.00  0.00     0.130 A 
ATOM     10  H3  UNL     1       7.607  10.519  23.122  1.00  0.00     0.188 HD
HETATM   11  S2  UNL     1       9.342  12.795  24.868  1.00  0.00    -0.026 SA
BRANCH   9  12
HETATM   12  S1  UNL     1      10.596  10.327  23.340  1.00  0.00    -0.093 SA
BRANCH  12  13
HETATM   13  C11 UNL     1      12.190  11.144  23.604  1.00  0.00     0.194 C 
BRANCH  13  14
HETATM   14  C12 UNL     1      12.577  11.004  25.016  1.00  0.00     0.182 C 
HETATM   15  O2  UNL     1      12.101  10.044  25.659  1.00  0.00    -0.647 OA
HETATM   16  O3  UNL     1      13.443  11.908  25.606  1.00  0.00    -0.647 OA
ENDBRANCH  13  14
ENDBRANCH  12  13
ENDBRANCH   9  12
ENDBRANCH   3   5
BRANCH   1  17
HETATM   17  C7  UNL     1       6.237  15.594  23.707  1.00  0.00     0.070 C 
BRANCH  17  18
HETATM   18  C6  UNL     1       4.948  15.822  23.547  1.00  0.00    -0.021 C 
BRANCH  18  19
HETATM   19  C5  UNL     1       4.530  16.933  22.669  1.00  0.00     0.027 C 
BRANCH  19  20
HETATM   20  C4  UNL     1       3.562  17.888  23.336  1.00  0.00     0.009 C 
BRANCH  20  21
HETATM   21  C3  UNL     1       4.090  18.084  24.751  1.00  0.00     0.054 C 
BRANCH  21  22
HETATM   22  C2  UNL     1       2.953  18.296  25.656  1.00  0.00     0.006 C 
HETATM   23  C1  UNL     1       2.149  19.523  25.508  1.00  0.00     0.065 C 
HETATM   24  N4  UNL     1       2.713  17.387  26.545  1.00  0.00    -0.278 N 
ATOM     25  H4  UNL     1       3.310  16.561  26.590  1.00  0.00     0.193 HD
BRANCH  24  26
HETATM   26  O4  UNL     1       1.679  17.509  27.423  1.00  0.00    -0.290 OA
ATOM     27  H4  UNL     1       1.252  16.746  27.795  1.00  0.00     0.244 HD
ENDBRANCH  24  26
ENDBRANCH  21  22
ENDBRANCH  20  21
ENDBRANCH  19  20
ENDBRANCH  18  19
ENDBRANCH  17  18
ENDBRANCH   1  17
TORSDOF 11
ENDMDL
