MODEL 1
REMARK VINA RESULT: -7.987209714      0.000      0.000
REMARK  10 active torsions:
REMARK  status: ('A' for Active; 'I' for Inactive)
REMARK    1  A    between atoms: O1_1  and  C1_3 
REMARK    2  A    between atoms: N1_7  and  C5_8 
REMARK    3  A    between atoms: C5_8  and  C6_9 
REMARK    4  A    between atoms: N2_11  and  C8_12 
REMARK    5  A    between atoms: C8_12  and  C9_13 
REMARK    6  A    between atoms: C9_13  and  C10_14 
REMARK    7  A    between atoms: C10_14  and  C11_15 
REMARK    8  A    between atoms: C11_15  and  C12_16 
REMARK    9  A    between atoms: C12_16  and  C13_17 
REMARK   10  A    between atoms: C18_29  and  O2_30 
ROOT
HETATM    1  C6  UNL     1       5.739  15.777  23.631  1.00  0.00     0.061 A 
HETATM    2  C7  UNL     1       6.548  15.130  22.719  1.00  0.00     0.139 A 
HETATM    3  N2  UNL     1       7.794  15.056  23.208  1.00  0.00    -0.287 N 
HETATM    4  N4  UNL     1       7.775  15.634  24.385  1.00  0.00    -0.241 N 
ATOM      5  H4  UNL     1       8.583  15.732  25.000  1.00  0.00     0.208 HD
HETATM    6  N5  UNL     1       6.558  16.073  24.660  1.00  0.00    -0.287 N 
ATOM      7  H5  UNL     1       6.284  16.558  25.514  1.00  0.00     0.188 HD
ENDROOT
BRANCH   3   8
HETATM    8  C8  UNL     1       8.884  14.429  22.482  1.00  0.00     0.150 C 
BRANCH   8   9
HETATM    9  C9  UNL     1       8.648  12.930  22.554  1.00  0.00     0.022 C 
BRANCH   9  10
HETATM   10  C10 UNL     1      10.004  12.315  22.991  1.00  0.00     0.002 C 
BRANCH  10  11
HETATM   11  C11 UNL     1       9.780  11.737  24.337  1.00  0.00     0.002 C 
BRANCH  11  12
HETATM   12  C12 UNL     1      10.204  12.492  25.523  1.00  0.00     0.033 C 
BRANCH  12  13
HETATM   13  C13 UNL     1       9.228  12.969  26.510  1.00  0.00     0.185 C 
HETATM   14  C14 UNL     1       7.802  12.799  26.082  1.00  0.00     0.033 C 
HETATM   15  C15 UNL     1       7.034  12.649  27.419  1.00  0.00     0.004 C 
HETATM   16  C16 UNL     1       7.287  13.885  28.198  1.00  0.00     0.027 C 
HETATM   17  C17 UNL     1       8.311  14.827  27.727  1.00  0.00     0.232 C 
HETATM   18  N3  UNL     1       9.466  14.277  27.073  1.00  0.00    -0.071 N 
ATOM     19  H32 UNL     1      10.267  14.262  27.704  1.00  0.00     0.277 HD
ATOM     20  H31 UNL     1       9.823  14.918  26.365  1.00  0.00     0.277 HD
ENDBRANCH  12  13
ENDBRANCH  11  12
ENDBRANCH  10  11
ENDBRANCH   9  10
ENDBRANCH   8   9
ENDBRANCH   3   8
BRANCH   1  21
HETATM   21  C5  UNL     1       4.311  16.081  23.518  1.00  0.00     0.179 C 
BRANCH  21  22
HETATM   22  N1  UNL     1       3.925  17.331  24.090  1.00  0.00    -0.380 N 
HETATM   23  C4  UNL     1       3.335  18.270  23.192  1.00  0.00     0.120 C 
HETATM   24  C3  UNL     1       3.449  19.658  23.835  1.00  0.00     0.022 C 
HETATM   25  C2  UNL     1       2.920  19.644  25.241  1.00  0.00     0.038 C 
HETATM   26  C1  UNL     1       2.252  18.328  25.539  1.00  0.00     0.166 C 
HETATM   27  C18 UNL     1       3.278  17.221  25.360  1.00  0.00     0.245 C 
BRANCH  26  28
HETATM   28  O1  UNL     1       1.860  18.334  26.873  1.00  0.00    -0.391 OA
ATOM     29  H1  UNL     1       2.635  18.212  27.409  1.00  0.00     0.210 HD
ENDBRANCH  26  28
BRANCH  27  30
HETATM   30  O2  UNL     1       4.239  17.383  26.357  1.00  0.00    -0.374 OA
ATOM     31  H2  UNL     1       4.045  16.752  27.040  1.00  0.00     0.212 HD
ENDBRANCH  27  30
ENDBRANCH  21  22
ENDBRANCH   1  21
TORSDOF 10
ENDMDL
MODEL 2
REMARK VINA RESULT: -7.707447255      3.120      5.361
REMARK  10 active torsions:
REMARK  status: ('A' for Active; 'I' for Inactive)
REMARK    1  A    between atoms: O1_1  and  C1_3 
REMARK    2  A    between atoms: N1_7  and  C5_8 
REMARK    3  A    between atoms: C5_8  and  C6_9 
REMARK    4  A    between atoms: N2_11  and  C8_12 
REMARK    5  A    between atoms: C8_12  and  C9_13 
REMARK    6  A    between atoms: C9_13  and  C10_14 
REMARK    7  A    between atoms: C10_14  and  C11_15 
REMARK    8  A    between atoms: C11_15  and  C12_16 
REMARK    9  A    between atoms: C12_16  and  C13_17 
REMARK   10  A    between atoms: C18_29  and  O2_30 
ROOT
HETATM    1  C6  UNL     1       5.720  15.746  24.037  1.00  0.00     0.061 A 
HETATM    2  C7  UNL     1       6.730  15.141  23.318  1.00  0.00     0.139 A 
HETATM    3  N2  UNL     1       7.779  14.926  24.126  1.00  0.00    -0.287 N 
HETATM    4  N4  UNL     1       7.445  15.378  25.310  1.00  0.00    -0.241 N 
ATOM      5  H4  UNL     1       8.045  15.351  26.134  1.00  0.00     0.208 HD
HETATM    6  N5  UNL     1       6.219  15.873  25.283  1.00  0.00    -0.287 N 
ATOM      7  H5  UNL     1       5.731  16.285  26.078  1.00  0.00     0.188 HD
ENDROOT
BRANCH   3   8
HETATM    8  C8  UNL     1       9.005  14.300  23.664  1.00  0.00     0.150 C 
BRANCH   8   9
HETATM    9  C9  UNL     1       8.928  14.260  22.148  1.00  0.00     0.022 C 
BRANCH   9  10
HETATM   10  C10 UNL     1       9.391  12.835  21.744  1.00  0.00     0.002 C 
BRANCH  10  11
HETATM   11  C11 UNL     1      10.051  12.973  20.425  1.00  0.00     0.002 C 
BRANCH  11  12
HETATM   12  C12 UNL     1      10.506  14.299  19.983  1.00  0.00     0.033 C 
BRANCH  12  13
HETATM   13  C13 UNL     1      11.272  14.465  18.744  1.00  0.00     0.185 C 
HETATM   14  C14 UNL     1      12.268  13.373  18.495  1.00  0.00     0.033 C 
HETATM   15  C15 UNL     1      12.386  13.329  16.951  1.00  0.00     0.004 C 
HETATM   16  C16 UNL     1      12.842  14.671  16.518  1.00  0.00     0.027 C 
HETATM   17  C17 UNL     1      12.862  15.766  17.497  1.00  0.00     0.232 C 
HETATM   18  N3  UNL     1      11.840  15.772  18.506  1.00  0.00    -0.071 N 
ATOM     19  H32 UNL     1      11.112  16.450  18.283  1.00  0.00     0.277 HD
ATOM     20  H31 UNL     1      12.188  16.180  19.374  1.00  0.00     0.277 HD
ENDBRANCH  12  13
ENDBRANCH  11  12
ENDBRANCH  10  11
ENDBRANCH   9  10
ENDBRANCH   8   9
ENDBRANCH   3   8
BRANCH   1  21
HETATM   21  C5  UNL     1       4.397  16.164  23.566  1.00  0.00     0.179 C 
BRANCH  21  22
HETATM   22  N1  UNL     1       3.956  17.421  24.078  1.00  0.00    -0.380 N 
HETATM   23  C4  UNL     1       3.456  18.345  23.112  1.00  0.00     0.120 C 
HETATM   24  C3  UNL     1       3.505  19.742  23.742  1.00  0.00     0.022 C 
HETATM   25  C2  UNL     1       2.840  19.748  25.089  1.00  0.00     0.038 C 
HETATM   26  C1  UNL     1       2.147  18.435  25.341  1.00  0.00     0.166 C 
HETATM   27  C18 UNL     1       3.187  17.328  25.280  1.00  0.00     0.245 C 
BRANCH  26  28
HETATM   28  O1  UNL     1       1.627  18.460  26.629  1.00  0.00    -0.391 OA
ATOM     29  H1  UNL     1       2.350  18.386  27.241  1.00  0.00     0.210 HD
ENDBRANCH  26  28
BRANCH  27  30
HETATM   30  O2  UNL     1       4.045  17.508  26.363  1.00  0.00    -0.374 OA
ATOM     31  H2  UNL     1       4.840  17.023  26.177  1.00  0.00     0.212 HD
ENDBRANCH  27  30
ENDBRANCH  21  22
ENDBRANCH   1  21
TORSDOF 10
ENDMDL
MODEL 3
REMARK VINA RESULT: -7.703816803      2.962      7.520
REMARK  10 active torsions:
REMARK  status: ('A' for Active; 'I' for Inactive)
REMARK    1  A    between atoms: O1_1  and  C1_3 
REMARK    2  A    between atoms: N1_7  and  C5_8 
REMARK    3  A    between atoms: C5_8  and  C6_9 
REMARK    4  A    between atoms: N2_11  and  C8_12 
REMARK    5  A    between atoms: C8_12  and  C9_13 
REMARK    6  A    between atoms: C9_13  and  C10_14 
REMARK    7  A    between atoms: C10_14  and  C11_15 
REMARK    8  A    between atoms: C11_15  and  C12_16 
REMARK    9  A    between atoms: C12_16  and  C13_17 
REMARK   10  A    between atoms: C18_29  and  O2_30 
ROOT
HETATM    1  C6  UNL     1       8.237  12.601  25.365  1.00  0.00     0.061 A 
HETATM    2  C7  UNL     1       8.478  13.920  25.690  1.00  0.00     0.139 A 
HETATM    3  N2  UNL     1       7.528  14.348  26.534  1.00  0.00    -0.287 N 
HETATM    4  N4  UNL     1       6.716  13.339  26.735  1.00  0.00    -0.241 N 
ATOM      5  H4  UNL     1       5.892  13.364  27.336  1.00  0.00     0.208 HD
HETATM    6  N5  UNL     1       7.118  12.283  26.048  1.00  0.00    -0.287 N 
ATOM      7  H5  UNL     1       6.657  11.374  26.036  1.00  0.00     0.188 HD
ENDROOT
BRANCH   3   8
HETATM    8  C8  UNL     1       7.502  15.700  27.063  1.00  0.00     0.150 C 
BRANCH   8   9
HETATM    9  C9  UNL     1       6.282  16.378  26.464  1.00  0.00     0.022 C 
BRANCH   9  10
HETATM   10  C10 UNL     1       6.542  16.430  24.935  1.00  0.00     0.002 C 
BRANCH  10  11
HETATM   11  C11 UNL     1       5.344  15.844  24.292  1.00  0.00     0.002 C 
BRANCH  11  12
HETATM   12  C12 UNL     1       4.373  16.731  23.636  1.00  0.00     0.033 C 
BRANCH  12  13
HETATM   13  C13 UNL     1       3.469  17.580  24.420  1.00  0.00     0.185 C 
HETATM   14  C14 UNL     1       4.027  18.937  24.727  1.00  0.00     0.033 C 
HETATM   15  C15 UNL     1       2.767  19.830  24.856  1.00  0.00     0.004 C 
HETATM   16  C16 UNL     1       1.944  19.255  25.946  1.00  0.00     0.027 C 
HETATM   17  C17 UNL     1       2.303  17.938  26.490  1.00  0.00     0.232 C 
HETATM   18  N3  UNL     1       2.860  16.975  25.582  1.00  0.00    -0.071 N 
ATOM     19  H32 UNL     1       2.161  16.285  25.309  1.00  0.00     0.277 HD
ATOM     20  H31 UNL     1       3.520  16.363  26.061  1.00  0.00     0.277 HD
ENDBRANCH  12  13
ENDBRANCH  11  12
ENDBRANCH  10  11
ENDBRANCH   9  10
ENDBRANCH   8   9
ENDBRANCH   3   8
BRANCH   1  21
HETATM   21  C5  UNL     1       9.012  11.731  24.478  1.00  0.00     0.179 C 
BRANCH  21  22
HETATM   22  N1  UNL     1       9.736  12.419  23.458  1.00  0.00    -0.380 N 
HETATM   23  C4  UNL     1      11.150  12.227  23.463  1.00  0.00     0.120 C 
HETATM   24  C3  UNL     1      11.774  13.378  22.664  1.00  0.00     0.022 C 
HETATM   25  C2  UNL     1      11.116  13.518  21.320  1.00  0.00     0.038 C 
HETATM   26  C1  UNL     1      10.177  12.367  21.071  1.00  0.00     0.166 C 
HETATM   27  C18 UNL     1       9.124  12.366  22.167  1.00  0.00     0.245 C 
BRANCH  26  28
HETATM   28  O1  UNL     1       9.532  12.589  19.861  1.00  0.00    -0.391 OA
ATOM     29  H1  UNL     1       8.888  13.276  19.991  1.00  0.00     0.210 HD
ENDBRANCH  26  28
BRANCH  27  30
HETATM   30  O2  UNL     1       8.353  13.515  22.001  1.00  0.00    -0.374 OA
ATOM     31  H2  UNL     1       7.450  13.277  22.175  1.00  0.00     0.212 HD
ENDBRANCH  27  30
ENDBRANCH  21  22
ENDBRANCH   1  21
TORSDOF 10
ENDMDL
MODEL 4
REMARK VINA RESULT: -7.648569773      1.494      1.910
REMARK  10 active torsions:
REMARK  status: ('A' for Active; 'I' for Inactive)
REMARK    1  A    between atoms: O1_1  and  C1_3 
REMARK    2  A    between atoms: N1_7  and  C5_8 
REMARK    3  A    between atoms: C5_8  and  C6_9 
REMARK    4  A    between atoms: N2_11  and  C8_12 
REMARK    5  A    between atoms: C8_12  and  C9_13 
REMARK    6  A    between atoms: C9_13  and  C10_14 
REMARK    7  A    between atoms: C10_14  and  C11_15 
REMARK    8  A    between atoms: C11_15  and  C12_16 
REMARK    9  A    between atoms: C12_16  and  C13_17 
REMARK   10  A    between atoms: C18_29  and  O2_30 
ROOT
HETATM    1  C6  UNL     1       5.833  15.933  24.410  1.00  0.00     0.061 A 
HETATM    2  C7  UNL     1       6.998  15.282  24.062  1.00  0.00     0.139 A 
HETATM    3  N2  UNL     1       6.729  14.371  23.115  1.00  0.00    -0.287 N 
HETATM    4  N4  UNL     1       5.443  14.443  22.874  1.00  0.00    -0.241 N 
ATOM      5  H4  UNL     1       4.944  13.866  22.196  1.00  0.00     0.208 HD
HETATM    6  N5  UNL     1       4.884  15.369  23.635  1.00  0.00    -0.287 N 
ATOM      7  H5  UNL     1       3.895  15.616  23.635  1.00  0.00     0.188 HD
ENDROOT
BRANCH   3   8
HETATM    8  C8  UNL     1       7.753  13.518  22.538  1.00  0.00     0.150 C 
BRANCH   8   9
HETATM    9  C9  UNL     1       9.083  14.210  22.780  1.00  0.00     0.022 C 
BRANCH   9  10
HETATM   10  C10 UNL     1      10.092  13.075  23.098  1.00  0.00     0.002 C 
BRANCH  10  11
HETATM   11  C11 UNL     1      10.703  13.419  24.403  1.00  0.00     0.002 C 
BRANCH  11  12
HETATM   12  C12 UNL     1      10.327  12.651  25.598  1.00  0.00     0.033 C 
BRANCH  12  13
HETATM   13  C13 UNL     1       9.322  13.155  26.540  1.00  0.00     0.185 C 
HETATM   14  C14 UNL     1       7.919  12.749  26.205  1.00  0.00     0.033 C 
HETATM   15  C15 UNL     1       7.207  12.721  27.582  1.00  0.00     0.004 C 
HETATM   16  C16 UNL     1       7.321  14.085  28.150  1.00  0.00     0.027 C 
HETATM   17  C17 UNL     1       8.207  15.057  27.496  1.00  0.00     0.232 C 
HETATM   18  N3  UNL     1       9.406  14.555  26.886  1.00  0.00    -0.071 N 
ATOM     19  H32 UNL     1      10.218  14.736  27.476  1.00  0.00     0.277 HD
ATOM     20  H31 UNL     1       9.662  15.115  26.073  1.00  0.00     0.277 HD
ENDBRANCH  12  13
ENDBRANCH  11  12
ENDBRANCH  10  11
ENDBRANCH   9  10
ENDBRANCH   8   9
ENDBRANCH   3   8
BRANCH   1  21
HETATM   21  C5  UNL     1       5.651  16.999  25.398  1.00  0.00     0.179 C 
BRANCH  21  22
HETATM   22  N1  UNL     1       4.347  17.580  25.409  1.00  0.00    -0.380 N 
HETATM   23  C4  UNL     1       3.724  17.685  26.688  1.00  0.00     0.120 C 
HETATM   24  C3  UNL     1       2.217  17.851  26.455  1.00  0.00     0.022 C 
HETATM   25  C2  UNL     1       1.944  18.959  25.477  1.00  0.00     0.038 C 
HETATM   26  C1  UNL     1       3.210  19.712  25.166  1.00  0.00     0.166 C 
HETATM   27  C18 UNL     1       4.213  18.734  24.575  1.00  0.00     0.245 C 
BRANCH  26  28
HETATM   28  O1  UNL     1       2.921  20.663  24.196  1.00  0.00    -0.391 OA
ATOM     29  H1  UNL     1       2.181  21.178  24.497  1.00  0.00     0.210 HD
ENDBRANCH  26  28
BRANCH  27  30
HETATM   30  O2  UNL     1       3.711  18.325  23.340  1.00  0.00    -0.374 OA
ATOM     31  H2  UNL     1       2.765  18.392  23.385  1.00  0.00     0.212 HD
ENDBRANCH  27  30
ENDBRANCH  21  22
ENDBRANCH   1  21
TORSDOF 10
ENDMDL
MODEL 5
REMARK VINA RESULT: -7.609037513      3.332      7.607
REMARK  10 active torsions:
REMARK  status: ('A' for Active; 'I' for Inactive)
REMARK    1  A    between atoms: O1_1  and  C1_3 
REMARK    2  A    between atoms: N1_7  and  C5_8 
REMARK    3  A    between atoms: C5_8  and  C6_9 
REMARK    4  A    between atoms: N2_11  and  C8_12 
REMARK    5  A    between atoms: C8_12  and  C9_13 
REMARK    6  A    between atoms: C9_13  and  C10_14 
REMARK    7  A    between atoms: C10_14  and  C11_15 
REMARK    8  A    between atoms: C11_15  and  C12_16 
REMARK    9  A    between atoms: C12_16  and  C13_17 
REMARK   10  A    between atoms: C18_29  and  O2_30 
ROOT
HETATM    1  C6  UNL     1       8.931  13.676  26.716  1.00  0.00     0.061 A 
HETATM    2  C7  UNL     1       8.436  14.830  26.143  1.00  0.00     0.139 A 
HETATM    3  N2  UNL     1       7.230  15.099  26.664  1.00  0.00    -0.287 N 
HETATM    4  N4  UNL     1       6.971  14.153  27.532  1.00  0.00    -0.241 N 
ATOM      5  H4  UNL     1       6.119  14.090  28.091  1.00  0.00     0.208 HD
HETATM    6  N5  UNL     1       7.972  13.290  27.582  1.00  0.00    -0.287 N 
ATOM      7  H5  UNL     1       8.013  12.465  28.180  1.00  0.00     0.188 HD
ENDROOT
BRANCH   3   8
HETATM    8  C8  UNL     1       6.445  16.254  26.264  1.00  0.00     0.150 C 
BRANCH   8   9
HETATM    9  C9  UNL     1       6.454  16.280  24.745  1.00  0.00     0.022 C 
BRANCH   9  10
HETATM   10  C10 UNL     1       5.652  15.028  24.301  1.00  0.00     0.002 C 
BRANCH  10  11
HETATM   11  C11 UNL     1       4.525  15.529  23.481  1.00  0.00     0.002 C 
BRANCH  11  12
HETATM   12  C12 UNL     1       4.325  16.978  23.341  1.00  0.00     0.033 C 
BRANCH  12  13
HETATM   13  C13 UNL     1       3.445  17.716  24.253  1.00  0.00     0.185 C 
HETATM   14  C14 UNL     1       3.977  19.059  24.653  1.00  0.00     0.033 C 
HETATM   15  C15 UNL     1       2.699  19.889  24.939  1.00  0.00     0.004 C 
HETATM   16  C16 UNL     1       1.966  19.185  26.018  1.00  0.00     0.027 C 
HETATM   17  C17 UNL     1       2.400  17.838  26.413  1.00  0.00     0.232 C 
HETATM   18  N3  UNL     1       2.931  16.985  25.387  1.00  0.00    -0.071 N 
ATOM     19  H32 UNL     1       2.238  16.297  25.092  1.00  0.00     0.277 HD
ATOM     20  H31 UNL     1       3.639  16.357  25.766  1.00  0.00     0.277 HD
ENDBRANCH  12  13
ENDBRANCH  11  12
ENDBRANCH  10  11
ENDBRANCH   9  10
ENDBRANCH   8   9
ENDBRANCH   3   8
BRANCH   1  21
HETATM   21  C5  UNL     1      10.207  13.009  26.451  1.00  0.00     0.179 C 
BRANCH  21  22
HETATM   22  N1  UNL     1      10.345  12.499  25.125  1.00  0.00    -0.380 N 
HETATM   23  C4  UNL     1       9.213  11.800  24.608  1.00  0.00     0.120 C 
HETATM   24  C3  UNL     1       9.700  10.934  23.440  1.00  0.00     0.022 C 
HETATM   25  C2  UNL     1      10.494  11.751  22.460  1.00  0.00     0.038 C 
HETATM   26  C1  UNL     1      10.412  13.214  22.806  1.00  0.00     0.166 C 
HETATM   27  C18 UNL     1      10.965  13.404  24.209  1.00  0.00     0.245 C 
BRANCH  26  28
HETATM   28  O1  UNL     1      11.231  13.913  21.927  1.00  0.00    -0.391 OA
ATOM     29  H1  UNL     1      11.348  14.792  22.267  1.00  0.00     0.210 HD
ENDBRANCH  26  28
BRANCH  27  30
HETATM   30  O2  UNL     1      12.327  13.110  24.159  1.00  0.00    -0.374 OA
ATOM     31  H2  UNL     1      12.794  13.892  24.429  1.00  0.00     0.212 HD
ENDBRANCH  27  30
ENDBRANCH  21  22
ENDBRANCH   1  21
TORSDOF 10
ENDMDL
