MODEL 1
REMARK VINA RESULT: -8.005395045      0.000      0.000
REMARK  10 active torsions:
REMARK  status: ('A' for Active; 'I' for Inactive)
REMARK    1  A    between atoms: S1_2  and  C1_5 
REMARK    2  A    between atoms: C1_5  and  C2_6 
REMARK    3  A    between atoms: C2_6  and  C3_7 
REMARK    4  A    between atoms: C3_7  and  C4_8 
REMARK    5  A    between atoms: C4_8  and  C5_9 
REMARK    6  A    between atoms: C5_9  and  C6_10 
REMARK    7  A    between atoms: C6_10  and  N1_11 
REMARK    8  A    between atoms: C11_18  and  C12_19 
REMARK    9  A    between atoms: C12_19  and  O4_20 
REMARK   10  A    between atoms: N3_22  and  O5_24 
ROOT
HETATM    1  N1  UNL     1       7.790  14.200  23.124  1.00  0.00    -0.345 N 
HETATM    2  C7  UNL     1       8.178  13.382  22.133  1.00  0.00     0.183 A 
HETATM    3  N2  UNL     1       9.007  12.443  22.623  1.00  0.00    -0.354 N 
ATOM      4  H2  UNL     1       9.447  11.697  22.083  1.00  0.00     0.166 HD
HETATM    5  C8  UNL     1       9.159  12.652  23.940  1.00  0.00     0.035 A 
HETATM    6  C9  UNL     1       8.396  13.753  24.259  1.00  0.00     0.038 A 
HETATM    7  C10 UNL     1       8.234  14.384  25.604  1.00  0.00     0.099 C 
HETATM    8  C11 UNL     1       9.607  14.859  26.107  1.00  0.00     0.203 C 
HETATM    9  O6  UNL     1      10.612  14.020  25.730  1.00  0.00    -0.377 OA
HETATM   10  C13 UNL     1      10.498  12.697  25.976  1.00  0.00     0.175 C 
HETATM   11  C14 UNL     1       9.989  11.845  24.867  1.00  0.00     0.085 C 
ENDROOT
BRANCH   1  12
HETATM   12  C6  UNL     1       6.901  15.345  23.043  1.00  0.00     0.130 C 
BRANCH  12  13
HETATM   13  C5  UNL     1       5.494  14.788  23.073  1.00  0.00     0.020 C 
BRANCH  13  14
HETATM   14  C4  UNL     1       4.590  15.722  23.785  1.00  0.00     0.002 C 
BRANCH  14  15
HETATM   15  C3  UNL     1       5.379  16.649  24.690  1.00  0.00     0.001 C 
BRANCH  15  16
HETATM   16  C2  UNL     1       4.517  17.545  25.505  1.00  0.00     0.018 C 
BRANCH  16  17
HETATM   17  C1  UNL     1       4.347  18.919  24.953  1.00  0.00     0.165 C 
BRANCH  17  18
HETATM   18  S1  UNL     1       2.670  19.369  24.716  1.00  0.00     0.101 S 
HETATM   19  O1  UNL     1       2.637  20.639  23.872  1.00  0.00    -0.595 OA
HETATM   20  O2  UNL     1       2.014  18.249  23.929  1.00  0.00    -0.595 OA
HETATM   21  O3  UNL     1       1.855  19.595  26.138  1.00  0.00    -0.595 OA
ENDBRANCH  17  18
ENDBRANCH  16  17
ENDBRANCH  15  16
ENDBRANCH  14  15
ENDBRANCH  13  14
ENDBRANCH  12  13
ENDBRANCH   1  12
BRANCH   8  22
HETATM   22  C12 UNL     1       9.525  15.174  27.528  1.00  0.00     0.165 C 
HETATM   23  N3  UNL     1      10.478  15.833  28.093  1.00  0.00    -0.249 N 
ATOM     24  H3  UNL     1      11.271  16.118  27.518  1.00  0.00     0.196 HD
BRANCH  22  25
HETATM   25  O4  UNL     1       8.476  14.817  28.365  1.00  0.00    -0.346 OA
ATOM     26  H4  UNL     1       8.301  15.202  29.216  1.00  0.00     0.219 HD
ENDBRANCH  22  25
BRANCH  23  27
HETATM   27  O5  UNL     1      10.487  16.175  29.421  1.00  0.00    -0.288 OA
ATOM     28  H5  UNL     1      10.521  17.069  29.737  1.00  0.00     0.244 HD
ENDBRANCH  23  27
ENDBRANCH   8  22
TORSDOF 10
ENDMDL
MODEL 2
REMARK VINA RESULT: -7.877622343      2.261      4.005
REMARK  10 active torsions:
REMARK  status: ('A' for Active; 'I' for Inactive)
REMARK    1  A    between atoms: S1_2  and  C1_5 
REMARK    2  A    between atoms: C1_5  and  C2_6 
REMARK    3  A    between atoms: C2_6  and  C3_7 
REMARK    4  A    between atoms: C3_7  and  C4_8 
REMARK    5  A    between atoms: C4_8  and  C5_9 
REMARK    6  A    between atoms: C5_9  and  C6_10 
REMARK    7  A    between atoms: C6_10  and  N1_11 
REMARK    8  A    between atoms: C11_18  and  C12_19 
REMARK    9  A    between atoms: C12_19  and  O4_20 
REMARK   10  A    between atoms: N3_22  and  O5_24 
ROOT
HETATM    1  N1  UNL     1       7.312  15.299  26.017  1.00  0.00    -0.345 N 
HETATM    2  C7  UNL     1       7.257  14.940  27.309  1.00  0.00     0.183 A 
HETATM    3  N2  UNL     1       8.275  14.107  27.588  1.00  0.00    -0.354 N 
ATOM      4  H2  UNL     1       8.467  13.685  28.498  1.00  0.00     0.166 HD
HETATM    5  C8  UNL     1       8.996  13.924  26.471  1.00  0.00     0.035 A 
HETATM    6  C9  UNL     1       8.396  14.670  25.483  1.00  0.00     0.038 A 
HETATM    7  C10 UNL     1       8.824  14.797  24.057  1.00  0.00     0.099 C 
HETATM    8  C11 UNL     1       8.792  13.409  23.395  1.00  0.00     0.203 C 
HETATM    9  O6  UNL     1       9.155  12.419  24.258  1.00  0.00    -0.377 OA
HETATM   10  C13 UNL     1      10.307  12.537  24.955  1.00  0.00     0.175 C 
HETATM   11  C14 UNL     1      10.207  13.079  26.337  1.00  0.00     0.085 C 
ENDROOT
BRANCH   1  12
HETATM   12  C6  UNL     1       6.414  16.182  25.294  1.00  0.00     0.130 C 
BRANCH  12  13
HETATM   13  C5  UNL     1       5.611  15.295  24.366  1.00  0.00     0.020 C 
BRANCH  13  14
HETATM   14  C4  UNL     1       4.380  15.996  23.929  1.00  0.00     0.002 C 
BRANCH  14  15
HETATM   15  C3  UNL     1       4.633  16.784  22.657  1.00  0.00     0.001 C 
BRANCH  15  16
HETATM   16  C2  UNL     1       3.882  18.067  22.606  1.00  0.00     0.018 C 
BRANCH  16  17
HETATM   17  C1  UNL     1       2.808  18.203  23.629  1.00  0.00     0.165 C 
BRANCH  17  18
HETATM   18  S1  UNL     1       2.993  19.618  24.646  1.00  0.00     0.101 S 
HETATM   19  O1  UNL     1       4.449  19.688  25.096  1.00  0.00    -0.595 OA
HETATM   20  O2  UNL     1       2.695  20.830  23.784  1.00  0.00    -0.595 OA
HETATM   21  O3  UNL     1       1.981  19.608  25.955  1.00  0.00    -0.595 OA
ENDBRANCH  17  18
ENDBRANCH  16  17
ENDBRANCH  15  16
ENDBRANCH  14  15
ENDBRANCH  13  14
ENDBRANCH  12  13
ENDBRANCH   1  12
BRANCH   8  22
HETATM   22  C12 UNL     1       9.505  13.456  22.125  1.00  0.00     0.165 C 
HETATM   23  N3  UNL     1       9.061  12.786  21.118  1.00  0.00    -0.249 N 
ATOM     24  H3  UNL     1       8.212  12.235  21.244  1.00  0.00     0.196 HD
BRANCH  22  25
HETATM   25  O4  UNL     1      10.664  14.183  21.887  1.00  0.00    -0.346 OA
ATOM     26  H4  UNL     1      11.485  13.818  21.579  1.00  0.00     0.219 HD
ENDBRANCH  22  25
BRANCH  23  27
HETATM   27  O5  UNL     1       9.665  12.770  19.886  1.00  0.00    -0.288 OA
ATOM     28  H5  UNL     1       9.202  12.910  19.068  1.00  0.00     0.244 HD
ENDBRANCH  23  27
ENDBRANCH   8  22
TORSDOF 10
ENDMDL
MODEL 3
REMARK VINA RESULT: -7.816060171      1.412      1.839
REMARK  10 active torsions:
REMARK  status: ('A' for Active; 'I' for Inactive)
REMARK    1  A    between atoms: S1_2  and  C1_5 
REMARK    2  A    between atoms: C1_5  and  C2_6 
REMARK    3  A    between atoms: C2_6  and  C3_7 
REMARK    4  A    between atoms: C3_7  and  C4_8 
REMARK    5  A    between atoms: C4_8  and  C5_9 
REMARK    6  A    between atoms: C5_9  and  C6_10 
REMARK    7  A    between atoms: C6_10  and  N1_11 
REMARK    8  A    between atoms: C11_18  and  C12_19 
REMARK    9  A    between atoms: C12_19  and  O4_20 
REMARK   10  A    between atoms: N3_22  and  O5_24 
ROOT
HETATM    1  N1  UNL     1       8.614  14.547  22.381  1.00  0.00    -0.345 N 
HETATM    2  C7  UNL     1       9.424  14.207  21.367  1.00  0.00     0.183 A 
HETATM    3  N2  UNL     1      10.379  13.372  21.815  1.00  0.00    -0.354 N 
ATOM      4  H2  UNL     1      11.124  12.962  21.250  1.00  0.00     0.166 HD
HETATM    5  C8  UNL     1      10.187  13.168  23.128  1.00  0.00     0.035 A 
HETATM    6  C9  UNL     1       9.080  13.903  23.487  1.00  0.00     0.038 A 
HETATM    7  C10 UNL     1       8.464  14.008  24.844  1.00  0.00     0.099 C 
HETATM    8  C11 UNL     1       9.496  14.589  25.824  1.00  0.00     0.203 C 
HETATM    9  O6  UNL     1      10.762  14.167  25.547  1.00  0.00    -0.377 OA
HETATM   10  C13 UNL     1      11.004  12.846  25.401  1.00  0.00     0.175 C 
HETATM   11  C14 UNL     1      11.013  12.312  24.013  1.00  0.00     0.085 C 
ENDROOT
BRANCH   1  12
HETATM   12  C6  UNL     1       7.457  15.425  22.347  1.00  0.00     0.130 C 
BRANCH  12  13
HETATM   13  C5  UNL     1       6.243  14.525  22.420  1.00  0.00     0.020 C 
BRANCH  13  14
HETATM   14  C4  UNL     1       5.289  15.036  23.433  1.00  0.00     0.002 C 
BRANCH  14  15
HETATM   15  C3  UNL     1       4.805  16.425  23.063  1.00  0.00     0.001 C 
BRANCH  15  16
HETATM   16  C2  UNL     1       3.762  16.946  23.985  1.00  0.00     0.018 C 
BRANCH  16  17
HETATM   17  C1  UNL     1       2.954  18.073  23.442  1.00  0.00     0.165 C 
BRANCH  17  18
HETATM   18  S1  UNL     1       2.950  19.486  24.478  1.00  0.00     0.101 S 
HETATM   19  O1  UNL     1       1.880  19.284  25.547  1.00  0.00    -0.595 OA
HETATM   20  O2  UNL     1       4.306  19.547  25.157  1.00  0.00    -0.595 OA
HETATM   21  O3  UNL     1       2.683  20.893  23.650  1.00  0.00    -0.595 OA
ENDBRANCH  17  18
ENDBRANCH  16  17
ENDBRANCH  15  16
ENDBRANCH  14  15
ENDBRANCH  13  14
ENDBRANCH  12  13
ENDBRANCH   1  12
BRANCH   8  22
HETATM   22  C12 UNL     1       9.033  14.396  27.193  1.00  0.00     0.165 C 
HETATM   23  N3  UNL     1       8.176  13.469  27.453  1.00  0.00    -0.249 N 
ATOM     24  H3  UNL     1       7.844  12.891  26.681  1.00  0.00     0.196 HD
BRANCH  22  25
HETATM   25  O4  UNL     1       9.444  15.145  28.288  1.00  0.00    -0.346 OA
ATOM     26  H4  UNL     1       9.959  14.814  29.014  1.00  0.00     0.219 HD
ENDBRANCH  22  25
BRANCH  23  27
HETATM   27  O5  UNL     1       7.685  13.214  28.708  1.00  0.00    -0.288 OA
ATOM     28  H5  UNL     1       6.840  12.813  28.874  1.00  0.00     0.244 HD
ENDBRANCH  23  27
ENDBRANCH   8  22
TORSDOF 10
ENDMDL
MODEL 4
REMARK VINA RESULT: -7.697118599      2.357      4.060
REMARK  10 active torsions:
REMARK  status: ('A' for Active; 'I' for Inactive)
REMARK    1  A    between atoms: S1_2  and  C1_5 
REMARK    2  A    between atoms: C1_5  and  C2_6 
REMARK    3  A    between atoms: C2_6  and  C3_7 
REMARK    4  A    between atoms: C3_7  and  C4_8 
REMARK    5  A    between atoms: C4_8  and  C5_9 
REMARK    6  A    between atoms: C5_9  and  C6_10 
REMARK    7  A    between atoms: C6_10  and  N1_11 
REMARK    8  A    between atoms: C11_18  and  C12_19 
REMARK    9  A    between atoms: C12_19  and  O4_20 
REMARK   10  A    between atoms: N3_22  and  O5_24 
ROOT
HETATM    1  N1  UNL     1       7.500  15.120  25.919  1.00  0.00    -0.345 N 
HETATM    2  C7  UNL     1       7.410  14.680  27.184  1.00  0.00     0.183 A 
HETATM    3  N2  UNL     1       8.371  13.766  27.412  1.00  0.00    -0.354 N 
ATOM      4  H2  UNL     1       8.527  13.274  28.292  1.00  0.00     0.166 HD
HETATM    5  C8  UNL     1       9.088  13.611  26.288  1.00  0.00     0.035 A 
HETATM    6  C9  UNL     1       8.545  14.459  25.349  1.00  0.00     0.038 A 
HETATM    7  C10 UNL     1       8.992  14.652  23.937  1.00  0.00     0.099 C 
HETATM    8  C11 UNL     1       8.877  13.316  23.184  1.00  0.00     0.203 C 
HETATM    9  O6  UNL     1       9.169  12.250  23.980  1.00  0.00    -0.377 OA
HETATM   10  C13 UNL     1      10.320  12.247  24.688  1.00  0.00     0.175 C 
HETATM   11  C14 UNL     1      10.243  12.701  26.103  1.00  0.00     0.085 C 
ENDROOT
BRANCH   1  12
HETATM   12  C6  UNL     1       6.666  16.104  25.253  1.00  0.00     0.130 C 
BRANCH  12  13
HETATM   13  C5  UNL     1       5.602  15.322  24.512  1.00  0.00     0.020 C 
BRANCH  13  14
HETATM   14  C4  UNL     1       5.547  15.752  23.095  1.00  0.00     0.002 C 
BRANCH  14  15
HETATM   15  C3  UNL     1       4.513  16.845  22.904  1.00  0.00     0.001 C 
BRANCH  15  16
HETATM   16  C2  UNL     1       3.644  17.042  24.094  1.00  0.00     0.018 C 
BRANCH  16  17
HETATM   17  C1  UNL     1       2.574  18.064  23.924  1.00  0.00     0.165 C 
BRANCH  17  18
HETATM   18  S1  UNL     1       2.946  19.594  24.695  1.00  0.00     0.101 S 
HETATM   19  O1  UNL     1       2.097  19.704  25.958  1.00  0.00    -0.595 OA
HETATM   20  O2  UNL     1       4.408  19.547  25.099  1.00  0.00    -0.595 OA
HETATM   21  O3  UNL     1       2.687  20.894  23.707  1.00  0.00    -0.595 OA
ENDBRANCH  17  18
ENDBRANCH  16  17
ENDBRANCH  15  16
ENDBRANCH  14  15
ENDBRANCH  13  14
ENDBRANCH  12  13
ENDBRANCH   1  12
BRANCH   8  22
HETATM   22  C12 UNL     1       9.603  13.401  21.923  1.00  0.00     0.165 C 
HETATM   23  N3  UNL     1       9.198  12.721  20.905  1.00  0.00    -0.249 N 
ATOM     24  H3  UNL     1       8.369  12.137  21.017  1.00  0.00     0.196 HD
BRANCH  22  25
HETATM   25  O4  UNL     1      10.735  14.175  21.703  1.00  0.00    -0.346 OA
ATOM     26  H4  UNL     1      11.416  13.980  21.071  1.00  0.00     0.219 HD
ENDBRANCH  22  25
BRANCH  23  27
HETATM   27  O5  UNL     1       9.816  12.738  19.680  1.00  0.00    -0.288 OA
ATOM     28  H5  UNL     1      10.460  12.097  19.404  1.00  0.00     0.244 HD
ENDBRANCH  23  27
ENDBRANCH   8  22
TORSDOF 10
ENDMDL
MODEL 5
REMARK VINA RESULT: -7.649507651      1.861      2.440
REMARK  10 active torsions:
REMARK  status: ('A' for Active; 'I' for Inactive)
REMARK    1  A    between atoms: S1_2  and  C1_5 
REMARK    2  A    between atoms: C1_5  and  C2_6 
REMARK    3  A    between atoms: C2_6  and  C3_7 
REMARK    4  A    between atoms: C3_7  and  C4_8 
REMARK    5  A    between atoms: C4_8  and  C5_9 
REMARK    6  A    between atoms: C5_9  and  C6_10 
REMARK    7  A    between atoms: C6_10  and  N1_11 
REMARK    8  A    between atoms: C11_18  and  C12_19 
REMARK    9  A    between atoms: C12_19  and  O4_20 
REMARK   10  A    between atoms: N3_22  and  O5_24 
ROOT
HETATM    1  N1  UNL     1       7.287  14.344  22.722  1.00  0.00    -0.345 N 
HETATM    2  C7  UNL     1       8.234  14.824  21.901  1.00  0.00     0.183 A 
HETATM    3  N2  UNL     1       9.449  14.496  22.375  1.00  0.00    -0.354 N 
ATOM      4  H2  UNL     1      10.342  14.738  21.943  1.00  0.00     0.166 HD
HETATM    5  C8  UNL     1       9.291  13.799  23.511  1.00  0.00     0.035 A 
HETATM    6  C9  UNL     1       7.936  13.700  23.732  1.00  0.00     0.038 A 
HETATM    7  C10 UNL     1       7.252  13.017  24.870  1.00  0.00     0.099 C 
HETATM    8  C11 UNL     1       7.687  13.675  26.190  1.00  0.00     0.203 C 
HETATM    9  O6  UNL     1       8.989  14.076  26.159  1.00  0.00    -0.377 OA
HETATM   10  C13 UNL     1       9.944  13.199  25.781  1.00  0.00     0.175 C 
HETATM   11  C14 UNL     1      10.374  13.243  24.357  1.00  0.00     0.085 C 
ENDROOT
BRANCH   1  12
HETATM   12  C6  UNL     1       5.846  14.465  22.594  1.00  0.00     0.130 C 
BRANCH  12  13
HETATM   13  C5  UNL     1       5.561  15.943  22.434  1.00  0.00     0.020 C 
BRANCH  13  14
HETATM   14  C4  UNL     1       4.556  16.379  23.432  1.00  0.00     0.002 C 
BRANCH  14  15
HETATM   15  C3  UNL     1       5.225  16.745  24.744  1.00  0.00     0.001 C 
BRANCH  15  16
HETATM   16  C2  UNL     1       4.395  17.640  25.594  1.00  0.00     0.018 C 
BRANCH  16  17
HETATM   17  C1  UNL     1       4.267  19.037  25.091  1.00  0.00     0.165 C 
BRANCH  17  18
HETATM   18  S1  UNL     1       2.622  19.480  24.684  1.00  0.00     0.101 S 
HETATM   19  O1  UNL     1       1.975  18.294  23.976  1.00  0.00    -0.595 OA
HETATM   20  O2  UNL     1       1.887  19.721  25.990  1.00  0.00    -0.595 OA
HETATM   21  O3  UNL     1       2.533  20.837  23.742  1.00  0.00    -0.595 OA
ENDBRANCH  17  18
ENDBRANCH  16  17
ENDBRANCH  15  16
ENDBRANCH  14  15
ENDBRANCH  13  14
ENDBRANCH  12  13
ENDBRANCH   1  12
BRANCH   8  22
HETATM   22  C12 UNL     1       7.295  12.830  27.311  1.00  0.00     0.165 C 
HETATM   23  N3  UNL     1       6.606  11.762  27.096  1.00  0.00    -0.249 N 
ATOM     24  H3  UNL     1       6.354  11.539  26.133  1.00  0.00     0.196 HD
BRANCH  22  25
HETATM   25  O4  UNL     1       7.605  13.075  28.642  1.00  0.00    -0.346 OA
ATOM     26  H4  UNL     1       7.710  13.936  29.029  1.00  0.00     0.219 HD
ENDBRANCH  22  25
BRANCH  23  27
HETATM   27  O5  UNL     1       6.193  10.907  28.086  1.00  0.00    -0.288 OA
ATOM     28  H5  UNL     1       5.479  10.289  27.987  1.00  0.00     0.244 HD
ENDBRANCH  23  27
ENDBRANCH   8  22
TORSDOF 10
ENDMDL
