MODEL 1
REMARK VINA RESULT: -7.515484816      0.000      0.000
REMARK  10 active torsions:
REMARK  status: ('A' for Active; 'I' for Inactive)
REMARK    1  A    between atoms: N1_2  and  S1_4 
REMARK    2  A    between atoms: S1_4  and  N2_6 
REMARK    3  A    between atoms: S1_4  and  C10_27 
REMARK    4  A    between atoms: N2_6  and  N3_8 
REMARK    5  A    between atoms: C2_10  and  C3_11 
REMARK    6  A    between atoms: C5_13  and  N4_14 
REMARK    7  A    between atoms: C7_18  and  O4_19 
REMARK    8  A    between atoms: C9_21  and  N5_22 
REMARK    9  A    between atoms: N5_22  and  N6_24 
REMARK   10  A    between atoms: C11_33  and  N9_34 
ROOT
HETATM    1  N3  UNL     1      15.935  36.983 -16.427  1.00  0.00    -0.303 N 
ATOM      2  H3  UNL     1      16.950  36.992 -16.333  1.00  0.00     0.186 HD
HETATM    3  C2  UNL     1      15.638  36.830 -17.609  1.00  0.00     0.121 C 
ENDROOT
BRANCH   1   4
HETATM    4  N2  UNL     1      15.376  37.142 -15.220  1.00  0.00    -0.239 N 
ATOM      5  H2  UNL     1      14.560  36.574 -14.994  1.00  0.00     0.198 HD
BRANCH   4   6
HETATM    6  S1  UNL     1      15.949  38.246 -14.020  1.00  0.00     0.174 S 
HETATM    7  O1  UNL     1      16.442  37.574 -12.790  1.00  0.00    -0.220 OA
BRANCH   6   8
HETATM    8  N1  UNL     1      17.149  39.085 -14.594  1.00  0.00    -0.334 N 
HETATM    9  C1  UNL     1      18.411  38.997 -13.880  1.00  0.00     0.158 C 
ATOM     10  H1  UNL     1      17.046  39.663 -15.428  1.00  0.00     0.170 HD
ENDBRANCH   6   8
BRANCH   6  11
HETATM   11  C10 UNL     1      14.681  39.366 -13.581  1.00  0.00     0.196 A 
HETATM   12  N7  UNL     1      13.346  39.125 -13.503  1.00  0.00    -0.227 N 
HETATM   13  O5  UNL     1      12.746  40.215 -13.148  1.00  0.00    -0.154 OA
ATOM     14  H7  UNL     1      12.892  38.232 -13.692  1.00  0.00     0.197 HD
HETATM   15  N8  UNL     1      13.569  41.180 -12.977  1.00  0.00    -0.223 N 
HETATM   16  C11 UNL     1      14.798  40.717 -13.232  1.00  0.00     0.162 A 
ATOM     17  H8  UNL     1      13.330  42.132 -12.697  1.00  0.00     0.198 HD
BRANCH  16  18
HETATM   18  N9  UNL     1      15.931  41.319 -13.195  1.00  0.00    -0.382 N 
ATOM     19  H92 UNL     1      16.704  41.303 -13.859  1.00  0.00     0.157 HD
ATOM     20  H91 UNL     1      16.197  41.930 -12.422  1.00  0.00     0.157 HD
ENDBRANCH  16  18
ENDBRANCH   6  11
ENDBRANCH   4   6
ENDBRANCH   1   4
BRANCH   3  21
HETATM   21  C3  UNL     1      14.318  36.756 -18.200  1.00  0.00     0.014 A 
HETATM   22  C4  UNL     1      13.615  37.877 -18.601  1.00  0.00     0.051 A 
HETATM   23  C5  UNL     1      12.354  37.819 -19.163  1.00  0.00     0.106 A 
HETATM   24  C6  UNL     1      11.780  36.603 -19.328  1.00  0.00     0.075 A 
HETATM   25  C7  UNL     1      12.435  35.463 -18.947  1.00  0.00     0.099 A 
HETATM   26  C9  UNL     1      13.703  35.511 -18.381  1.00  0.00     0.092 A 
BRANCH  23  27
HETATM   27  N4  UNL     1      11.710  39.024 -19.541  1.00  0.00    -0.116 N 
HETATM   28  O2  UNL     1      10.566  39.322 -19.167  1.00  0.00    -0.532 OA
HETATM   29  O3  UNL     1      12.373  39.896 -20.355  1.00  0.00    -0.532 OA
ENDBRANCH  23  27
BRANCH  25  30
HETATM   30  O4  UNL     1      11.860  34.200 -19.108  1.00  0.00    -0.353 OA
HETATM   31  C8  UNL     1      10.582  33.874 -18.596  1.00  0.00     0.210 C 
ENDBRANCH  25  30
BRANCH  26  32
HETATM   32  N5  UNL     1      14.333  34.288 -18.005  1.00  0.00    -0.304 N 
ATOM     33  H5  UNL     1      15.171  33.977 -18.495  1.00  0.00     0.186 HD
BRANCH  32  34
HETATM   34  N6  UNL     1      13.802  33.507 -16.960  1.00  0.00    -0.345 N 
ATOM     35  H62 UNL     1      12.960  32.958 -17.134  1.00  0.00     0.176 HD
ATOM     36  H61 UNL     1      14.254  33.496 -16.045  1.00  0.00     0.176 HD
ENDBRANCH  32  34
ENDBRANCH  26  32
ENDBRANCH   3  21
TORSDOF 10
ENDMDL
MODEL 2
REMARK VINA RESULT: -7.177820175      1.258      2.576
REMARK  10 active torsions:
REMARK  status: ('A' for Active; 'I' for Inactive)
REMARK    1  A    between atoms: N1_2  and  S1_4 
REMARK    2  A    between atoms: S1_4  and  N2_6 
REMARK    3  A    between atoms: S1_4  and  C10_27 
REMARK    4  A    between atoms: N2_6  and  N3_8 
REMARK    5  A    between atoms: C2_10  and  C3_11 
REMARK    6  A    between atoms: C5_13  and  N4_14 
REMARK    7  A    between atoms: C7_18  and  O4_19 
REMARK    8  A    between atoms: C9_21  and  N5_22 
REMARK    9  A    between atoms: N5_22  and  N6_24 
REMARK   10  A    between atoms: C11_33  and  N9_34 
ROOT
HETATM    1  N3  UNL     1      16.127  37.064 -16.525  1.00  0.00    -0.303 N 
ATOM      2  H3  UNL     1      17.145  37.057 -16.473  1.00  0.00     0.186 HD
HETATM    3  C2  UNL     1      15.779  36.846 -17.683  1.00  0.00     0.121 C 
ENDROOT
BRANCH   1   4
HETATM    4  N2  UNL     1      15.621  37.308 -15.309  1.00  0.00    -0.239 N 
ATOM      5  H2  UNL     1      15.328  36.510 -14.746  1.00  0.00     0.198 HD
BRANCH   4   6
HETATM    6  S1  UNL     1      15.433  38.888 -14.632  1.00  0.00     0.174 S 
HETATM    7  O1  UNL     1      15.009  39.907 -15.626  1.00  0.00    -0.220 OA
BRANCH   6   8
HETATM    8  N1  UNL     1      14.333  38.860 -13.509  1.00  0.00    -0.334 N 
HETATM    9  C1  UNL     1      13.777  40.140 -13.105  1.00  0.00     0.158 C 
ATOM     10  H1  UNL     1      14.025  37.985 -13.084  1.00  0.00     0.170 HD
ENDBRANCH   6   8
BRANCH   6  11
HETATM   11  C10 UNL     1      16.931  39.406 -13.896  1.00  0.00     0.196 A 
HETATM   12  N7  UNL     1      17.133  40.472 -13.078  1.00  0.00    -0.227 N 
HETATM   13  O5  UNL     1      18.384  40.515 -12.750  1.00  0.00    -0.154 OA
ATOM     14  H7  UNL     1      16.417  41.130 -12.772  1.00  0.00     0.197 HD
HETATM   15  N8  UNL     1      19.050  39.559 -13.280  1.00  0.00    -0.223 N 
HETATM   16  C11 UNL     1      18.201  38.827 -14.010  1.00  0.00     0.162 A 
ATOM     17  H8  UNL     1      20.049  39.386 -13.166  1.00  0.00     0.198 HD
BRANCH  16  18
HETATM   18  N9  UNL     1      18.414  37.779 -14.719  1.00  0.00    -0.382 N 
ATOM     19  H92 UNL     1      19.086  37.023 -14.588  1.00  0.00     0.157 HD
ATOM     20  H91 UNL     1      17.882  37.578 -15.567  1.00  0.00     0.157 HD
ENDBRANCH  16  18
ENDBRANCH   6  11
ENDBRANCH   4   6
ENDBRANCH   1   4
BRANCH   3  21
HETATM   21  C3  UNL     1      14.435  36.764 -18.216  1.00  0.00     0.014 A 
HETATM   22  C4  UNL     1      13.714  37.880 -18.597  1.00  0.00     0.051 A 
HETATM   23  C5  UNL     1      12.429  37.814 -19.103  1.00  0.00     0.106 A 
HETATM   24  C6  UNL     1      11.851  36.596 -19.232  1.00  0.00     0.075 A 
HETATM   25  C7  UNL     1      12.524  35.461 -18.868  1.00  0.00     0.099 A 
HETATM   26  C9  UNL     1      13.816  35.516 -18.358  1.00  0.00     0.092 A 
BRANCH  23  27
HETATM   27  N4  UNL     1      11.767  39.014 -19.466  1.00  0.00    -0.116 N 
HETATM   28  O2  UNL     1      10.646  39.321 -19.034  1.00  0.00    -0.532 OA
HETATM   29  O3  UNL     1      12.385  39.871 -20.329  1.00  0.00    -0.532 OA
ENDBRANCH  23  27
BRANCH  25  30
HETATM   30  O4  UNL     1      11.946  34.195 -18.991  1.00  0.00    -0.353 OA
HETATM   31  C8  UNL     1      10.674  33.883 -18.456  1.00  0.00     0.210 C 
ENDBRANCH  25  30
BRANCH  26  32
HETATM   32  N5  UNL     1      14.464  34.298 -17.997  1.00  0.00    -0.304 N 
ATOM     33  H5  UNL     1      15.330  34.027 -18.461  1.00  0.00     0.186 HD
BRANCH  32  34
HETATM   34  N6  UNL     1      13.911  33.467 -17.003  1.00  0.00    -0.345 N 
ATOM     35  H62 UNL     1      14.534  33.031 -16.322  1.00  0.00     0.176 HD
ATOM     36  H61 UNL     1      12.904  33.305 -16.969  1.00  0.00     0.176 HD
ENDBRANCH  32  34
ENDBRANCH  26  32
ENDBRANCH   3  21
TORSDOF 10
ENDMDL
MODEL 3
REMARK VINA RESULT: -7.127528083      1.495      2.819
REMARK  10 active torsions:
REMARK  status: ('A' for Active; 'I' for Inactive)
REMARK    1  A    between atoms: N1_2  and  S1_4 
REMARK    2  A    between atoms: S1_4  and  N2_6 
REMARK    3  A    between atoms: S1_4  and  C10_27 
REMARK    4  A    between atoms: N2_6  and  N3_8 
REMARK    5  A    between atoms: C2_10  and  C3_11 
REMARK    6  A    between atoms: C5_13  and  N4_14 
REMARK    7  A    between atoms: C7_18  and  O4_19 
REMARK    8  A    between atoms: C9_21  and  N5_22 
REMARK    9  A    between atoms: N5_22  and  N6_24 
REMARK   10  A    between atoms: C11_33  and  N9_34 
ROOT
HETATM    1  N3  UNL     1      15.312  37.785 -17.131  1.00  0.00    -0.303 N 
ATOM      2  H3  UNL     1      16.322  37.827 -16.993  1.00  0.00     0.186 HD
HETATM    3  C2  UNL     1      15.057  36.972 -18.016  1.00  0.00     0.121 C 
ENDROOT
BRANCH   1   4
HETATM    4  N2  UNL     1      14.713  38.634 -16.286  1.00  0.00    -0.239 N 
ATOM      5  H2  UNL     1      13.767  38.943 -16.511  1.00  0.00     0.198 HD
BRANCH   4   6
HETATM    6  S1  UNL     1      15.437  39.241 -14.838  1.00  0.00     0.174 S 
HETATM    7  O1  UNL     1      15.536  40.723 -14.807  1.00  0.00    -0.220 OA
BRANCH   6   8
HETATM    8  N1  UNL     1      14.580  38.813 -13.591  1.00  0.00    -0.334 N 
HETATM    9  C1  UNL     1      13.881  39.871 -12.882  1.00  0.00     0.158 C 
ATOM     10  H1  UNL     1      14.516  37.839 -13.295  1.00  0.00     0.170 HD
ENDBRANCH   6   8
BRANCH   6  11
HETATM   11  C10 UNL     1      17.037  38.565 -14.639  1.00  0.00     0.196 A 
HETATM   12  N7  UNL     1      17.547  37.446 -15.215  1.00  0.00    -0.227 N 
HETATM   13  O5  UNL     1      18.764  37.285 -14.808  1.00  0.00    -0.154 OA
ATOM     14  H7  UNL     1      17.052  36.833 -15.863  1.00  0.00     0.197 HD
HETATM   15  N8  UNL     1      19.124  38.209 -13.999  1.00  0.00    -0.223 N 
HETATM   16  C11 UNL     1      18.090  39.044 -13.849  1.00  0.00     0.162 A 
ATOM     17  H8  UNL     1      20.036  38.294 -13.550  1.00  0.00     0.198 HD
BRANCH  16  18
HETATM   18  N9  UNL     1      17.983  40.107 -13.138  1.00  0.00    -0.382 N 
ATOM     19  H92 UNL     1      18.705  40.676 -12.697  1.00  0.00     0.157 HD
ATOM     20  H91 UNL     1      17.079  40.527 -12.920  1.00  0.00     0.157 HD
ENDBRANCH  16  18
ENDBRANCH   6  11
ENDBRANCH   4   6
ENDBRANCH   1   4
BRANCH   3  21
HETATM   21  C3  UNL     1      13.761  36.591 -18.537  1.00  0.00     0.014 A 
HETATM   22  C4  UNL     1      12.847  37.512 -19.013  1.00  0.00     0.051 A 
HETATM   23  C5  UNL     1      11.606  37.160 -19.509  1.00  0.00     0.106 A 
HETATM   24  C6  UNL     1      11.272  35.848 -19.531  1.00  0.00     0.075 A 
HETATM   25  C7  UNL     1      12.143  34.897 -19.071  1.00  0.00     0.099 A 
HETATM   26  C9  UNL     1      13.392  35.240 -18.570  1.00  0.00     0.092 A 
BRANCH  23  27
HETATM   27  N4  UNL     1      10.734  38.177 -19.972  1.00  0.00    -0.116 N 
HETATM   28  O2  UNL     1       9.868  37.979 -20.838  1.00  0.00    -0.532 OA
HETATM   29  O3  UNL     1      10.850  39.432 -19.449  1.00  0.00    -0.532 OA
ENDBRANCH  23  27
BRANCH  25  30
HETATM   30  O4  UNL     1      11.817  33.538 -19.084  1.00  0.00    -0.353 OA
HETATM   31  C8  UNL     1      10.579  33.047 -18.607  1.00  0.00     0.210 C 
ENDBRANCH  25  30
BRANCH  26  32
HETATM   32  N5  UNL     1      14.254  34.203 -18.106  1.00  0.00    -0.304 N 
ATOM     33  H5  UNL     1      15.155  34.050 -18.560  1.00  0.00     0.186 HD
BRANCH  32  34
HETATM   34  N6  UNL     1      13.867  33.387 -17.025  1.00  0.00    -0.345 N 
ATOM     35  H62 UNL     1      13.097  32.730 -17.155  1.00  0.00     0.176 HD
ATOM     36  H61 UNL     1      14.350  33.457 -16.129  1.00  0.00     0.176 HD
ENDBRANCH  32  34
ENDBRANCH  26  32
ENDBRANCH   3  21
TORSDOF 10
ENDMDL
MODEL 4
REMARK VINA RESULT: -7.082550232      3.887      6.061
REMARK  10 active torsions:
REMARK  status: ('A' for Active; 'I' for Inactive)
REMARK    1  A    between atoms: N1_2  and  S1_4 
REMARK    2  A    between atoms: S1_4  and  N2_6 
REMARK    3  A    between atoms: S1_4  and  C10_27 
REMARK    4  A    between atoms: N2_6  and  N3_8 
REMARK    5  A    between atoms: C2_10  and  C3_11 
REMARK    6  A    between atoms: C5_13  and  N4_14 
REMARK    7  A    between atoms: C7_18  and  O4_19 
REMARK    8  A    between atoms: C9_21  and  N5_22 
REMARK    9  A    between atoms: N5_22  and  N6_24 
REMARK   10  A    between atoms: C11_33  and  N9_34 
ROOT
HETATM    1  N3  UNL     1      15.852  38.380 -18.195  1.00  0.00    -0.303 N 
ATOM      2  H3  UNL     1      16.432  38.767 -17.451  1.00  0.00     0.186 HD
HETATM    3  C2  UNL     1      14.754  38.075 -17.736  1.00  0.00     0.121 C 
ENDROOT
BRANCH   1   4
HETATM    4  N2  UNL     1      16.545  38.377 -19.341  1.00  0.00    -0.239 N 
ATOM      5  H2  UNL     1      17.439  37.885 -19.356  1.00  0.00     0.198 HD
BRANCH   4   6
HETATM    6  S1  UNL     1      16.024  39.150 -20.797  1.00  0.00     0.174 S 
HETATM    7  O1  UNL     1      15.014  38.363 -21.551  1.00  0.00    -0.220 OA
BRANCH   6   8
HETATM    8  N1  UNL     1      15.364  40.537 -20.459  1.00  0.00    -0.334 N 
HETATM    9  C1  UNL     1      14.126  40.858 -21.146  1.00  0.00     0.158 C 
ATOM     10  H1  UNL     1      15.785  41.180 -19.788  1.00  0.00     0.170 HD
ENDBRANCH   6   8
BRANCH   6  11
HETATM   11  C10 UNL     1      17.394  39.454 -21.838  1.00  0.00     0.196 A 
HETATM   12  N7  UNL     1      18.297  40.466 -21.754  1.00  0.00    -0.227 N 
HETATM   13  O5  UNL     1      19.155  40.340 -22.714  1.00  0.00    -0.154 OA
ATOM     14  H7  UNL     1      18.298  41.204 -21.051  1.00  0.00     0.197 HD
HETATM   15  N8  UNL     1      18.909  39.318 -23.444  1.00  0.00    -0.223 N 
HETATM   16  C11 UNL     1      17.819  38.719 -22.952  1.00  0.00     0.162 A 
ATOM     17  H8  UNL     1      19.446  39.015 -24.257  1.00  0.00     0.198 HD
BRANCH  16  18
HETATM   18  N9  UNL     1      17.201  37.668 -23.353  1.00  0.00    -0.382 N 
ATOM     19  H92 UNL     1      16.497  37.559 -24.082  1.00  0.00     0.157 HD
ATOM     20  H91 UNL     1      17.369  36.748 -22.943  1.00  0.00     0.157 HD
ENDBRANCH  16  18
ENDBRANCH   6  11
ENDBRANCH   4   6
ENDBRANCH   1   4
BRANCH   3  21
HETATM   21  C3  UNL     1      13.623  37.494 -18.429  1.00  0.00     0.014 A 
HETATM   22  C4  UNL     1      12.653  38.260 -19.048  1.00  0.00     0.051 A 
HETATM   23  C5  UNL     1      11.567  37.716 -19.709  1.00  0.00     0.106 A 
HETATM   24  C6  UNL     1      11.451  36.368 -19.751  1.00  0.00     0.075 A 
HETATM   25  C7  UNL     1      12.385  35.566 -19.153  1.00  0.00     0.099 A 
HETATM   26  C9  UNL     1      13.480  36.102 -18.486  1.00  0.00     0.092 A 
BRANCH  23  27
HETATM   27  N4  UNL     1      10.622  38.583 -20.312  1.00  0.00    -0.116 N 
HETATM   28  O2  UNL     1       9.799  38.198 -21.157  1.00  0.00    -0.532 OA
HETATM   29  O3  UNL     1      10.614  39.900 -19.954  1.00  0.00    -0.532 OA
ENDBRANCH  23  27
BRANCH  25  30
HETATM   30  O4  UNL     1      12.282  34.173 -19.184  1.00  0.00    -0.353 OA
HETATM   31  C8  UNL     1      11.050  33.496 -19.033  1.00  0.00     0.210 C 
ENDBRANCH  25  30
BRANCH  26  32
HETATM   32  N5  UNL     1      14.419  35.214 -17.883  1.00  0.00    -0.304 N 
ATOM     33  H5  UNL     1      15.396  35.234 -18.174  1.00  0.00     0.186 HD
BRANCH  32  34
HETATM   34  N6  UNL     1      14.002  34.308 -16.888  1.00  0.00    -0.345 N 
ATOM     35  H62 UNL     1      13.354  33.562 -17.141  1.00  0.00     0.176 HD
ATOM     36  H61 UNL     1      14.345  34.401 -15.932  1.00  0.00     0.176 HD
ENDBRANCH  32  34
ENDBRANCH  26  32
ENDBRANCH   3  21
TORSDOF 10
ENDMDL
MODEL 5
REMARK VINA RESULT: -7.051649586      2.501      4.741
REMARK  10 active torsions:
REMARK  status: ('A' for Active; 'I' for Inactive)
REMARK    1  A    between atoms: N1_2  and  S1_4 
REMARK    2  A    between atoms: S1_4  and  N2_6 
REMARK    3  A    between atoms: S1_4  and  C10_27 
REMARK    4  A    between atoms: N2_6  and  N3_8 
REMARK    5  A    between atoms: C2_10  and  C3_11 
REMARK    6  A    between atoms: C5_13  and  N4_14 
REMARK    7  A    between atoms: C7_18  and  O4_19 
REMARK    8  A    between atoms: C9_21  and  N5_22 
REMARK    9  A    between atoms: N5_22  and  N6_24 
REMARK   10  A    between atoms: C11_33  and  N9_34 
ROOT
HETATM    1  N3  UNL     1      15.625  39.234 -17.308  1.00  0.00    -0.303 N 
ATOM      2  H3  UNL     1      16.559  39.488 -16.986  1.00  0.00     0.186 HD
HETATM    3  C2  UNL     1      15.580  39.321 -18.532  1.00  0.00     0.121 C 
ENDROOT
BRANCH   1   4
HETATM    4  N2  UNL     1      14.863  38.919 -16.252  1.00  0.00    -0.239 N 
ATOM      5  H2  UNL     1      13.930  39.330 -16.198  1.00  0.00     0.198 HD
BRANCH   4   6
HETATM    6  S1  UNL     1      15.355  37.862 -14.976  1.00  0.00     0.174 S 
HETATM    7  O1  UNL     1      14.743  38.201 -13.664  1.00  0.00    -0.220 OA
BRANCH   6   8
HETATM    8  N1  UNL     1      14.931  36.386 -15.311  1.00  0.00    -0.334 N 
HETATM    9  C1  UNL     1      14.529  36.114 -16.680  1.00  0.00     0.158 C 
ATOM     10  H1  UNL     1      14.938  35.654 -14.600  1.00  0.00     0.170 HD
ENDBRANCH   6   8
BRANCH   6  11
HETATM   11  C10 UNL     1      17.094  37.891 -14.810  1.00  0.00     0.196 A 
HETATM   12  N7  UNL     1      18.000  37.053 -15.380  1.00  0.00    -0.227 N 
HETATM   13  O5  UNL     1      19.187  37.407 -15.005  1.00  0.00    -0.154 OA
ATOM     14  H7  UNL     1      17.780  36.275 -16.000  1.00  0.00     0.197 HD
HETATM   15  N8  UNL     1      19.161  38.421 -14.226  1.00  0.00    -0.223 N 
HETATM   16  C11 UNL     1      17.881  38.775 -14.062  1.00  0.00     0.162 A 
ATOM     17  H8  UNL     1      19.970  38.878 -13.805  1.00  0.00     0.198 HD
BRANCH  16  18
HETATM   18  N9  UNL     1      17.370  39.727 -13.368  1.00  0.00    -0.382 N 
ATOM     19  H92 UNL     1      17.817  40.394 -12.740  1.00  0.00     0.157 HD
ATOM     20  H91 UNL     1      16.370  39.929 -13.376  1.00  0.00     0.157 HD
ENDBRANCH  16  18
ENDBRANCH   6  11
ENDBRANCH   4   6
ENDBRANCH   1   4
BRANCH   3  21
HETATM   21  C3  UNL     1      14.460  39.055 -19.410  1.00  0.00     0.014 A 
HETATM   22  C4  UNL     1      13.679  37.920 -19.302  1.00  0.00     0.051 A 
HETATM   23  C5  UNL     1      12.609  37.655 -20.136  1.00  0.00     0.106 A 
HETATM   24  C6  UNL     1      12.313  38.554 -21.105  1.00  0.00     0.075 A 
HETATM   25  C7  UNL     1      13.056  39.694 -21.253  1.00  0.00     0.099 A 
HETATM   26  C9  UNL     1      14.133  39.969 -20.420  1.00  0.00     0.092 A 
BRANCH  23  27
HETATM   27  N4  UNL     1      11.868  36.461 -19.950  1.00  0.00    -0.116 N 
HETATM   28  O2  UNL     1      10.925  36.372 -19.149  1.00  0.00    -0.532 OA
HETATM   29  O3  UNL     1      12.204  35.357 -20.679  1.00  0.00    -0.532 OA
ENDBRANCH  23  27
BRANCH  25  30
HETATM   30  O4  UNL     1      12.767  40.632 -22.247  1.00  0.00    -0.353 OA
HETATM   31  C8  UNL     1      11.445  41.010 -22.577  1.00  0.00     0.210 C 
ENDBRANCH  25  30
BRANCH  26  32
HETATM   32  N5  UNL     1      14.868  41.174 -20.625  1.00  0.00    -0.304 N 
ATOM     33  H5  UNL     1      15.874  41.134 -20.788  1.00  0.00     0.186 HD
BRANCH  32  34
HETATM   34  N6  UNL     1      14.211  42.420 -20.603  1.00  0.00    -0.345 N 
ATOM     35  H62 UNL     1      14.755  43.260 -20.406  1.00  0.00     0.176 HD
ATOM     36  H61 UNL     1      13.208  42.475 -20.781  1.00  0.00     0.176 HD
ENDBRANCH  32  34
ENDBRANCH  26  32
ENDBRANCH   3  21
TORSDOF 10
ENDMDL
