MODEL 1
REMARK VINA RESULT: -6.629328233      0.000      0.000
REMARK  11 active torsions:
REMARK  status: ('A' for Active; 'I' for Inactive)
REMARK    1  A    between atoms: O1_2  and  C2_3 
REMARK    2  A    between atoms: C2_3  and  C3_5 
REMARK    3  A    between atoms: C3_5  and  O3_6 
REMARK    4  A    between atoms: O3_6  and  N1_7 
REMARK    5  A    between atoms: N1_7  and  C4_9 
REMARK    6  A    between atoms: C4_9  and  C6_11 
REMARK       I    between atoms: C6_11  and  N2_13 
REMARK    7  A    between atoms: N2_13  and  O5_14 
REMARK    8  A    between atoms: N2_13  and  C7_16 
REMARK    9  A    between atoms: C8_18  and  C9_19 
REMARK   10  A    between atoms: C9_19  and  O6_20 
REMARK   11  A    between atoms: O6_20  and  C10_21 
ROOT
HETATM    1  C6  UNL     1      15.174  38.985 -18.128  1.00  0.00     0.292 C 
HETATM    2  O4  UNL     1      16.086  39.808 -18.394  1.00  0.00    -0.264 OA
HETATM    3  N2  UNL     1      14.312  38.531 -19.140  1.00  0.00    -0.206 N 
ENDROOT
BRANCH   3   4
HETATM    4  O5  UNL     1      14.959  38.709 -20.417  1.00  0.00    -0.283 OA
ATOM      5  H5  UNL     1      15.787  39.156 -20.282  1.00  0.00     0.245 HD
ENDBRANCH   3   4
BRANCH   3   6
HETATM    6  C7  UNL     1      12.973  38.197 -19.312  1.00  0.00     0.209 C 
HETATM    7  S1  UNL     1      13.101  36.173 -19.268  1.00  0.00    -0.083 SA
HETATM    8  C8  UNL     1      11.388  35.772 -19.494  1.00  0.00     0.088 C 
HETATM    9  N4  UNL     1      10.568  36.920 -19.642  1.00  0.00    -0.300 N 
HETATM   10  N5  UNL     1      10.879  37.890 -20.521  1.00  0.00    -0.328 N 
ATOM     11  H4  UNL     1       9.727  37.011 -19.072  1.00  0.00     0.187 HD
HETATM   12  C11 UNL     1      12.266  38.294 -20.558  1.00  0.00     0.131 C 
ATOM     13  H5  UNL     1      10.176  38.316 -21.125  1.00  0.00     0.180 HD
HETATM   14  C12 UNL     1      12.862  37.387 -21.665  1.00  0.00     0.036 C 
BRANCH   8  15
HETATM   15  C9  UNL     1      10.781  34.676 -18.717  1.00  0.00     0.246 C 
BRANCH  15  16
HETATM   16  O6  UNL     1      11.624  33.560 -18.399  1.00  0.00    -0.300 OA
BRANCH  16  17
HETATM   17  C10 UNL     1      11.204  32.856 -17.249  1.00  0.00     0.373 C 
HETATM   18  N3  UNL     1      10.151  31.941 -17.271  1.00  0.00    -0.032 NA
HETATM   19  O7  UNL     1      11.791  33.035 -16.114  1.00  0.00    -0.242 OA
ENDBRANCH  16  17
ENDBRANCH  15  16
ENDBRANCH   8  15
ENDBRANCH   3   6
BRANCH   1  20
HETATM   20  C4  UNL     1      15.096  38.487 -16.723  1.00  0.00     0.098 C 
HETATM   21  C5  UNL     1      15.136  37.119 -16.357  1.00  0.00     0.076 C 
BRANCH  20  22
HETATM   22  N1  UNL     1      15.680  39.512 -15.886  1.00  0.00    -0.265 N 
ATOM     23  H1  UNL     1      16.698  39.512 -15.815  1.00  0.00     0.194 HD
BRANCH  22  24
HETATM   24  O3  UNL     1      15.091  40.381 -15.251  1.00  0.00    -0.270 OA
BRANCH  24  25
HETATM   25  C3  UNL     1      15.243  40.606 -13.910  1.00  0.00     0.312 C 
BRANCH  25  26
HETATM   26  C2  UNL     1      14.591  39.470 -13.153  1.00  0.00     0.284 C 
HETATM   27  O2  UNL     1      13.429  39.608 -12.755  1.00  0.00    -0.263 OA
BRANCH  26  28
HETATM   28  O1  UNL     1      15.296  38.305 -12.912  1.00  0.00    -0.325 OA
HETATM   29  C1  UNL     1      16.679  38.312 -12.799  1.00  0.00     0.213 C 
ENDBRANCH  26  28
ENDBRANCH  25  26
ENDBRANCH  24  25
ENDBRANCH  22  24
ENDBRANCH  20  22
ENDBRANCH   1  20
TORSDOF 11
ENDMDL
MODEL 2
REMARK VINA RESULT: -6.603114418      1.169      1.336
REMARK  11 active torsions:
REMARK  status: ('A' for Active; 'I' for Inactive)
REMARK    1  A    between atoms: O1_2  and  C2_3 
REMARK    2  A    between atoms: C2_3  and  C3_5 
REMARK    3  A    between atoms: C3_5  and  O3_6 
REMARK    4  A    between atoms: O3_6  and  N1_7 
REMARK    5  A    between atoms: N1_7  and  C4_9 
REMARK    6  A    between atoms: C4_9  and  C6_11 
REMARK       I    between atoms: C6_11  and  N2_13 
REMARK    7  A    between atoms: N2_13  and  O5_14 
REMARK    8  A    between atoms: N2_13  and  C7_16 
REMARK    9  A    between atoms: C8_18  and  C9_19 
REMARK   10  A    between atoms: C9_19  and  O6_20 
REMARK   11  A    between atoms: O6_20  and  C10_21 
ROOT
HETATM    1  C6  UNL     1      14.985  38.590 -18.004  1.00  0.00     0.292 C 
HETATM    2  O4  UNL     1      15.637  39.566 -18.452  1.00  0.00    -0.264 OA
HETATM    3  N2  UNL     1      14.186  37.816 -18.863  1.00  0.00    -0.206 N 
ENDROOT
BRANCH   3   4
HETATM    4  O5  UNL     1      14.665  37.978 -20.214  1.00  0.00    -0.283 OA
ATOM      5  H5  UNL     1      13.958  37.775 -20.816  1.00  0.00     0.245 HD
ENDBRANCH   3   4
BRANCH   3   6
HETATM    6  C7  UNL     1      12.965  37.151 -18.852  1.00  0.00     0.209 C 
HETATM    7  S1  UNL     1      13.595  35.250 -18.532  1.00  0.00    -0.083 SA
HETATM    8  C8  UNL     1      12.025  34.424 -18.528  1.00  0.00     0.088 C 
HETATM    9  N4  UNL     1      10.938  35.305 -18.757  1.00  0.00    -0.300 N 
HETATM   10  N5  UNL     1      10.943  36.165 -19.792  1.00  0.00    -0.328 N 
ATOM     11  H4  UNL     1      10.137  35.287 -18.126  1.00  0.00     0.187 HD
HETATM   12  C11 UNL     1      12.181  36.874 -20.024  1.00  0.00     0.131 C 
ATOM     13  H5  UNL     1      10.121  36.308 -20.379  1.00  0.00     0.180 HD
HETATM   14  C12 UNL     1      12.916  35.966 -21.043  1.00  0.00     0.036 C 
BRANCH   8  15
HETATM   15  C9  UNL     1      11.758  33.357 -17.545  1.00  0.00     0.246 C 
BRANCH  15  16
HETATM   16  O6  UNL     1      10.403  33.207 -17.102  1.00  0.00    -0.300 OA
BRANCH  16  17
HETATM   17  C10 UNL     1       9.695  32.208 -17.806  1.00  0.00     0.373 C 
HETATM   18  N3  UNL     1       8.359  32.355 -18.179  1.00  0.00    -0.032 NA
HETATM   19  O7  UNL     1      10.270  31.101 -18.138  1.00  0.00    -0.242 OA
ENDBRANCH  16  17
ENDBRANCH  15  16
ENDBRANCH   8  15
ENDBRANCH   3   6
BRANCH   1  20
HETATM   20  C4  UNL     1      15.145  38.273 -16.555  1.00  0.00     0.098 C 
HETATM   21  C5  UNL     1      15.401  36.976 -16.044  1.00  0.00     0.076 C 
BRANCH  20  22
HETATM   22  N1  UNL     1      15.699  39.455 -15.929  1.00  0.00    -0.265 N 
ATOM     23  H1  UNL     1      16.706  39.587 -16.026  1.00  0.00     0.194 HD
BRANCH  22  24
HETATM   24  O3  UNL     1      15.095  40.315 -15.296  1.00  0.00    -0.270 OA
BRANCH  24  25
HETATM   25  C3  UNL     1      15.292  40.590 -13.971  1.00  0.00     0.312 C 
BRANCH  25  26
HETATM   26  C2  UNL     1      14.641  39.501 -13.149  1.00  0.00     0.284 C 
HETATM   27  O2  UNL     1      13.469  39.649 -12.784  1.00  0.00    -0.263 OA
BRANCH  26  28
HETATM   28  O1  UNL     1      15.357  38.367 -12.814  1.00  0.00    -0.325 OA
HETATM   29  C1  UNL     1      16.743  38.369 -12.798  1.00  0.00     0.213 C 
ENDBRANCH  26  28
ENDBRANCH  25  26
ENDBRANCH  24  25
ENDBRANCH  22  24
ENDBRANCH  20  22
ENDBRANCH   1  20
TORSDOF 11
ENDMDL
MODEL 3
REMARK VINA RESULT: -6.598334812      0.733      1.227
REMARK  11 active torsions:
REMARK  status: ('A' for Active; 'I' for Inactive)
REMARK    1  A    between atoms: O1_2  and  C2_3 
REMARK    2  A    between atoms: C2_3  and  C3_5 
REMARK    3  A    between atoms: C3_5  and  O3_6 
REMARK    4  A    between atoms: O3_6  and  N1_7 
REMARK    5  A    between atoms: N1_7  and  C4_9 
REMARK    6  A    between atoms: C4_9  and  C6_11 
REMARK       I    between atoms: C6_11  and  N2_13 
REMARK    7  A    between atoms: N2_13  and  O5_14 
REMARK    8  A    between atoms: N2_13  and  C7_16 
REMARK    9  A    between atoms: C8_18  and  C9_19 
REMARK   10  A    between atoms: C9_19  and  O6_20 
REMARK   11  A    between atoms: O6_20  and  C10_21 
ROOT
HETATM    1  C6  UNL     1      15.156  38.963 -18.141  1.00  0.00     0.292 C 
HETATM    2  O4  UNL     1      16.062  39.798 -18.390  1.00  0.00    -0.264 OA
HETATM    3  N2  UNL     1      14.290  38.531 -19.160  1.00  0.00    -0.206 N 
ENDROOT
BRANCH   3   4
HETATM    4  O5  UNL     1      14.929  38.748 -20.436  1.00  0.00    -0.283 OA
ATOM      5  H5  UNL     1      15.744  38.261 -20.457  1.00  0.00     0.245 HD
ENDBRANCH   3   4
BRANCH   3   6
HETATM    6  C7  UNL     1      12.953  38.194 -19.334  1.00  0.00     0.209 C 
HETATM    7  S1  UNL     1      13.085  36.171 -19.289  1.00  0.00    -0.083 SA
HETATM    8  C8  UNL     1      11.373  35.766 -19.517  1.00  0.00     0.088 C 
HETATM    9  N4  UNL     1      10.551  36.912 -19.666  1.00  0.00    -0.300 N 
HETATM   10  N5  UNL     1      10.860  37.882 -20.545  1.00  0.00    -0.328 N 
ATOM     11  H4  UNL     1       9.709  37.002 -19.097  1.00  0.00     0.187 HD
HETATM   12  C11 UNL     1      12.246  38.289 -20.581  1.00  0.00     0.131 C 
ATOM     13  H5  UNL     1      10.157  38.306 -21.150  1.00  0.00     0.180 HD
HETATM   14  C12 UNL     1      12.846  37.384 -21.687  1.00  0.00     0.036 C 
BRANCH   8  15
HETATM   15  C9  UNL     1      10.767  34.668 -18.740  1.00  0.00     0.246 C 
BRANCH  15  16
HETATM   16  O6  UNL     1      11.616  33.562 -18.409  1.00  0.00    -0.300 OA
BRANCH  16  17
HETATM   17  C10 UNL     1      11.192  32.860 -17.259  1.00  0.00     0.373 C 
HETATM   18  N3  UNL     1      10.125  31.960 -17.278  1.00  0.00    -0.032 NA
HETATM   19  O7  UNL     1      11.787  33.027 -16.126  1.00  0.00    -0.242 OA
ENDBRANCH  16  17
ENDBRANCH  15  16
ENDBRANCH   8  15
ENDBRANCH   3   6
BRANCH   1  20
HETATM   20  C4  UNL     1      15.089  38.427 -16.750  1.00  0.00     0.098 C 
HETATM   21  C5  UNL     1      15.105  37.047 -16.424  1.00  0.00     0.076 C 
BRANCH  20  22
HETATM   22  N1  UNL     1      15.708  39.414 -15.893  1.00  0.00    -0.265 N 
ATOM     23  H1  UNL     1      15.481  40.389 -16.090  1.00  0.00     0.194 HD
BRANCH  22  24
HETATM   24  O3  UNL     1      16.475  39.212 -14.957  1.00  0.00    -0.270 OA
BRANCH  24  25
HETATM   25  C3  UNL     1      16.246  39.598 -13.665  1.00  0.00     0.312 C 
BRANCH  25  26
HETATM   26  C2  UNL     1      14.898  40.281 -13.595  1.00  0.00     0.284 C 
HETATM   27  O2  UNL     1      14.792  41.435 -14.024  1.00  0.00    -0.263 OA
BRANCH  26  28
HETATM   28  O1  UNL     1      13.814  39.615 -13.054  1.00  0.00    -0.325 OA
HETATM   29  C1  UNL     1      12.587  40.244 -12.900  1.00  0.00     0.213 C 
ENDBRANCH  26  28
ENDBRANCH  25  26
ENDBRANCH  24  25
ENDBRANCH  22  24
ENDBRANCH  20  22
ENDBRANCH   1  20
TORSDOF 11
ENDMDL
MODEL 4
REMARK VINA RESULT: -6.206378341      1.105      1.243
REMARK  11 active torsions:
REMARK  status: ('A' for Active; 'I' for Inactive)
REMARK    1  A    between atoms: O1_2  and  C2_3 
REMARK    2  A    between atoms: C2_3  and  C3_5 
REMARK    3  A    between atoms: C3_5  and  O3_6 
REMARK    4  A    between atoms: O3_6  and  N1_7 
REMARK    5  A    between atoms: N1_7  and  C4_9 
REMARK    6  A    between atoms: C4_9  and  C6_11 
REMARK       I    between atoms: C6_11  and  N2_13 
REMARK    7  A    between atoms: N2_13  and  O5_14 
REMARK    8  A    between atoms: N2_13  and  C7_16 
REMARK    9  A    between atoms: C8_18  and  C9_19 
REMARK   10  A    between atoms: C9_19  and  O6_20 
REMARK   11  A    between atoms: O6_20  and  C10_21 
ROOT
HETATM    1  C6  UNL     1      15.049  38.861 -18.008  1.00  0.00     0.292 C 
HETATM    2  O4  UNL     1      15.792  39.813 -18.357  1.00  0.00    -0.264 OA
HETATM    3  N2  UNL     1      14.206  38.239 -18.944  1.00  0.00    -0.206 N 
ENDROOT
BRANCH   3   4
HETATM    4  O5  UNL     1      14.724  38.480 -20.269  1.00  0.00    -0.283 OA
ATOM      5  H5  UNL     1      15.510  37.960 -20.389  1.00  0.00     0.245 HD
ENDBRANCH   3   4
BRANCH   3   6
HETATM    6  C7  UNL     1      12.932  37.685 -19.009  1.00  0.00     0.209 C 
HETATM    7  S1  UNL     1      13.383  35.831 -19.694  1.00  0.00    -0.083 SA
HETATM    8  C8  UNL     1      11.748  35.147 -19.774  1.00  0.00     0.088 C 
HETATM    9  N4  UNL     1      10.746  36.071 -19.382  1.00  0.00    -0.300 N 
HETATM   10  N5  UNL     1      10.696  37.310 -19.904  1.00  0.00    -0.328 N 
ATOM     11  H4  UNL     1      10.050  35.791 -18.691  1.00  0.00     0.187 HD
HETATM   12  C11 UNL     1      11.958  38.004 -20.016  1.00  0.00     0.131 C 
ATOM     13  H5  UNL     1       9.818  37.734 -20.203  1.00  0.00     0.180 HD
HETATM   14  C12 UNL     1      12.428  37.644 -21.448  1.00  0.00     0.036 C 
BRANCH   8  15
HETATM   15  C9  UNL     1      11.510  33.758 -19.343  1.00  0.00     0.246 C 
BRANCH  15  16
HETATM   16  O6  UNL     1      10.292  33.498 -18.633  1.00  0.00    -0.300 OA
BRANCH  16  17
HETATM   17  C10 UNL     1      10.483  32.723 -17.468  1.00  0.00     0.373 C 
HETATM   18  N3  UNL     1      11.496  32.989 -16.545  1.00  0.00    -0.032 NA
HETATM   19  O7  UNL     1       9.712  31.721 -17.207  1.00  0.00    -0.242 OA
ENDBRANCH  16  17
ENDBRANCH  15  16
ENDBRANCH   8  15
ENDBRANCH   3   6
BRANCH   1  20
HETATM   20  C4  UNL     1      15.153  38.403 -16.591  1.00  0.00     0.098 C 
HETATM   21  C5  UNL     1      15.312  37.051 -16.198  1.00  0.00     0.076 C 
BRANCH  20  22
HETATM   22  N1  UNL     1      15.765  39.484 -15.849  1.00  0.00    -0.265 N 
ATOM     23  H1  UNL     1      16.780  39.557 -15.911  1.00  0.00     0.194 HD
BRANCH  22  24
HETATM   24  O3  UNL     1      15.201  40.323 -15.153  1.00  0.00    -0.270 OA
BRANCH  24  25
HETATM   25  C3  UNL     1      15.022  40.221 -13.800  1.00  0.00     0.312 C 
BRANCH  25  26
HETATM   26  C2  UNL     1      16.033  39.239 -13.251  1.00  0.00     0.284 C 
HETATM   27  O2  UNL     1      15.639  38.138 -12.853  1.00  0.00    -0.263 OA
BRANCH  26  28
HETATM   28  O1  UNL     1      17.371  39.583 -13.197  1.00  0.00    -0.325 OA
HETATM   29  C1  UNL     1      18.334  38.833 -13.855  1.00  0.00     0.213 C 
ENDBRANCH  26  28
ENDBRANCH  25  26
ENDBRANCH  24  25
ENDBRANCH  22  24
ENDBRANCH  20  22
ENDBRANCH   1  20
TORSDOF 11
ENDMDL
MODEL 5
REMARK VINA RESULT: -6.195429432      2.098      6.963
REMARK  11 active torsions:
REMARK  status: ('A' for Active; 'I' for Inactive)
REMARK    1  A    between atoms: O1_2  and  C2_3 
REMARK    2  A    between atoms: C2_3  and  C3_5 
REMARK    3  A    between atoms: C3_5  and  O3_6 
REMARK    4  A    between atoms: O3_6  and  N1_7 
REMARK    5  A    between atoms: N1_7  and  C4_9 
REMARK    6  A    between atoms: C4_9  and  C6_11 
REMARK       I    between atoms: C6_11  and  N2_13 
REMARK    7  A    between atoms: N2_13  and  O5_14 
REMARK    8  A    between atoms: N2_13  and  C7_16 
REMARK    9  A    between atoms: C8_18  and  C9_19 
REMARK   10  A    between atoms: C9_19  and  O6_20 
REMARK   11  A    between atoms: O6_20  and  C10_21 
ROOT
HETATM    1  C6  UNL     1      12.539  35.434 -20.864  1.00  0.00     0.292 C 
HETATM    2  O4  UNL     1      11.935  35.110 -21.918  1.00  0.00    -0.264 OA
HETATM    3  N2  UNL     1      13.132  36.702 -20.748  1.00  0.00    -0.206 N 
ENDROOT
BRANCH   3   4
HETATM    4  O5  UNL     1      12.495  37.600 -21.681  1.00  0.00    -0.283 OA
ATOM      5  H5  UNL     1      12.533  38.483 -21.331  1.00  0.00     0.245 HD
ENDBRANCH   3   4
BRANCH   3   6
HETATM    6  C7  UNL     1      14.270  37.287 -20.204  1.00  0.00     0.209 C 
HETATM    7  S1  UNL     1      13.536  37.903 -18.416  1.00  0.00    -0.083 SA
HETATM    8  C8  UNL     1      14.999  38.648 -17.746  1.00  0.00     0.088 C 
HETATM    9  N4  UNL     1      16.104  38.587 -18.633  1.00  0.00    -0.300 N 
HETATM   10  N5  UNL     1      15.994  38.986 -19.913  1.00  0.00    -0.328 N 
ATOM     11  H4  UNL     1      16.999  38.235 -18.294  1.00  0.00     0.187 HD
HETATM   12  C11 UNL     1      14.804  38.556 -20.612  1.00  0.00     0.131 C 
ATOM     13  H5  UNL     1      16.708  39.558 -20.363  1.00  0.00     0.180 HD
HETATM   14  C12 UNL     1      13.821  39.731 -20.379  1.00  0.00     0.036 C 
BRANCH   8  15
HETATM   15  C9  UNL     1      15.337  38.454 -16.324  1.00  0.00     0.246 C 
BRANCH  15  16
HETATM   16  O6  UNL     1      15.766  39.612 -15.595  1.00  0.00    -0.300 OA
BRANCH  16  17
HETATM   17  C10 UNL     1      15.030  39.825 -14.408  1.00  0.00     0.373 C 
HETATM   18  N3  UNL     1      14.658  41.098 -13.972  1.00  0.00    -0.032 NA
HETATM   19  O7  UNL     1      14.666  38.832 -13.669  1.00  0.00    -0.242 OA
ENDBRANCH  16  17
ENDBRANCH  15  16
ENDBRANCH   8  15
ENDBRANCH   3   6
BRANCH   1  20
HETATM   20  C4  UNL     1      12.543  34.440 -19.751  1.00  0.00     0.098 C 
HETATM   21  C5  UNL     1      13.696  33.751 -19.300  1.00  0.00     0.076 C 
BRANCH  20  22
HETATM   22  N1  UNL     1      11.492  34.834 -18.837  1.00  0.00    -0.265 N 
ATOM     23  H1  UNL     1      11.781  35.380 -18.025  1.00  0.00     0.194 HD
BRANCH  22  24
HETATM   24  O3  UNL     1      10.294  34.587 -18.929  1.00  0.00    -0.270 OA
BRANCH  24  25
HETATM   25  C3  UNL     1       9.608  33.736 -18.106  1.00  0.00     0.312 C 
BRANCH  25  26
HETATM   26  C2  UNL     1      10.498  32.558 -17.778  1.00  0.00     0.284 C 
HETATM   27  O2  UNL     1      11.025  32.502 -16.662  1.00  0.00    -0.263 OA
BRANCH  26  28
HETATM   28  O1  UNL     1      10.714  31.572 -18.723  1.00  0.00    -0.325 OA
HETATM   29  C1  UNL     1       9.711  31.178 -19.595  1.00  0.00     0.213 C 
ENDBRANCH  26  28
ENDBRANCH  25  26
ENDBRANCH  24  25
ENDBRANCH  22  24
ENDBRANCH  20  22
ENDBRANCH   1  20
TORSDOF 11
ENDMDL
