MODEL 1
REMARK VINA RESULT: -6.943177758      0.000      0.000
REMARK  10 active torsions:
REMARK  status: ('A' for Active; 'I' for Inactive)
REMARK    1  A    between atoms: C2_2  and  C3_3 
REMARK    2  A    between atoms: C2_2  and  C5_8 
REMARK    3  A    between atoms: C3_3  and  O1_4 
REMARK    4  A    between atoms: C3_3  and  O2_6 
REMARK    5  A    between atoms: C5_8  and  C6_9 
REMARK    6  A    between atoms: C5_8  and  N1_14 
REMARK    7  A    between atoms: C6_9  and  O3_10 
REMARK    8  A    between atoms: C6_9  and  O4_12 
REMARK    9  A    between atoms: C8_16  and  C9_17 
REMARK   10  A    between atoms: C10_18  and  N2_19 
ROOT
HETATM    1  N1  UNL     1      15.739  38.214 -15.994  1.00  0.00    -0.303 N 
HETATM    2  C7  UNL     1      15.597  38.823 -17.161  1.00  0.00     0.117 A 
HETATM    3  C8  UNL     1      14.828  38.244 -18.112  1.00  0.00     0.056 A 
HETATM    4  S1  UNL     1      14.312  36.802 -17.288  1.00  0.00    -0.025 SA
HETATM    5  C13 UNL     1      15.109  37.054 -15.821  1.00  0.00     0.291 A 
HETATM    6  O7  UNL     1      15.081  36.284 -14.818  1.00  0.00    -0.259 OA
ENDROOT
BRANCH   1   7
HETATM    7  C5  UNL     1      16.574  38.782 -14.879  1.00  0.00     0.180 C 
BRANCH   7   8
HETATM    8  C2  UNL     1      15.728  39.096 -13.731  1.00  0.00    -0.007 C 
HETATM    9  C1  UNL     1      15.932  38.540 -12.556  1.00  0.00     0.021 C 
BRANCH   8  10
HETATM   10  C3  UNL     1      14.597  40.065 -13.821  1.00  0.00     0.288 C 
BRANCH  10  11
HETATM   11  O1  UNL     1      15.033  41.316 -14.262  1.00  0.00    -0.367 OA
ATOM     12  H1  UNL     1      14.742  42.009 -13.680  1.00  0.00     0.213 HD
ENDBRANCH  10  11
BRANCH  10  13
HETATM   13  O2  UNL     1      13.872  40.169 -12.666  1.00  0.00    -0.362 OA
HETATM   14  C4  UNL     1      12.517  40.263 -12.954  1.00  0.00     0.205 C 
ENDBRANCH  10  13
ENDBRANCH   8  10
ENDBRANCH   7   8
BRANCH   7  15
HETATM   15  C6  UNL     1      17.720  37.844 -14.608  1.00  0.00     0.281 C 
BRANCH  15  16
HETATM   16  O3  UNL     1      18.012  36.987 -15.632  1.00  0.00    -0.369 OA
ATOM     17  H3  UNL     1      18.913  36.687 -15.655  1.00  0.00     0.212 HD
ENDBRANCH  15  16
BRANCH  15  18
HETATM   18  O4  UNL     1      18.849  38.672 -14.391  1.00  0.00    -0.369 OA
ATOM     19  H4  UNL     1      19.470  38.139 -13.908  1.00  0.00     0.212 HD
ENDBRANCH  15  18
ENDBRANCH   7  15
ENDBRANCH   1   7
BRANCH   3  20
HETATM   20  C9  UNL     1      14.455  38.626 -19.489  1.00  0.00     0.105 A 
HETATM   21  C10 UNL     1      13.149  38.631 -19.965  1.00  0.00     0.177 A 
HETATM   22  C11 UNL     1      13.226  39.028 -21.305  1.00  0.00     0.149 A 
HETATM   23  N3  UNL     1      12.196  39.140 -22.057  1.00  0.00    -0.382 N 
HETATM   24  N4  UNL     1      14.519  39.236 -21.569  1.00  0.00    -0.281 N 
ATOM     25  H32 UNL     1      11.209  38.982 -21.856  1.00  0.00     0.157 HD
ATOM     26  H31 UNL     1      12.252  39.429 -23.034  1.00  0.00     0.157 HD
HETATM   27  N5  UNL     1      15.263  38.994 -20.472  1.00  0.00    -0.291 N 
ATOM     28  H4  UNL     1      14.890  39.536 -22.470  1.00  0.00     0.189 HD
HETATM   29  C12 UNL     1      16.705  39.147 -20.483  1.00  0.00     0.178 C 
BRANCH  21  30
HETATM   30  N2  UNL     1      12.011  38.296 -19.228  1.00  0.00    -0.109 N 
HETATM   31  O5  UNL     1      11.277  39.184 -18.754  1.00  0.00    -0.532 OA
HETATM   32  O6  UNL     1      11.662  36.986 -19.030  1.00  0.00    -0.532 OA
ENDBRANCH  21  30
ENDBRANCH   3  20
TORSDOF 10
ENDMDL
MODEL 2
REMARK VINA RESULT: -6.926722238      4.351      6.458
REMARK  10 active torsions:
REMARK  status: ('A' for Active; 'I' for Inactive)
REMARK    1  A    between atoms: C2_2  and  C3_3 
REMARK    2  A    between atoms: C2_2  and  C5_8 
REMARK    3  A    between atoms: C3_3  and  O1_4 
REMARK    4  A    between atoms: C3_3  and  O2_6 
REMARK    5  A    between atoms: C5_8  and  C6_9 
REMARK    6  A    between atoms: C5_8  and  N1_14 
REMARK    7  A    between atoms: C6_9  and  O3_10 
REMARK    8  A    between atoms: C6_9  and  O4_12 
REMARK    9  A    between atoms: C8_16  and  C9_17 
REMARK   10  A    between atoms: C10_18  and  N2_19 
ROOT
HETATM    1  N1  UNL     1      12.831  35.371 -19.269  1.00  0.00    -0.303 N 
HETATM    2  C7  UNL     1      12.910  36.474 -19.997  1.00  0.00     0.117 A 
HETATM    3  C8  UNL     1      13.695  37.489 -19.566  1.00  0.00     0.056 A 
HETATM    4  S1  UNL     1      14.318  36.818 -18.087  1.00  0.00    -0.025 SA
HETATM    5  C13 UNL     1      13.538  35.323 -18.141  1.00  0.00     0.291 A 
HETATM    6  O7  UNL     1      13.635  34.401 -17.280  1.00  0.00    -0.259 OA
ENDROOT
BRANCH   1   7
HETATM    7  C5  UNL     1      11.985  34.193 -19.668  1.00  0.00     0.180 C 
BRANCH   7   8
HETATM    8  C2  UNL     1      10.887  34.022 -18.722  1.00  0.00    -0.007 C 
HETATM    9  C1  UNL     1      10.071  35.013 -18.432  1.00  0.00     0.021 C 
BRANCH   8  10
HETATM   10  C3  UNL     1      10.623  32.722 -18.040  1.00  0.00     0.288 C 
BRANCH  10  11
HETATM   11  O1  UNL     1      11.370  32.601 -16.866  1.00  0.00    -0.367 OA
ATOM     12  H1  UNL     1      11.591  31.695 -16.688  1.00  0.00     0.213 HD
ENDBRANCH  10  11
BRANCH  10  13
HETATM   13  O2  UNL     1      10.794  31.633 -18.852  1.00  0.00    -0.362 OA
HETATM   14  C4  UNL     1       9.629  30.881 -18.901  1.00  0.00     0.205 C 
ENDBRANCH  10  13
ENDBRANCH   8  10
ENDBRANCH   7   8
BRANCH   7  15
HETATM   15  C6  UNL     1      11.585  34.352 -21.111  1.00  0.00     0.281 C 
BRANCH  15  16
HETATM   16  O3  UNL     1      12.571  34.066 -22.013  1.00  0.00    -0.369 OA
ATOM     17  H3  UNL     1      13.455  34.148 -21.676  1.00  0.00     0.212 HD
ENDBRANCH  15  16
BRANCH  15  18
HETATM   18  O4  UNL     1      10.521  33.440 -21.317  1.00  0.00    -0.369 OA
ATOM     19  H4  UNL     1      10.923  32.581 -21.359  1.00  0.00     0.212 HD
ENDBRANCH  15  18
ENDBRANCH   7  15
ENDBRANCH   1   7
BRANCH   3  20
HETATM   20  C9  UNL     1      14.014  38.825 -20.104  1.00  0.00     0.105 A 
HETATM   21  C10 UNL     1      13.059  39.720 -20.574  1.00  0.00     0.177 A 
HETATM   22  C11 UNL     1      13.764  40.848 -21.009  1.00  0.00     0.149 A 
HETATM   23  N3  UNL     1      13.191  41.877 -21.509  1.00  0.00    -0.382 N 
HETATM   24  N4  UNL     1      15.059  40.597 -20.792  1.00  0.00    -0.281 N 
ATOM     25  H32 UNL     1      12.203  42.070 -21.674  1.00  0.00     0.157 HD
ATOM     26  H31 UNL     1      13.705  42.700 -21.826  1.00  0.00     0.157 HD
HETATM   27  N5  UNL     1      15.211  39.375 -20.245  1.00  0.00    -0.291 N 
ATOM     28  H4  UNL     1      15.822  41.237 -21.010  1.00  0.00     0.189 HD
HETATM   29  C12 UNL     1      16.520  38.852 -19.905  1.00  0.00     0.178 C 
BRANCH  21  30
HETATM   30  N2  UNL     1      11.680  39.503 -20.599  1.00  0.00    -0.109 N 
HETATM   31  O5  UNL     1      11.083  39.330 -21.680  1.00  0.00    -0.532 OA
HETATM   32  O6  UNL     1      10.955  39.450 -19.437  1.00  0.00    -0.532 OA
ENDBRANCH  21  30
ENDBRANCH   3  20
TORSDOF 10
ENDMDL
MODEL 3
REMARK VINA RESULT: -6.733958770      3.868      5.071
REMARK  10 active torsions:
REMARK  status: ('A' for Active; 'I' for Inactive)
REMARK    1  A    between atoms: C2_2  and  C3_3 
REMARK    2  A    between atoms: C2_2  and  C5_8 
REMARK    3  A    between atoms: C3_3  and  O1_4 
REMARK    4  A    between atoms: C3_3  and  O2_6 
REMARK    5  A    between atoms: C5_8  and  C6_9 
REMARK    6  A    between atoms: C5_8  and  N1_14 
REMARK    7  A    between atoms: C6_9  and  O3_10 
REMARK    8  A    between atoms: C6_9  and  O4_12 
REMARK    9  A    between atoms: C8_16  and  C9_17 
REMARK   10  A    between atoms: C10_18  and  N2_19 
ROOT
HETATM    1  N1  UNL     1      13.448  37.600 -18.597  1.00  0.00    -0.303 N 
HETATM    2  C7  UNL     1      13.450  36.284 -18.456  1.00  0.00     0.117 A 
HETATM    3  C8  UNL     1      12.444  35.566 -19.007  1.00  0.00     0.056 A 
HETATM    4  S1  UNL     1      11.495  36.830 -19.734  1.00  0.00    -0.025 SA
HETATM    5  C13 UNL     1      12.445  38.149 -19.281  1.00  0.00     0.291 A 
HETATM    6  O7  UNL     1      12.214  39.361 -19.554  1.00  0.00    -0.259 OA
ENDROOT
BRANCH   1   7
HETATM    7  C5  UNL     1      14.523  38.480 -18.019  1.00  0.00     0.180 C 
BRANCH   7   8
HETATM    8  C2  UNL     1      14.923  37.984 -16.705  1.00  0.00    -0.007 C 
HETATM    9  C1  UNL     1      15.183  36.710 -16.504  1.00  0.00     0.021 C 
BRANCH   8  10
HETATM   10  C3  UNL     1      15.067  38.887 -15.528  1.00  0.00     0.288 C 
BRANCH  10  11
HETATM   11  O1  UNL     1      16.174  39.728 -15.663  1.00  0.00    -0.367 OA
ATOM     12  H1  UNL     1      16.447  40.079 -14.823  1.00  0.00     0.213 HD
ENDBRANCH  10  11
BRANCH  10  13
HETATM   13  O2  UNL     1      15.089  38.226 -14.329  1.00  0.00    -0.362 OA
HETATM   14  C4  UNL     1      15.249  39.126 -13.285  1.00  0.00     0.205 C 
ENDBRANCH  10  13
ENDBRANCH   8  10
ENDBRANCH   7   8
BRANCH   7  15
HETATM   15  C6  UNL     1      15.631  38.617 -19.030  1.00  0.00     0.281 C 
BRANCH  15  16
HETATM   16  O3  UNL     1      15.212  38.708 -20.328  1.00  0.00    -0.369 OA
ATOM     17  H3  UNL     1      15.766  39.238 -20.889  1.00  0.00     0.212 HD
ENDBRANCH  15  16
BRANCH  15  18
HETATM   18  O4  UNL     1      16.305  39.818 -18.699  1.00  0.00    -0.369 OA
ATOM     19  H4  UNL     1      17.232  39.620 -18.767  1.00  0.00     0.212 HD
ENDBRANCH  15  18
ENDBRANCH   7  15
ENDBRANCH   1   7
BRANCH   3  20
HETATM   20  C9  UNL     1      12.130  34.124 -19.051  1.00  0.00     0.105 A 
HETATM   21  C10 UNL     1      10.905  33.586 -18.676  1.00  0.00     0.177 A 
HETATM   22  C11 UNL     1      11.021  32.201 -18.843  1.00  0.00     0.149 A 
HETATM   23  N3  UNL     1      10.067  31.387 -18.585  1.00  0.00    -0.382 N 
HETATM   24  N4  UNL     1      12.258  31.973 -19.293  1.00  0.00    -0.281 N 
ATOM     25  H32 UNL     1       9.123  31.561 -18.242  1.00  0.00     0.157 HD
ATOM     26  H31 UNL     1      10.152  30.377 -18.707  1.00  0.00     0.157 HD
HETATM   27  N5  UNL     1      12.930  33.134 -19.420  1.00  0.00    -0.291 N 
ATOM     28  H4  UNL     1      12.639  31.052 -19.509  1.00  0.00     0.189 HD
HETATM   29  C12 UNL     1      14.299  33.172 -19.894  1.00  0.00     0.178 C 
BRANCH  21  30
HETATM   30  N2  UNL     1       9.801  34.310 -18.221  1.00  0.00    -0.109 N 
HETATM   31  O5  UNL     1       9.529  34.357 -17.005  1.00  0.00    -0.532 OA
HETATM   32  O6  UNL     1       9.006  35.005 -19.095  1.00  0.00    -0.532 OA
ENDBRANCH  21  30
ENDBRANCH   3  20
TORSDOF 10
ENDMDL
MODEL 4
REMARK VINA RESULT: -6.590306645      4.735      6.366
REMARK  10 active torsions:
REMARK  status: ('A' for Active; 'I' for Inactive)
REMARK    1  A    between atoms: C2_2  and  C3_3 
REMARK    2  A    between atoms: C2_2  and  C5_8 
REMARK    3  A    between atoms: C3_3  and  O1_4 
REMARK    4  A    between atoms: C3_3  and  O2_6 
REMARK    5  A    between atoms: C5_8  and  C6_9 
REMARK    6  A    between atoms: C5_8  and  N1_14 
REMARK    7  A    between atoms: C6_9  and  O3_10 
REMARK    8  A    between atoms: C6_9  and  O4_12 
REMARK    9  A    between atoms: C8_16  and  C9_17 
REMARK   10  A    between atoms: C10_18  and  N2_19 
ROOT
HETATM    1  N1  UNL     1      12.984  35.535 -19.674  1.00  0.00    -0.303 N 
HETATM    2  C7  UNL     1      13.420  36.759 -19.421  1.00  0.00     0.117 A 
HETATM    3  C8  UNL     1      13.619  37.610 -20.454  1.00  0.00     0.056 A 
HETATM    4  S1  UNL     1      13.163  36.607 -21.800  1.00  0.00    -0.025 SA
HETATM    5  C13 UNL     1      12.763  35.208 -20.947  1.00  0.00     0.291 A 
HETATM    6  O7  UNL     1      12.353  34.122 -21.448  1.00  0.00    -0.259 OA
ENDROOT
BRANCH   1   7
HETATM    7  C5  UNL     1      12.735  34.521 -18.591  1.00  0.00     0.180 C 
BRANCH   7   8
HETATM    8  C2  UNL     1      11.378  33.995 -18.702  1.00  0.00    -0.007 C 
HETATM    9  C1  UNL     1      10.328  34.787 -18.642  1.00  0.00     0.021 C 
BRANCH   8  10
HETATM   10  C3  UNL     1      11.104  32.542 -18.897  1.00  0.00     0.288 C 
BRANCH  10  11
HETATM   11  O1  UNL     1      10.394  32.312 -20.077  1.00  0.00    -0.367 OA
ATOM     12  H1  UNL     1      10.305  33.107 -20.589  1.00  0.00     0.213 HD
ENDBRANCH  10  11
BRANCH  10  13
HETATM   13  O2  UNL     1      10.493  31.950 -17.825  1.00  0.00    -0.362 OA
HETATM   14  C4  UNL     1       9.358  31.266 -18.235  1.00  0.00     0.205 C 
ENDBRANCH  10  13
ENDBRANCH   8  10
ENDBRANCH   7   8
BRANCH   7  15
HETATM   15  C6  UNL     1      13.838  33.497 -18.624  1.00  0.00     0.281 C 
BRANCH  15  16
HETATM   16  O3  UNL     1      14.215  33.023 -17.399  1.00  0.00    -0.369 OA
ATOM     17  H3  UNL     1      14.852  32.319 -17.424  1.00  0.00     0.212 HD
ENDBRANCH  15  16
BRANCH  15  18
HETATM   18  O4  UNL     1      13.331  32.412 -19.381  1.00  0.00    -0.369 OA
ATOM     19  H4  UNL     1      12.387  32.516 -19.379  1.00  0.00     0.212 HD
ENDBRANCH  15  18
ENDBRANCH   7  15
ENDBRANCH   1   7
BRANCH   3  20
HETATM   20  C9  UNL     1      14.083  39.008 -20.544  1.00  0.00     0.105 A 
HETATM   21  C10 UNL     1      13.263  40.077 -20.887  1.00  0.00     0.177 A 
HETATM   22  C11 UNL     1      14.081  41.213 -20.878  1.00  0.00     0.149 A 
HETATM   23  N3  UNL     1      13.647  42.385 -21.153  1.00  0.00    -0.382 N 
HETATM   24  N4  UNL     1      15.307  40.799 -20.544  1.00  0.00    -0.281 N 
ATOM     25  H32 UNL     1      12.712  42.702 -21.408  1.00  0.00     0.157 HD
ATOM     26  H31 UNL     1      14.243  43.213 -21.147  1.00  0.00     0.157 HD
HETATM   27  N5  UNL     1      15.310  39.466 -20.341  1.00  0.00    -0.291 N 
ATOM     28  H4  UNL     1      16.123  41.404 -20.455  1.00  0.00     0.189 HD
HETATM   29  C12 UNL     1      16.517  38.758 -19.964  1.00  0.00     0.178 C 
BRANCH  21  30
HETATM   30  N2  UNL     1      11.901  39.998 -21.182  1.00  0.00    -0.109 N 
HETATM   31  O5  UNL     1      11.501  40.057 -22.361  1.00  0.00    -0.532 OA
HETATM   32  O6  UNL     1      10.974  39.830 -20.187  1.00  0.00    -0.532 OA
ENDBRANCH  21  30
ENDBRANCH   3  20
TORSDOF 10
ENDMDL
MODEL 5
REMARK VINA RESULT: -6.552265426      4.360      6.227
REMARK  10 active torsions:
REMARK  status: ('A' for Active; 'I' for Inactive)
REMARK    1  A    between atoms: C2_2  and  C3_3 
REMARK    2  A    between atoms: C2_2  and  C5_8 
REMARK    3  A    between atoms: C3_3  and  O1_4 
REMARK    4  A    between atoms: C3_3  and  O2_6 
REMARK    5  A    between atoms: C5_8  and  C6_9 
REMARK    6  A    between atoms: C5_8  and  N1_14 
REMARK    7  A    between atoms: C6_9  and  O3_10 
REMARK    8  A    between atoms: C6_9  and  O4_12 
REMARK    9  A    between atoms: C8_16  and  C9_17 
REMARK   10  A    between atoms: C10_18  and  N2_19 
ROOT
HETATM    1  N1  UNL     1      12.477  35.721 -19.070  1.00  0.00    -0.303 N 
HETATM    2  C7  UNL     1      13.543  36.144 -19.730  1.00  0.00     0.117 A 
HETATM    3  C8  UNL     1      13.406  37.159 -20.615  1.00  0.00     0.056 A 
HETATM    4  S1  UNL     1      11.704  37.490 -20.474  1.00  0.00    -0.025 SA
HETATM    5  C13 UNL     1      11.316  36.325 -19.317  1.00  0.00     0.291 A 
HETATM    6  O7  UNL     1      10.169  36.114 -18.829  1.00  0.00    -0.259 OA
ENDROOT
BRANCH   1   7
HETATM    7  C5  UNL     1      12.535  34.600 -18.068  1.00  0.00     0.180 C 
BRANCH   7   8
HETATM    8  C2  UNL     1      11.916  33.400 -18.624  1.00  0.00    -0.007 C 
HETATM    9  C1  UNL     1      12.269  32.929 -19.801  1.00  0.00     0.021 C 
BRANCH   8  10
HETATM   10  C3  UNL     1      10.863  32.640 -17.892  1.00  0.00     0.288 C 
BRANCH  10  11
HETATM   11  O1  UNL     1      11.249  32.371 -16.577  1.00  0.00    -0.367 OA
ATOM     12  H1  UNL     1      10.739  32.878 -15.956  1.00  0.00     0.213 HD
ENDBRANCH  10  11
BRANCH  10  13
HETATM   13  O2  UNL     1      10.462  31.500 -18.536  1.00  0.00    -0.362 OA
HETATM   14  C4  UNL     1       9.119  31.254 -18.290  1.00  0.00     0.205 C 
ENDBRANCH  10  13
ENDBRANCH   8  10
ENDBRANCH   7   8
BRANCH   7  15
HETATM   15  C6  UNL     1      13.957  34.444 -17.599  1.00  0.00     0.281 C 
BRANCH  15  16
HETATM   16  O3  UNL     1      14.285  35.199 -16.507  1.00  0.00    -0.369 OA
ATOM     17  H3  UNL     1      14.740  34.727 -15.820  1.00  0.00     0.212 HD
ENDBRANCH  15  16
BRANCH  15  18
HETATM   18  O4  UNL     1      14.098  33.078 -17.249  1.00  0.00    -0.369 OA
ATOM     19  H4  UNL     1      14.378  33.072 -16.342  1.00  0.00     0.212 HD
ENDBRANCH  15  18
ENDBRANCH   7  15
ENDBRANCH   1   7
BRANCH   3  20
HETATM   20  C9  UNL     1      14.348  37.869 -21.502  1.00  0.00     0.105 A 
HETATM   21  C10 UNL     1      15.014  39.038 -21.150  1.00  0.00     0.177 A 
HETATM   22  C11 UNL     1      15.785  39.395 -22.261  1.00  0.00     0.149 A 
HETATM   23  N3  UNL     1      16.532  40.434 -22.284  1.00  0.00    -0.382 N 
HETATM   24  N4  UNL     1      15.562  38.467 -23.196  1.00  0.00    -0.281 N 
ATOM     25  H32 UNL     1      16.703  41.143 -21.571  1.00  0.00     0.157 HD
ATOM     26  H31 UNL     1      17.095  40.696 -23.094  1.00  0.00     0.157 HD
HETATM   27  N5  UNL     1      14.694  37.543 -22.739  1.00  0.00    -0.291 N 
ATOM     28  H4  UNL     1      15.988  38.458 -24.123  1.00  0.00     0.189 HD
HETATM   29  C12 UNL     1      14.280  36.420 -23.556  1.00  0.00     0.178 C 
BRANCH  21  30
HETATM   30  N2  UNL     1      14.906  39.700 -19.925  1.00  0.00    -0.109 N 
HETATM   31  O5  UNL     1      14.435  40.853 -19.865  1.00  0.00    -0.532 OA
HETATM   32  O6  UNL     1      15.292  39.091 -18.760  1.00  0.00    -0.532 OA
ENDBRANCH  21  30
ENDBRANCH   3  20
TORSDOF 10
ENDMDL
