MODEL 1
REMARK VINA RESULT: -7.336368271      0.000      0.000
REMARK  12 active torsions:
REMARK  status: ('A' for Active; 'I' for Inactive)
REMARK    1  A    between atoms: O1_2  and  C2_3 
REMARK    2  A    between atoms: C4_5  and  C5_6 
REMARK    3  A    between atoms: C5_6  and  N1_7 
REMARK    4  A    between atoms: N1_7  and  N2_8 
REMARK    5  A    between atoms: N1_7  and  C6_14 
REMARK    6  A    between atoms: N2_8  and  N3_10 
REMARK    7  A    between atoms: N3_10  and  N4_11 
REMARK    8  A    between atoms: C7_19  and  C8_20 
REMARK    9  A    between atoms: N8_22  and  O2_24 
REMARK   10  A    between atoms: C9_26  and  N9_27 
REMARK   11  A    between atoms: C10_34  and  O3_35 
REMARK   12  A    between atoms: C12_37  and  O4_38 
ROOT
HETATM    1  N1  UNL     1      15.331  37.738 -18.437  1.00  0.00    -0.090 N 
ENDROOT
BRANCH   1   2
HETATM    2  C5  UNL     1      15.951  38.380 -19.574  1.00  0.00     0.227 C 
BRANCH   2   3
HETATM    3  C4  UNL     1      14.967  39.163 -20.371  1.00  0.00     0.034 A 
HETATM    4  C3  UNL     1      15.351  39.854 -21.504  1.00  0.00     0.066 A 
HETATM    5  C2  UNL     1      14.483  40.580 -22.269  1.00  0.00     0.107 A 
HETATM    6  C12 UNL     1      13.160  40.608 -21.863  1.00  0.00     0.153 A 
HETATM    7  C10 UNL     1      12.738  39.924 -20.727  1.00  0.00     0.179 A 
HETATM    8  N11 UNL     1      13.661  39.242 -20.044  1.00  0.00    -0.336 N 
ATOM      9  H11 UNL     1      13.353  38.742 -19.210  1.00  0.00     0.168 HD
BRANCH   5  10
HETATM   10  O1  UNL     1      14.903  41.260 -23.397  1.00  0.00    -0.353 OA
HETATM   11  C1  UNL     1      16.083  40.824 -24.033  1.00  0.00     0.210 C 
ENDBRANCH   5  10
BRANCH   6  12
HETATM   12  O4  UNL     1      12.246  41.327 -22.600  1.00  0.00    -0.349 OA
HETATM   13  C13 UNL     1      12.021  42.673 -22.254  1.00  0.00     0.210 C 
ENDBRANCH   6  12
BRANCH   7  14
HETATM   14  O3  UNL     1      11.392  39.981 -20.356  1.00  0.00    -0.339 OA
HETATM   15  C11 UNL     1      10.921  38.908 -19.562  1.00  0.00     0.211 C 
ENDBRANCH   7  14
ENDBRANCH   2   3
ENDBRANCH   1   2
BRANCH   1  16
HETATM   16  N2  UNL     1      14.346  36.767 -18.586  1.00  0.00    -0.139 N 
ATOM     17  H2  UNL     1      13.665  36.877 -19.338  1.00  0.00     0.226 HD
BRANCH  16  18
HETATM   18  N3  UNL     1      14.257  35.770 -17.845  1.00  0.00    -0.227 NA
BRANCH  18  19
HETATM   19  N4  UNL     1      14.019  34.698 -17.306  1.00  0.00    -0.259 N 
ATOM     20  H42 UNL     1      14.257  34.199 -18.163  1.00  0.00     0.193 HD
ATOM     21  H41 UNL     1      13.773  33.927 -16.685  1.00  0.00     0.193 HD
ENDBRANCH  18  19
ENDBRANCH  16  18
ENDBRANCH   1  16
BRANCH   1  22
HETATM   22  C6  UNL     1      15.722  38.084 -17.117  1.00  0.00     0.717 A 
HETATM   23  N5  UNL     1      16.548  37.266 -16.416  1.00  0.00    -0.130 N 
HETATM   24  N6  UNL     1      16.950  37.522 -15.202  1.00  0.00    -0.280 N 
ATOM     25  H5  UNL     1      16.870  36.407 -16.861  1.00  0.00     0.205 HD
HETATM   26  C7  UNL     1      16.556  38.651 -14.546  1.00  0.00     0.135 A 
ATOM     27  H6  UNL     1      17.573  36.864 -14.733  1.00  0.00     0.188 HD
HETATM   28  C9  UNL     1      15.728  39.488 -15.226  1.00  0.00     0.146 A 
HETATM   29  N10 UNL     1      15.320  39.196 -16.501  1.00  0.00    -0.172 N 
ATOM     30  H10 UNL     1      14.697  39.842 -16.988  1.00  0.00     0.186 HD
BRANCH  26  31
HETATM   31  C8  UNL     1      17.039  38.873 -13.199  1.00  0.00     0.168 C 
HETATM   32  N7  UNL     1      16.427  38.010 -12.157  1.00  0.00    -0.078 NA
HETATM   33  N8  UNL     1      17.867  39.653 -12.762  1.00  0.00    -0.253 N 
ATOM     34  H8  UNL     1      17.883  39.459 -11.761  1.00  0.00     0.195 HD
BRANCH  33  35
HETATM   35  O2  UNL     1      18.734  40.598 -12.910  1.00  0.00    -0.288 OA
ATOM     36  H2  UNL     1      19.604  40.913 -13.125  1.00  0.00     0.244 HD
ENDBRANCH  33  35
ENDBRANCH  26  31
BRANCH  28  37
HETATM   37  N9  UNL     1      15.307  40.575 -14.687  1.00  0.00    -0.383 N 
ATOM     38  H92 UNL     1      15.277  40.628 -13.669  1.00  0.00     0.157 HD
ATOM     39  H91 UNL     1      15.011  41.363 -15.264  1.00  0.00     0.157 HD
ENDBRANCH  28  37
ENDBRANCH   1  22
TORSDOF 12
ENDMDL
MODEL 2
REMARK VINA RESULT: -7.246537376      3.418      4.887
REMARK  12 active torsions:
REMARK  status: ('A' for Active; 'I' for Inactive)
REMARK    1  A    between atoms: O1_2  and  C2_3 
REMARK    2  A    between atoms: C4_5  and  C5_6 
REMARK    3  A    between atoms: C5_6  and  N1_7 
REMARK    4  A    between atoms: N1_7  and  N2_8 
REMARK    5  A    between atoms: N1_7  and  C6_14 
REMARK    6  A    between atoms: N2_8  and  N3_10 
REMARK    7  A    between atoms: N3_10  and  N4_11 
REMARK    8  A    between atoms: C7_19  and  C8_20 
REMARK    9  A    between atoms: N8_22  and  O2_24 
REMARK   10  A    between atoms: C9_26  and  N9_27 
REMARK   11  A    between atoms: C10_34  and  O3_35 
REMARK   12  A    between atoms: C12_37  and  O4_38 
ROOT
HETATM    1  N1  UNL     1      13.993  34.663 -17.871  1.00  0.00    -0.090 N 
ENDROOT
BRANCH   1   2
HETATM    2  C5  UNL     1      13.856  34.619 -19.310  1.00  0.00     0.227 C 
BRANCH   2   3
HETATM    3  C4  UNL     1      12.442  34.814 -19.735  1.00  0.00     0.034 A 
HETATM    4  C3  UNL     1      11.912  36.080 -19.897  1.00  0.00     0.066 A 
HETATM    5  C2  UNL     1      10.625  36.308 -20.291  1.00  0.00     0.107 A 
HETATM    6  C12 UNL     1       9.835  35.197 -20.531  1.00  0.00     0.153 A 
HETATM    7  C10 UNL     1      10.335  33.907 -20.377  1.00  0.00     0.179 A 
HETATM    8  N11 UNL     1      11.607  33.786 -19.988  1.00  0.00    -0.336 N 
ATOM      9  H11 UNL     1      11.975  32.842 -19.874  1.00  0.00     0.168 HD
BRANCH   5  10
HETATM   10  O1  UNL     1      10.128  37.589 -20.443  1.00  0.00    -0.353 OA
HETATM   11  C1  UNL     1      10.893  38.661 -19.941  1.00  0.00     0.210 C 
ENDBRANCH   5  10
BRANCH   6  12
HETATM   12  O4  UNL     1       8.529  35.374 -20.929  1.00  0.00    -0.349 OA
HETATM   13  C13 UNL     1       8.266  35.527 -22.304  1.00  0.00     0.210 C 
ENDBRANCH   6  12
BRANCH   7  14
HETATM   14  O3  UNL     1       9.501  32.816 -20.631  1.00  0.00    -0.339 OA
HETATM   15  C11 UNL     1       9.675  31.692 -19.789  1.00  0.00     0.211 C 
ENDBRANCH   7  14
ENDBRANCH   2   3
ENDBRANCH   1   2
BRANCH   1  16
HETATM   16  N2  UNL     1      13.666  33.577 -17.066  1.00  0.00    -0.139 N 
ATOM     17  H2  UNL     1      14.423  33.032 -16.654  1.00  0.00     0.226 HD
BRANCH  16  18
HETATM   18  N3  UNL     1      12.491  33.238 -16.826  1.00  0.00    -0.227 NA
BRANCH  18  19
HETATM   19  N4  UNL     1      11.387  32.716 -16.758  1.00  0.00    -0.259 N 
ATOM     20  H42 UNL     1      11.161  33.268 -15.932  1.00  0.00     0.193 HD
ATOM     21  H41 UNL     1      10.532  32.171 -16.877  1.00  0.00     0.193 HD
ENDBRANCH  18  19
ENDBRANCH  16  18
ENDBRANCH   1  16
BRANCH   1  22
HETATM   22  C6  UNL     1      14.480  35.834 -17.233  1.00  0.00     0.717 A 
HETATM   23  N5  UNL     1      14.622  35.865 -15.884  1.00  0.00    -0.130 N 
HETATM   24  N6  UNL     1      15.065  36.904 -15.232  1.00  0.00    -0.280 N 
ATOM     25  H5  UNL     1      14.368  35.033 -15.352  1.00  0.00     0.205 HD
HETATM   26  C7  UNL     1      15.420  38.051 -15.880  1.00  0.00     0.135 A 
ATOM     27  H6  UNL     1      15.149  36.859 -14.216  1.00  0.00     0.188 HD
HETATM   28  C9  UNL     1      15.287  38.047 -17.234  1.00  0.00     0.146 A 
HETATM   29  N10 UNL     1      14.819  36.941 -17.895  1.00  0.00    -0.172 N 
ATOM     30  H10 UNL     1      14.728  36.966 -18.911  1.00  0.00     0.186 HD
BRANCH  26  31
HETATM   31  C8  UNL     1      15.903  39.168 -15.096  1.00  0.00     0.168 C 
HETATM   32  N7  UNL     1      14.928  40.269 -14.894  1.00  0.00    -0.078 NA
HETATM   33  N8  UNL     1      16.983  39.369 -14.568  1.00  0.00    -0.253 N 
ATOM     34  H8  UNL     1      16.873  40.282 -14.126  1.00  0.00     0.195 HD
BRANCH  33  35
HETATM   35  O2  UNL     1      18.193  39.026 -14.278  1.00  0.00    -0.288 OA
ATOM     36  H2  UNL     1      19.126  39.197 -14.235  1.00  0.00     0.244 HD
ENDBRANCH  33  35
ENDBRANCH  26  31
BRANCH  28  37
HETATM   37  N9  UNL     1      15.598  39.083 -17.927  1.00  0.00    -0.383 N 
ATOM     38  H92 UNL     1      16.580  39.232 -18.157  1.00  0.00     0.157 HD
ATOM     39  H91 UNL     1      14.879  39.736 -18.239  1.00  0.00     0.157 HD
ENDBRANCH  28  37
ENDBRANCH   1  22
TORSDOF 12
ENDMDL
MODEL 3
REMARK VINA RESULT: -7.217909257      0.508      2.459
REMARK  12 active torsions:
REMARK  status: ('A' for Active; 'I' for Inactive)
REMARK    1  A    between atoms: O1_2  and  C2_3 
REMARK    2  A    between atoms: C4_5  and  C5_6 
REMARK    3  A    between atoms: C5_6  and  N1_7 
REMARK    4  A    between atoms: N1_7  and  N2_8 
REMARK    5  A    between atoms: N1_7  and  C6_14 
REMARK    6  A    between atoms: N2_8  and  N3_10 
REMARK    7  A    between atoms: N3_10  and  N4_11 
REMARK    8  A    between atoms: C7_19  and  C8_20 
REMARK    9  A    between atoms: N8_22  and  O2_24 
REMARK   10  A    between atoms: C9_26  and  N9_27 
REMARK   11  A    between atoms: C10_34  and  O3_35 
REMARK   12  A    between atoms: C12_37  and  O4_38 
ROOT
HETATM    1  N1  UNL     1      15.360  37.747 -18.464  1.00  0.00    -0.090 N 
ENDROOT
BRANCH   1   2
HETATM    2  C5  UNL     1      15.989  38.396 -19.593  1.00  0.00     0.227 C 
BRANCH   2   3
HETATM    3  C4  UNL     1      15.007  39.175 -20.398  1.00  0.00     0.034 A 
HETATM    4  C3  UNL     1      13.673  39.229 -20.042  1.00  0.00     0.066 A 
HETATM    5  C2  UNL     1      12.739  39.934 -20.746  1.00  0.00     0.107 A 
HETATM    6  C12 UNL     1      13.179  40.617 -21.867  1.00  0.00     0.153 A 
HETATM    7  C10 UNL     1      14.515  40.584 -22.254  1.00  0.00     0.179 A 
HETATM    8  N11 UNL     1      15.353  39.867 -21.502  1.00  0.00    -0.336 N 
ATOM      9  H11 UNL     1      16.333  39.841 -21.786  1.00  0.00     0.168 HD
BRANCH   5  10
HETATM   10  O1  UNL     1      11.411  39.965 -20.361  1.00  0.00    -0.353 OA
HETATM   11  C1  UNL     1      10.921  38.898 -19.581  1.00  0.00     0.210 C 
ENDBRANCH   5  10
BRANCH   6  12
HETATM   12  O4  UNL     1      12.275  41.341 -22.610  1.00  0.00    -0.349 OA
HETATM   13  C13 UNL     1      12.048  42.686 -22.259  1.00  0.00     0.210 C 
ENDBRANCH   6  12
BRANCH   7  14
HETATM   14  O3  UNL     1      14.914  41.289 -23.392  1.00  0.00    -0.339 OA
HETATM   15  C11 UNL     1      16.074  40.809 -24.046  1.00  0.00     0.211 C 
ENDBRANCH   7  14
ENDBRANCH   2   3
ENDBRANCH   1   2
BRANCH   1  16
HETATM   16  N2  UNL     1      14.387  36.767 -18.626  1.00  0.00    -0.139 N 
ATOM     17  H2  UNL     1      13.779  36.816 -19.444  1.00  0.00     0.226 HD
BRANCH  16  18
HETATM   18  N3  UNL     1      14.223  35.832 -17.819  1.00  0.00    -0.227 NA
BRANCH  18  19
HETATM   19  N4  UNL     1      14.027  34.772 -17.241  1.00  0.00    -0.259 N 
ATOM     20  H42 UNL     1      13.211  34.589 -17.824  1.00  0.00     0.193 HD
ATOM     21  H41 UNL     1      14.039  33.943 -16.646  1.00  0.00     0.193 HD
ENDBRANCH  18  19
ENDBRANCH  16  18
ENDBRANCH   1  16
BRANCH   1  22
HETATM   22  C6  UNL     1      15.732  38.095 -17.139  1.00  0.00     0.717 A 
HETATM   23  N5  UNL     1      16.538  37.274 -16.420  1.00  0.00    -0.130 N 
HETATM   24  N6  UNL     1      16.922  37.532 -15.201  1.00  0.00    -0.280 N 
ATOM     25  H5  UNL     1      16.861  36.411 -16.856  1.00  0.00     0.205 HD
HETATM   26  C7  UNL     1      16.526  38.667 -14.556  1.00  0.00     0.135 A 
ATOM     27  H6  UNL     1      17.531  36.870 -14.718  1.00  0.00     0.188 HD
HETATM   28  C9  UNL     1      15.717  39.508 -15.254  1.00  0.00     0.146 A 
HETATM   29  N10 UNL     1      15.328  39.214 -16.535  1.00  0.00    -0.172 N 
ATOM     30  H10 UNL     1      14.719  39.863 -17.035  1.00  0.00     0.186 HD
BRANCH  26  31
HETATM   31  C8  UNL     1      16.988  38.891 -13.202  1.00  0.00     0.168 C 
HETATM   32  N7  UNL     1      16.317  38.072 -12.161  1.00  0.00    -0.078 NA
HETATM   33  N8  UNL     1      17.838  39.643 -12.759  1.00  0.00    -0.253 N 
ATOM     34  H8  UNL     1      17.824  39.465 -11.754  1.00  0.00     0.195 HD
BRANCH  33  35
HETATM   35  O2  UNL     1      18.746  40.549 -12.901  1.00  0.00    -0.288 OA
ATOM     36  H2  UNL     1      19.646  40.849 -12.856  1.00  0.00     0.244 HD
ENDBRANCH  33  35
ENDBRANCH  26  31
BRANCH  28  37
HETATM   37  N9  UNL     1      15.296  40.601 -14.727  1.00  0.00    -0.383 N 
ATOM     38  H92 UNL     1      14.553  41.111 -15.204  1.00  0.00     0.157 HD
ATOM     39  H91 UNL     1      15.694  40.947 -13.853  1.00  0.00     0.157 HD
ENDBRANCH  28  37
ENDBRANCH   1  22
TORSDOF 12
ENDMDL
MODEL 4
REMARK VINA RESULT: -7.209907812      2.008      3.773
REMARK  12 active torsions:
REMARK  status: ('A' for Active; 'I' for Inactive)
REMARK    1  A    between atoms: O1_2  and  C2_3 
REMARK    2  A    between atoms: C4_5  and  C5_6 
REMARK    3  A    between atoms: C5_6  and  N1_7 
REMARK    4  A    between atoms: N1_7  and  N2_8 
REMARK    5  A    between atoms: N1_7  and  C6_14 
REMARK    6  A    between atoms: N2_8  and  N3_10 
REMARK    7  A    between atoms: N3_10  and  N4_11 
REMARK    8  A    between atoms: C7_19  and  C8_20 
REMARK    9  A    between atoms: N8_22  and  O2_24 
REMARK   10  A    between atoms: C9_26  and  N9_27 
REMARK   11  A    between atoms: C10_34  and  O3_35 
REMARK   12  A    between atoms: C12_37  and  O4_38 
ROOT
HETATM    1  N1  UNL     1      15.162  37.632 -18.368  1.00  0.00    -0.090 N 
ENDROOT
BRANCH   1   2
HETATM    2  C5  UNL     1      14.202  36.568 -18.557  1.00  0.00     0.227 C 
BRANCH   2   3
HETATM    3  C4  UNL     1      12.936  37.069 -19.162  1.00  0.00     0.034 A 
HETATM    4  C3  UNL     1      11.880  36.216 -19.420  1.00  0.00     0.066 A 
HETATM    5  C2  UNL     1      10.700  36.630 -19.968  1.00  0.00     0.107 A 
HETATM    6  C12 UNL     1      10.585  37.976 -20.270  1.00  0.00     0.153 A 
HETATM    7  C10 UNL     1      11.629  38.864 -20.024  1.00  0.00     0.179 A 
HETATM    8  N11 UNL     1      12.743  38.364 -19.486  1.00  0.00    -0.336 N 
ATOM      9  H11 UNL     1      13.510  39.013 -19.306  1.00  0.00     0.168 HD
BRANCH   5  10
HETATM   10  O1  UNL     1       9.664  35.748 -20.213  1.00  0.00    -0.353 OA
HETATM   11  C1  UNL     1       9.290  34.861 -19.183  1.00  0.00     0.210 C 
ENDBRANCH   5  10
BRANCH   6  12
HETATM   12  O4  UNL     1       9.415  38.443 -20.824  1.00  0.00    -0.349 OA
HETATM   13  C13 UNL     1       9.255  38.352 -22.220  1.00  0.00     0.210 C 
ENDBRANCH   6  12
BRANCH   7  14
HETATM   14  O3  UNL     1      11.467  40.213 -20.345  1.00  0.00    -0.339 OA
HETATM   15  C11 UNL     1      12.091  40.647 -21.539  1.00  0.00     0.211 C 
ENDBRANCH   7  14
ENDBRANCH   2   3
ENDBRANCH   1   2
BRANCH   1  16
HETATM   16  N2  UNL     1      15.711  38.328 -19.440  1.00  0.00    -0.139 N 
ATOM     17  H2  UNL     1      16.249  37.808 -20.133  1.00  0.00     0.226 HD
BRANCH  16  18
HETATM   18  N3  UNL     1      15.577  39.557 -19.592  1.00  0.00    -0.227 NA
BRANCH  18  19
HETATM   19  N4  UNL     1      15.200  40.702 -19.802  1.00  0.00    -0.259 N 
ATOM     20  H42 UNL     1      14.631  40.386 -20.586  1.00  0.00     0.193 HD
ATOM     21  H41 UNL     1      15.013  41.705 -19.807  1.00  0.00     0.193 HD
ENDBRANCH  18  19
ENDBRANCH  16  18
ENDBRANCH   1  16
BRANCH   1  22
HETATM   22  C6  UNL     1      15.571  38.004 -17.061  1.00  0.00     0.717 A 
HETATM   23  N5  UNL     1      16.382  37.186 -16.342  1.00  0.00    -0.130 N 
HETATM   24  N6  UNL     1      16.799  37.465 -15.139  1.00  0.00    -0.280 N 
ATOM     25  H5  UNL     1      16.680  36.308 -16.766  1.00  0.00     0.205 HD
HETATM   26  C7  UNL     1      16.437  38.620 -14.511  1.00  0.00     0.135 A 
ATOM     27  H6  UNL     1      17.409  36.804 -14.656  1.00  0.00     0.188 HD
HETATM   28  C9  UNL     1      15.625  39.459 -15.208  1.00  0.00     0.146 A 
HETATM   29  N10 UNL     1      15.200  39.142 -16.472  1.00  0.00    -0.172 N 
ATOM     30  H10 UNL     1      14.589  39.789 -16.973  1.00  0.00     0.186 HD
BRANCH  26  31
HETATM   31  C8  UNL     1      16.935  38.867 -13.174  1.00  0.00     0.168 C 
HETATM   32  N7  UNL     1      16.315  38.041 -12.106  1.00  0.00    -0.078 NA
HETATM   33  N8  UNL     1      17.780  39.642 -12.763  1.00  0.00    -0.253 N 
ATOM     34  H8  UNL     1      17.801  39.473 -11.757  1.00  0.00     0.195 HD
BRANCH  33  35
HETATM   35  O2  UNL     1      18.662  40.567 -12.941  1.00  0.00    -0.288 OA
ATOM     36  H2  UNL     1      19.108  41.364 -12.678  1.00  0.00     0.244 HD
ENDBRANCH  33  35
ENDBRANCH  26  31
BRANCH  28  37
HETATM   37  N9  UNL     1      15.233  40.570 -14.696  1.00  0.00    -0.383 N 
ATOM     38  H92 UNL     1      15.145  40.628 -13.682  1.00  0.00     0.157 HD
ATOM     39  H91 UNL     1      15.018  41.371 -15.290  1.00  0.00     0.157 HD
ENDBRANCH  28  37
ENDBRANCH   1  22
TORSDOF 12
ENDMDL
MODEL 5
REMARK VINA RESULT: -7.199461282      3.590      5.389
REMARK  12 active torsions:
REMARK  status: ('A' for Active; 'I' for Inactive)
REMARK    1  A    between atoms: O1_2  and  C2_3 
REMARK    2  A    between atoms: C4_5  and  C5_6 
REMARK    3  A    between atoms: C5_6  and  N1_7 
REMARK    4  A    between atoms: N1_7  and  N2_8 
REMARK    5  A    between atoms: N1_7  and  C6_14 
REMARK    6  A    between atoms: N2_8  and  N3_10 
REMARK    7  A    between atoms: N3_10  and  N4_11 
REMARK    8  A    between atoms: C7_19  and  C8_20 
REMARK    9  A    between atoms: N8_22  and  O2_24 
REMARK   10  A    between atoms: C9_26  and  N9_27 
REMARK   11  A    between atoms: C10_34  and  O3_35 
REMARK   12  A    between atoms: C12_37  and  O4_38 
ROOT
HETATM    1  N1  UNL     1      14.180  38.230 -19.067  1.00  0.00    -0.090 N 
ENDROOT
BRANCH   1   2
HETATM    2  C5  UNL     1      12.735  38.221 -19.030  1.00  0.00     0.227 C 
BRANCH   2   3
HETATM    3  C4  UNL     1      12.193  36.835 -19.017  1.00  0.00     0.034 A 
HETATM    4  C3  UNL     1      10.852  36.588 -19.246  1.00  0.00     0.066 A 
HETATM    5  C2  UNL     1      10.311  35.335 -19.250  1.00  0.00     0.107 A 
HETATM    6  C12 UNL     1      11.172  34.278 -19.008  1.00  0.00     0.153 A 
HETATM    7  C10 UNL     1      12.528  34.489 -18.773  1.00  0.00     0.179 A 
HETATM    8  N11 UNL     1      12.962  35.751 -18.789  1.00  0.00    -0.336 N 
ATOM      9  H11 UNL     1      13.955  35.908 -18.616  1.00  0.00     0.168 HD
BRANCH   5  10
HETATM   10  O1  UNL     1       8.965  35.126 -19.483  1.00  0.00    -0.353 OA
HETATM   11  C1  UNL     1       8.486  35.285 -20.799  1.00  0.00     0.210 C 
ENDBRANCH   5  10
BRANCH   6  12
HETATM   12  O4  UNL     1      10.674  32.994 -19.001  1.00  0.00    -0.349 OA
HETATM   13  C13 UNL     1      10.233  32.457 -17.777  1.00  0.00     0.210 C 
ENDBRANCH   6  12
BRANCH   7  14
HETATM   14  O3  UNL     1      13.358  33.392 -18.534  1.00  0.00    -0.339 OA
HETATM   15  C11 UNL     1      14.109  32.928 -19.640  1.00  0.00     0.211 C 
ENDBRANCH   7  14
ENDBRANCH   2   3
ENDBRANCH   1   2
BRANCH   1  16
HETATM   16  N2  UNL     1      14.886  38.277 -20.264  1.00  0.00    -0.139 N 
ATOM     17  H2  UNL     1      14.509  37.780 -21.071  1.00  0.00     0.226 HD
BRANCH  16  18
HETATM   18  N3  UNL     1      15.958  38.898 -20.398  1.00  0.00    -0.227 NA
BRANCH  18  19
HETATM   19  N4  UNL     1      16.895  39.606 -20.739  1.00  0.00    -0.259 N 
ATOM     20  H42 UNL     1      16.282  40.150 -21.346  1.00  0.00     0.193 HD
ATOM     21  H41 UNL     1      17.791  40.071 -20.890  1.00  0.00     0.193 HD
ENDBRANCH  18  19
ENDBRANCH  16  18
ENDBRANCH   1  16
BRANCH   1  22
HETATM   22  C6  UNL     1      14.928  38.198 -17.861  1.00  0.00     0.717 A 
HETATM   23  N5  UNL     1      15.744  37.147 -17.594  1.00  0.00    -0.130 N 
HETATM   24  N6  UNL     1      16.461  37.053 -16.509  1.00  0.00    -0.280 N 
ATOM     25  H5  UNL     1      15.799  36.392 -18.277  1.00  0.00     0.205 HD
HETATM   26  C7  UNL     1      16.435  38.025 -15.552  1.00  0.00     0.135 A 
ATOM     27  H6  UNL     1      17.055  36.234 -16.372  1.00  0.00     0.188 HD
HETATM   28  C9  UNL     1      15.625  39.090 -15.795  1.00  0.00     0.146 A 
HETATM   29  N10 UNL     1      14.881  39.165 -16.943  1.00  0.00    -0.172 N 
ATOM     30  H10 UNL     1      14.280  39.975 -17.099  1.00  0.00     0.186 HD
BRANCH  26  31
HETATM   31  C8  UNL     1      17.255  37.856 -14.371  1.00  0.00     0.168 C 
HETATM   32  N7  UNL     1      16.519  37.876 -13.081  1.00  0.00    -0.078 NA
HETATM   33  N8  UNL     1      18.457  37.702 -14.245  1.00  0.00    -0.253 N 
ATOM     34  H8  UNL     1      18.591  37.629 -13.236  1.00  0.00     0.195 HD
BRANCH  33  35
HETATM   35  O2  UNL     1      19.649  37.583 -14.726  1.00  0.00    -0.288 OA
ATOM     36  H2  UNL     1      20.593  37.552 -14.630  1.00  0.00     0.244 HD
ENDBRANCH  33  35
ENDBRANCH  26  31
BRANCH  28  37
HETATM   37  N9  UNL     1      15.537  40.053 -14.949  1.00  0.00    -0.383 N 
ATOM     38  H92 UNL     1      16.241  40.115 -14.215  1.00  0.00     0.157 HD
ATOM     39  H91 UNL     1      14.782  40.737 -15.015  1.00  0.00     0.157 HD
ENDBRANCH  28  37
ENDBRANCH   1  22
TORSDOF 12
ENDMDL
