MODEL 1
REMARK VINA RESULT: -6.019338555      0.000      0.000
REMARK  10 active torsions:
REMARK  status: ('A' for Active; 'I' for Inactive)
REMARK    1  A    between atoms: C2_2  and  C5_5 
REMARK    2  A    between atoms: C8_10  and  O1_11 
REMARK    3  A    between atoms: C9_13  and  C10_14 
REMARK    4  A    between atoms: N1_15  and  N2_17 
REMARK    5  A    between atoms: N2_17  and  C11_19 
REMARK    6  A    between atoms: C11_19  and  N3_21 
REMARK    7  A    between atoms: N3_21  and  C12_23 
REMARK    8  A    between atoms: C12_23  and  C13_24 
REMARK    9  A    between atoms: C13_24  and  N4_25 
REMARK   10  A    between atoms: C18_30  and  C19_31 
ROOT
HETATM    1  C5  UNL     1     -12.893  19.303 -10.546  1.00  0.00    -0.023 A 
HETATM    2  C6  UNL     1     -11.589  19.042 -11.084  1.00  0.00     0.038 A 
HETATM    3 BR1  UNL     1     -11.144  19.803 -12.762  1.00  0.00    -0.049 Br
HETATM    4  C7  UNL     1     -10.664  18.254 -10.477  1.00  0.00     0.062 A 
HETATM    5 BR2  UNL     1      -8.946  17.966 -11.281  1.00  0.00    -0.047 Br
HETATM    6  C8  UNL     1     -10.978  17.680  -9.290  1.00  0.00     0.096 A 
HETATM    7  C9  UNL     1     -12.251  17.893  -8.697  1.00  0.00     0.024 A 
HETATM    8  C18 UNL     1     -13.206  18.684  -9.319  1.00  0.00    -0.013 A 
ENDROOT
BRANCH   7   9
HETATM    9  C10 UNL     1     -12.340  17.379  -7.371  1.00  0.00     0.122 C 
HETATM   10  N1  UNL     1     -11.923  16.106  -7.170  1.00  0.00    -0.309 N 
ATOM     11  H1  UNL     1     -11.570  15.587  -7.973  1.00  0.00     0.186 HD
BRANCH  10  12
HETATM   12  N2  UNL     1     -11.947  15.478  -5.962  1.00  0.00    -0.277 N 
ATOM     13  H2  UNL     1     -11.578  14.530  -5.888  1.00  0.00     0.189 HD
BRANCH  12  14
HETATM   14  C11 UNL     1     -12.467  16.103  -4.815  1.00  0.00     0.186 C 
HETATM   15  S1  UNL     1     -14.059  15.919  -4.476  1.00  0.00    -0.040 SA
BRANCH  14  16
HETATM   16  N3  UNL     1     -11.620  16.882  -3.963  1.00  0.00    -0.364 N 
ATOM     17  H3  UNL     1     -11.014  16.435  -3.274  1.00  0.00     0.162 HD
BRANCH  16  18
HETATM   18  C12 UNL     1     -11.648  18.302  -4.104  1.00  0.00     0.152 C 
BRANCH  18  19
HETATM   19  C13 UNL     1     -10.416  18.885  -4.713  1.00  0.00     0.292 C 
BRANCH  19  20
HETATM   20  N4  UNL     1     -10.608  20.185  -5.294  1.00  0.00     0.090 N 
HETATM   21  C14 UNL     1     -12.010  20.494  -5.266  1.00  0.00     0.272 C 
HETATM   22  C15 UNL     1     -12.417  20.985  -6.615  1.00  0.00     0.032 C 
HETATM   23  C16 UNL     1     -11.139  21.247  -7.341  1.00  0.00     0.032 C 
HETATM   24  C17 UNL     1     -10.174  20.270  -6.665  1.00  0.00     0.272 C 
ENDBRANCH  19  20
ENDBRANCH  18  19
ENDBRANCH  16  18
ENDBRANCH  14  16
ENDBRANCH  12  14
ENDBRANCH  10  12
ENDBRANCH   7   9
BRANCH   6  25
HETATM   25  O1  UNL     1     -10.011  16.882  -8.687  1.00  0.00    -0.358 OA
ATOM     26  H1  UNL     1     -10.057  16.774  -7.744  1.00  0.00     0.217 HD
ENDBRANCH   6  25
BRANCH   8  27
HETATM   27  C19 UNL     1     -14.531  18.667  -8.844  1.00  0.00     0.058 C 
HETATM   28  C20 UNL     1     -15.362  17.834  -9.900  1.00  0.00     0.037 C 
HETATM   29  C21 UNL     1     -14.855  17.597  -7.725  1.00  0.00     0.037 C 
HETATM   30 CL1  UNL     1     -15.546  19.868  -8.230  1.00  0.00    -0.115 Cl
ENDBRANCH   8  27
BRANCH   1  31
HETATM   31  C2  UNL     1     -13.658  20.228 -11.280  1.00  0.00    -0.022 C 
HETATM   32  C1  UNL     1     -12.598  21.439 -11.508  1.00  0.00     0.019 C 
HETATM   33  C3  UNL     1     -14.737  21.158 -10.753  1.00  0.00     0.019 C 
HETATM   34  C4  UNL     1     -14.017  19.902 -12.732  1.00  0.00     0.019 C 
ENDBRANCH   1  31
TORSDOF 10
ENDMDL
MODEL 2
REMARK VINA RESULT: -5.938094721      3.722      6.318
REMARK  10 active torsions:
REMARK  status: ('A' for Active; 'I' for Inactive)
REMARK    1  A    between atoms: C2_2  and  C5_5 
REMARK    2  A    between atoms: C8_10  and  O1_11 
REMARK    3  A    between atoms: C9_13  and  C10_14 
REMARK    4  A    between atoms: N1_15  and  N2_17 
REMARK    5  A    between atoms: N2_17  and  C11_19 
REMARK    6  A    between atoms: C11_19  and  N3_21 
REMARK    7  A    between atoms: N3_21  and  C12_23 
REMARK    8  A    between atoms: C12_23  and  C13_24 
REMARK    9  A    between atoms: C13_24  and  N4_25 
REMARK   10  A    between atoms: C18_30  and  C19_31 
ROOT
HETATM    1  C5  UNL     1     -12.704  17.851  -7.377  1.00  0.00    -0.023 A 
HETATM    2  C6  UNL     1     -11.303  17.583  -7.519  1.00  0.00     0.038 A 
HETATM    3 BR1  UNL     1     -10.320  17.109  -5.969  1.00  0.00    -0.049 Br
HETATM    4  C7  UNL     1     -10.629  17.678  -8.695  1.00  0.00     0.062 A 
HETATM    5 BR2  UNL     1      -8.750  17.299  -8.779  1.00  0.00    -0.047 Br
HETATM    6  C8  UNL     1     -11.312  18.044  -9.807  1.00  0.00     0.096 A 
HETATM    7  C9  UNL     1     -12.703  18.327  -9.742  1.00  0.00     0.024 A 
HETATM    8  C18 UNL     1     -13.393  18.245  -8.542  1.00  0.00    -0.013 A 
ENDROOT
BRANCH   7   9
HETATM    9  C10 UNL     1     -13.295  18.503 -11.026  1.00  0.00     0.122 C 
HETATM   10  N1  UNL     1     -13.025  17.568 -11.967  1.00  0.00    -0.309 N 
ATOM     11  H1  UNL     1     -12.416  16.792 -11.708  1.00  0.00     0.186 HD
BRANCH  10  12
HETATM   12  N2  UNL     1     -13.516  17.600 -13.236  1.00  0.00    -0.277 N 
ATOM     13  H2  UNL     1     -14.115  16.839 -13.557  1.00  0.00     0.189 HD
BRANCH  12  14
HETATM   14  C11 UNL     1     -13.219  18.656 -14.116  1.00  0.00     0.186 C 
HETATM   15  S1  UNL     1     -11.648  19.038 -14.381  1.00  0.00    -0.040 SA
BRANCH  14  16
HETATM   16  N3  UNL     1     -14.270  19.379 -14.767  1.00  0.00    -0.364 N 
ATOM     17  H3  UNL     1     -14.921  18.907 -15.395  1.00  0.00     0.162 HD
BRANCH  16  18
HETATM   18  C12 UNL     1     -14.378  20.779 -14.514  1.00  0.00     0.152 C 
BRANCH  18  19
HETATM   19  C13 UNL     1     -15.000  21.122 -13.201  1.00  0.00     0.292 C 
BRANCH  19  20
HETATM   20  N4  UNL     1     -14.394  22.243 -12.539  1.00  0.00     0.090 N 
HETATM   21  C14 UNL     1     -13.087  21.855 -12.090  1.00  0.00     0.272 C 
HETATM   22  C15 UNL     1     -12.931  22.266 -10.665  1.00  0.00     0.032 C 
HETATM   23  C16 UNL     1     -14.076  23.186 -10.393  1.00  0.00     0.032 C 
HETATM   24  C17 UNL     1     -15.130  22.696 -11.387  1.00  0.00     0.272 C 
ENDBRANCH  19  20
ENDBRANCH  18  19
ENDBRANCH  16  18
ENDBRANCH  14  16
ENDBRANCH  12  14
ENDBRANCH  10  12
ENDBRANCH   7   9
BRANCH   6  25
HETATM   25  O1  UNL     1     -10.600  18.130 -10.999  1.00  0.00    -0.358 OA
ATOM     26  H1  UNL     1     -10.492  18.991 -11.385  1.00  0.00     0.217 HD
ENDBRANCH   6  25
BRANCH   8  27
HETATM   27  C19 UNL     1     -14.695  18.776  -8.458  1.00  0.00     0.058 C 
HETATM   28  C20 UNL     1     -14.542  20.205  -7.800  1.00  0.00     0.037 C 
HETATM   29  C21 UNL     1     -15.266  19.430  -9.780  1.00  0.00     0.037 C 
HETATM   30 CL1  UNL     1     -16.165  18.131  -7.938  1.00  0.00    -0.115 Cl
ENDBRANCH   8  27
BRANCH   1  31
HETATM   31  C2  UNL     1     -13.226  17.593  -6.096  1.00  0.00    -0.022 C 
HETATM   32  C1  UNL     1     -12.514  16.181  -5.720  1.00  0.00     0.019 C 
HETATM   33  C3  UNL     1     -14.614  17.081  -5.751  1.00  0.00     0.019 C 
HETATM   34  C4  UNL     1     -12.761  18.456  -4.921  1.00  0.00     0.019 C 
ENDBRANCH   1  31
TORSDOF 10
ENDMDL
MODEL 3
REMARK VINA RESULT: -5.884303394      4.299      6.572
REMARK  10 active torsions:
REMARK  status: ('A' for Active; 'I' for Inactive)
REMARK    1  A    between atoms: C2_2  and  C5_5 
REMARK    2  A    between atoms: C8_10  and  O1_11 
REMARK    3  A    between atoms: C9_13  and  C10_14 
REMARK    4  A    between atoms: N1_15  and  N2_17 
REMARK    5  A    between atoms: N2_17  and  C11_19 
REMARK    6  A    between atoms: C11_19  and  N3_21 
REMARK    7  A    between atoms: N3_21  and  C12_23 
REMARK    8  A    between atoms: C12_23  and  C13_24 
REMARK    9  A    between atoms: C13_24  and  N4_25 
REMARK   10  A    between atoms: C18_30  and  C19_31 
ROOT
HETATM    1  C5  UNL     1     -12.714  17.871  -7.648  1.00  0.00    -0.023 A 
HETATM    2  C6  UNL     1     -11.346  17.554  -7.940  1.00  0.00     0.038 A 
HETATM    3 BR1  UNL     1     -10.207  17.089  -6.498  1.00  0.00    -0.049 Br
HETATM    4  C7  UNL     1     -10.809  17.597  -9.187  1.00  0.00     0.062 A 
HETATM    5 BR2  UNL     1      -8.964  17.154  -9.473  1.00  0.00    -0.047 Br
HETATM    6  C8  UNL     1     -11.604  17.955 -10.225  1.00  0.00     0.096 A 
HETATM    7  C9  UNL     1     -12.969  18.285 -10.011  1.00  0.00     0.024 A 
HETATM    8  C18 UNL     1     -13.520  18.257  -8.738  1.00  0.00    -0.013 A 
ENDROOT
BRANCH   7   9
HETATM    9  C10 UNL     1     -13.699  18.446 -11.224  1.00  0.00     0.122 C 
HETATM   10  N1  UNL     1     -13.331  19.463 -12.038  1.00  0.00    -0.309 N 
ATOM     11  H1  UNL     1     -12.555  20.056 -11.742  1.00  0.00     0.186 HD
BRANCH  10  12
HETATM   12  N2  UNL     1     -13.931  19.744 -13.228  1.00  0.00    -0.277 N 
ATOM     13  H2  UNL     1     -14.061  18.994 -13.909  1.00  0.00     0.189 HD
BRANCH  12  14
HETATM   14  C11 UNL     1     -14.378  21.039 -13.541  1.00  0.00     0.186 C 
HETATM   15  S1  UNL     1     -14.093  21.624 -15.045  1.00  0.00    -0.040 SA
BRANCH  14  16
HETATM   16  N3  UNL     1     -15.069  21.828 -12.566  1.00  0.00    -0.364 N 
ATOM     17  H3  UNL     1     -16.039  21.627 -12.320  1.00  0.00     0.162 HD
BRANCH  16  18
HETATM   18  C12 UNL     1     -14.362  22.903 -11.948  1.00  0.00     0.152 C 
BRANCH  18  19
HETATM   19  C13 UNL     1     -14.989  23.412 -10.693  1.00  0.00     0.292 C 
BRANCH  19  20
HETATM   20  N4  UNL     1     -14.879  24.834 -10.517  1.00  0.00     0.090 N 
HETATM   21  C14 UNL     1     -16.202  25.387 -10.452  1.00  0.00     0.272 C 
HETATM   22  C15 UNL     1     -16.273  26.561 -11.370  1.00  0.00     0.032 C 
HETATM   23  C16 UNL     1     -14.857  26.861 -11.737  1.00  0.00     0.032 C 
HETATM   24  C17 UNL     1     -14.187  25.493 -11.595  1.00  0.00     0.272 C 
ENDBRANCH  19  20
ENDBRANCH  18  19
ENDBRANCH  16  18
ENDBRANCH  14  16
ENDBRANCH  12  14
ENDBRANCH  10  12
ENDBRANCH   7   9
BRANCH   6  25
HETATM   25  O1  UNL     1     -11.031  17.986 -11.492  1.00  0.00    -0.358 OA
ATOM     26  H1  UNL     1     -10.733  18.827 -11.818  1.00  0.00     0.217 HD
ENDBRANCH   6  25
BRANCH   8  27
HETATM   27  C19 UNL     1     -14.788  18.831  -8.523  1.00  0.00     0.058 C 
HETATM   28  C20 UNL     1     -14.521  20.230  -7.835  1.00  0.00     0.037 C 
HETATM   29  C21 UNL     1     -15.444  19.554  -9.768  1.00  0.00     0.037 C 
HETATM   30 CL1  UNL     1     -16.232  18.223  -7.897  1.00  0.00    -0.115 Cl
ENDBRANCH   8  27
BRANCH   1  31
HETATM   31  C2  UNL     1     -13.094  17.664  -6.309  1.00  0.00    -0.022 C 
HETATM   32  C1  UNL     1     -12.323  16.278  -5.950  1.00  0.00     0.019 C 
HETATM   33  C3  UNL     1     -14.429  17.152  -5.797  1.00  0.00     0.019 C 
HETATM   34  C4  UNL     1     -12.521  18.583  -5.228  1.00  0.00     0.019 C 
ENDBRANCH   1  31
TORSDOF 10
ENDMDL
MODEL 4
REMARK VINA RESULT: -5.832516902      3.498      4.600
REMARK  10 active torsions:
REMARK  status: ('A' for Active; 'I' for Inactive)
REMARK    1  A    between atoms: C2_2  and  C5_5 
REMARK    2  A    between atoms: C8_10  and  O1_11 
REMARK    3  A    between atoms: C9_13  and  C10_14 
REMARK    4  A    between atoms: N1_15  and  N2_17 
REMARK    5  A    between atoms: N2_17  and  C11_19 
REMARK    6  A    between atoms: C11_19  and  N3_21 
REMARK    7  A    between atoms: N3_21  and  C12_23 
REMARK    8  A    between atoms: C12_23  and  C13_24 
REMARK    9  A    between atoms: C13_24  and  N4_25 
REMARK   10  A    between atoms: C18_30  and  C19_31 
ROOT
HETATM    1  C5  UNL     1     -13.262  18.425  -9.060  1.00  0.00    -0.023 A 
HETATM    2  C6  UNL     1     -13.700  17.744  -7.876  1.00  0.00     0.038 A 
HETATM    3 BR1  UNL     1     -15.500  17.974  -7.326  1.00  0.00    -0.049 Br
HETATM    4  C7  UNL     1     -12.894  16.969  -7.107  1.00  0.00     0.062 A 
HETATM    5 BR2  UNL     1     -13.578  16.100  -5.538  1.00  0.00    -0.047 Br
HETATM    6  C8  UNL     1     -11.597  16.818  -7.471  1.00  0.00     0.096 A 
HETATM    7  C9  UNL     1     -11.091  17.464  -8.632  1.00  0.00     0.024 A 
HETATM    8  C18 UNL     1     -11.907  18.269  -9.413  1.00  0.00    -0.013 A 
ENDROOT
BRANCH   7   9
HETATM    9  C10 UNL     1      -9.774  17.043  -8.972  1.00  0.00     0.122 C 
HETATM   10  N1  UNL     1      -8.814  17.186  -8.028  1.00  0.00    -0.309 N 
ATOM     11  H1  UNL     1      -9.084  17.584  -7.128  1.00  0.00     0.186 HD
BRANCH  10  12
HETATM   12  N2  UNL     1      -7.511  16.831  -8.204  1.00  0.00    -0.277 N 
ATOM     13  H2  UNL     1      -7.273  16.163  -8.938  1.00  0.00     0.189 HD
BRANCH  12  14
HETATM   14  C11 UNL     1      -6.486  17.363  -7.402  1.00  0.00     0.186 C 
HETATM   15  S1  UNL     1      -5.018  16.636  -7.422  1.00  0.00    -0.040 SA
BRANCH  14  16
HETATM   16  N3  UNL     1      -6.723  18.516  -6.586  1.00  0.00    -0.364 N 
ATOM     17  H3  UNL     1      -6.941  19.420  -7.006  1.00  0.00     0.162 HD
BRANCH  16  18
HETATM   18  C12 UNL     1      -6.646  18.364  -5.169  1.00  0.00     0.152 C 
BRANCH  18  19
HETATM   19  C13 UNL     1      -7.790  18.962  -4.421  1.00  0.00     0.292 C 
BRANCH  19  20
HETATM   20  N4  UNL     1      -8.971  18.145  -4.403  1.00  0.00     0.090 N 
HETATM   21  C14 UNL     1     -10.046  18.885  -5.000  1.00  0.00     0.272 C 
HETATM   22  C15 UNL     1     -11.239  18.794  -4.109  1.00  0.00     0.032 C 
HETATM   23  C16 UNL     1     -10.917  17.717  -3.127  1.00  0.00     0.032 C 
HETATM   24  C17 UNL     1      -9.389  17.769  -3.077  1.00  0.00     0.272 C 
ENDBRANCH  19  20
ENDBRANCH  18  19
ENDBRANCH  16  18
ENDBRANCH  14  16
ENDBRANCH  12  14
ENDBRANCH  10  12
ENDBRANCH   7   9
BRANCH   6  25
HETATM   25  O1  UNL     1     -10.793  16.014  -6.669  1.00  0.00    -0.358 OA
ATOM     26  H1  UNL     1     -10.528  16.362  -5.826  1.00  0.00     0.217 HD
ENDBRANCH   6  25
BRANCH   8  27
HETATM   27  C19 UNL     1     -11.324  19.093 -10.396  1.00  0.00     0.058 C 
HETATM   28  C20 UNL     1     -11.432  20.571  -9.844  1.00  0.00     0.037 C 
HETATM   29  C21 UNL     1      -9.744  19.186 -10.377  1.00  0.00     0.037 C 
HETATM   30 CL1  UNL     1     -11.479  19.163 -12.074  1.00  0.00    -0.115 Cl
ENDBRANCH   8  27
BRANCH   1  31
HETATM   31  C2  UNL     1     -14.280  19.092  -9.767  1.00  0.00    -0.022 C 
HETATM   32  C1  UNL     1     -15.458  17.972  -9.798  1.00  0.00     0.019 C 
HETATM   33  C3  UNL     1     -14.356  19.335 -11.264  1.00  0.00     0.019 C 
HETATM   34  C4  UNL     1     -15.018  20.247  -9.086  1.00  0.00     0.019 C 
ENDBRANCH   1  31
TORSDOF 10
ENDMDL
MODEL 5
REMARK VINA RESULT: -5.826746267      2.726      3.906
REMARK  10 active torsions:
REMARK  status: ('A' for Active; 'I' for Inactive)
REMARK    1  A    between atoms: C2_2  and  C5_5 
REMARK    2  A    between atoms: C8_10  and  O1_11 
REMARK    3  A    between atoms: C9_13  and  C10_14 
REMARK    4  A    between atoms: N1_15  and  N2_17 
REMARK    5  A    between atoms: N2_17  and  C11_19 
REMARK    6  A    between atoms: C11_19  and  N3_21 
REMARK    7  A    between atoms: N3_21  and  C12_23 
REMARK    8  A    between atoms: C12_23  and  C13_24 
REMARK    9  A    between atoms: C13_24  and  N4_25 
REMARK   10  A    between atoms: C18_30  and  C19_31 
ROOT
HETATM    1  C5  UNL     1     -13.368  18.858  -9.217  1.00  0.00    -0.023 A 
HETATM    2  C6  UNL     1     -13.071  18.922 -10.618  1.00  0.00     0.038 A 
HETATM    3 BR1  UNL     1     -14.314  19.789 -11.758  1.00  0.00    -0.049 Br
HETATM    4  C7  UNL     1     -11.966  18.371 -11.184  1.00  0.00     0.062 A 
HETATM    5 BR2  UNL     1     -11.661  18.512 -13.074  1.00  0.00    -0.047 Br
HETATM    6  C8  UNL     1     -11.082  17.724 -10.387  1.00  0.00     0.096 A 
HETATM    7  C9  UNL     1     -11.311  17.618  -8.988  1.00  0.00     0.024 A 
HETATM    8  C18 UNL     1     -12.444  18.166  -8.407  1.00  0.00    -0.013 A 
ENDROOT
BRANCH   7   9
HETATM    9  C10 UNL     1     -10.196  17.082  -8.282  1.00  0.00     0.122 C 
HETATM   10  N1  UNL     1      -9.012  17.725  -8.410  1.00  0.00    -0.309 N 
ATOM     11  H1  UNL     1      -8.981  18.555  -9.002  1.00  0.00     0.186 HD
BRANCH  10  12
HETATM   12  N2  UNL     1      -7.861  17.333  -7.798  1.00  0.00    -0.277 N 
ATOM     13  H2  UNL     1      -7.458  16.425  -8.031  1.00  0.00     0.189 HD
BRANCH  12  14
HETATM   14  C11 UNL     1      -7.212  18.148  -6.854  1.00  0.00     0.186 C 
HETATM   15  S1  UNL     1      -5.828  17.604  -6.167  1.00  0.00    -0.040 SA
BRANCH  14  16
HETATM   16  N3  UNL     1      -7.752  19.428  -6.502  1.00  0.00    -0.364 N 
ATOM     17  H3  UNL     1      -7.881  20.154  -7.207  1.00  0.00     0.162 HD
BRANCH  16  18
HETATM   18  C12 UNL     1      -8.105  19.656  -5.139  1.00  0.00     0.152 C 
BRANCH  18  19
HETATM   19  C13 UNL     1      -9.426  19.087  -4.740  1.00  0.00     0.292 C 
BRANCH  19  20
HETATM   20  N4  UNL     1      -9.335  17.885  -3.958  1.00  0.00     0.090 N 
HETATM   21  C14 UNL     1     -10.584  17.688  -3.280  1.00  0.00     0.272 C 
HETATM   22  C15 UNL     1     -10.306  17.395  -1.844  1.00  0.00     0.032 C 
HETATM   23  C16 UNL     1      -8.840  17.121  -1.775  1.00  0.00     0.032 C 
HETATM   24  C17 UNL     1      -8.301  17.930  -2.956  1.00  0.00     0.272 C 
ENDBRANCH  19  20
ENDBRANCH  18  19
ENDBRANCH  16  18
ENDBRANCH  14  16
ENDBRANCH  12  14
ENDBRANCH  10  12
ENDBRANCH   7   9
BRANCH   6  25
HETATM   25  O1  UNL     1      -9.956  17.173 -10.990  1.00  0.00    -0.358 OA
ATOM     26  H1  UNL     1      -9.158  17.687 -10.982  1.00  0.00     0.217 HD
ENDBRANCH   6  25
BRANCH   8  27
HETATM   27  C19 UNL     1     -12.771  17.827  -7.079  1.00  0.00     0.058 C 
HETATM   28  C20 UNL     1     -14.009  16.848  -7.172  1.00  0.00     0.037 C 
HETATM   29  C21 UNL     1     -11.898  16.684  -6.419  1.00  0.00     0.037 C 
HETATM   30 CL1  UNL     1     -12.949  18.741  -5.672  1.00  0.00    -0.115 Cl
ENDBRANCH   8  27
BRANCH   1  31
HETATM   31  C2  UNL     1     -14.508  19.582  -8.822  1.00  0.00    -0.022 C 
HETATM   32  C1  UNL     1     -14.622  20.699  -9.997  1.00  0.00     0.019 C 
HETATM   33  C3  UNL     1     -14.608  20.614  -7.714  1.00  0.00     0.019 C 
HETATM   34  C4  UNL     1     -15.882  18.918  -8.942  1.00  0.00     0.019 C 
ENDBRANCH   1  31
TORSDOF 10
ENDMDL
