MODEL 1
REMARK VINA RESULT: -7.693259067      0.000      0.000
REMARK  7 active torsions:
REMARK  status: ('A' for Active; 'I' for Inactive)
REMARK    1  A    between atoms: C13_14  and  C14_15 
REMARK    2  A    between atoms: C17_20  and  C18_21 
REMARK    3  A    between atoms: C18_21  and  C19_24 
REMARK    4  A    between atoms: C19_24  and  O3_25 
REMARK    5  A    between atoms: C21_29  and  C22_30 
REMARK    6  A    between atoms: C22_30  and  C23_31 
REMARK    7  A    between atoms: C23_31  and  C24_32 
ROOT
HETATM    1  C1  UNL     1     -12.092  22.591 -12.483  1.00  0.00     0.016 C 
HETATM    2  C2  UNL     1     -11.879  23.119 -11.054  1.00  0.00    -0.031 C 
HETATM    3  C3  UNL     1     -11.046  24.347 -11.169  1.00  0.00     0.037 C 
HETATM    4  C4  UNL     1     -12.086  25.343 -11.633  1.00  0.00    -0.029 C 
HETATM    5  C5  UNL     1     -13.286  24.898 -11.296  1.00  0.00    -0.021 C 
HETATM    6  C6  UNL     1     -13.195  23.587 -10.586  1.00  0.00     0.038 C 
HETATM    7  C7  UNL     1     -13.445  23.775  -9.153  1.00  0.00    -0.020 C 
HETATM    8  C8  UNL     1     -12.856  23.006  -8.091  1.00  0.00    -0.005 C 
HETATM    9  C9  UNL     1     -13.070  21.594  -7.734  1.00  0.00     0.074 C 
HETATM   10  C10 UNL     1     -12.461  21.560  -6.346  1.00  0.00     0.074 C 
HETATM   11  N1  UNL     1     -11.985  21.560  -5.269  1.00  0.00    -0.196 NA
HETATM   12  C11 UNL     1     -14.524  21.404  -7.590  1.00  0.00     0.031 C 
HETATM   13  C12 UNL     1     -15.138  20.378  -8.452  1.00  0.00     0.023 C 
HETATM   14  C13 UNL     1     -14.398  19.062  -8.528  1.00  0.00     0.058 C 
HETATM   15  C15 UNL     1     -15.192  18.161  -7.613  1.00  0.00     0.022 C 
HETATM   16  C16 UNL     1     -14.503  17.243  -6.710  1.00  0.00     0.011 C 
HETATM   17  C17 UNL     1     -13.479  18.127  -6.028  1.00  0.00     0.058 C 
HETATM   18  C20 UNL     1     -12.470  18.384  -7.076  1.00  0.00     0.101 C 
HETATM   19 CL1  UNL     1     -11.963  16.659  -7.403  1.00  0.00    -0.124 Cl
HETATM   20  C21 UNL     1     -12.898  19.112  -8.333  1.00  0.00     0.004 C 
HETATM   21  C25 UNL     1     -12.308  20.516  -8.473  1.00  0.00    -0.010 C 
HETATM   22  C26 UNL     1     -10.898  20.664  -8.042  1.00  0.00     0.018 C 
HETATM   23  C27 UNL     1     -12.267  20.984  -9.915  1.00  0.00     0.013 C 
HETATM   24  C28 UNL     1     -11.242  21.987 -10.282  1.00  0.00     0.011 C 
ENDROOT
BRANCH  20  25
HETATM   25  C22 UNL     1     -12.357  18.200  -9.420  1.00  0.00     0.024 C 
BRANCH  25  26
HETATM   26  C23 UNL     1     -10.963  18.100  -9.777  1.00  0.00     0.114 C 
BRANCH  26  27
HETATM   27  C24 UNL     1     -10.895  17.318 -11.086  1.00  0.00     0.172 C 
HETATM   28  O4  UNL     1      -9.870  16.651 -11.335  1.00  0.00    -0.648 OA
HETATM   29  O5  UNL     1     -11.960  17.366 -11.959  1.00  0.00    -0.648 OA
ENDBRANCH  26  27
ENDBRANCH  25  26
ENDBRANCH  20  25
BRANCH  14  30
HETATM   30  C14 UNL     1     -14.830  18.546  -9.885  1.00  0.00     0.182 C 
HETATM   31  O1  UNL     1     -15.399  17.423 -10.025  1.00  0.00    -0.647 OA
HETATM   32  O2  UNL     1     -14.665  19.205 -11.081  1.00  0.00    -0.647 OA
ENDBRANCH  14  30
BRANCH  17  33
HETATM   33  C18 UNL     1     -13.055  17.438  -4.799  1.00  0.00     0.186 C 
HETATM   34  F1  UNL     1     -13.987  17.830  -3.789  1.00  0.00    -0.228 F 
HETATM   35 BR1  UNL     1     -13.359  15.499  -4.814  1.00  0.00    -0.046 Br
BRANCH  33  36
HETATM   36  C19 UNL     1     -11.723  17.745  -4.232  1.00  0.00     0.220 C 
BRANCH  36  37
HETATM   37  O3  UNL     1     -11.781  19.005  -3.636  1.00  0.00    -0.397 OA
ATOM     38  H3  UNL     1     -11.379  19.632  -4.226  1.00  0.00     0.209 HD
ENDBRANCH  36  37
ENDBRANCH  33  36
ENDBRANCH  17  33
TORSDOF 7
ENDMDL
MODEL 2
REMARK VINA RESULT: -7.263563980      3.541      6.977
REMARK  7 active torsions:
REMARK  status: ('A' for Active; 'I' for Inactive)
REMARK    1  A    between atoms: C13_14  and  C14_15 
REMARK    2  A    between atoms: C17_20  and  C18_21 
REMARK    3  A    between atoms: C18_21  and  C19_24 
REMARK    4  A    between atoms: C19_24  and  O3_25 
REMARK    5  A    between atoms: C21_29  and  C22_30 
REMARK    6  A    between atoms: C22_30  and  C23_31 
REMARK    7  A    between atoms: C23_31  and  C24_32 
ROOT
HETATM    1  C1  UNL     1     -11.705  17.319  -4.490  1.00  0.00     0.016 C 
HETATM    2  C2  UNL     1     -12.504  16.799  -5.698  1.00  0.00    -0.031 C 
HETATM    3  C3  UNL     1     -12.555  15.317  -5.574  1.00  0.00     0.037 C 
HETATM    4  C4  UNL     1     -13.618  15.166  -4.508  1.00  0.00    -0.029 C 
HETATM    5  C5  UNL     1     -14.359  16.263  -4.483  1.00  0.00    -0.021 C 
HETATM    6  C6  UNL     1     -13.892  17.253  -5.500  1.00  0.00     0.038 C 
HETATM    7  C7  UNL     1     -14.826  17.285  -6.631  1.00  0.00    -0.020 C 
HETATM    8  C8  UNL     1     -14.475  17.548  -8.001  1.00  0.00    -0.005 C 
HETATM    9  C9  UNL     1     -14.002  18.798  -8.618  1.00  0.00     0.074 C 
HETATM   10  C10 UNL     1     -14.195  18.476 -10.087  1.00  0.00     0.074 C 
HETATM   11  N1  UNL     1     -14.357  18.203 -11.220  1.00  0.00    -0.196 NA
HETATM   12  C11 UNL     1     -14.973  19.848  -8.258  1.00  0.00     0.031 C 
HETATM   13  C12 UNL     1     -14.435  21.017  -7.540  1.00  0.00     0.023 C 
HETATM   14  C13 UNL     1     -13.155  21.595  -8.100  1.00  0.00     0.058 C 
HETATM   15  C15 UNL     1     -13.624  22.811  -8.862  1.00  0.00     0.022 C 
HETATM   16  C16 UNL     1     -13.049  23.126 -10.166  1.00  0.00     0.011 C 
HETATM   17  C17 UNL     1     -13.141  21.811 -10.914  1.00  0.00     0.058 C 
HETATM   18  C20 UNL     1     -12.103  20.967 -10.287  1.00  0.00     0.101 C 
HETATM   19 CL1  UNL     1     -10.644  22.005 -10.648  1.00  0.00    -0.124 Cl
HETATM   20  C21 UNL     1     -12.230  20.633  -8.816  1.00  0.00     0.004 C 
HETATM   21  C25 UNL     1     -12.536  19.162  -8.533  1.00  0.00    -0.010 C 
HETATM   22  C26 UNL     1     -11.836  18.184  -9.398  1.00  0.00     0.018 C 
HETATM   23  C27 UNL     1     -12.108  18.741  -7.140  1.00  0.00     0.013 C 
HETATM   24  C28 UNL     1     -11.786  17.313  -6.924  1.00  0.00     0.011 C 
ENDROOT
BRANCH  20  25
HETATM   25  C22 UNL     1     -10.851  20.996  -8.295  1.00  0.00     0.024 C 
BRANCH  25  26
HETATM   26  C23 UNL     1      -9.649  20.257  -8.595  1.00  0.00     0.114 C 
BRANCH  26  27
HETATM   27  C24 UNL     1      -8.837  20.188  -7.303  1.00  0.00     0.172 C 
HETATM   28  O4  UNL     1      -9.109  20.982  -6.380  1.00  0.00    -0.648 OA
HETATM   29  O5  UNL     1      -7.828  19.257  -7.188  1.00  0.00    -0.648 OA
ENDBRANCH  26  27
ENDBRANCH  25  26
ENDBRANCH  20  25
BRANCH  14  30
HETATM   30  C14 UNL     1     -12.548  22.241  -6.872  1.00  0.00     0.182 C 
HETATM   31  O1  UNL     1     -12.150  23.444  -6.875  1.00  0.00    -0.647 OA
HETATM   32  O2  UNL     1     -12.361  21.628  -5.655  1.00  0.00    -0.647 OA
ENDBRANCH  14  30
BRANCH  17  33
HETATM   33  C18 UNL     1     -13.025  22.116 -12.350  1.00  0.00     0.186 C 
HETATM   34  F1  UNL     1     -14.365  22.223 -12.836  1.00  0.00    -0.228 F 
HETATM   35 BR1  UNL     1     -12.371  23.924 -12.742  1.00  0.00    -0.046 Br
BRANCH  33  36
HETATM   36  C19 UNL     1     -12.372  21.129 -13.238  1.00  0.00     0.220 C 
BRANCH  36  37
HETATM   37  O3  UNL     1     -13.260  20.073 -13.446  1.00  0.00    -0.397 OA
ATOM     38  H3  UNL     1     -12.754  19.287 -13.614  1.00  0.00     0.209 HD
ENDBRANCH  36  37
ENDBRANCH  33  36
ENDBRANCH  17  33
TORSDOF 7
ENDMDL
MODEL 3
REMARK VINA RESULT: -7.175279089      3.663      7.010
REMARK  7 active torsions:
REMARK  status: ('A' for Active; 'I' for Inactive)
REMARK    1  A    between atoms: C13_14  and  C14_15 
REMARK    2  A    between atoms: C17_20  and  C18_21 
REMARK    3  A    between atoms: C18_21  and  C19_24 
REMARK    4  A    between atoms: C19_24  and  O3_25 
REMARK    5  A    between atoms: C21_29  and  C22_30 
REMARK    6  A    between atoms: C22_30  and  C23_31 
REMARK    7  A    between atoms: C23_31  and  C24_32 
ROOT
HETATM    1  C1  UNL     1     -11.706  17.335  -4.495  1.00  0.00     0.016 C 
HETATM    2  C2  UNL     1     -12.509  16.800  -5.694  1.00  0.00    -0.031 C 
HETATM    3  C3  UNL     1     -12.541  15.318  -5.563  1.00  0.00     0.037 C 
HETATM    4  C4  UNL     1     -13.594  15.159  -4.488  1.00  0.00    -0.029 C 
HETATM    5  C5  UNL     1     -14.348  16.247  -4.463  1.00  0.00    -0.021 C 
HETATM    6  C6  UNL     1     -13.900  17.238  -5.488  1.00  0.00     0.038 C 
HETATM    7  C7  UNL     1     -14.843  17.254  -6.612  1.00  0.00    -0.020 C 
HETATM    8  C8  UNL     1     -14.506  17.514  -7.985  1.00  0.00    -0.005 C 
HETATM    9  C9  UNL     1     -14.052  18.767  -8.612  1.00  0.00     0.074 C 
HETATM   10  C10 UNL     1     -14.252  18.435 -10.077  1.00  0.00     0.074 C 
HETATM   11  N1  UNL     1     -14.420  18.156 -11.208  1.00  0.00    -0.196 NA
HETATM   12  C11 UNL     1     -15.032  19.807  -8.249  1.00  0.00     0.031 C 
HETATM   13  C12 UNL     1     -14.503  20.985  -7.540  1.00  0.00     0.023 C 
HETATM   14  C13 UNL     1     -13.234  21.576  -8.113  1.00  0.00     0.058 C 
HETATM   15  C15 UNL     1     -13.723  22.782  -8.877  1.00  0.00     0.022 C 
HETATM   16  C16 UNL     1     -13.162  23.098 -10.187  1.00  0.00     0.011 C 
HETATM   17  C17 UNL     1     -13.244  21.779 -10.928  1.00  0.00     0.058 C 
HETATM   18  C20 UNL     1     -12.192  20.950 -10.306  1.00  0.00     0.101 C 
HETATM   19 CL1  UNL     1     -10.747  22.003 -10.683  1.00  0.00    -0.124 Cl
HETATM   20  C21 UNL     1     -12.304  20.622  -8.832  1.00  0.00     0.004 C 
HETATM   21  C25 UNL     1     -12.590  19.148  -8.540  1.00  0.00    -0.010 C 
HETATM   22  C26 UNL     1     -11.885  18.175  -9.406  1.00  0.00     0.018 C 
HETATM   23  C27 UNL     1     -12.147  18.739  -7.149  1.00  0.00     0.013 C 
HETATM   24  C28 UNL     1     -11.806  17.315  -6.928  1.00  0.00     0.011 C 
ENDROOT
BRANCH  20  25
HETATM   25  C22 UNL     1     -10.924  21.003  -8.323  1.00  0.00     0.024 C 
BRANCH  25  26
HETATM   26  C23 UNL     1      -9.715  20.284  -8.639  1.00  0.00     0.114 C 
BRANCH  26  27
HETATM   27  C24 UNL     1      -8.891  20.217  -7.355  1.00  0.00     0.172 C 
HETATM   28  O4  UNL     1      -9.134  21.033  -6.443  1.00  0.00    -0.648 OA
HETATM   29  O5  UNL     1      -7.903  19.264  -7.234  1.00  0.00    -0.648 OA
ENDBRANCH  26  27
ENDBRANCH  25  26
ENDBRANCH  20  25
BRANCH  14  30
HETATM   30  C14 UNL     1     -12.625  22.235  -6.893  1.00  0.00     0.182 C 
HETATM   31  O1  UNL     1     -12.284  23.455  -6.890  1.00  0.00    -0.647 OA
HETATM   32  O2  UNL     1     -12.377  21.616  -5.690  1.00  0.00    -0.647 OA
ENDBRANCH  14  30
BRANCH  17  33
HETATM   33  C18 UNL     1     -13.143  22.078 -12.366  1.00  0.00     0.186 C 
HETATM   34  F1  UNL     1     -12.022  21.330 -12.843  1.00  0.00    -0.228 F 
HETATM   35 BR1  UNL     1     -14.572  21.291 -13.458  1.00  0.00    -0.046 Br
BRANCH  33  36
HETATM   36  C19 UNL     1     -12.883  23.473 -12.789  1.00  0.00     0.220 C 
BRANCH  36  37
HETATM   37  O3  UNL     1     -13.438  23.656 -14.056  1.00  0.00    -0.397 OA
ATOM     38  H3  UNL     1     -14.374  23.775 -13.956  1.00  0.00     0.209 HD
ENDBRANCH  36  37
ENDBRANCH  33  36
ENDBRANCH  17  33
TORSDOF 7
ENDMDL
MODEL 4
REMARK VINA RESULT: -7.081245128      1.351      1.515
REMARK  7 active torsions:
REMARK  status: ('A' for Active; 'I' for Inactive)
REMARK    1  A    between atoms: C13_14  and  C14_15 
REMARK    2  A    between atoms: C17_20  and  C18_21 
REMARK    3  A    between atoms: C18_21  and  C19_24 
REMARK    4  A    between atoms: C19_24  and  O3_25 
REMARK    5  A    between atoms: C21_29  and  C22_30 
REMARK    6  A    between atoms: C22_30  and  C23_31 
REMARK    7  A    between atoms: C23_31  and  C24_32 
ROOT
HETATM    1  C1  UNL     1     -13.980  22.523 -12.779  1.00  0.00     0.016 C 
HETATM    2  C2  UNL     1     -13.259  23.123 -11.560  1.00  0.00    -0.031 C 
HETATM    3  C3  UNL     1     -12.641  24.399 -12.011  1.00  0.00     0.037 C 
HETATM    4  C4  UNL     1     -13.855  25.302 -12.030  1.00  0.00    -0.029 C 
HETATM    5  C5  UNL     1     -14.782  24.789 -11.236  1.00  0.00    -0.021 C 
HETATM    6  C6  UNL     1     -14.313  23.517 -10.609  1.00  0.00     0.038 C 
HETATM    7  C7  UNL     1     -13.986  23.746  -9.198  1.00  0.00    -0.020 C 
HETATM    8  C8  UNL     1     -12.964  23.063  -8.452  1.00  0.00    -0.005 C 
HETATM    9  C9  UNL     1     -12.905  21.655  -8.026  1.00  0.00     0.074 C 
HETATM   10  C10 UNL     1     -11.794  21.720  -6.997  1.00  0.00     0.074 C 
HETATM   11  N1  UNL     1     -10.931  21.796  -6.200  1.00  0.00    -0.196 NA
HETATM   12  C11 UNL     1     -14.163  21.371  -7.311  1.00  0.00     0.031 C 
HETATM   13  C12 UNL     1     -14.985  20.271  -7.845  1.00  0.00     0.023 C 
HETATM   14  C13 UNL     1     -14.235  19.007  -8.198  1.00  0.00     0.058 C 
HETATM   15  C15 UNL     1     -14.524  18.092  -7.033  1.00  0.00     0.022 C 
HETATM   16  C16 UNL     1     -13.463  17.261  -6.472  1.00  0.00     0.011 C 
HETATM   17  C17 UNL     1     -12.326  18.241  -6.265  1.00  0.00     0.058 C 
HETATM   18  C20 UNL     1     -11.841  18.524  -7.632  1.00  0.00     0.101 C 
HETATM   19 CL1  UNL     1     -11.370  16.826  -8.116  1.00  0.00    -0.124 Cl
HETATM   20  C21 UNL     1     -12.789  19.169  -8.620  1.00  0.00     0.004 C 
HETATM   21  C25 UNL     1     -12.417  20.603  -8.997  1.00  0.00    -0.010 C 
HETATM   22  C26 UNL     1     -10.969  20.865  -9.167  1.00  0.00     0.018 C 
HETATM   23  C27 UNL     1     -12.990  21.014 -10.340  1.00  0.00     0.013 C 
HETATM   24  C28 UNL     1     -12.280  22.069 -11.096  1.00  0.00     0.011 C 
ENDROOT
BRANCH  20  25
HETATM   25  C22 UNL     1     -12.655  18.253  -9.823  1.00  0.00     0.024 C 
BRANCH  25  26
HETATM   26  C23 UNL     1     -11.580  18.324 -10.782  1.00  0.00     0.114 C 
BRANCH  26  27
HETATM   27  C24 UNL     1     -12.056  17.598 -12.038  1.00  0.00     0.172 C 
HETATM   28  O4  UNL     1     -13.208  17.825 -12.461  1.00  0.00    -0.648 OA
HETATM   29  O5  UNL     1     -11.210  16.714 -12.671  1.00  0.00    -0.648 OA
ENDBRANCH  26  27
ENDBRANCH  25  26
ENDBRANCH  20  25
BRANCH  14  30
HETATM   30  C14 UNL     1     -15.128  18.408  -9.264  1.00  0.00     0.182 C 
HETATM   31  O1  UNL     1     -15.395  17.170  -9.297  1.00  0.00    -0.647 OA
HETATM   32  O2  UNL     1     -15.733  19.104 -10.285  1.00  0.00    -0.647 OA
ENDBRANCH  14  30
BRANCH  17  33
HETATM   33  C18 UNL     1     -11.394  17.633  -5.301  1.00  0.00     0.186 C 
HETATM   34  F1  UNL     1     -11.721  16.242  -5.265  1.00  0.00    -0.228 F 
HETATM   35 BR1  UNL     1      -9.536  17.534  -5.925  1.00  0.00    -0.046 Br
BRANCH  33  36
HETATM   36  C19 UNL     1     -11.439  18.075  -3.889  1.00  0.00     0.220 C 
BRANCH  36  37
HETATM   37  O3  UNL     1     -11.558  19.465  -3.870  1.00  0.00    -0.397 OA
ATOM     38  H3  UNL     1     -11.871  19.725  -3.012  1.00  0.00     0.209 HD
ENDBRANCH  36  37
ENDBRANCH  33  36
ENDBRANCH  17  33
TORSDOF 7
ENDMDL
MODEL 5
REMARK VINA RESULT: -7.002882501      3.399      7.301
REMARK  7 active torsions:
REMARK  status: ('A' for Active; 'I' for Inactive)
REMARK    1  A    between atoms: C13_14  and  C14_15 
REMARK    2  A    between atoms: C17_20  and  C18_21 
REMARK    3  A    between atoms: C18_21  and  C19_24 
REMARK    4  A    between atoms: C19_24  and  O3_25 
REMARK    5  A    between atoms: C21_29  and  C22_30 
REMARK    6  A    between atoms: C22_30  and  C23_31 
REMARK    7  A    between atoms: C23_31  and  C24_32 
ROOT
HETATM    1  C1  UNL     1     -11.797  13.655  -4.763  1.00  0.00     0.016 C 
HETATM    2  C2  UNL     1     -12.934  14.469  -5.405  1.00  0.00    -0.031 C 
HETATM    3  C3  UNL     1     -14.011  13.503  -5.753  1.00  0.00     0.037 C 
HETATM    4  C4  UNL     1     -14.628  13.276  -4.391  1.00  0.00    -0.029 C 
HETATM    5  C5  UNL     1     -14.328  14.301  -3.608  1.00  0.00    -0.021 C 
HETATM    6  C6  UNL     1     -13.497  15.309  -4.334  1.00  0.00     0.038 C 
HETATM    7  C7  UNL     1     -14.311  16.483  -4.667  1.00  0.00    -0.020 C 
HETATM    8  C8  UNL     1     -14.147  17.315  -5.828  1.00  0.00    -0.005 C 
HETATM    9  C9  UNL     1     -13.048  18.234  -6.168  1.00  0.00     0.074 C 
HETATM   10  C10 UNL     1     -13.687  19.032  -7.286  1.00  0.00     0.074 C 
HETATM   11  N1  UNL     1     -14.206  19.641  -8.150  1.00  0.00    -0.196 NA
HETATM   12  C11 UNL     1     -12.872  19.136  -5.016  1.00  0.00     0.031 C 
HETATM   13  C12 UNL     1     -11.535  19.152  -4.395  1.00  0.00     0.023 C 
HETATM   14  C13 UNL     1     -10.371  19.225  -5.357  1.00  0.00     0.058 C 
HETATM   15  C15 UNL     1      -9.953  20.674  -5.291  1.00  0.00     0.022 C 
HETATM   16  C16 UNL     1      -9.589  21.388  -6.511  1.00  0.00     0.011 C 
HETATM   17  C17 UNL     1     -10.738  21.082  -7.450  1.00  0.00     0.058 C 
HETATM   18  C20 UNL     1     -10.535  19.666  -7.819  1.00  0.00     0.101 C 
HETATM   19 CL1  UNL     1      -8.881  19.813  -8.582  1.00  0.00    -0.124 Cl
HETATM   20  C21 UNL     1     -10.581  18.618  -6.728  1.00  0.00     0.004 C 
HETATM   21  C25 UNL     1     -11.791  17.686  -6.807  1.00  0.00    -0.010 C 
HETATM   22  C26 UNL     1     -12.191  17.272  -8.172  1.00  0.00     0.018 C 
HETATM   23  C27 UNL     1     -11.545  16.360  -6.115  1.00  0.00     0.013 C 
HETATM   24  C28 UNL     1     -12.317  15.187  -6.583  1.00  0.00     0.011 C 
ENDROOT
BRANCH  20  25
HETATM   25  C22 UNL     1      -9.300  17.844  -6.986  1.00  0.00     0.024 C 
BRANCH  25  26
HETATM   26  C23 UNL     1      -9.060  17.036  -8.156  1.00  0.00     0.114 C 
BRANCH  26  27
HETATM   27  C24 UNL     1      -7.558  16.768  -8.210  1.00  0.00     0.172 C 
HETATM   28  O4  UNL     1      -7.075  16.270  -9.247  1.00  0.00    -0.648 OA
HETATM   29  O5  UNL     1      -6.776  17.078  -7.119  1.00  0.00    -0.648 OA
ENDBRANCH  26  27
ENDBRANCH  25  26
ENDBRANCH  20  25
BRANCH  14  30
HETATM   30  C14 UNL     1      -9.267  18.571  -4.551  1.00  0.00     0.182 C 
HETATM   31  O1  UNL     1      -9.504  17.655  -3.710  1.00  0.00    -0.647 OA
HETATM   32  O2  UNL     1      -7.929  18.879  -4.631  1.00  0.00    -0.647 OA
ENDBRANCH  14  30
BRANCH  17  33
HETATM   33  C18 UNL     1     -10.714  22.096  -8.517  1.00  0.00     0.186 C 
HETATM   34  F1  UNL     1     -11.609  23.128  -8.096  1.00  0.00    -0.228 F 
HETATM   35 BR1  UNL     1      -9.040  23.116  -8.624  1.00  0.00    -0.046 Br
BRANCH  33  36
HETATM   36  C19 UNL     1     -11.172  21.718  -9.872  1.00  0.00     0.220 C 
BRANCH  36  37
HETATM   37  O3  UNL     1     -12.564  21.622  -9.851  1.00  0.00    -0.397 OA
ATOM     38  H3  UNL     1     -12.818  20.871 -10.374  1.00  0.00     0.209 HD
ENDBRANCH  36  37
ENDBRANCH  33  36
ENDBRANCH  17  33
TORSDOF 7
ENDMDL
