MODEL 1
REMARK VINA RESULT: -6.507370162      0.000      0.000
REMARK  10 active torsions:
REMARK  status: ('A' for Active; 'I' for Inactive)
REMARK    1  A    between atoms: C2_2  and  C3_3 
REMARK    2  A    between atoms: C3_3  and  C4_4 
REMARK    3  A    between atoms: C5_5  and  C6_6 
REMARK    4  A    between atoms: C6_6  and  C7_7 
REMARK    5  A    between atoms: C7_7  and  C8_8 
REMARK    6  A    between atoms: C8_8  and  O1_9 
REMARK    7  A    between atoms: C8_8  and  C9_11 
REMARK    8  A    between atoms: C9_11  and  C10_12 
REMARK    9  A    between atoms: C11_13  and  C12_14 
REMARK   10  A    between atoms: C14_16  and  N1_17 
ROOT
HETATM    1  C10 UNL     1      27.545 -12.889  -0.033  1.00  0.00    -0.026 C 
HETATM    2  C11 UNL     1      27.517 -12.362  -1.233  1.00  0.00    -0.006 C 
ENDROOT
BRANCH   1   3
HETATM    3  C9  UNL     1      26.832 -14.139   0.274  1.00  0.00     0.058 C 
BRANCH   3   4
HETATM    4  C8  UNL     1      27.717 -15.196   0.897  1.00  0.00     0.121 C 
BRANCH   4   5
HETATM    5  C7  UNL     1      28.356 -16.004  -0.211  1.00  0.00     0.036 C 
BRANCH   5   6
HETATM    6  C6  UNL     1      27.286 -16.760  -1.004  1.00  0.00     0.029 C 
BRANCH   6   7
HETATM    7  C5  UNL     1      26.629 -17.675  -0.045  1.00  0.00    -0.030 C 
HETATM    8  C4  UNL     1      25.360 -17.946  -0.028  1.00  0.00    -0.027 C 
BRANCH   8   9
HETATM    9  C3  UNL     1      24.374 -17.393  -0.955  1.00  0.00     0.053 C 
BRANCH   9  10
HETATM   10  C2  UNL     1      23.017 -17.630  -0.344  1.00  0.00    -0.033 C 
HETATM   11  C1  UNL     1      22.340 -18.690  -0.727  1.00  0.00     0.007 C 
ENDBRANCH   9  10
ENDBRANCH   8   9
ENDBRANCH   6   7
ENDBRANCH   5   6
ENDBRANCH   4   5
BRANCH   4  12
HETATM   12  O1  UNL     1      28.699 -14.588   1.668  1.00  0.00    -0.395 OA
ATOM     13  H1  UNL     1      28.845 -13.699   1.366  1.00  0.00     0.210 HD
ENDBRANCH   4  12
ENDBRANCH   3   4
ENDBRANCH   1   3
BRANCH   2  14
HETATM   14  C12 UNL     1      26.775 -12.994  -2.320  1.00  0.00     0.106 C 
HETATM   15  C13 UNL     1      26.287 -11.956  -3.347  1.00  0.00     0.068 C 
HETATM   16  C14 UNL     1      25.943 -12.943  -4.479  1.00  0.00     0.230 C 
HETATM   17  C15 UNL     1      27.136 -13.854  -4.342  1.00  0.00     0.009 C 
HETATM   18  C16 UNL     1      27.724 -14.641  -5.464  1.00  0.00     0.065 C 
HETATM   19  N2  UNL     1      27.554 -13.847  -3.146  1.00  0.00    -0.387 N 
ATOM     20  H2  UNL     1      28.353 -14.388  -2.816  1.00  0.00     0.159 HD
BRANCH  16  21
HETATM   21  N1  UNL     1      24.765 -13.644  -4.066  1.00  0.00    -0.070 N 
ATOM     22  H13 UNL     1      24.328 -13.244  -3.236  1.00  0.00     0.275 HD
ATOM     23  H12 UNL     1      23.976 -13.515  -4.700  1.00  0.00     0.275 HD
ATOM     24  H11 UNL     1      25.032 -14.621  -3.949  1.00  0.00     0.275 HD
ENDBRANCH  16  21
ENDBRANCH   2  14
TORSDOF 10
ENDMDL
MODEL 2
REMARK VINA RESULT: -6.174671012      1.661      2.485
REMARK  10 active torsions:
REMARK  status: ('A' for Active; 'I' for Inactive)
REMARK    1  A    between atoms: C2_2  and  C3_3 
REMARK    2  A    between atoms: C3_3  and  C4_4 
REMARK    3  A    between atoms: C5_5  and  C6_6 
REMARK    4  A    between atoms: C6_6  and  C7_7 
REMARK    5  A    between atoms: C7_7  and  C8_8 
REMARK    6  A    between atoms: C8_8  and  O1_9 
REMARK    7  A    between atoms: C8_8  and  C9_11 
REMARK    8  A    between atoms: C9_11  and  C10_12 
REMARK    9  A    between atoms: C11_13  and  C12_14 
REMARK   10  A    between atoms: C14_16  and  N1_17 
ROOT
HETATM    1  C10 UNL     1      25.556 -14.686  -2.570  1.00  0.00    -0.026 C 
HETATM    2  C11 UNL     1      25.343 -13.924  -3.615  1.00  0.00    -0.006 C 
ENDROOT
BRANCH   1   3
HETATM    3  C9  UNL     1      26.821 -14.628  -1.821  1.00  0.00     0.058 C 
BRANCH   3   4
HETATM    4  C8  UNL     1      26.632 -14.675  -0.321  1.00  0.00     0.121 C 
BRANCH   4   5
HETATM    5  C7  UNL     1      27.520 -15.762   0.243  1.00  0.00     0.036 C 
BRANCH   5   6
HETATM    6  C6  UNL     1      27.341 -17.060  -0.549  1.00  0.00     0.029 C 
BRANCH   6   7
HETATM    7  C5  UNL     1      26.488 -17.938   0.279  1.00  0.00    -0.030 C 
HETATM    8  C4  UNL     1      25.219 -18.133   0.091  1.00  0.00    -0.027 C 
BRANCH   8   9
HETATM    9  C3  UNL     1      24.427 -17.517  -0.973  1.00  0.00     0.053 C 
BRANCH   9  10
HETATM   10  C2  UNL     1      22.997 -17.501  -0.501  1.00  0.00    -0.033 C 
HETATM   11  C1  UNL     1      22.302 -18.613  -0.586  1.00  0.00     0.007 C 
ENDBRANCH   9  10
ENDBRANCH   8   9
ENDBRANCH   6   7
ENDBRANCH   5   6
ENDBRANCH   4   5
BRANCH   4  12
HETATM   12  O1  UNL     1      26.974 -13.448   0.231  1.00  0.00    -0.395 OA
ATOM     13  H1  UNL     1      27.918 -13.345   0.234  1.00  0.00     0.210 HD
ENDBRANCH   4  12
ENDBRANCH   3   4
ENDBRANCH   1   3
BRANCH   2  14
HETATM   14  C12 UNL     1      26.355 -12.981  -4.083  1.00  0.00     0.106 C 
HETATM   15  C13 UNL     1      27.225 -13.594  -5.196  1.00  0.00     0.068 C 
HETATM   16  C14 UNL     1      27.851 -12.281  -5.703  1.00  0.00     0.230 C 
HETATM   17  C15 UNL     1      26.619 -11.416  -5.645  1.00  0.00     0.009 C 
HETATM   18  C16 UNL     1      26.378 -10.237  -6.527  1.00  0.00     0.065 C 
HETATM   19  N2  UNL     1      25.832 -11.839  -4.746  1.00  0.00    -0.387 N 
ATOM     20  H2  UNL     1      24.933 -11.411  -4.525  1.00  0.00     0.159 HD
BRANCH  16  21
HETATM   21  N1  UNL     1      28.776 -11.853  -4.698  1.00  0.00    -0.070 N 
ATOM     22  H13 UNL     1      28.324 -11.422  -3.892  1.00  0.00     0.275 HD
ATOM     23  H12 UNL     1      29.216 -12.626  -4.199  1.00  0.00     0.275 HD
ATOM     24  H11 UNL     1      29.446 -11.239  -5.160  1.00  0.00     0.275 HD
ENDBRANCH  16  21
ENDBRANCH   2  14
TORSDOF 10
ENDMDL
MODEL 3
REMARK VINA RESULT: -6.129823067      1.482      2.366
REMARK  10 active torsions:
REMARK  status: ('A' for Active; 'I' for Inactive)
REMARK    1  A    between atoms: C2_2  and  C3_3 
REMARK    2  A    between atoms: C3_3  and  C4_4 
REMARK    3  A    between atoms: C5_5  and  C6_6 
REMARK    4  A    between atoms: C6_6  and  C7_7 
REMARK    5  A    between atoms: C7_7  and  C8_8 
REMARK    6  A    between atoms: C8_8  and  O1_9 
REMARK    7  A    between atoms: C8_8  and  C9_11 
REMARK    8  A    between atoms: C9_11  and  C10_12 
REMARK    9  A    between atoms: C11_13  and  C12_14 
REMARK   10  A    between atoms: C14_16  and  N1_17 
ROOT
HETATM    1  C10 UNL     1      25.941 -13.931  -2.269  1.00  0.00    -0.026 C 
HETATM    2  C11 UNL     1      26.002 -13.648  -3.548  1.00  0.00    -0.006 C 
ENDROOT
BRANCH   1   3
HETATM    3  C9  UNL     1      27.140 -14.327  -1.512  1.00  0.00     0.058 C 
BRANCH   3   4
HETATM    4  C8  UNL     1      26.863 -14.591  -0.049  1.00  0.00     0.121 C 
BRANCH   4   5
HETATM    5  C7  UNL     1      27.693 -15.776   0.393  1.00  0.00     0.036 C 
BRANCH   5   6
HETATM    6  C6  UNL     1      27.474 -16.962  -0.551  1.00  0.00     0.029 C 
BRANCH   6   7
HETATM    7  C5  UNL     1      26.588 -17.904   0.166  1.00  0.00    -0.030 C 
HETATM    8  C4  UNL     1      25.307 -18.001  -0.012  1.00  0.00    -0.027 C 
BRANCH   8   9
HETATM    9  C3  UNL     1      24.530 -17.193  -0.952  1.00  0.00     0.053 C 
BRANCH   9  10
HETATM   10  C2  UNL     1      23.077 -17.411  -0.619  1.00  0.00    -0.033 C 
HETATM   11  C1  UNL     1      22.614 -18.641  -0.631  1.00  0.00     0.007 C 
ENDBRANCH   9  10
ENDBRANCH   8   9
ENDBRANCH   6   7
ENDBRANCH   5   6
ENDBRANCH   4   5
BRANCH   4  12
HETATM   12  O1  UNL     1      27.199 -13.471   0.699  1.00  0.00    -0.395 OA
ATOM     13  H1  UNL     1      26.978 -13.611   1.612  1.00  0.00     0.210 HD
ENDBRANCH   4  12
ENDBRANCH   3   4
ENDBRANCH   1   3
BRANCH   2  14
HETATM   14  C12 UNL     1      27.265 -13.713  -4.279  1.00  0.00     0.106 C 
HETATM   15  C13 UNL     1      27.310 -14.931  -5.219  1.00  0.00     0.068 C 
HETATM   16  C14 UNL     1      28.509 -14.478  -6.073  1.00  0.00     0.230 C 
HETATM   17  C15 UNL     1      28.145 -13.022  -6.204  1.00  0.00     0.009 C 
HETATM   18  C16 UNL     1      28.537 -12.159  -7.355  1.00  0.00     0.065 C 
HETATM   19  N2  UNL     1      27.465 -12.651  -5.200  1.00  0.00    -0.387 N 
ATOM     20  H2  UNL     1      27.105 -11.706  -5.071  1.00  0.00     0.159 HD
BRANCH  16  21
HETATM   21  N1  UNL     1      29.671 -14.601  -5.244  1.00  0.00    -0.070 N 
ATOM     22  H13 UNL     1      29.474 -15.011  -4.332  1.00  0.00     0.275 HD
ATOM     23  H12 UNL     1      30.323 -15.316  -5.568  1.00  0.00     0.275 HD
ATOM     24  H11 UNL     1      30.088 -13.672  -5.186  1.00  0.00     0.275 HD
ENDBRANCH  16  21
ENDBRANCH   2  14
TORSDOF 10
ENDMDL
MODEL 4
REMARK VINA RESULT: -6.074406387      3.863      5.916
REMARK  10 active torsions:
REMARK  status: ('A' for Active; 'I' for Inactive)
REMARK    1  A    between atoms: C2_2  and  C3_3 
REMARK    2  A    between atoms: C3_3  and  C4_4 
REMARK    3  A    between atoms: C5_5  and  C6_6 
REMARK    4  A    between atoms: C6_6  and  C7_7 
REMARK    5  A    between atoms: C7_7  and  C8_8 
REMARK    6  A    between atoms: C8_8  and  O1_9 
REMARK    7  A    between atoms: C8_8  and  C9_11 
REMARK    8  A    between atoms: C9_11  and  C10_12 
REMARK    9  A    between atoms: C11_13  and  C12_14 
REMARK   10  A    between atoms: C14_16  and  N1_17 
ROOT
HETATM    1  C10 UNL     1      27.608 -12.190   1.212  1.00  0.00    -0.026 C 
HETATM    2  C11 UNL     1      28.204 -11.868   2.334  1.00  0.00    -0.006 C 
ENDROOT
BRANCH   1   3
HETATM    3  C9  UNL     1      26.928 -13.484   1.046  1.00  0.00     0.058 C 
BRANCH   3   4
HETATM    4  C8  UNL     1      27.521 -14.335  -0.055  1.00  0.00     0.121 C 
BRANCH   4   5
HETATM    5  C7  UNL     1      27.757 -15.728   0.486  1.00  0.00     0.036 C 
BRANCH   5   6
HETATM    6  C6  UNL     1      27.419 -16.777  -0.577  1.00  0.00     0.029 C 
BRANCH   6   7
HETATM    7  C5  UNL     1      26.621 -17.817   0.105  1.00  0.00    -0.030 C 
HETATM    8  C4  UNL     1      25.334 -17.952   0.004  1.00  0.00    -0.027 C 
BRANCH   8   9
HETATM    9  C3  UNL     1      24.465 -17.097  -0.803  1.00  0.00     0.053 C 
BRANCH   9  10
HETATM   10  C2  UNL     1      23.048 -17.529  -0.529  1.00  0.00    -0.033 C 
HETATM   11  C1  UNL     1      22.706 -18.762  -0.826  1.00  0.00     0.007 C 
ENDBRANCH   9  10
ENDBRANCH   8   9
ENDBRANCH   6   7
ENDBRANCH   5   6
ENDBRANCH   4   5
BRANCH   4  12
HETATM   12  O1  UNL     1      26.644 -14.385  -1.130  1.00  0.00    -0.395 OA
ATOM     13  H1  UNL     1      27.131 -14.413  -1.945  1.00  0.00     0.210 HD
ENDBRANCH   4  12
ENDBRANCH   3   4
ENDBRANCH   1   3
BRANCH   2  14
HETATM   14  C12 UNL     1      28.220 -12.783   3.473  1.00  0.00     0.106 C 
HETATM   15  C13 UNL     1      29.614 -13.401   3.680  1.00  0.00     0.068 C 
HETATM   16  C14 UNL     1      29.384 -13.937   5.106  1.00  0.00     0.230 C 
HETATM   17  C15 UNL     1      28.629 -12.757   5.661  1.00  0.00     0.009 C 
HETATM   18  C16 UNL     1      28.623 -12.366   7.101  1.00  0.00     0.065 C 
HETATM   19  N2  UNL     1      28.010 -12.159   4.731  1.00  0.00    -0.387 N 
ATOM     20  H2  UNL     1      27.432 -11.330   4.869  1.00  0.00     0.159 HD
BRANCH  16  21
HETATM   21  N1  UNL     1      28.494 -15.052   4.985  1.00  0.00    -0.070 N 
ATOM     22  H13 UNL     1      27.510 -14.790   5.042  1.00  0.00     0.275 HD
ATOM     23  H12 UNL     1      28.467 -15.446   4.045  1.00  0.00     0.275 HD
ATOM     24  H11 UNL     1      28.773 -15.727   5.697  1.00  0.00     0.275 HD
ENDBRANCH  16  21
ENDBRANCH   2  14
TORSDOF 10
ENDMDL
MODEL 5
REMARK VINA RESULT: -6.030435382      3.494      5.548
REMARK  10 active torsions:
REMARK  status: ('A' for Active; 'I' for Inactive)
REMARK    1  A    between atoms: C2_2  and  C3_3 
REMARK    2  A    between atoms: C3_3  and  C4_4 
REMARK    3  A    between atoms: C5_5  and  C6_6 
REMARK    4  A    between atoms: C6_6  and  C7_7 
REMARK    5  A    between atoms: C7_7  and  C8_8 
REMARK    6  A    between atoms: C8_8  and  O1_9 
REMARK    7  A    between atoms: C8_8  and  C9_11 
REMARK    8  A    between atoms: C9_11  and  C10_12 
REMARK    9  A    between atoms: C11_13  and  C12_14 
REMARK   10  A    between atoms: C14_16  and  N1_17 
ROOT
HETATM    1  C10 UNL     1      27.051 -13.712   0.667  1.00  0.00    -0.026 C 
HETATM    2  C11 UNL     1      27.057 -13.345   1.926  1.00  0.00    -0.006 C 
ENDROOT
BRANCH   1   3
HETATM    3  C9  UNL     1      28.152 -14.500   0.091  1.00  0.00     0.058 C 
BRANCH   3   4
HETATM    4  C8  UNL     1      27.794 -15.952  -0.136  1.00  0.00     0.121 C 
BRANCH   4   5
HETATM    5  C7  UNL     1      27.234 -16.098  -1.533  1.00  0.00     0.036 C 
BRANCH   5   6
HETATM    6  C6  UNL     1      25.760 -16.509  -1.476  1.00  0.00     0.029 C 
BRANCH   6   7
HETATM    7  C5  UNL     1      25.664 -17.568  -0.448  1.00  0.00    -0.030 C 
HETATM    8  C4  UNL     1      24.555 -18.030   0.042  1.00  0.00    -0.027 C 
BRANCH   8   9
HETATM    9  C3  UNL     1      23.219 -17.580  -0.345  1.00  0.00     0.053 C 
BRANCH   9  10
HETATM   10  C2  UNL     1      22.504 -18.773  -0.924  1.00  0.00    -0.033 C 
HETATM   11  C1  UNL     1      21.269 -19.005  -0.539  1.00  0.00     0.007 C 
ENDBRANCH   9  10
ENDBRANCH   8   9
ENDBRANCH   6   7
ENDBRANCH   5   6
ENDBRANCH   4   5
BRANCH   4  12
HETATM   12  O1  UNL     1      28.928 -16.741   0.006  1.00  0.00    -0.395 OA
ATOM     13  H1  UNL     1      29.311 -16.607   0.865  1.00  0.00     0.210 HD
ENDBRANCH   4  12
ENDBRANCH   3   4
ENDBRANCH   1   3
BRANCH   2  14
HETATM   14  C12 UNL     1      28.160 -13.702   2.814  1.00  0.00     0.106 C 
HETATM   15  C13 UNL     1      29.248 -12.613   2.826  1.00  0.00     0.068 C 
HETATM   16  C14 UNL     1      29.989 -13.088   4.090  1.00  0.00     0.230 C 
HETATM   17  C15 UNL     1      28.786 -13.427   4.932  1.00  0.00     0.009 C 
HETATM   18  C16 UNL     1      28.764 -13.377   6.423  1.00  0.00     0.065 C 
HETATM   19  N2  UNL     1      27.813 -13.755   4.189  1.00  0.00    -0.387 N 
ATOM     20  H2  UNL     1      26.893 -14.024   4.537  1.00  0.00     0.159 HD
BRANCH  16  21
HETATM   21  N1  UNL     1      30.672 -14.296   3.735  1.00  0.00    -0.070 N 
ATOM     22  H13 UNL     1      30.376 -15.102   4.285  1.00  0.00     0.275 HD
ATOM     23  H12 UNL     1      30.401 -14.658   2.821  1.00  0.00     0.275 HD
ATOM     24  H11 UNL     1      31.669 -14.100   3.812  1.00  0.00     0.275 HD
ENDBRANCH  16  21
ENDBRANCH   2  14
TORSDOF 10
ENDMDL
