MODEL 1
REMARK VINA RESULT: -5.617501249      0.000      0.000
REMARK  10 active torsions:
REMARK  status: ('A' for Active; 'I' for Inactive)
REMARK    1  A    between atoms: C4_4  and  C5_5 
REMARK    2  A    between atoms: C5_5  and  C6_6 
REMARK    3  A    between atoms: C6_6  and  C7_7 
REMARK    4  A    between atoms: C7_7  and  C8_8 
REMARK    5  A    between atoms: C7_7  and  N1_11 
REMARK    6  A    between atoms: C8_8  and  O1_9 
REMARK    7  A    between atoms: N1_11  and  C9_14 
REMARK    8  A    between atoms: C9_14  and  O2_15 
REMARK    9  A    between atoms: C9_14  and  C10_17 
REMARK   10  A    between atoms: C10_17  and  C11_18 
ROOT
HETATM    1  N1  UNL     1      25.830 -12.719  -2.996  1.00  0.00    -0.043 N 
ATOM      2  H11 UNL     1      25.259 -11.961  -3.370  1.00  0.00     0.280 HD
ATOM      3  H12 UNL     1      25.890 -12.424  -2.022  1.00  0.00     0.280 HD
ENDROOT
BRANCH   1   4
HETATM    4  C7  UNL     1      27.125 -12.723  -3.603  1.00  0.00     0.212 C 
BRANCH   4   5
HETATM    5  C6  UNL     1      28.220 -12.174  -2.748  1.00  0.00     0.036 C 
BRANCH   5   6
HETATM    6  C5  UNL     1      27.702 -11.375  -1.576  1.00  0.00     0.007 C 
BRANCH   6   7
HETATM    7  C4  UNL     1      28.039 -11.953  -0.245  1.00  0.00    -0.010 A 
HETATM    8  C2  UNL     1      27.191 -13.001   0.380  1.00  0.00    -0.014 A 
HETATM    9  C1  UNL     1      27.028 -12.996   1.893  1.00  0.00     0.010 C 
HETATM   10  C3  UNL     1      28.610 -13.309  -0.137  1.00  0.00     0.009 A 
ENDBRANCH   6   7
ENDBRANCH   5   6
ENDBRANCH   4   5
BRANCH   4  11
HETATM   11  C8  UNL     1      27.135 -11.977  -4.924  1.00  0.00     0.197 C 
BRANCH  11  12
HETATM   12  O1  UNL     1      25.871 -11.566  -5.318  1.00  0.00    -0.399 OA
ATOM     13  H1  UNL     1      25.884 -10.747  -5.798  1.00  0.00     0.209 HD
ENDBRANCH  11  12
ENDBRANCH   4  11
ENDBRANCH   1   4
BRANCH   1  14
HETATM   14  C9  UNL     1      25.139 -13.980  -3.106  1.00  0.00     0.319 C 
BRANCH  14  15
HETATM   15  O2  UNL     1      24.257 -14.005  -4.187  1.00  0.00    -0.370 OA
ATOM     16  H2  UNL     1      23.379 -14.259  -3.928  1.00  0.00     0.212 HD
ENDBRANCH  14  15
BRANCH  14  17
HETATM   17  C10 UNL     1      26.010 -15.187  -2.996  1.00  0.00     0.065 C 
BRANCH  17  18
HETATM   18  C11 UNL     1      26.175 -15.735  -1.624  1.00  0.00    -0.010 C 
HETATM   19  C12 UNL     1      27.324 -16.644  -1.406  1.00  0.00     0.005 C 
HETATM   20  C13 UNL     1      27.412 -16.844   0.118  1.00  0.00     0.000 C 
HETATM   21  C14 UNL     1      26.258 -17.759   0.477  1.00  0.00     0.000 C 
HETATM   22  C15 UNL     1      25.207 -17.820  -0.594  1.00  0.00     0.000 C 
HETATM   23  C16 UNL     1      24.912 -16.511  -1.255  1.00  0.00     0.005 C 
ENDBRANCH  17  18
ENDBRANCH  14  17
ENDBRANCH   1  14
TORSDOF 10
ENDMDL
MODEL 2
REMARK VINA RESULT: -5.613737396      2.961      5.821
REMARK  10 active torsions:
REMARK  status: ('A' for Active; 'I' for Inactive)
REMARK    1  A    between atoms: C4_4  and  C5_5 
REMARK    2  A    between atoms: C5_5  and  C6_6 
REMARK    3  A    between atoms: C6_6  and  C7_7 
REMARK    4  A    between atoms: C7_7  and  C8_8 
REMARK    5  A    between atoms: C7_7  and  N1_11 
REMARK    6  A    between atoms: C8_8  and  O1_9 
REMARK    7  A    between atoms: N1_11  and  C9_14 
REMARK    8  A    between atoms: C9_14  and  O2_15 
REMARK    9  A    between atoms: C9_14  and  C10_17 
REMARK   10  A    between atoms: C10_17  and  C11_18 
ROOT
HETATM    1  N1  UNL     1      27.968 -15.371   0.871  1.00  0.00    -0.043 N 
ATOM      2  H11 UNL     1      28.735 -15.142   1.504  1.00  0.00     0.280 HD
ATOM      3  H12 UNL     1      27.424 -15.983   1.478  1.00  0.00     0.280 HD
ENDROOT
BRANCH   1   4
HETATM    4  C7  UNL     1      28.450 -16.087  -0.268  1.00  0.00     0.212 C 
BRANCH   4   5
HETATM    5  C6  UNL     1      27.939 -17.485  -0.392  1.00  0.00     0.036 C 
BRANCH   5   6
HETATM    6  C5  UNL     1      26.619 -17.690   0.314  1.00  0.00     0.007 C 
BRANCH   6   7
HETATM    7  C4  UNL     1      25.442 -17.760  -0.598  1.00  0.00    -0.010 A 
HETATM    8  C2  UNL     1      24.062 -17.900  -0.068  1.00  0.00    -0.014 A 
HETATM    9  C1  UNL     1      23.061 -18.729  -0.860  1.00  0.00     0.010 C 
HETATM   10  C3  UNL     1      24.539 -16.602  -0.749  1.00  0.00     0.009 A 
ENDBRANCH   6   7
ENDBRANCH   5   6
ENDBRANCH   4   5
BRANCH   4  11
HETATM   11  C8  UNL     1      29.966 -16.132  -0.312  1.00  0.00     0.197 C 
BRANCH  11  12
HETATM   12  O1  UNL     1      30.551 -15.623   0.838  1.00  0.00    -0.399 OA
ATOM     13  H1  UNL     1      30.021 -15.765   1.614  1.00  0.00     0.209 HD
ENDBRANCH  11  12
ENDBRANCH   4  11
ENDBRANCH   1   4
BRANCH   1  14
HETATM   14  C9  UNL     1      27.216 -14.189   0.533  1.00  0.00     0.319 C 
BRANCH  14  15
HETATM   15  O2  UNL     1      27.001 -13.366   1.640  1.00  0.00    -0.370 OA
ATOM     16  H2  UNL     1      26.963 -13.860   2.451  1.00  0.00     0.212 HD
ENDBRANCH  14  15
BRANCH  14  17
HETATM   17  C10 UNL     1      27.691 -13.468  -0.685  1.00  0.00     0.065 C 
BRANCH  17  18
HETATM   18  C11 UNL     1      26.672 -13.265  -1.747  1.00  0.00    -0.010 C 
HETATM   19  C12 UNL     1      26.553 -14.333  -2.767  1.00  0.00     0.005 C 
HETATM   20  C13 UNL     1      25.279 -14.003  -3.566  1.00  0.00     0.000 C 
HETATM   21  C14 UNL     1      25.639 -12.819  -4.441  1.00  0.00     0.000 C 
HETATM   22  C15 UNL     1      26.874 -12.104  -3.974  1.00  0.00     0.000 C 
HETATM   23  C16 UNL     1      26.995 -11.969  -2.489  1.00  0.00     0.005 C 
ENDBRANCH  17  18
ENDBRANCH  14  17
ENDBRANCH   1  14
TORSDOF 10
ENDMDL
MODEL 3
REMARK VINA RESULT: -5.593155714      2.943      5.878
REMARK  10 active torsions:
REMARK  status: ('A' for Active; 'I' for Inactive)
REMARK    1  A    between atoms: C4_4  and  C5_5 
REMARK    2  A    between atoms: C5_5  and  C6_6 
REMARK    3  A    between atoms: C6_6  and  C7_7 
REMARK    4  A    between atoms: C7_7  and  C8_8 
REMARK    5  A    between atoms: C7_7  and  N1_11 
REMARK    6  A    between atoms: C8_8  and  O1_9 
REMARK    7  A    between atoms: N1_11  and  C9_14 
REMARK    8  A    between atoms: C9_14  and  O2_15 
REMARK    9  A    between atoms: C9_14  and  C10_17 
REMARK   10  A    between atoms: C10_17  and  C11_18 
ROOT
HETATM    1  N1  UNL     1      28.083 -15.772   0.730  1.00  0.00    -0.043 N 
ATOM      2  H11 UNL     1      28.939 -15.896   1.271  1.00  0.00     0.280 HD
ATOM      3  H12 UNL     1      27.396 -16.046   1.432  1.00  0.00     0.280 HD
ENDROOT
BRANCH   1   4
HETATM    4  C7  UNL     1      28.054 -16.671  -0.382  1.00  0.00     0.212 C 
BRANCH   4   5
HETATM    5  C6  UNL     1      27.284 -17.930  -0.151  1.00  0.00     0.036 C 
BRANCH   5   6
HETATM    6  C5  UNL     1      25.908 -17.678   0.419  1.00  0.00     0.007 C 
BRANCH   6   7
HETATM    7  C4  UNL     1      24.803 -17.797  -0.575  1.00  0.00    -0.010 A 
HETATM    8  C2  UNL     1      23.400 -18.033  -0.146  1.00  0.00    -0.014 A 
HETATM    9  C1  UNL     1      22.510 -18.902  -1.022  1.00  0.00     0.010 C 
HETATM   10  C3  UNL     1      23.843 -16.694  -0.768  1.00  0.00     0.009 A 
ENDBRANCH   6   7
ENDBRANCH   5   6
ENDBRANCH   4   5
BRANCH   4  11
HETATM   11  C8  UNL     1      29.448 -17.046  -0.846  1.00  0.00     0.197 C 
BRANCH  11  12
HETATM   12  O1  UNL     1      30.434 -16.653   0.047  1.00  0.00    -0.399 OA
ATOM     13  H1  UNL     1      31.262 -16.465  -0.380  1.00  0.00     0.209 HD
ENDBRANCH  11  12
ENDBRANCH   4  11
ENDBRANCH   1   4
BRANCH   1  14
HETATM   14  C9  UNL     1      27.910 -14.390   0.358  1.00  0.00     0.319 C 
BRANCH  14  15
HETATM   15  O2  UNL     1      29.077 -13.837  -0.170  1.00  0.00    -0.370 OA
ATOM     16  H2  UNL     1      28.977 -12.913  -0.371  1.00  0.00     0.212 HD
ENDBRANCH  14  15
BRANCH  14  17
HETATM   17  C10 UNL     1      26.680 -14.101  -0.436  1.00  0.00     0.065 C 
BRANCH  17  18
HETATM   18  C11 UNL     1      26.902 -13.804  -1.875  1.00  0.00    -0.010 C 
HETATM   19  C12 UNL     1      26.741 -12.392  -2.294  1.00  0.00     0.005 C 
HETATM   20  C13 UNL     1      27.276 -12.324  -3.737  1.00  0.00     0.000 C 
HETATM   21  C14 UNL     1      26.221 -12.994  -4.596  1.00  0.00     0.000 C 
HETATM   22  C15 UNL     1      25.277 -13.847  -3.799  1.00  0.00     0.000 C 
HETATM   23  C16 UNL     1      25.919 -14.633  -2.700  1.00  0.00     0.005 C 
ENDBRANCH  17  18
ENDBRANCH  14  17
ENDBRANCH   1  14
TORSDOF 10
ENDMDL
MODEL 4
REMARK VINA RESULT: -5.509064068      0.648      1.356
REMARK  10 active torsions:
REMARK  status: ('A' for Active; 'I' for Inactive)
REMARK    1  A    between atoms: C4_4  and  C5_5 
REMARK    2  A    between atoms: C5_5  and  C6_6 
REMARK    3  A    between atoms: C6_6  and  C7_7 
REMARK    4  A    between atoms: C7_7  and  C8_8 
REMARK    5  A    between atoms: C7_7  and  N1_11 
REMARK    6  A    between atoms: C8_8  and  O1_9 
REMARK    7  A    between atoms: N1_11  and  C9_14 
REMARK    8  A    between atoms: C9_14  and  O2_15 
REMARK    9  A    between atoms: C9_14  and  C10_17 
REMARK   10  A    between atoms: C10_17  and  C11_18 
ROOT
HETATM    1  N1  UNL     1      25.853 -12.661  -2.848  1.00  0.00    -0.043 N 
ATOM      2  H11 UNL     1      25.215 -11.946  -3.196  1.00  0.00     0.280 HD
ATOM      3  H12 UNL     1      25.874 -12.405  -1.861  1.00  0.00     0.280 HD
ENDROOT
BRANCH   1   4
HETATM    4  C7  UNL     1      27.147 -12.512  -3.436  1.00  0.00     0.212 C 
BRANCH   4   5
HETATM    5  C6  UNL     1      28.195 -11.974  -2.517  1.00  0.00     0.036 C 
BRANCH   5   6
HETATM    6  C5  UNL     1      28.851 -13.049  -1.684  1.00  0.00     0.007 C 
BRANCH   6   7
HETATM    7  C4  UNL     1      28.582 -12.938  -0.221  1.00  0.00    -0.010 A 
HETATM    8  C2  UNL     1      27.364 -13.530   0.388  1.00  0.00    -0.014 A 
HETATM    9  C1  UNL     1      26.707 -12.800   1.551  1.00  0.00     0.010 C 
HETATM   10  C3  UNL     1      28.768 -14.101   0.668  1.00  0.00     0.009 A 
ENDBRANCH   6   7
ENDBRANCH   5   6
ENDBRANCH   4   5
BRANCH   4  11
HETATM   11  C8  UNL     1      27.111 -11.640  -4.676  1.00  0.00     0.197 C 
BRANCH  11  12
HETATM   12  O1  UNL     1      25.835 -11.508  -5.203  1.00  0.00    -0.399 OA
ATOM     13  H1  UNL     1      25.805 -11.666  -6.139  1.00  0.00     0.209 HD
ENDBRANCH  11  12
ENDBRANCH   4  11
ENDBRANCH   1   4
BRANCH   1  14
HETATM   14  C9  UNL     1      25.289 -13.977  -3.022  1.00  0.00     0.319 C 
BRANCH  14  15
HETATM   15  O2  UNL     1      24.395 -14.029  -4.092  1.00  0.00    -0.370 OA
ATOM     16  H2  UNL     1      24.825 -13.880  -4.927  1.00  0.00     0.212 HD
ENDBRANCH  14  15
BRANCH  14  17
HETATM   17  C10 UNL     1      26.278 -15.094  -2.994  1.00  0.00     0.065 C 
BRANCH  17  18
HETATM   18  C11 UNL     1      25.868 -16.293  -2.218  1.00  0.00    -0.010 C 
HETATM   19  C12 UNL     1      24.716 -16.130  -1.301  1.00  0.00     0.005 C 
HETATM   20  C13 UNL     1      24.347 -17.552  -0.841  1.00  0.00     0.000 C 
HETATM   21  C14 UNL     1      25.430 -17.959   0.139  1.00  0.00     0.000 C 
HETATM   22  C15 UNL     1      26.664 -17.112   0.027  1.00  0.00     0.000 C 
HETATM   23  C16 UNL     1      27.054 -16.755  -1.373  1.00  0.00     0.005 C 
ENDBRANCH  17  18
ENDBRANCH  14  17
ENDBRANCH   1  14
TORSDOF 10
ENDMDL
MODEL 5
REMARK VINA RESULT: -5.495110742      1.459      4.818
REMARK  10 active torsions:
REMARK  status: ('A' for Active; 'I' for Inactive)
REMARK    1  A    between atoms: C4_4  and  C5_5 
REMARK    2  A    between atoms: C5_5  and  C6_6 
REMARK    3  A    between atoms: C6_6  and  C7_7 
REMARK    4  A    between atoms: C7_7  and  C8_8 
REMARK    5  A    between atoms: C7_7  and  N1_11 
REMARK    6  A    between atoms: C8_8  and  O1_9 
REMARK    7  A    between atoms: N1_11  and  C9_14 
REMARK    8  A    between atoms: C9_14  and  O2_15 
REMARK    9  A    between atoms: C9_14  and  C10_17 
REMARK   10  A    between atoms: C10_17  and  C11_18 
ROOT
HETATM    1  N1  UNL     1      27.564 -14.208  -2.957  1.00  0.00    -0.043 N 
ATOM      2  H11 UNL     1      27.866 -14.289  -3.928  1.00  0.00     0.280 HD
ATOM      3  H12 UNL     1      27.972 -15.062  -2.578  1.00  0.00     0.280 HD
ENDROOT
BRANCH   1   4
HETATM    4  C7  UNL     1      26.138 -14.246  -2.867  1.00  0.00     0.212 C 
BRANCH   4   5
HETATM    5  C6  UNL     1      25.565 -15.592  -2.561  1.00  0.00     0.036 C 
BRANCH   5   6
HETATM    6  C5  UNL     1      26.192 -16.232  -1.346  1.00  0.00     0.007 C 
BRANCH   6   7
HETATM    7  C4  UNL     1      25.213 -16.844  -0.403  1.00  0.00    -0.010 A 
HETATM    8  C2  UNL     1      24.301 -17.934  -0.836  1.00  0.00    -0.014 A 
HETATM    9  C1  UNL     1      22.898 -17.982  -0.247  1.00  0.00     0.010 C 
HETATM   10  C3  UNL     1      25.450 -18.187   0.160  1.00  0.00     0.009 A 
ENDBRANCH   6   7
ENDBRANCH   5   6
ENDBRANCH   4   5
BRANCH   4  11
HETATM   11  C8  UNL     1      25.475 -13.724  -4.127  1.00  0.00     0.197 C 
BRANCH  11  12
HETATM   12  O1  UNL     1      24.103 -13.928  -4.136  1.00  0.00    -0.399 OA
ATOM     13  H1  UNL     1      23.692 -13.626  -4.937  1.00  0.00     0.209 HD
ENDBRANCH  11  12
ENDBRANCH   4  11
ENDBRANCH   1   4
BRANCH   1  14
HETATM   14  C9  UNL     1      28.149 -13.045  -2.337  1.00  0.00     0.319 C 
BRANCH  14  15
HETATM   15  O2  UNL     1      28.678 -12.158  -3.275  1.00  0.00    -0.370 OA
ATOM     16  H2  UNL     1      28.309 -11.286  -3.193  1.00  0.00     0.212 HD
ENDBRANCH  14  15
BRANCH  14  17
HETATM   17  C10 UNL     1      27.305 -12.399  -1.289  1.00  0.00     0.065 C 
BRANCH  17  18
HETATM   18  C11 UNL     1      27.768 -12.583   0.111  1.00  0.00    -0.010 C 
HETATM   19  C12 UNL     1      26.971 -13.499   0.959  1.00  0.00     0.005 C 
HETATM   20  C13 UNL     1      27.802 -13.709   2.238  1.00  0.00     0.000 C 
HETATM   21  C14 UNL     1      27.676 -12.418   3.024  1.00  0.00     0.000 C 
HETATM   22  C15 UNL     1      27.200 -11.269   2.183  1.00  0.00     0.000 C 
HETATM   23  C16 UNL     1      27.777 -11.221   0.803  1.00  0.00     0.005 C 
ENDBRANCH  17  18
ENDBRANCH  14  17
ENDBRANCH   1  14
TORSDOF 10
ENDMDL
