MODEL 1
REMARK VINA RESULT: -6.046653441      0.000      0.000
REMARK  10 active torsions:
REMARK  status: ('A' for Active; 'I' for Inactive)
REMARK    1  A    between atoms: C2_2  and  C3_3 
REMARK    2  A    between atoms: C2_2  and  C9_9 
REMARK    3  A    between atoms: C3_3  and  C4_4 
REMARK    4  A    between atoms: C9_9  and  C10_10 
REMARK    5  A    between atoms: C10_10  and  N1_12 
REMARK    6  A    between atoms: N1_12  and  C12_14 
REMARK    7  A    between atoms: C12_14  and  C14_16 
REMARK    8  A    between atoms: C14_16  and  O1_17 
REMARK    9  A    between atoms: C14_16  and  C15_19 
REMARK   10  A    between atoms: C15_19  and  N2_20 
ROOT
HETATM    1  N1  UNL     1      27.623 -13.355   3.660  1.00  0.00    -0.411 N 
ATOM      2  H1  UNL     1      26.894 -13.419   4.370  1.00  0.00     0.154 HD
ENDROOT
BRANCH   1   3
HETATM    3  C10 UNL     1      27.254 -13.273   2.303  1.00  0.00     0.073 C 
HETATM    4  C11 UNL     1      27.019 -11.924   1.749  1.00  0.00     0.032 C 
BRANCH   3   5
HETATM    5  C9  UNL     1      28.207 -14.136   1.531  1.00  0.00     0.028 C 
BRANCH   5   6
HETATM    6  C2  UNL     1      27.666 -14.784   0.318  1.00  0.00    -0.016 C 
HETATM    7  C1  UNL     1      28.641 -14.490  -0.826  1.00  0.00     0.010 C 
BRANCH   6   8
HETATM    8  C3  UNL     1      27.571 -16.272   0.435  1.00  0.00     0.009 C 
BRANCH   8   9
HETATM    9  C4  UNL     1      26.666 -16.908  -0.563  1.00  0.00    -0.014 C 
HETATM   10  C5  UNL     1      26.115 -18.200  -0.000  1.00  0.00     0.005 C 
HETATM   11  C6  UNL     1      24.616 -17.970   0.058  1.00  0.00     0.000 C 
HETATM   12  C7  UNL     1      24.416 -17.146  -1.211  1.00  0.00     0.000 C 
HETATM   13  C8  UNL     1      25.518 -16.091  -1.011  1.00  0.00     0.005 C 
ENDBRANCH   8   9
ENDBRANCH   6   8
ENDBRANCH   5   6
ENDBRANCH   3   5
ENDBRANCH   1   3
BRANCH   1  14
HETATM   14  C12 UNL     1      28.962 -13.352   4.058  1.00  0.00     0.103 C 
HETATM   15  C13 UNL     1      29.540 -12.025   4.490  1.00  0.00     0.034 C 
BRANCH  14  16
HETATM   16  C14 UNL     1      29.075 -14.270   5.283  1.00  0.00     0.165 C 
BRANCH  16  17
HETATM   17  O1  UNL     1      30.025 -15.236   5.062  1.00  0.00    -0.392 OA
ATOM     18  H1  UNL     1      30.301 -15.219   4.153  1.00  0.00     0.210 HD
ENDBRANCH  16  17
BRANCH  16  19
HETATM   19  C15 UNL     1      29.287 -13.463   6.533  1.00  0.00     0.263 C 
BRANCH  19  20
HETATM   20  N2  UNL     1      30.263 -14.089   7.372  1.00  0.00    -0.077 N 
ATOM     21  H23 UNL     1      29.861 -14.399   8.256  1.00  0.00     0.274 HD
ATOM     22  H22 UNL     1      30.548 -14.998   7.009  1.00  0.00     0.274 HD
ATOM     23  H21 UNL     1      31.061 -13.469   7.513  1.00  0.00     0.274 HD
ENDBRANCH  19  20
ENDBRANCH  16  19
ENDBRANCH  14  16
ENDBRANCH   1  14
TORSDOF 10
ENDMDL
MODEL 2
REMARK VINA RESULT: -5.880795953      4.990      6.914
REMARK  10 active torsions:
REMARK  status: ('A' for Active; 'I' for Inactive)
REMARK    1  A    between atoms: C2_2  and  C3_3 
REMARK    2  A    between atoms: C2_2  and  C9_9 
REMARK    3  A    between atoms: C3_3  and  C4_4 
REMARK    4  A    between atoms: C9_9  and  C10_10 
REMARK    5  A    between atoms: C10_10  and  N1_12 
REMARK    6  A    between atoms: N1_12  and  C12_14 
REMARK    7  A    between atoms: C12_14  and  C14_16 
REMARK    8  A    between atoms: C14_16  and  O1_17 
REMARK    9  A    between atoms: C14_16  and  C15_19 
REMARK   10  A    between atoms: C15_19  and  N2_20 
ROOT
HETATM    1  N1  UNL     1      27.913 -13.770  -3.817  1.00  0.00    -0.411 N 
ATOM      2  H1  UNL     1      28.191 -12.833  -3.526  1.00  0.00     0.154 HD
ENDROOT
BRANCH   1   3
HETATM    3  C10 UNL     1      28.551 -14.886  -3.238  1.00  0.00     0.073 C 
HETATM    4  C11 UNL     1      29.708 -15.451  -3.963  1.00  0.00     0.032 C 
BRANCH   3   5
HETATM    5  C9  UNL     1      28.783 -14.563  -1.792  1.00  0.00     0.028 C 
BRANCH   5   6
HETATM    6  C2  UNL     1      28.173 -15.485  -0.812  1.00  0.00    -0.016 C 
HETATM    7  C1  UNL     1      27.462 -14.626   0.237  1.00  0.00     0.010 C 
BRANCH   6   8
HETATM    8  C3  UNL     1      27.137 -16.383  -1.410  1.00  0.00     0.009 C 
BRANCH   8   9
HETATM    9  C4  UNL     1      25.958 -16.627  -0.533  1.00  0.00    -0.014 C 
HETATM   10  C5  UNL     1      24.684 -16.380  -1.311  1.00  0.00     0.005 C 
HETATM   11  C6  UNL     1      23.984 -17.726  -1.314  1.00  0.00     0.000 C 
HETATM   12  C7  UNL     1      24.343 -18.226   0.082  1.00  0.00     0.000 C 
HETATM   13  C8  UNL     1      25.862 -17.978   0.063  1.00  0.00     0.005 C 
ENDBRANCH   8   9
ENDBRANCH   6   8
ENDBRANCH   5   6
ENDBRANCH   3   5
ENDBRANCH   1   3
BRANCH   1  14
HETATM   14  C12 UNL     1      26.910 -13.914  -4.778  1.00  0.00     0.103 C 
HETATM   15  C13 UNL     1      26.202 -15.247  -4.829  1.00  0.00     0.034 C 
BRANCH  14  16
HETATM   16  C14 UNL     1      25.821 -12.881  -4.458  1.00  0.00     0.165 C 
BRANCH  16  17
HETATM   17  O1  UNL     1      24.640 -13.517  -4.165  1.00  0.00    -0.392 OA
ATOM     18  H1  UNL     1      24.394 -13.349  -3.263  1.00  0.00     0.210 HD
ENDBRANCH  16  17
BRANCH  16  19
HETATM   19  C15 UNL     1      26.292 -11.924  -3.400  1.00  0.00     0.263 C 
BRANCH  19  20
HETATM   20  N2  UNL     1      25.839 -10.597  -3.690  1.00  0.00    -0.077 N 
ATOM     21  H23 UNL     1      24.821 -10.533  -3.680  1.00  0.00     0.274 HD
ATOM     22  H22 UNL     1      26.038  -9.952  -2.926  1.00  0.00     0.274 HD
ATOM     23  H21 UNL     1      26.232 -10.272  -4.574  1.00  0.00     0.274 HD
ENDBRANCH  19  20
ENDBRANCH  16  19
ENDBRANCH  14  16
ENDBRANCH   1  14
TORSDOF 10
ENDMDL
MODEL 3
REMARK VINA RESULT: -5.860178243      4.432      6.179
REMARK  10 active torsions:
REMARK  status: ('A' for Active; 'I' for Inactive)
REMARK    1  A    between atoms: C2_2  and  C3_3 
REMARK    2  A    between atoms: C2_2  and  C9_9 
REMARK    3  A    between atoms: C3_3  and  C4_4 
REMARK    4  A    between atoms: C9_9  and  C10_10 
REMARK    5  A    between atoms: C10_10  and  N1_12 
REMARK    6  A    between atoms: N1_12  and  C12_14 
REMARK    7  A    between atoms: C12_14  and  C14_16 
REMARK    8  A    between atoms: C14_16  and  O1_17 
REMARK    9  A    between atoms: C14_16  and  C15_19 
REMARK   10  A    between atoms: C15_19  and  N2_20 
ROOT
HETATM    1  N1  UNL     1      26.848 -13.041  -1.589  1.00  0.00    -0.411 N 
ATOM      2  H1  UNL     1      26.115 -13.717  -1.806  1.00  0.00     0.154 HD
ENDROOT
BRANCH   1   3
HETATM    3  C10 UNL     1      27.676 -13.263  -0.470  1.00  0.00     0.073 C 
HETATM    4  C11 UNL     1      27.025 -13.277   0.857  1.00  0.00     0.032 C 
BRANCH   3   5
HETATM    5  C9  UNL     1      28.539 -14.448  -0.784  1.00  0.00     0.028 C 
BRANCH   5   6
HETATM    6  C2  UNL     1      27.946 -15.472  -1.669  1.00  0.00    -0.016 C 
HETATM    7  C1  UNL     1      28.960 -15.751  -2.782  1.00  0.00     0.010 C 
BRANCH   6   8
HETATM    8  C3  UNL     1      27.690 -16.774  -0.979  1.00  0.00     0.009 C 
BRANCH   8   9
HETATM    9  C4  UNL     1      26.394 -16.836  -0.248  1.00  0.00    -0.014 C 
HETATM   10  C5  UNL     1      25.295 -16.248  -1.108  1.00  0.00     0.005 C 
HETATM   11  C6  UNL     1      24.338 -17.404  -1.329  1.00  0.00     0.000 C 
HETATM   12  C7  UNL     1      24.425 -18.096   0.029  1.00  0.00     0.000 C 
HETATM   13  C8  UNL     1      25.954 -18.182   0.179  1.00  0.00     0.005 C 
ENDBRANCH   8   9
ENDBRANCH   6   8
ENDBRANCH   5   6
ENDBRANCH   3   5
ENDBRANCH   1   3
BRANCH   1  14
HETATM   14  C12 UNL     1      27.005 -11.921  -2.408  1.00  0.00     0.103 C 
HETATM   15  C13 UNL     1      28.302 -11.815  -3.175  1.00  0.00     0.034 C 
BRANCH  14  16
HETATM   16  C14 UNL     1      25.901 -11.977  -3.472  1.00  0.00     0.165 C 
BRANCH  16  17
HETATM   17  O1  UNL     1      26.037 -10.929  -4.348  1.00  0.00    -0.392 OA
ATOM     18  H1  UNL     1      25.241 -10.409  -4.360  1.00  0.00     0.210 HD
ENDBRANCH  16  17
BRANCH  16  19
HETATM   19  C15 UNL     1      25.859 -13.331  -4.123  1.00  0.00     0.263 C 
BRANCH  19  20
HETATM   20  N2  UNL     1      24.519 -13.834  -4.142  1.00  0.00    -0.077 N 
ATOM     21  H23 UNL     1      24.215 -14.140  -3.219  1.00  0.00     0.274 HD
ATOM     22  H22 UNL     1      23.836 -13.090  -4.288  1.00  0.00     0.274 HD
ATOM     23  H21 UNL     1      24.428 -14.575  -4.838  1.00  0.00     0.274 HD
ENDBRANCH  19  20
ENDBRANCH  16  19
ENDBRANCH  14  16
ENDBRANCH   1  14
TORSDOF 10
ENDMDL
MODEL 4
REMARK VINA RESULT: -5.836468852      6.012      7.546
REMARK  10 active torsions:
REMARK  status: ('A' for Active; 'I' for Inactive)
REMARK    1  A    between atoms: C2_2  and  C3_3 
REMARK    2  A    between atoms: C2_2  and  C9_9 
REMARK    3  A    between atoms: C3_3  and  C4_4 
REMARK    4  A    between atoms: C9_9  and  C10_10 
REMARK    5  A    between atoms: C10_10  and  N1_12 
REMARK    6  A    between atoms: N1_12  and  C12_14 
REMARK    7  A    between atoms: C12_14  and  C14_16 
REMARK    8  A    between atoms: C14_16  and  O1_17 
REMARK    9  A    between atoms: C14_16  and  C15_19 
REMARK   10  A    between atoms: C15_19  and  N2_20 
ROOT
HETATM    1  N1  UNL     1      25.585 -12.602  -4.756  1.00  0.00    -0.411 N 
ATOM      2  H1  UNL     1      24.770 -12.301  -5.291  1.00  0.00     0.154 HD
ENDROOT
BRANCH   1   3
HETATM    3  C10 UNL     1      25.497 -13.765  -3.967  1.00  0.00     0.073 C 
HETATM    4  C11 UNL     1      25.954 -15.031  -4.578  1.00  0.00     0.032 C 
BRANCH   3   5
HETATM    5  C9  UNL     1      26.088 -13.439  -2.628  1.00  0.00     0.028 C 
BRANCH   5   6
HETATM    6  C2  UNL     1      26.985 -14.457  -2.044  1.00  0.00    -0.016 C 
HETATM    7  C1  UNL     1      28.222 -13.723  -1.518  1.00  0.00     0.010 C 
BRANCH   6   8
HETATM    8  C3  UNL     1      26.383 -15.180  -0.882  1.00  0.00     0.009 C 
BRANCH   8   9
HETATM    9  C4  UNL     1      25.791 -16.503  -1.223  1.00  0.00    -0.014 C 
HETATM   10  C5  UNL     1      26.468 -17.589  -0.414  1.00  0.00     0.005 C 
HETATM   11  C6  UNL     1      25.350 -18.175   0.428  1.00  0.00     0.000 C 
HETATM   12  C7  UNL     1      24.191 -18.099  -0.562  1.00  0.00     0.000 C 
HETATM   13  C8  UNL     1      24.332 -16.634  -1.013  1.00  0.00     0.005 C 
ENDBRANCH   8   9
ENDBRANCH   6   8
ENDBRANCH   5   6
ENDBRANCH   3   5
ENDBRANCH   1   3
BRANCH   1  14
HETATM   14  C12 UNL     1      26.759 -11.849  -4.826  1.00  0.00     0.103 C 
HETATM   15  C13 UNL     1      27.723 -12.193  -5.936  1.00  0.00     0.034 C 
BRANCH  14  16
HETATM   16  C14 UNL     1      26.351 -10.390  -5.072  1.00  0.00     0.165 C 
BRANCH  16  17
HETATM   17  O1  UNL     1      25.414 -10.325  -6.074  1.00  0.00    -0.392 OA
ATOM     18  H1  UNL     1      24.597  -9.979  -5.734  1.00  0.00     0.210 HD
ENDBRANCH  16  17
BRANCH  16  19
HETATM   19  C15 UNL     1      25.936  -9.731  -3.788  1.00  0.00     0.263 C 
BRANCH  19  20
HETATM   20  N2  UNL     1      25.067  -8.624  -4.052  1.00  0.00    -0.077 N 
ATOM     21  H23 UNL     1      24.598  -8.299  -3.208  1.00  0.00     0.274 HD
ATOM     22  H22 UNL     1      25.588  -7.776  -4.272  1.00  0.00     0.274 HD
ATOM     23  H21 UNL     1      24.401  -8.863  -4.788  1.00  0.00     0.274 HD
ENDBRANCH  19  20
ENDBRANCH  16  19
ENDBRANCH  14  16
ENDBRANCH   1  14
TORSDOF 10
ENDMDL
MODEL 5
REMARK VINA RESULT: -5.806277677      2.480      4.239
REMARK  10 active torsions:
REMARK  status: ('A' for Active; 'I' for Inactive)
REMARK    1  A    between atoms: C2_2  and  C3_3 
REMARK    2  A    between atoms: C2_2  and  C9_9 
REMARK    3  A    between atoms: C3_3  and  C4_4 
REMARK    4  A    between atoms: C9_9  and  C10_10 
REMARK    5  A    between atoms: C10_10  and  N1_12 
REMARK    6  A    between atoms: N1_12  and  C12_14 
REMARK    7  A    between atoms: C12_14  and  C14_16 
REMARK    8  A    between atoms: C14_16  and  O1_17 
REMARK    9  A    between atoms: C14_16  and  C15_19 
REMARK   10  A    between atoms: C15_19  and  N2_20 
ROOT
HETATM    1  N1  UNL     1      28.107 -15.471   1.056  1.00  0.00    -0.411 N 
ATOM      2  H1  UNL     1      28.114 -16.031   1.909  1.00  0.00     0.154 HD
ENDROOT
BRANCH   1   3
HETATM    3  C10 UNL     1      28.003 -16.121  -0.190  1.00  0.00     0.073 C 
HETATM    4  C11 UNL     1      29.216 -16.790  -0.705  1.00  0.00     0.032 C 
BRANCH   3   5
HETATM    5  C9  UNL     1      26.763 -16.965  -0.148  1.00  0.00     0.028 C 
BRANCH   5   6
HETATM    6  C2  UNL     1      25.812 -16.784  -1.263  1.00  0.00    -0.016 C 
HETATM    7  C1  UNL     1      24.427 -17.182  -0.747  1.00  0.00     0.010 C 
BRANCH   6   8
HETATM    8  C3  UNL     1      25.709 -15.366  -1.728  1.00  0.00     0.009 C 
BRANCH   8   9
HETATM    9  C4  UNL     1      25.873 -15.190  -3.197  1.00  0.00    -0.014 C 
HETATM   10  C5  UNL     1      25.003 -14.047  -3.675  1.00  0.00     0.005 C 
HETATM   11  C6  UNL     1      25.990 -13.034  -4.226  1.00  0.00     0.000 C 
HETATM   12  C7  UNL     1      27.022 -13.969  -4.851  1.00  0.00     0.000 C 
HETATM   13  C8  UNL     1      27.251 -14.928  -3.670  1.00  0.00     0.005 C 
ENDBRANCH   8   9
ENDBRANCH   6   8
ENDBRANCH   5   6
ENDBRANCH   3   5
ENDBRANCH   1   3
BRANCH   1  14
HETATM   14  C12 UNL     1      28.202 -14.082   1.154  1.00  0.00     0.103 C 
HETATM   15  C13 UNL     1      26.907 -13.306   1.104  1.00  0.00     0.034 C 
BRANCH  14  16
HETATM   16  C14 UNL     1      28.822 -13.762   2.521  1.00  0.00     0.165 C 
BRANCH  16  17
HETATM   17  O1  UNL     1      28.318 -14.611   3.476  1.00  0.00    -0.392 OA
ATOM     18  H1  UNL     1      28.684 -14.398   4.327  1.00  0.00     0.210 HD
ENDBRANCH  16  17
BRANCH  16  19
HETATM   19  C15 UNL     1      30.321 -13.744   2.433  1.00  0.00     0.263 C 
BRANCH  19  20
HETATM   20  N2  UNL     1      30.893 -14.528   3.486  1.00  0.00    -0.077 N 
ATOM     21  H23 UNL     1      30.840 -14.051   4.385  1.00  0.00     0.274 HD
ATOM     22  H22 UNL     1      30.317 -15.339   3.711  1.00  0.00     0.274 HD
ATOM     23  H21 UNL     1      31.849 -14.794   3.251  1.00  0.00     0.274 HD
ENDBRANCH  19  20
ENDBRANCH  16  19
ENDBRANCH  14  16
ENDBRANCH   1  14
TORSDOF 10
ENDMDL
