MODEL 1
REMARK VINA RESULT: -6.825779856      0.000      0.000
REMARK  9 active torsions:
REMARK  status: ('A' for Active; 'I' for Inactive)
REMARK    1  A    between atoms: C2_2  and  N1_5 
REMARK    2  A    between atoms: N1_5  and  C5_7 
REMARK    3  A    between atoms: C5_7  and  C6_8 
REMARK    4  A    between atoms: C5_7  and  N2_26 
REMARK    5  A    between atoms: C7_9  and  C8_10 
REMARK    6  A    between atoms: C8_10  and  C9_11 
REMARK    7  A    between atoms: C14_16  and  C15_17 
REMARK    8  A    between atoms: C20_22  and  O1_23 
REMARK    9  A    between atoms: N2_26  and  O3_27 
ROOT
HETATM    1  C9  UNL     1      27.960 -12.579   1.873  1.00  0.00     0.085 A 
HETATM    2  C10 UNL     1      27.503 -11.384   1.067  1.00  0.00     0.051 C 
HETATM    3  C11 UNL     1      29.369 -12.922   1.684  1.00  0.00     0.014 A 
HETATM    4  C12 UNL     1      29.482 -14.087   1.086  1.00  0.00     0.035 A 
HETATM    5  C13 UNL     1      28.143 -14.629   0.822  1.00  0.00     0.066 A 
HETATM    6  C14 UNL     1      27.894 -15.808   0.222  1.00  0.00     0.017 C 
HETATM    7  O2  UNL     1      27.259 -13.704   1.306  1.00  0.00    -0.337 OA
ENDROOT
BRANCH   1   8
HETATM    8  C8  UNL     1      27.587 -12.404   3.302  1.00  0.00     0.070 C 
BRANCH   8   9
HETATM    9  C7  UNL     1      28.499 -13.061   4.245  1.00  0.00    -0.018 C 
HETATM   10  C6  UNL     1      28.270 -13.677   5.357  1.00  0.00     0.062 C 
BRANCH  10  11
HETATM   11  C5  UNL     1      29.362 -14.266   6.147  1.00  0.00     0.208 C 
BRANCH  11  12
HETATM   12  N1  UNL     1      29.120 -14.454   7.548  1.00  0.00    -0.355 N 
ATOM     13  H1  UNL     1      28.609 -15.290   7.832  1.00  0.00     0.163 HD
BRANCH  12  14
HETATM   14  C2  UNL     1      29.543 -13.552   8.578  1.00  0.00     0.021 C 
HETATM   15  C1  UNL     1      29.002 -12.168   8.350  1.00  0.00     0.037 C 
HETATM   16  C3  UNL     1      31.065 -13.467   8.655  1.00  0.00     0.037 C 
HETATM   17  C4  UNL     1      29.078 -14.111   9.916  1.00  0.00     0.037 C 
ENDBRANCH  12  14
ENDBRANCH  11  12
BRANCH  11  18
HETATM   18  N2  UNL     1      30.398 -14.569   5.629  1.00  0.00    -0.265 NA
BRANCH  18  19
HETATM   19  O3  UNL     1      31.329 -14.996   4.875  1.00  0.00    -0.217 OA
ATOM     20  H3  UNL     1      32.079 -15.429   4.483  1.00  0.00     0.261 HD
ENDBRANCH  18  19
ENDBRANCH  11  18
ENDBRANCH  10  11
ENDBRANCH   8   9
ENDBRANCH   1   8
BRANCH   6  21
HETATM   21  C15 UNL     1      26.517 -16.297  -0.018  1.00  0.00     0.040 C 
HETATM   22  C16 UNL     1      26.416 -17.791  -0.117  1.00  0.00     0.011 C 
HETATM   23  C17 UNL     1      24.916 -18.115  -0.065  1.00  0.00     0.001 C 
HETATM   24  C18 UNL     1      24.279 -17.571  -1.318  1.00  0.00     0.002 C 
HETATM   25  C19 UNL     1      24.539 -16.104  -1.504  1.00  0.00     0.032 C 
HETATM   26  C20 UNL     1      25.920 -15.642  -1.250  1.00  0.00     0.126 C 
BRANCH  26  27
HETATM   27  O1  UNL     1      26.775 -15.664  -2.336  1.00  0.00    -0.395 OA
ATOM     28  H1  UNL     1      27.234 -14.841  -2.459  1.00  0.00     0.210 HD
ENDBRANCH  26  27
ENDBRANCH   6  21
TORSDOF 9
ENDMDL
MODEL 2
REMARK VINA RESULT: -6.680712165      6.536      8.775
REMARK  9 active torsions:
REMARK  status: ('A' for Active; 'I' for Inactive)
REMARK    1  A    between atoms: C2_2  and  N1_5 
REMARK    2  A    between atoms: N1_5  and  C5_7 
REMARK    3  A    between atoms: C5_7  and  C6_8 
REMARK    4  A    between atoms: C5_7  and  N2_26 
REMARK    5  A    between atoms: C7_9  and  C8_10 
REMARK    6  A    between atoms: C8_10  and  C9_11 
REMARK    7  A    between atoms: C14_16  and  C15_17 
REMARK    8  A    between atoms: C20_22  and  O1_23 
REMARK    9  A    between atoms: N2_26  and  O3_27 
ROOT
HETATM    1  C9  UNL     1      27.632 -13.371  -4.416  1.00  0.00     0.085 A 
HETATM    2  C10 UNL     1      28.937 -13.009  -3.745  1.00  0.00     0.051 C 
HETATM    3  C11 UNL     1      26.640 -12.297  -4.411  1.00  0.00     0.014 A 
HETATM    4  C12 UNL     1      25.611 -12.624  -3.664  1.00  0.00     0.035 A 
HETATM    5  C13 UNL     1      25.827 -13.961  -3.098  1.00  0.00     0.066 A 
HETATM    6  C14 UNL     1      24.966 -14.603  -2.285  1.00  0.00     0.017 C 
HETATM    7  O2  UNL     1      27.042 -14.378  -3.568  1.00  0.00    -0.337 OA
ENDROOT
BRANCH   1   8
HETATM    8  C8  UNL     1      27.890 -13.925  -5.772  1.00  0.00     0.070 C 
BRANCH   8   9
HETATM    9  C7  UNL     1      28.747 -15.116  -5.779  1.00  0.00    -0.018 C 
HETATM   10  C6  UNL     1      29.879 -15.342  -6.359  1.00  0.00     0.062 C 
BRANCH  10  11
HETATM   11  C5  UNL     1      30.565 -16.637  -6.223  1.00  0.00     0.208 C 
BRANCH  11  12
HETATM   12  N1  UNL     1      30.303 -17.387  -5.030  1.00  0.00    -0.355 N 
ATOM     13  H1  UNL     1      29.597 -18.121  -5.077  1.00  0.00     0.163 HD
BRANCH  12  14
HETATM   14  C2  UNL     1      30.962 -17.179  -3.774  1.00  0.00     0.021 C 
HETATM   15  C1  UNL     1      30.013 -16.639  -2.741  1.00  0.00     0.037 C 
HETATM   16  C3  UNL     1      32.129 -16.205  -3.911  1.00  0.00     0.037 C 
HETATM   17  C4  UNL     1      31.562 -18.506  -3.330  1.00  0.00     0.037 C 
ENDBRANCH  12  14
ENDBRANCH  11  12
BRANCH  11  18
HETATM   18  N2  UNL     1      31.303 -17.031  -7.080  1.00  0.00    -0.265 NA
BRANCH  18  19
HETATM   19  O3  UNL     1      32.194 -17.186  -7.975  1.00  0.00    -0.217 OA
ATOM     20  H3  UNL     1      32.712 -17.427  -8.733  1.00  0.00     0.261 HD
ENDBRANCH  18  19
ENDBRANCH  11  18
ENDBRANCH  10  11
ENDBRANCH   8   9
ENDBRANCH   1   8
BRANCH   6  21
HETATM   21  C15 UNL     1      25.246 -15.953  -1.744  1.00  0.00     0.040 C 
HETATM   22  C16 UNL     1      24.122 -16.520  -0.928  1.00  0.00     0.011 C 
HETATM   23  C17 UNL     1      24.466 -18.001  -0.713  1.00  0.00     0.001 C 
HETATM   24  C18 UNL     1      25.693 -18.073   0.160  1.00  0.00     0.002 C 
HETATM   25  C19 UNL     1      26.847 -17.297  -0.408  1.00  0.00     0.032 C 
HETATM   26  C20 UNL     1      26.538 -15.956  -0.948  1.00  0.00     0.126 C 
BRANCH  26  27
HETATM   27  O1  UNL     1      26.615 -14.909  -0.048  1.00  0.00    -0.395 OA
ATOM     28  H1  UNL     1      27.508 -14.629   0.115  1.00  0.00     0.210 HD
ENDBRANCH  26  27
ENDBRANCH   6  21
TORSDOF 9
ENDMDL
MODEL 3
REMARK VINA RESULT: -6.562075971      1.495      1.872
REMARK  9 active torsions:
REMARK  status: ('A' for Active; 'I' for Inactive)
REMARK    1  A    between atoms: C2_2  and  N1_5 
REMARK    2  A    between atoms: N1_5  and  C5_7 
REMARK    3  A    between atoms: C5_7  and  C6_8 
REMARK    4  A    between atoms: C5_7  and  N2_26 
REMARK    5  A    between atoms: C7_9  and  C8_10 
REMARK    6  A    between atoms: C8_10  and  C9_11 
REMARK    7  A    between atoms: C14_16  and  C15_17 
REMARK    8  A    between atoms: C20_22  and  O1_23 
REMARK    9  A    between atoms: N2_26  and  O3_27 
ROOT
HETATM    1  C9  UNL     1      27.825 -11.826   1.206  1.00  0.00     0.085 A 
HETATM    2  C10 UNL     1      26.744 -11.071   1.945  1.00  0.00     0.051 C 
HETATM    3  C11 UNL     1      28.209 -11.223  -0.070  1.00  0.00     0.014 A 
HETATM    4  C12 UNL     1      27.867 -12.004  -1.069  1.00  0.00     0.035 A 
HETATM    5  C13 UNL     1      27.219 -13.211  -0.543  1.00  0.00     0.066 A 
HETATM    6  C14 UNL     1      26.746 -14.223  -1.295  1.00  0.00     0.017 C 
HETATM    7  O2  UNL     1      27.211 -13.072   0.818  1.00  0.00    -0.337 OA
ENDROOT
BRANCH   1   8
HETATM    8  C8  UNL     1      28.980 -12.079   2.107  1.00  0.00     0.070 C 
BRANCH   8   9
HETATM    9  C7  UNL     1      28.618 -12.696   3.388  1.00  0.00    -0.018 C 
HETATM   10  C6  UNL     1      28.954 -12.395   4.599  1.00  0.00     0.062 C 
BRANCH  10  11
HETATM   11  C5  UNL     1      28.459 -13.171   5.747  1.00  0.00     0.208 C 
BRANCH  11  12
HETATM   12  N1  UNL     1      28.244 -12.454   6.970  1.00  0.00    -0.355 N 
ATOM     13  H1  UNL     1      27.304 -12.106   7.155  1.00  0.00     0.163 HD
BRANCH  12  14
HETATM   14  C2  UNL     1      29.256 -12.189   7.950  1.00  0.00     0.021 C 
HETATM   15  C1  UNL     1      29.708 -10.757   7.897  1.00  0.00     0.037 C 
HETATM   16  C3  UNL     1      30.474 -13.086   7.750  1.00  0.00     0.037 C 
HETATM   17  C4  UNL     1      28.688 -12.537   9.320  1.00  0.00     0.037 C 
ENDBRANCH  12  14
ENDBRANCH  11  12
BRANCH  11  18
HETATM   18  N2  UNL     1      28.251 -14.346   5.648  1.00  0.00    -0.265 NA
BRANCH  18  19
HETATM   19  O3  UNL     1      27.869 -15.515   5.320  1.00  0.00    -0.217 OA
ATOM     20  H3  UNL     1      27.702 -16.446   5.243  1.00  0.00     0.261 HD
ENDBRANCH  18  19
ENDBRANCH  11  18
ENDBRANCH  10  11
ENDBRANCH   8   9
ENDBRANCH   1   8
BRANCH   6  21
HETATM   21  C15 UNL     1      26.097 -15.414  -0.701  1.00  0.00     0.040 C 
HETATM   22  C16 UNL     1      26.902 -16.672  -0.844  1.00  0.00     0.011 C 
HETATM   23  C17 UNL     1      26.229 -17.707   0.070  1.00  0.00     0.001 C 
HETATM   24  C18 UNL     1      24.867 -18.015  -0.499  1.00  0.00     0.002 C 
HETATM   25  C19 UNL     1      24.028 -16.783  -0.680  1.00  0.00     0.032 C 
HETATM   26  C20 UNL     1      24.703 -15.606  -1.268  1.00  0.00     0.126 C 
BRANCH  26  27
HETATM   27  O1  UNL     1      24.668 -15.515  -2.647  1.00  0.00    -0.395 OA
ATOM     28  H1  UNL     1      24.730 -14.620  -2.958  1.00  0.00     0.210 HD
ENDBRANCH  26  27
ENDBRANCH   6  21
TORSDOF 9
ENDMDL
MODEL 4
REMARK VINA RESULT: -6.498166679      5.051      9.204
REMARK  9 active torsions:
REMARK  status: ('A' for Active; 'I' for Inactive)
REMARK    1  A    between atoms: C2_2  and  N1_5 
REMARK    2  A    between atoms: N1_5  and  C5_7 
REMARK    3  A    between atoms: C5_7  and  C6_8 
REMARK    4  A    between atoms: C5_7  and  N2_26 
REMARK    5  A    between atoms: C7_9  and  C8_10 
REMARK    6  A    between atoms: C8_10  and  C9_11 
REMARK    7  A    between atoms: C14_16  and  C15_17 
REMARK    8  A    between atoms: C20_22  and  O1_23 
REMARK    9  A    between atoms: N2_26  and  O3_27 
ROOT
HETATM    1  C9  UNL     1      24.546 -16.832  -0.775  1.00  0.00     0.085 A 
HETATM    2  C10 UNL     1      24.864 -18.120  -0.049  1.00  0.00     0.051 C 
HETATM    3  C11 UNL     1      25.112 -16.752  -2.122  1.00  0.00     0.014 A 
HETATM    4  C12 UNL     1      26.029 -15.813  -2.180  1.00  0.00     0.035 A 
HETATM    5  C13 UNL     1      26.157 -15.176  -0.863  1.00  0.00     0.066 A 
HETATM    6  C14 UNL     1      27.007 -14.173  -0.572  1.00  0.00     0.017 C 
HETATM    7  O2  UNL     1      25.258 -15.809  -0.049  1.00  0.00    -0.337 OA
ENDROOT
BRANCH   1   8
HETATM    8  C8  UNL     1      23.084 -16.571  -0.736  1.00  0.00     0.070 C 
BRANCH   8   9
HETATM    9  C7  UNL     1      22.264 -17.775  -0.557  1.00  0.00    -0.018 C 
HETATM   10  C6  UNL     1      21.304 -18.030   0.269  1.00  0.00     0.062 C 
BRANCH  10  11
HETATM   11  C5  UNL     1      20.616 -19.332   0.266  1.00  0.00     0.208 C 
BRANCH  11  12
HETATM   12  N1  UNL     1      20.459 -19.984   1.534  1.00  0.00    -0.355 N 
ATOM     13  H1  UNL     1      21.277 -20.442   1.935  1.00  0.00     0.163 HD
BRANCH  12  14
HETATM   14  C2  UNL     1      19.235 -20.039   2.277  1.00  0.00     0.021 C 
HETATM   15  C1  UNL     1      18.295 -21.065   1.708  1.00  0.00     0.037 C 
HETATM   16  C3  UNL     1      18.525 -18.688   2.284  1.00  0.00     0.037 C 
HETATM   17  C4  UNL     1      19.577 -20.350   3.728  1.00  0.00     0.037 C 
ENDBRANCH  12  14
ENDBRANCH  11  12
BRANCH  11  18
HETATM   18  N2  UNL     1      20.213 -19.809  -0.755  1.00  0.00    -0.265 NA
BRANCH  18  19
HETATM   19  O3  UNL     1      19.849 -20.060  -1.948  1.00  0.00    -0.217 OA
ATOM     20  H3  UNL     1      19.386 -20.192  -2.767  1.00  0.00     0.261 HD
ENDBRANCH  18  19
ENDBRANCH  11  18
ENDBRANCH  10  11
ENDBRANCH   8   9
ENDBRANCH   1   8
BRANCH   6  21
HETATM   21  C15 UNL     1      27.090 -13.576   0.781  1.00  0.00     0.040 C 
HETATM   22  C16 UNL     1      27.530 -12.142   0.780  1.00  0.00     0.011 C 
HETATM   23  C17 UNL     1      27.272 -11.623   2.202  1.00  0.00     0.001 C 
HETATM   24  C18 UNL     1      28.207 -12.345   3.138  1.00  0.00     0.002 C 
HETATM   25  C19 UNL     1      28.074 -13.839   3.043  1.00  0.00     0.032 C 
HETATM   26  C20 UNL     1      27.985 -14.407   1.682  1.00  0.00     0.126 C 
BRANCH  26  27
HETATM   27  O1  UNL     1      29.187 -14.739   1.084  1.00  0.00    -0.395 OA
ATOM     28  H1  UNL     1      29.373 -14.213   0.315  1.00  0.00     0.210 HD
ENDBRANCH  26  27
ENDBRANCH   6  21
TORSDOF 9
ENDMDL
MODEL 5
REMARK VINA RESULT: -6.449797122      2.335      2.829
REMARK  9 active torsions:
REMARK  status: ('A' for Active; 'I' for Inactive)
REMARK    1  A    between atoms: C2_2  and  N1_5 
REMARK    2  A    between atoms: N1_5  and  C5_7 
REMARK    3  A    between atoms: C5_7  and  C6_8 
REMARK    4  A    between atoms: C5_7  and  N2_26 
REMARK    5  A    between atoms: C7_9  and  C8_10 
REMARK    6  A    between atoms: C8_10  and  C9_11 
REMARK    7  A    between atoms: C14_16  and  C15_17 
REMARK    8  A    between atoms: C20_22  and  O1_23 
REMARK    9  A    between atoms: N2_26  and  O3_27 
ROOT
HETATM    1  C9  UNL     1      28.245 -13.192   2.932  1.00  0.00     0.085 A 
HETATM    2  C10 UNL     1      27.559 -11.855   2.768  1.00  0.00     0.051 C 
HETATM    3  C11 UNL     1      29.610 -13.231   2.407  1.00  0.00     0.014 A 
HETATM    4  C12 UNL     1      29.682 -14.038   1.373  1.00  0.00     0.035 A 
HETATM    5  C13 UNL     1      28.358 -14.617   1.115  1.00  0.00     0.066 A 
HETATM    6  C14 UNL     1      28.077 -15.488   0.127  1.00  0.00     0.017 C 
HETATM    7  O2  UNL     1      27.525 -14.091   2.064  1.00  0.00    -0.337 OA
ENDROOT
BRANCH   1   8
HETATM    8  C8  UNL     1      28.147 -13.648   4.343  1.00  0.00     0.070 C 
BRANCH   8   9
HETATM    9  C7  UNL     1      28.505 -12.623   5.331  1.00  0.00    -0.018 C 
HETATM   10  C6  UNL     1      28.422 -12.623   6.620  1.00  0.00     0.062 C 
BRANCH  10  11
HETATM   11  C5  UNL     1      28.847 -11.460   7.415  1.00  0.00     0.208 C 
BRANCH  11  12
HETATM   12  N1  UNL     1      29.511 -10.401   6.711  1.00  0.00    -0.355 N 
ATOM     13  H1  UNL     1      28.933  -9.755   6.174  1.00  0.00     0.163 HD
BRANCH  12  14
HETATM   14  C2  UNL     1      30.928 -10.186   6.708  1.00  0.00     0.021 C 
HETATM   15  C1  UNL     1      31.675 -11.458   7.000  1.00  0.00     0.037 C 
HETATM   16  C3  UNL     1      31.336  -9.141   7.742  1.00  0.00     0.037 C 
HETATM   17  C4  UNL     1      31.316  -9.619   5.349  1.00  0.00     0.037 C 
ENDBRANCH  12  14
ENDBRANCH  11  12
BRANCH  11  18
HETATM   18  N2  UNL     1      28.640 -11.415   8.593  1.00  0.00    -0.265 NA
BRANCH  18  19
HETATM   19  O3  UNL     1      28.290 -11.618   9.800  1.00  0.00    -0.217 OA
ATOM     20  H3  UNL     1      28.200 -11.896  10.704  1.00  0.00     0.261 HD
ENDBRANCH  18  19
ENDBRANCH  11  18
ENDBRANCH  10  11
ENDBRANCH   8   9
ENDBRANCH   1   8
BRANCH   6  21
HETATM   21  C15 UNL     1      26.716 -16.033  -0.082  1.00  0.00     0.040 C 
HETATM   22  C16 UNL     1      26.685 -17.522  -0.267  1.00  0.00     0.011 C 
HETATM   23  C17 UNL     1      25.206 -17.926  -0.169  1.00  0.00     0.001 C 
HETATM   24  C18 UNL     1      24.485 -17.343  -1.359  1.00  0.00     0.002 C 
HETATM   25  C19 UNL     1      24.664 -15.856  -1.466  1.00  0.00     0.032 C 
HETATM   26  C20 UNL     1      26.031 -15.338  -1.245  1.00  0.00     0.126 C 
BRANCH  26  27
HETATM   27  O1  UNL     1      26.835 -15.253  -2.367  1.00  0.00    -0.395 OA
ATOM     28  H1  UNL     1      27.389 -14.481  -2.364  1.00  0.00     0.210 HD
ENDBRANCH  26  27
ENDBRANCH   6  21
TORSDOF 9
ENDMDL
