MODEL 1
REMARK VINA RESULT: -7.990714279      0.000      0.000
REMARK  7 active torsions:
REMARK  status: ('A' for Active; 'I' for Inactive)
REMARK    1  A    between atoms: C4_4  and  C5_5 
REMARK    2  A    between atoms: C7_7  and  O1_9 
REMARK    3  A    between atoms: C9_11  and  C11_13 
REMARK    4  A    between atoms: C17_20  and  C18_21 
REMARK    5  A    between atoms: C19_22  and  C20_23 
REMARK    6  A    between atoms: C20_23  and  O3_24 
REMARK    7  A    between atoms: N1_26  and  O4_28 
ROOT
HETATM    1  C1  UNL     1      22.248 -15.230  -1.403  1.00  0.00     0.049 C 
HETATM    2  C2  UNL     1      23.435 -16.062  -0.989  1.00  0.00    -0.051 A 
HETATM    3  C3  UNL     1      24.719 -15.629  -1.202  1.00  0.00     0.018 A 
HETATM    4  C4  UNL     1      25.842 -16.344  -0.845  1.00  0.00    -0.023 A 
HETATM    5  C14 UNL     1      25.647 -17.574  -0.234  1.00  0.00    -0.052 A 
HETATM    6  C15 UNL     1      26.838 -18.336   0.147  1.00  0.00     0.049 C 
HETATM    7  C16 UNL     1      24.367 -18.021  -0.013  1.00  0.00     0.019 A 
HETATM    8  C17 UNL     1      23.250 -17.284  -0.381  1.00  0.00    -0.030 A 
ENDROOT
BRANCH   4   9
HETATM    9  C5  UNL     1      27.151 -15.784  -1.114  1.00  0.00     0.159 C 
HETATM   10  C6  UNL     1      27.073 -14.273  -1.086  1.00  0.00     0.077 C 
HETATM   11  C7  UNL     1      28.449 -13.971  -1.728  1.00  0.00     0.088 C 
HETATM   12  C8  UNL     1      28.334 -12.571  -2.278  1.00  0.00     0.049 C 
HETATM   13  C9  UNL     1      28.498 -15.032  -2.759  1.00  0.00     0.091 C 
HETATM   14  C10 UNL     1      27.766 -14.581  -4.030  1.00  0.00     0.049 C 
HETATM   15  O2  UNL     1      27.768 -16.121  -2.292  1.00  0.00    -0.367 OA
BRANCH  11  16
HETATM   16  O1  UNL     1      29.403 -14.105  -0.756  1.00  0.00    -0.387 OA
ATOM     17  H1  UNL     1      29.750 -14.988  -0.809  1.00  0.00     0.210 HD
ENDBRANCH  11  16
BRANCH  13  18
HETATM   18  C11 UNL     1      29.905 -15.371  -3.125  1.00  0.00     0.015 C 
HETATM   19  C12 UNL     1      30.193 -15.031  -4.593  1.00  0.00     0.012 C 
HETATM   20  C13 UNL     1      30.250 -16.839  -2.997  1.00  0.00     0.012 C 
ENDBRANCH  13  18
ENDBRANCH   4   9
BRANCH   8  21
HETATM   21  C18 UNL     1      21.896 -17.761  -0.148  1.00  0.00     0.016 C 
HETATM   22  C19 UNL     1      21.503 -19.009  -0.229  1.00  0.00     0.058 C 
BRANCH  22  23
HETATM   23  C20 UNL     1      20.127 -19.415   0.019  1.00  0.00     0.159 C 
HETATM   24  N1  UNL     1      19.610 -19.518   1.173  1.00  0.00    -0.248 N 
ATOM     25  H1  UNL     1      18.635 -19.812   1.226  1.00  0.00     0.196 HD
BRANCH  23  26
HETATM   26  O3  UNL     1      19.323 -19.711  -1.078  1.00  0.00    -0.345 OA
ATOM     27  H3  UNL     1      19.404 -19.167  -1.853  1.00  0.00     0.219 HD
ENDBRANCH  23  26
BRANCH  24  28
HETATM   28  O4  UNL     1      20.258 -19.266   2.355  1.00  0.00    -0.288 OA
ATOM     29  H4  UNL     1      20.746 -19.906   2.859  1.00  0.00     0.244 HD
ENDBRANCH  24  28
ENDBRANCH  22  23
ENDBRANCH   8  21
TORSDOF 7
ENDMDL
MODEL 2
REMARK VINA RESULT: -7.801901096      1.450      2.051
REMARK  7 active torsions:
REMARK  status: ('A' for Active; 'I' for Inactive)
REMARK    1  A    between atoms: C4_4  and  C5_5 
REMARK    2  A    between atoms: C7_7  and  O1_9 
REMARK    3  A    between atoms: C9_11  and  C11_13 
REMARK    4  A    between atoms: C17_20  and  C18_21 
REMARK    5  A    between atoms: C19_22  and  C20_23 
REMARK    6  A    between atoms: C20_23  and  O3_24 
REMARK    7  A    between atoms: N1_26  and  O4_28 
ROOT
HETATM    1  C1  UNL     1      22.255 -15.696  -1.158  1.00  0.00     0.049 C 
HETATM    2  C2  UNL     1      23.692 -16.141  -1.062  1.00  0.00    -0.051 A 
HETATM    3  C3  UNL     1      24.704 -15.415  -1.638  1.00  0.00     0.018 A 
HETATM    4  C4  UNL     1      26.035 -15.771  -1.583  1.00  0.00    -0.023 A 
HETATM    5  C14 UNL     1      26.356 -16.935  -0.900  1.00  0.00    -0.052 A 
HETATM    6  C15 UNL     1      27.768 -17.315  -0.839  1.00  0.00     0.049 C 
HETATM    7  C16 UNL     1      25.354 -17.672  -0.317  1.00  0.00     0.019 A 
HETATM    8  C17 UNL     1      24.020 -17.295  -0.386  1.00  0.00    -0.030 A 
ENDROOT
BRANCH   4   9
HETATM    9  C5  UNL     1      27.019 -14.923  -2.225  1.00  0.00     0.159 C 
HETATM   10  C6  UNL     1      26.935 -13.525  -1.654  1.00  0.00     0.077 C 
HETATM   11  C7  UNL     1      27.796 -12.801  -2.719  1.00  0.00     0.088 C 
HETATM   12  C8  UNL     1      27.391 -11.350  -2.640  1.00  0.00     0.049 C 
HETATM   13  C9  UNL     1      27.341 -13.498  -3.943  1.00  0.00     0.091 C 
HETATM   14  C10 UNL     1      26.060 -12.851  -4.486  1.00  0.00     0.049 C 
HETATM   15  O2  UNL     1      26.967 -14.791  -3.589  1.00  0.00    -0.367 OA
BRANCH  11  16
HETATM   16  O1  UNL     1      29.111 -13.025  -2.416  1.00  0.00    -0.387 OA
ATOM     17  H1  UNL     1      29.370 -12.390  -1.758  1.00  0.00     0.210 HD
ENDBRANCH  11  16
BRANCH  13  18
HETATM   18  C11 UNL     1      28.380 -13.451  -5.014  1.00  0.00     0.015 C 
HETATM   19  C12 UNL     1      28.046 -12.381  -6.062  1.00  0.00     0.012 C 
HETATM   20  C13 UNL     1      28.523 -14.733  -5.806  1.00  0.00     0.012 C 
ENDBRANCH  13  18
ENDBRANCH   4   9
BRANCH   8  21
HETATM   21  C18 UNL     1      22.960 -18.079   0.232  1.00  0.00     0.016 C 
HETATM   22  C19 UNL     1      21.817 -18.388  -0.329  1.00  0.00     0.058 C 
BRANCH  22  23
HETATM   23  C20 UNL     1      20.800 -19.178   0.350  1.00  0.00     0.159 C 
HETATM   24  N1  UNL     1      19.893 -19.836  -0.244  1.00  0.00    -0.248 N 
ATOM     25  H1  UNL     1      19.233 -20.354   0.336  1.00  0.00     0.196 HD
BRANCH  23  26
HETATM   26  O3  UNL     1      20.820 -19.216   1.742  1.00  0.00    -0.345 OA
ATOM     27  H3  UNL     1      20.051 -18.912   2.209  1.00  0.00     0.219 HD
ENDBRANCH  23  26
BRANCH  24  28
HETATM   28  O4  UNL     1      19.729 -19.907  -1.604  1.00  0.00    -0.288 OA
ATOM     29  H4  UNL     1      18.894 -19.976  -2.051  1.00  0.00     0.244 HD
ENDBRANCH  24  28
ENDBRANCH  22  23
ENDBRANCH   8  21
TORSDOF 7
ENDMDL
MODEL 3
REMARK VINA RESULT: -7.730347504      0.453      1.086
REMARK  7 active torsions:
REMARK  status: ('A' for Active; 'I' for Inactive)
REMARK    1  A    between atoms: C4_4  and  C5_5 
REMARK    2  A    between atoms: C7_7  and  O1_9 
REMARK    3  A    between atoms: C9_11  and  C11_13 
REMARK    4  A    between atoms: C17_20  and  C18_21 
REMARK    5  A    between atoms: C19_22  and  C20_23 
REMARK    6  A    between atoms: C20_23  and  O3_24 
REMARK    7  A    between atoms: N1_26  and  O4_28 
ROOT
HETATM    1  C1  UNL     1      22.247 -15.288  -1.374  1.00  0.00     0.049 C 
HETATM    2  C2  UNL     1      23.427 -16.127  -0.955  1.00  0.00    -0.051 A 
HETATM    3  C3  UNL     1      24.714 -15.687  -1.129  1.00  0.00     0.018 A 
HETATM    4  C4  UNL     1      25.831 -16.409  -0.766  1.00  0.00    -0.023 A 
HETATM    5  C14 UNL     1      25.626 -17.654  -0.189  1.00  0.00    -0.052 A 
HETATM    6  C15 UNL     1      26.810 -18.423   0.198  1.00  0.00     0.049 C 
HETATM    7  C16 UNL     1      24.342 -18.108  -0.007  1.00  0.00     0.019 A 
HETATM    8  C17 UNL     1      23.232 -17.365  -0.381  1.00  0.00    -0.030 A 
ENDROOT
BRANCH   4   9
HETATM    9  C5  UNL     1      27.144 -15.840  -0.994  1.00  0.00     0.159 C 
HETATM   10  C6  UNL     1      27.063 -14.331  -0.923  1.00  0.00     0.077 C 
HETATM   11  C7  UNL     1      28.451 -14.008  -1.529  1.00  0.00     0.088 C 
HETATM   12  C8  UNL     1      28.345 -12.594  -2.041  1.00  0.00     0.049 C 
HETATM   13  C9  UNL     1      28.522 -15.040  -2.590  1.00  0.00     0.091 C 
HETATM   14  C10 UNL     1      27.814 -14.552  -3.861  1.00  0.00     0.049 C 
HETATM   15  O2  UNL     1      27.784 -16.142  -2.169  1.00  0.00    -0.367 OA
BRANCH  11  16
HETATM   16  O1  UNL     1      29.386 -14.170  -0.543  1.00  0.00    -0.387 OA
ATOM     17  H1  UNL     1      29.196 -14.985  -0.093  1.00  0.00     0.210 HD
ENDBRANCH  11  16
BRANCH  13  18
HETATM   18  C11 UNL     1      29.936 -15.367  -2.938  1.00  0.00     0.015 C 
HETATM   19  C12 UNL     1      30.237 -15.032  -4.405  1.00  0.00     0.012 C 
HETATM   20  C13 UNL     1      30.293 -16.831  -2.798  1.00  0.00     0.012 C 
ENDBRANCH  13  18
ENDBRANCH   4   9
BRANCH   8  21
HETATM   21  C18 UNL     1      21.874 -17.849  -0.188  1.00  0.00     0.016 C 
HETATM   22  C19 UNL     1      21.543 -18.977   0.392  1.00  0.00     0.058 C 
BRANCH  22  23
HETATM   23  C20 UNL     1      20.159 -19.399   0.551  1.00  0.00     0.159 C 
HETATM   24  N1  UNL     1      19.427 -19.819  -0.396  1.00  0.00    -0.248 N 
ATOM     25  H1  UNL     1      18.470 -20.087  -0.166  1.00  0.00     0.196 HD
BRANCH  23  26
HETATM   26  O3  UNL     1      19.597 -19.338   1.824  1.00  0.00    -0.345 OA
ATOM     27  H3  UNL     1      18.783 -19.803   1.976  1.00  0.00     0.219 HD
ENDBRANCH  23  26
BRANCH  24  28
HETATM   28  O4  UNL     1      19.820 -19.941  -1.704  1.00  0.00    -0.288 OA
ATOM     29  H4  UNL     1      19.339 -20.407  -2.379  1.00  0.00     0.244 HD
ENDBRANCH  24  28
ENDBRANCH  22  23
ENDBRANCH   8  21
TORSDOF 7
ENDMDL
MODEL 4
REMARK VINA RESULT: -7.660887074      1.466      2.949
REMARK  7 active torsions:
REMARK  status: ('A' for Active; 'I' for Inactive)
REMARK    1  A    between atoms: C4_4  and  C5_5 
REMARK    2  A    between atoms: C7_7  and  O1_9 
REMARK    3  A    between atoms: C9_11  and  C11_13 
REMARK    4  A    between atoms: C17_20  and  C18_21 
REMARK    5  A    between atoms: C19_22  and  C20_23 
REMARK    6  A    between atoms: C20_23  and  O3_24 
REMARK    7  A    between atoms: N1_26  and  O4_28 
ROOT
HETATM    1  C1  UNL     1      25.978 -18.535   0.346  1.00  0.00     0.049 C 
HETATM    2  C2  UNL     1      25.625 -17.348  -0.514  1.00  0.00    -0.051 A 
HETATM    3  C3  UNL     1      26.595 -16.610  -1.143  1.00  0.00     0.018 A 
HETATM    4  C4  UNL     1      26.335 -15.516  -1.941  1.00  0.00    -0.023 A 
HETATM    5  C14 UNL     1      25.007 -15.152  -2.110  1.00  0.00    -0.052 A 
HETATM    6  C15 UNL     1      24.726 -13.991  -2.957  1.00  0.00     0.049 C 
HETATM    7  C16 UNL     1      24.024 -15.882  -1.487  1.00  0.00     0.019 A 
HETATM    8  C17 UNL     1      24.309 -16.979  -0.687  1.00  0.00    -0.030 A 
ENDROOT
BRANCH   4   9
HETATM    9  C5  UNL     1      27.440 -14.815  -2.561  1.00  0.00     0.159 C 
HETATM   10  C6  UNL     1      27.493 -15.150  -4.035  1.00  0.00     0.077 C 
HETATM   11  C7  UNL     1      28.902 -14.583  -4.339  1.00  0.00     0.088 C 
HETATM   12  C8  UNL     1      29.355 -15.291  -5.592  1.00  0.00     0.049 C 
HETATM   13  C9  UNL     1      29.620 -14.992  -3.111  1.00  0.00     0.091 C 
HETATM   14  C10 UNL     1      30.133 -16.433  -3.242  1.00  0.00     0.049 C 
HETATM   15  O2  UNL     1      28.702 -15.032  -2.067  1.00  0.00    -0.367 OA
BRANCH  11  16
HETATM   16  O1  UNL     1      28.785 -13.228  -4.481  1.00  0.00    -0.387 OA
ATOM     17  H1  UNL     1      29.276 -12.818  -3.778  1.00  0.00     0.210 HD
ENDBRANCH  11  16
BRANCH  13  18
HETATM   18  C11 UNL     1      30.789 -14.103  -2.842  1.00  0.00     0.015 C 
HETATM   19  C12 UNL     1      32.113 -14.849  -3.056  1.00  0.00     0.012 C 
HETATM   20  C13 UNL     1      30.867 -13.582  -1.424  1.00  0.00     0.012 C 
ENDBRANCH  13  18
ENDBRANCH   4   9
BRANCH   8  21
HETATM   21  C18 UNL     1      23.266 -17.750  -0.026  1.00  0.00     0.016 C 
HETATM   22  C19 UNL     1      22.129 -18.112  -0.568  1.00  0.00     0.058 C 
BRANCH  22  23
HETATM   23  C20 UNL     1      21.129 -18.885   0.154  1.00  0.00     0.159 C 
HETATM   24  N1  UNL     1      20.251 -19.613  -0.401  1.00  0.00    -0.248 N 
ATOM     25  H1  UNL     1      19.600 -20.109   0.207  1.00  0.00     0.196 HD
BRANCH  23  26
HETATM   26  O3  UNL     1      21.132 -18.824   1.546  1.00  0.00    -0.345 OA
ATOM     27  H3  UNL     1      21.032 -19.635   2.030  1.00  0.00     0.219 HD
ENDBRANCH  23  26
BRANCH  24  28
HETATM   28  O4  UNL     1      20.107 -19.784  -1.754  1.00  0.00    -0.288 OA
ATOM     29  H4  UNL     1      19.589 -19.229  -2.324  1.00  0.00     0.244 HD
ENDBRANCH  24  28
ENDBRANCH  22  23
ENDBRANCH   8  21
TORSDOF 7
ENDMDL
MODEL 5
REMARK VINA RESULT: -7.644133097      1.444      3.221
REMARK  7 active torsions:
REMARK  status: ('A' for Active; 'I' for Inactive)
REMARK    1  A    between atoms: C4_4  and  C5_5 
REMARK    2  A    between atoms: C7_7  and  O1_9 
REMARK    3  A    between atoms: C9_11  and  C11_13 
REMARK    4  A    between atoms: C17_20  and  C18_21 
REMARK    5  A    between atoms: C19_22  and  C20_23 
REMARK    6  A    between atoms: C20_23  and  O3_24 
REMARK    7  A    between atoms: N1_26  and  O4_28 
ROOT
HETATM    1  C1  UNL     1      26.024 -18.551   0.439  1.00  0.00     0.049 C 
HETATM    2  C2  UNL     1      25.672 -17.385  -0.451  1.00  0.00    -0.051 A 
HETATM    3  C3  UNL     1      26.645 -16.637  -1.064  1.00  0.00     0.018 A 
HETATM    4  C4  UNL     1      26.385 -15.562  -1.887  1.00  0.00    -0.023 A 
HETATM    5  C14 UNL     1      25.055 -15.229  -2.100  1.00  0.00    -0.052 A 
HETATM    6  C15 UNL     1      24.775 -14.088  -2.974  1.00  0.00     0.049 C 
HETATM    7  C16 UNL     1      24.070 -15.970  -1.493  1.00  0.00     0.019 A 
HETATM    8  C17 UNL     1      24.355 -17.048  -0.667  1.00  0.00    -0.030 A 
ENDROOT
BRANCH   4   9
HETATM    9  C5  UNL     1      27.494 -14.848  -2.486  1.00  0.00     0.159 C 
HETATM   10  C6  UNL     1      28.642 -15.802  -2.728  1.00  0.00     0.077 C 
HETATM   11  C7  UNL     1      29.743 -14.752  -3.017  1.00  0.00     0.088 C 
HETATM   12  C8  UNL     1      31.048 -15.458  -2.747  1.00  0.00     0.049 C 
HETATM   13  C9  UNL     1      29.388 -13.718  -2.018  1.00  0.00     0.091 C 
HETATM   14  C10 UNL     1      30.012 -14.050  -0.656  1.00  0.00     0.049 C 
HETATM   15  O2  UNL     1      28.014 -13.775  -1.807  1.00  0.00    -0.367 OA
BRANCH  11  16
HETATM   16  O1  UNL     1      29.597 -14.337  -4.312  1.00  0.00    -0.387 OA
ATOM     17  H1  UNL     1      28.860 -14.806  -4.686  1.00  0.00     0.210 HD
ENDBRANCH  11  16
BRANCH  13  18
HETATM   18  C11 UNL     1      29.870 -12.369  -2.437  1.00  0.00     0.015 C 
HETATM   19  C12 UNL     1      30.863 -11.795  -1.417  1.00  0.00     0.012 C 
HETATM   20  C13 UNL     1      28.784 -11.321  -2.547  1.00  0.00     0.012 C 
ENDBRANCH  13  18
ENDBRANCH   4   9
BRANCH   8  21
HETATM   21  C18 UNL     1      23.309 -17.829  -0.025  1.00  0.00     0.016 C 
HETATM   22  C19 UNL     1      22.132 -18.093  -0.537  1.00  0.00     0.058 C 
BRANCH  22  23
HETATM   23  C20 UNL     1      21.132 -18.885   0.165  1.00  0.00     0.159 C 
HETATM   24  N1  UNL     1      20.262 -19.608  -0.409  1.00  0.00    -0.248 N 
ATOM     25  H1  UNL     1      19.610 -20.119   0.186  1.00  0.00     0.196 HD
BRANCH  23  26
HETATM   26  O3  UNL     1      21.125 -18.847   1.557  1.00  0.00    -0.345 OA
ATOM     27  H3  UNL     1      21.944 -18.671   2.005  1.00  0.00     0.219 HD
ENDBRANCH  23  26
BRANCH  24  28
HETATM   28  O4  UNL     1      20.129 -19.757  -1.765  1.00  0.00    -0.288 OA
ATOM     29  H4  UNL     1      20.757 -19.462  -2.413  1.00  0.00     0.244 HD
ENDBRANCH  24  28
ENDBRANCH  22  23
ENDBRANCH   8  21
TORSDOF 7
ENDMDL
