MODEL 1
REMARK VINA RESULT: -7.309134449      0.000      0.000
REMARK  6 active torsions:
REMARK  status: ('A' for Active; 'I' for Inactive)
REMARK    1  A    between atoms: C2_2  and  O1_3 
REMARK    2  A    between atoms: C2_2  and  C14_18 
REMARK    3  A    between atoms: O1_3  and  C3_4 
REMARK    4  A    between atoms: C11_13  and  O3_14 
REMARK    5  A    between atoms: C14_18  and  O4_19 
REMARK    6  A    between atoms: C15_21  and  C16_22 
ROOT
HETATM    1  C3  UNL     1      27.261 -12.306  -4.809  1.00  0.00     0.265 C 
HETATM    2  O2  UNL     1      27.204 -13.528  -5.453  1.00  0.00    -0.356 OA
HETATM    3  C4  UNL     1      28.216 -14.391  -5.282  1.00  0.00     0.125 C 
HETATM    4  C5  UNL     1      28.765 -14.759  -6.669  1.00  0.00     0.037 C 
HETATM    5  C6  UNL     1      29.860 -13.807  -6.435  1.00  0.00    -0.009 C 
HETATM    6  C7  UNL     1      29.560 -13.939  -4.935  1.00  0.00     0.037 C 
HETATM    7  C8  UNL     1      29.649 -12.391  -6.798  1.00  0.00     0.010 C 
HETATM    8  C9  UNL     1      28.277 -11.951  -7.057  1.00  0.00    -0.003 C 
HETATM    9  C10 UNL     1      28.284 -10.791  -8.030  1.00  0.00     0.037 C 
HETATM   10  C11 UNL     1      26.928 -10.109  -7.805  1.00  0.00     0.119 C 
HETATM   11  C12 UNL     1      26.323 -10.802  -6.579  1.00  0.00     0.041 C 
HETATM   12  C13 UNL     1      27.569 -11.288  -5.871  1.00  0.00     0.047 C 
ENDROOT
BRANCH   1  13
HETATM   13  O1  UNL     1      25.995 -12.072  -4.279  1.00  0.00    -0.349 OA
BRANCH  13  14
HETATM   14  C2  UNL     1      25.852 -12.512  -2.983  1.00  0.00     0.176 C 
HETATM   15  C1  UNL     1      27.061 -12.149  -2.114  1.00  0.00     0.046 C 
BRANCH  14  16
HETATM   16  C14 UNL     1      25.446 -13.899  -2.796  1.00  0.00     0.068 C 
HETATM   17  C15 UNL     1      25.703 -14.671  -1.756  1.00  0.00     0.012 C 
BRANCH  16  18
HETATM   18  O4  UNL     1      24.694 -14.467  -3.849  1.00  0.00    -0.363 OA
ATOM     19  H4  UNL     1      25.198 -14.854  -4.556  1.00  0.00     0.217 HD
ENDBRANCH  16  18
BRANCH  17  20
HETATM   20  C16 UNL     1      25.228 -16.074  -1.691  1.00  0.00     0.010 C 
HETATM   21  C17 UNL     1      23.974 -16.224  -0.879  1.00  0.00     0.008 C 
HETATM   22  C18 UNL     1      23.537 -17.684  -1.012  1.00  0.00     0.001 C 
HETATM   23  C19 UNL     1      24.511 -18.509  -0.194  1.00  0.00     0.000 C 
HETATM   24  C20 UNL     1      25.791 -17.759   0.074  1.00  0.00     0.001 C 
HETATM   25  C21 UNL     1      26.272 -17.002  -1.145  1.00  0.00     0.008 C 
ENDBRANCH  17  20
ENDBRANCH  14  16
ENDBRANCH  13  14
ENDBRANCH   1  13
BRANCH  10  26
HETATM   26  O3  UNL     1      26.156 -10.275  -8.930  1.00  0.00    -0.396 OA
ATOM     27  H3  UNL     1      25.241 -10.175  -8.692  1.00  0.00     0.210 HD
ENDBRANCH  10  26
TORSDOF 6
ENDMDL
MODEL 2
REMARK VINA RESULT: -7.127563311      1.107      1.313
REMARK  6 active torsions:
REMARK  status: ('A' for Active; 'I' for Inactive)
REMARK    1  A    between atoms: C2_2  and  O1_3 
REMARK    2  A    between atoms: C2_2  and  C14_18 
REMARK    3  A    between atoms: O1_3  and  C3_4 
REMARK    4  A    between atoms: C11_13  and  O3_14 
REMARK    5  A    between atoms: C14_18  and  O4_19 
REMARK    6  A    between atoms: C15_21  and  C16_22 
ROOT
HETATM    1  C3  UNL     1      27.687 -12.973  -5.089  1.00  0.00     0.265 C 
HETATM    2  O2  UNL     1      27.907 -14.116  -5.836  1.00  0.00    -0.356 OA
HETATM    3  C4  UNL     1      28.662 -15.091  -5.310  1.00  0.00     0.125 C 
HETATM    4  C5  UNL     1      29.812 -15.379  -6.286  1.00  0.00     0.037 C 
HETATM    5  C6  UNL     1      30.685 -14.572  -5.422  1.00  0.00    -0.009 C 
HETATM    6  C7  UNL     1      29.673 -14.815  -4.293  1.00  0.00     0.037 C 
HETATM    7  C8  UNL     1      30.743 -13.113  -5.648  1.00  0.00     0.010 C 
HETATM    8  C9  UNL     1      29.701 -12.511  -6.482  1.00  0.00    -0.003 C 
HETATM    9  C10 UNL     1      30.240 -11.270  -7.161  1.00  0.00     0.037 C 
HETATM   10  C11 UNL     1      28.983 -10.476  -7.539  1.00  0.00     0.119 C 
HETATM   11  C12 UNL     1      27.820 -11.218  -6.871  1.00  0.00     0.041 C 
HETATM   12  C13 UNL     1      28.525 -11.895  -5.717  1.00  0.00     0.047 C 
ENDROOT
BRANCH   1  13
HETATM   13  O1  UNL     1      26.336 -12.661  -5.219  1.00  0.00    -0.349 OA
BRANCH  13  14
HETATM   14  C2  UNL     1      25.620 -12.828  -4.056  1.00  0.00     0.176 C 
HETATM   15  C1  UNL     1      26.073 -11.863  -2.956  1.00  0.00     0.046 C 
BRANCH  14  16
HETATM   16  C14 UNL     1      25.474 -14.189  -3.558  1.00  0.00     0.068 C 
HETATM   17  C15 UNL     1      25.516 -14.585  -2.299  1.00  0.00     0.012 C 
BRANCH  16  18
HETATM   18  O4  UNL     1      25.263 -15.185  -4.539  1.00  0.00    -0.363 OA
ATOM     19  H4  UNL     1      24.665 -15.883  -4.297  1.00  0.00     0.217 HD
ENDBRANCH  16  18
BRANCH  17  20
HETATM   20  C16 UNL     1      25.352 -16.011  -1.925  1.00  0.00     0.010 C 
HETATM   21  C17 UNL     1      24.286 -16.220  -0.889  1.00  0.00     0.008 C 
HETATM   22  C18 UNL     1      24.142 -17.731  -0.704  1.00  0.00     0.001 C 
HETATM   23  C19 UNL     1      25.371 -18.199   0.049  1.00  0.00     0.000 C 
HETATM   24  C20 UNL     1      26.497 -17.200  -0.041  1.00  0.00     0.001 C 
HETATM   25  C21 UNL     1      26.632 -16.619  -1.432  1.00  0.00     0.008 C 
ENDBRANCH  17  20
ENDBRANCH  14  16
ENDBRANCH  13  14
ENDBRANCH   1  13
BRANCH  10  26
HETATM   26  O3  UNL     1      28.867 -10.454  -8.908  1.00  0.00    -0.396 OA
ATOM     27  H3  UNL     1      28.392 -11.228  -9.189  1.00  0.00     0.210 HD
ENDBRANCH  10  26
TORSDOF 6
ENDMDL
MODEL 3
REMARK VINA RESULT: -6.842539684      1.597      2.366
REMARK  6 active torsions:
REMARK  status: ('A' for Active; 'I' for Inactive)
REMARK    1  A    between atoms: C2_2  and  O1_3 
REMARK    2  A    between atoms: C2_2  and  C14_18 
REMARK    3  A    between atoms: O1_3  and  C3_4 
REMARK    4  A    between atoms: C11_13  and  O3_14 
REMARK    5  A    between atoms: C14_18  and  O4_19 
REMARK    6  A    between atoms: C15_21  and  C16_22 
ROOT
HETATM    1  C3  UNL     1      27.905 -13.405  -4.478  1.00  0.00     0.265 C 
HETATM    2  O2  UNL     1      28.018 -14.770  -4.667  1.00  0.00    -0.356 OA
HETATM    3  C4  UNL     1      28.663 -15.495  -3.743  1.00  0.00     0.125 C 
HETATM    4  C5  UNL     1      29.790 -16.266  -4.446  1.00  0.00     0.037 C 
HETATM    5  C6  UNL     1      30.729 -15.249  -3.952  1.00  0.00    -0.009 C 
HETATM    6  C7  UNL     1      29.683 -14.906  -2.880  1.00  0.00     0.037 C 
HETATM    7  C8  UNL     1      30.938 -14.031  -4.761  1.00  0.00     0.010 C 
HETATM    8  C9  UNL     1      29.973 -13.748  -5.825  1.00  0.00    -0.003 C 
HETATM    9  C10 UNL     1      30.644 -12.960  -6.930  1.00  0.00     0.037 C 
HETATM   10  C11 UNL     1      29.478 -12.292  -7.673  1.00  0.00     0.119 C 
HETATM   11  C12 UNL     1      28.238 -12.580  -6.820  1.00  0.00     0.041 C 
HETATM   12  C13 UNL     1      28.856 -12.768  -5.453  1.00  0.00     0.047 C 
ENDROOT
BRANCH   1  13
HETATM   13  O1  UNL     1      26.595 -13.061  -4.799  1.00  0.00    -0.349 OA
BRANCH  13  14
HETATM   14  C2  UNL     1      25.851 -12.658  -3.714  1.00  0.00     0.176 C 
HETATM   15  C1  UNL     1      26.202 -11.234  -3.271  1.00  0.00     0.046 C 
BRANCH  14  16
HETATM   16  C14 UNL     1      25.777 -13.575  -2.584  1.00  0.00     0.068 C 
HETATM   17  C15 UNL     1      25.204 -14.764  -2.560  1.00  0.00     0.012 C 
BRANCH  16  18
HETATM   18  O4  UNL     1      26.394 -13.133  -1.392  1.00  0.00    -0.363 OA
ATOM     19  H4  UNL     1      26.585 -13.808  -0.750  1.00  0.00     0.217 HD
ENDBRANCH  16  18
BRANCH  17  20
HETATM   20  C16 UNL     1      25.201 -15.602  -1.336  1.00  0.00     0.010 C 
HETATM   21  C17 UNL     1      26.210 -16.713  -1.392  1.00  0.00     0.008 C 
HETATM   22  C18 UNL     1      26.182 -17.400  -0.026  1.00  0.00     0.001 C 
HETATM   23  C19 UNL     1      24.889 -18.188   0.042  1.00  0.00     0.000 C 
HETATM   24  C20 UNL     1      23.882 -17.699  -0.969  1.00  0.00     0.001 C 
HETATM   25  C21 UNL     1      23.849 -16.189  -1.054  1.00  0.00     0.008 C 
ENDBRANCH  17  20
ENDBRANCH  14  16
ENDBRANCH  13  14
ENDBRANCH   1  13
BRANCH  10  26
HETATM   26  O3  UNL     1      29.382 -12.837  -8.930  1.00  0.00    -0.396 OA
ATOM     27  H3  UNL     1      30.156 -12.598  -9.428  1.00  0.00     0.210 HD
ENDBRANCH  10  26
TORSDOF 6
ENDMDL
MODEL 4
REMARK VINA RESULT: -6.769376544      3.631      7.339
REMARK  6 active torsions:
REMARK  status: ('A' for Active; 'I' for Inactive)
REMARK    1  A    between atoms: C2_2  and  O1_3 
REMARK    2  A    between atoms: C2_2  and  C14_18 
REMARK    3  A    between atoms: O1_3  and  C3_4 
REMARK    4  A    between atoms: C11_13  and  O3_14 
REMARK    5  A    between atoms: C14_18  and  O4_19 
REMARK    6  A    between atoms: C15_21  and  C16_22 
ROOT
HETATM    1  C3  UNL     1      27.273 -15.945  -1.131  1.00  0.00     0.265 C 
HETATM    2  O2  UNL     1      27.114 -16.089  -2.497  1.00  0.00    -0.356 OA
HETATM    3  C4  UNL     1      27.029 -14.985  -3.253  1.00  0.00     0.125 C 
HETATM    4  C5  UNL     1      25.719 -15.059  -4.053  1.00  0.00     0.037 C 
HETATM    5  C6  UNL     1      25.125 -14.138  -3.074  1.00  0.00    -0.009 C 
HETATM    6  C7  UNL     1      26.556 -13.716  -2.708  1.00  0.00     0.037 C 
HETATM    7  C8  UNL     1      24.514 -14.707  -1.855  1.00  0.00     0.010 C 
HETATM    8  C9  UNL     1      24.818 -16.101  -1.528  1.00  0.00    -0.003 C 
HETATM    9  C10 UNL     1      23.669 -16.708  -0.750  1.00  0.00     0.037 C 
HETATM   10  C11 UNL     1      24.298 -17.912  -0.036  1.00  0.00     0.119 C 
HETATM   11  C12 UNL     1      25.805 -17.793  -0.292  1.00  0.00     0.041 C 
HETATM   12  C13 UNL     1      25.949 -16.304  -0.515  1.00  0.00     0.047 C 
ENDROOT
BRANCH   1  13
HETATM   13  O1  UNL     1      28.244 -16.863  -0.739  1.00  0.00    -0.349 OA
BRANCH  13  14
HETATM   14  C2  UNL     1      29.522 -16.353  -0.757  1.00  0.00     0.176 C 
HETATM   15  C1  UNL     1      29.606 -14.985  -0.073  1.00  0.00     0.046 C 
BRANCH  14  16
HETATM   16  C14 UNL     1      30.221 -16.364  -2.035  1.00  0.00     0.068 C 
HETATM   17  C15 UNL     1      30.162 -17.298  -2.968  1.00  0.00     0.012 C 
BRANCH  16  18
HETATM   18  O4  UNL     1      31.048 -15.248  -2.295  1.00  0.00    -0.363 OA
ATOM     19  H4  UNL     1      31.973 -15.435  -2.407  1.00  0.00     0.217 HD
ENDBRANCH  16  18
BRANCH  17  20
HETATM   20  C16 UNL     1      30.930 -17.186  -4.232  1.00  0.00     0.010 C 
HETATM   21  C17 UNL     1      30.141 -16.539  -5.333  1.00  0.00     0.008 C 
HETATM   22  C18 UNL     1      31.094 -16.375  -6.518  1.00  0.00     0.001 C 
HETATM   23  C19 UNL     1      31.317 -17.758  -7.096  1.00  0.00     0.000 C 
HETATM   24  C20 UNL     1      30.957 -18.841  -6.111  1.00  0.00     0.001 C 
HETATM   25  C21 UNL     1      31.430 -18.516  -4.711  1.00  0.00     0.008 C 
ENDBRANCH  17  20
ENDBRANCH  14  16
ENDBRANCH  13  14
ENDBRANCH   1  13
BRANCH  10  26
HETATM   26  O3  UNL     1      23.772 -19.066  -0.564  1.00  0.00    -0.396 OA
ATOM     27  H3  UNL     1      24.483 -19.618  -0.867  1.00  0.00     0.210 HD
ENDBRANCH  10  26
TORSDOF 6
ENDMDL
MODEL 5
REMARK VINA RESULT: -6.746971302      2.742      4.717
REMARK  6 active torsions:
REMARK  status: ('A' for Active; 'I' for Inactive)
REMARK    1  A    between atoms: C2_2  and  O1_3 
REMARK    2  A    between atoms: C2_2  and  C14_18 
REMARK    3  A    between atoms: O1_3  and  C3_4 
REMARK    4  A    between atoms: C11_13  and  O3_14 
REMARK    5  A    between atoms: C14_18  and  O4_19 
REMARK    6  A    between atoms: C15_21  and  C16_22 
ROOT
HETATM    1  C3  UNL     1      28.663 -14.647  -3.640  1.00  0.00     0.265 C 
HETATM    2  O2  UNL     1      29.912 -14.172  -3.997  1.00  0.00    -0.356 OA
HETATM    3  C4  UNL     1      30.367 -14.430  -5.231  1.00  0.00     0.125 C 
HETATM    4  C5  UNL     1      31.725 -15.136  -5.097  1.00  0.00     0.037 C 
HETATM    5  C6  UNL     1      31.034 -16.408  -5.350  1.00  0.00    -0.009 C 
HETATM    6  C7  UNL     1      29.907 -15.587  -5.993  1.00  0.00     0.037 C 
HETATM    7  C8  UNL     1      30.448 -17.130  -4.203  1.00  0.00     0.010 C 
HETATM    8  C9  UNL     1      30.294 -16.398  -2.944  1.00  0.00    -0.003 C 
HETATM    9  C10 UNL     1      30.360 -17.361  -1.778  1.00  0.00     0.037 C 
HETATM   10  C11 UNL     1      29.678 -16.603  -0.631  1.00  0.00     0.119 C 
HETATM   11  C12 UNL     1      29.089 -15.342  -1.272  1.00  0.00     0.041 C 
HETATM   12  C13 UNL     1      28.905 -15.796  -2.703  1.00  0.00     0.047 C 
ENDROOT
BRANCH   1  13
HETATM   13  O1  UNL     1      28.017 -13.613  -2.967  1.00  0.00    -0.349 OA
BRANCH  13  14
HETATM   14  C2  UNL     1      26.693 -13.472  -3.316  1.00  0.00     0.176 C 
HETATM   15  C1  UNL     1      26.110 -12.138  -2.841  1.00  0.00     0.046 C 
BRANCH  14  16
HETATM   16  C14 UNL     1      25.808 -14.590  -3.016  1.00  0.00     0.068 C 
HETATM   17  C15 UNL     1      25.476 -15.045  -1.822  1.00  0.00     0.012 C 
BRANCH  16  18
HETATM   18  O4  UNL     1      25.246 -15.248  -4.134  1.00  0.00    -0.363 OA
ATOM     19  H4  UNL     1      25.471 -16.166  -4.230  1.00  0.00     0.217 HD
ENDBRANCH  16  18
BRANCH  17  20
HETATM   20  C16 UNL     1      24.558 -16.198  -1.655  1.00  0.00     0.010 C 
HETATM   21  C17 UNL     1      23.483 -15.940  -0.639  1.00  0.00     0.008 C 
HETATM   22  C18 UNL     1      22.548 -17.150  -0.672  1.00  0.00     0.001 C 
HETATM   23  C19 UNL     1      23.293 -18.297  -0.019  1.00  0.00     0.000 C 
HETATM   24  C20 UNL     1      24.780 -18.052   0.014  1.00  0.00     0.001 C 
HETATM   25  C21 UNL     1      25.287 -17.454  -1.280  1.00  0.00     0.008 C 
ENDBRANCH  17  20
ENDBRANCH  14  16
ENDBRANCH  13  14
ENDBRANCH   1  13
BRANCH  10  26
HETATM   26  O3  UNL     1      30.618 -16.309   0.327  1.00  0.00    -0.396 OA
ATOM     27  H3  UNL     1      31.466 -16.219  -0.092  1.00  0.00     0.210 HD
ENDBRANCH  10  26
TORSDOF 6
ENDMDL
