MODEL 1
REMARK VINA RESULT: -9.898506106      0.000      0.000
REMARK  9 active torsions:
REMARK  status: ('A' for Active; 'I' for Inactive)
REMARK    1  A    between atoms: C3_3  and  C4_4 
REMARK    2  A    between atoms: C6_7  and  C7_8 
REMARK    3  A    between atoms: C9_11  and  C10_12 
REMARK    4  A    between atoms: C10_12  and  N1_13 
REMARK       I    between atoms: N1_13  and  C12_15 
REMARK    5  A    between atoms: C12_15  and  C13_17 
REMARK    6  A    between atoms: C17_27  and  C18_28 
REMARK    7  A    between atoms: C18_28  and  C19_29 
REMARK    8  A    between atoms: C19_29  and  O4_31 
REMARK    9  A    between atoms: N4_37  and  O6_38 
ROOT
HETATM    1  C1  UNL     1      37.318 -28.816  12.413  1.00  0.00     0.112 C 
HETATM    2  C2  UNL     1      38.003 -27.871  13.311  1.00  0.00    -0.104 C 
HETATM    3  C3  UNL     1      38.546 -27.087  14.048  1.00  0.00    -0.044 C 
ENDROOT
BRANCH   3   4
HETATM    4  C4  UNL     1      39.178 -26.142  14.920  1.00  0.00     0.154 A 
HETATM    5  C5  UNL     1      38.483 -25.007  15.293  1.00  0.00     0.161 A 
HETATM    6  F1  UNL     1      37.256 -24.845  14.816  1.00  0.00    -0.202 F 
HETATM    7  C6  UNL     1      39.067 -24.090  16.126  1.00  0.00    -0.001 A 
HETATM    8  C22 UNL     1      40.347 -24.382  16.540  1.00  0.00     0.031 A 
HETATM    9  C23 UNL     1      41.021 -25.529  16.150  1.00  0.00     0.125 A 
HETATM   10  N4  UNL     1      40.425 -26.411  15.333  1.00  0.00    -0.225 N 
BRANCH   7  11
HETATM   11  C7  UNL     1      38.428 -22.831  16.598  1.00  0.00     0.127 C 
HETATM   12  C8  UNL     1      37.712 -22.065  15.603  1.00  0.00     0.162 C 
HETATM   13  O1  UNL     1      38.141 -21.173  14.922  1.00  0.00    -0.295 OA
HETATM   14  C9  UNL     1      36.260 -22.456  15.428  1.00  0.00     0.168 C 
HETATM   15  N3  UNL     1      35.672 -22.011  16.672  1.00  0.00    -0.376 N 
HETATM   16  C17 UNL     1      36.302 -22.440  17.842  1.00  0.00     0.168 A 
ATOM     17  H3  UNL     1      34.843 -21.417  16.694  1.00  0.00     0.157 HD
HETATM   18  O5  UNL     1      36.546 -23.816  17.929  1.00  0.00    -0.347 OA
HETATM   19  C21 UNL     1      37.674 -23.002  17.853  1.00  0.00     0.196 A 
BRANCH  14  20
HETATM   20  C10 UNL     1      35.637 -21.713  14.299  1.00  0.00     0.158 C 
BRANCH  20  21
HETATM   21  N1  UNL     1      34.827 -22.557  13.412  1.00  0.00    -0.349 N 
HETATM   22  C11 UNL     1      33.440 -22.637  13.667  1.00  0.00     0.153 C 
HETATM   23  C12 UNL     1      35.510 -23.190  12.370  1.00  0.00     0.270 C 
HETATM   24  O2  UNL     1      36.786 -22.984  12.246  1.00  0.00    -0.266 OA
BRANCH  23  25
HETATM   25  C13 UNL     1      34.960 -24.083  11.367  1.00  0.00     0.103 A 
HETATM   26  C14 UNL     1      34.229 -25.243  11.552  1.00  0.00     0.062 A 
HETATM   27  C15 UNL     1      33.940 -25.758  10.282  1.00  0.00     0.074 A 
HETATM   28 CL1  UNL     1      33.030 -27.222   9.997  1.00  0.00    -0.081 Cl
HETATM   29  C16 UNL     1      34.497 -24.907   9.389  1.00  0.00     0.126 A 
HETATM   30 CL2  UNL     1      34.401 -25.131   7.637  1.00  0.00    -0.063 Cl
HETATM   31  N2  UNL     1      35.106 -23.907  10.020  1.00  0.00    -0.341 N 
ATOM     32  H2  UNL     1      35.601 -23.135   9.573  1.00  0.00     0.167 HD
ENDBRANCH  23  25
ENDBRANCH  20  21
ENDBRANCH  14  20
BRANCH  16  33
HETATM   33  C18 UNL     1      35.945 -21.721  19.132  1.00  0.00     0.174 C 
BRANCH  33  34
HETATM   34  C19 UNL     1      34.782 -20.826  19.009  1.00  0.00     0.263 C 
HETATM   35  O3  UNL     1      34.693 -19.867  18.211  1.00  0.00    -0.265 OA
BRANCH  34  36
HETATM   36  O4  UNL     1      33.661 -21.020  19.830  1.00  0.00    -0.326 OA
HETATM   37  C20 UNL     1      33.738 -21.749  21.034  1.00  0.00     0.213 C 
ENDBRANCH  34  36
ENDBRANCH  33  34
ENDBRANCH  16  33
ENDBRANCH   7  11
BRANCH  10  38
HETATM   38  O6  UNL     1      41.101 -27.545  14.953  1.00  0.00    -0.282 OA
ATOM     39  H6  UNL     1      41.383 -28.205  15.576  1.00  0.00     0.245 HD
ENDBRANCH  10  38
ENDBRANCH   3   4
TORSDOF 9
ENDMDL
MODEL 2
REMARK VINA RESULT: -9.739991419      4.395      7.152
REMARK  9 active torsions:
REMARK  status: ('A' for Active; 'I' for Inactive)
REMARK    1  A    between atoms: C3_3  and  C4_4 
REMARK    2  A    between atoms: C6_7  and  C7_8 
REMARK    3  A    between atoms: C9_11  and  C10_12 
REMARK    4  A    between atoms: C10_12  and  N1_13 
REMARK       I    between atoms: N1_13  and  C12_15 
REMARK    5  A    between atoms: C12_15  and  C13_17 
REMARK    6  A    between atoms: C17_27  and  C18_28 
REMARK    7  A    between atoms: C18_28  and  C19_29 
REMARK    8  A    between atoms: C19_29  and  O4_31 
REMARK    9  A    between atoms: N4_37  and  O6_38 
ROOT
HETATM    1  C1  UNL     1      38.766 -30.265  15.075  1.00  0.00     0.112 C 
HETATM    2  C2  UNL     1      38.195 -29.244  14.181  1.00  0.00    -0.104 C 
HETATM    3  C3  UNL     1      37.747 -28.403  13.443  1.00  0.00    -0.044 C 
ENDROOT
BRANCH   3   4
HETATM    4  C4  UNL     1      37.231 -27.394  12.568  1.00  0.00     0.154 A 
HETATM    5  C5  UNL     1      37.226 -26.078  12.993  1.00  0.00     0.161 A 
HETATM    6  F1  UNL     1      37.698 -25.815  14.204  1.00  0.00    -0.202 F 
HETATM    7  C6  UNL     1      36.738 -25.096  12.173  1.00  0.00    -0.001 A 
HETATM    8  C22 UNL     1      36.274 -25.511  10.946  1.00  0.00     0.031 A 
HETATM    9  C23 UNL     1      36.291 -26.839  10.544  1.00  0.00     0.125 A 
HETATM   10  N4  UNL     1      36.775 -27.781  11.367  1.00  0.00    -0.225 N 
BRANCH   7  11
HETATM   11  C7  UNL     1      36.675 -23.648  12.512  1.00  0.00     0.127 C 
HETATM   12  C8  UNL     1      35.849 -23.292  13.645  1.00  0.00     0.162 C 
HETATM   13  O1  UNL     1      34.690 -22.975  13.630  1.00  0.00    -0.295 OA
HETATM   14  C9  UNL     1      36.557 -23.331  14.982  1.00  0.00     0.168 C 
HETATM   15  N3  UNL     1      37.470 -22.214  14.877  1.00  0.00    -0.376 N 
HETATM   16  C17 UNL     1      38.278 -22.182  13.738  1.00  0.00     0.168 A 
ATOM     17  H3  UNL     1      37.521 -21.491  15.594  1.00  0.00     0.157 HD
HETATM   18  O5  UNL     1      38.978 -23.361  13.458  1.00  0.00    -0.347 OA
HETATM   19  C21 UNL     1      38.000 -23.002  12.534  1.00  0.00     0.196 A 
BRANCH  14  20
HETATM   20  C10 UNL     1      35.607 -23.083  16.099  1.00  0.00     0.158 C 
BRANCH  20  21
HETATM   21  N1  UNL     1      36.260 -22.706  17.359  1.00  0.00    -0.349 N 
HETATM   22  C11 UNL     1      37.433 -23.403  17.724  1.00  0.00     0.153 C 
HETATM   23  C12 UNL     1      35.665 -21.665  18.075  1.00  0.00     0.270 C 
HETATM   24  O2  UNL     1      34.605 -21.097  17.585  1.00  0.00    -0.266 OA
BRANCH  23  25
HETATM   25  C13 UNL     1      36.092 -21.109  19.347  1.00  0.00     0.103 A 
HETATM   26  C14 UNL     1      35.765 -19.888  19.908  1.00  0.00     0.062 A 
HETATM   27  C15 UNL     1      36.436 -19.802  21.134  1.00  0.00     0.074 A 
HETATM   28 CL1  UNL     1      36.336 -18.436  22.218  1.00  0.00    -0.081 Cl
HETATM   29  C16 UNL     1      37.134 -20.954  21.269  1.00  0.00     0.126 A 
HETATM   30 CL2  UNL     1      38.150 -21.321  22.670  1.00  0.00    -0.063 Cl
HETATM   31  N2  UNL     1      36.939 -21.740  20.213  1.00  0.00    -0.341 N 
ATOM     32  H2  UNL     1      37.352 -22.662  20.074  1.00  0.00     0.167 HD
ENDBRANCH  23  25
ENDBRANCH  20  21
ENDBRANCH  14  20
BRANCH  16  33
HETATM   33  C18 UNL     1      38.976 -20.872  13.415  1.00  0.00     0.174 C 
BRANCH  33  34
HETATM   34  C19 UNL     1      38.138 -19.681  13.638  1.00  0.00     0.263 C 
HETATM   35  O3  UNL     1      38.569 -18.523  13.832  1.00  0.00    -0.265 OA
BRANCH  34  36
HETATM   36  O4  UNL     1      36.741 -19.802  13.645  1.00  0.00    -0.326 OA
HETATM   37  C20 UNL     1      35.990 -19.825  12.451  1.00  0.00     0.213 C 
ENDBRANCH  34  36
ENDBRANCH  33  34
ENDBRANCH  16  33
ENDBRANCH   7  11
BRANCH  10  38
HETATM   38  O6  UNL     1      36.789 -29.093  10.960  1.00  0.00    -0.282 OA
ATOM     39  H6  UNL     1      36.808 -29.818  11.574  1.00  0.00     0.245 HD
ENDBRANCH  10  38
ENDBRANCH   3   4
TORSDOF 9
ENDMDL
MODEL 3
REMARK VINA RESULT: -9.739095044      1.215      1.490
REMARK  9 active torsions:
REMARK  status: ('A' for Active; 'I' for Inactive)
REMARK    1  A    between atoms: C3_3  and  C4_4 
REMARK    2  A    between atoms: C6_7  and  C7_8 
REMARK    3  A    between atoms: C9_11  and  C10_12 
REMARK    4  A    between atoms: C10_12  and  N1_13 
REMARK       I    between atoms: N1_13  and  C12_15 
REMARK    5  A    between atoms: C12_15  and  C13_17 
REMARK    6  A    between atoms: C17_27  and  C18_28 
REMARK    7  A    between atoms: C18_28  and  C19_29 
REMARK    8  A    between atoms: C19_29  and  O4_31 
REMARK    9  A    between atoms: N4_37  and  O6_38 
ROOT
HETATM    1  C1  UNL     1      38.959 -27.290  10.693  1.00  0.00     0.112 C 
HETATM    2  C2  UNL     1      39.283 -26.643  11.975  1.00  0.00    -0.104 C 
HETATM    3  C3  UNL     1      39.528 -26.116  13.031  1.00  0.00    -0.044 C 
ENDROOT
BRANCH   3   4
HETATM    4  C4  UNL     1      39.800 -25.483  14.287  1.00  0.00     0.154 A 
HETATM    5  C5  UNL     1      39.023 -24.409  14.678  1.00  0.00     0.161 A 
HETATM    6  F1  UNL     1      38.058 -24.010  13.860  1.00  0.00    -0.202 F 
HETATM    7  C6  UNL     1      39.265 -23.788  15.874  1.00  0.00    -0.001 A 
HETATM    8  C22 UNL     1      40.301 -24.302  16.621  1.00  0.00     0.031 A 
HETATM    9  C23 UNL     1      41.066 -25.382  16.204  1.00  0.00     0.125 A 
HETATM   10  N4  UNL     1      40.807 -25.971  15.027  1.00  0.00    -0.225 N 
BRANCH   7  11
HETATM   11  C7  UNL     1      38.504 -22.625  16.407  1.00  0.00     0.127 C 
HETATM   12  C8  UNL     1      37.672 -21.918  15.460  1.00  0.00     0.162 C 
HETATM   13  O1  UNL     1      37.973 -20.963  14.796  1.00  0.00    -0.295 OA
HETATM   14  C9  UNL     1      36.269 -22.467  15.317  1.00  0.00     0.168 C 
HETATM   15  N3  UNL     1      35.677 -22.128  16.592  1.00  0.00    -0.376 N 
HETATM   16  C17 UNL     1      36.391 -22.516  17.727  1.00  0.00     0.168 A 
ATOM     17  H3  UNL     1      34.786 -21.634  16.658  1.00  0.00     0.157 HD
HETATM   18  O5  UNL     1      36.792 -23.857  17.762  1.00  0.00    -0.347 OA
HETATM   19  C21 UNL     1      37.818 -22.918  17.678  1.00  0.00     0.196 A 
BRANCH  14  20
HETATM   20  C10 UNL     1      35.527 -21.768  14.232  1.00  0.00     0.158 C 
BRANCH  20  21
HETATM   21  N1  UNL     1      35.555 -22.476  12.946  1.00  0.00    -0.349 N 
HETATM   22  C11 UNL     1      36.200 -21.841  11.861  1.00  0.00     0.153 C 
HETATM   23  C12 UNL     1      34.953 -23.736  12.922  1.00  0.00     0.270 C 
HETATM   24  O2  UNL     1      34.433 -24.199  14.018  1.00  0.00    -0.266 OA
BRANCH  23  25
HETATM   25  C13 UNL     1      34.826 -24.634  11.789  1.00  0.00     0.103 A 
HETATM   26  C14 UNL     1      35.793 -25.009  10.874  1.00  0.00     0.062 A 
HETATM   27  C15 UNL     1      35.184 -25.878   9.959  1.00  0.00     0.074 A 
HETATM   28 CL1  UNL     1      36.007 -26.621   8.609  1.00  0.00    -0.081 Cl
HETATM   29  C16 UNL     1      33.892 -25.995  10.346  1.00  0.00     0.126 A 
HETATM   30 CL2  UNL     1      32.707 -26.997   9.499  1.00  0.00    -0.063 Cl
HETATM   31  N2  UNL     1      33.666 -25.261  11.433  1.00  0.00    -0.341 N 
ATOM     32  H2  UNL     1      32.774 -25.180  11.921  1.00  0.00     0.167 HD
ENDBRANCH  23  25
ENDBRANCH  20  21
ENDBRANCH  14  20
BRANCH  16  33
HETATM   33  C18 UNL     1      35.999 -21.881  19.050  1.00  0.00     0.174 C 
BRANCH  33  34
HETATM   34  C19 UNL     1      34.844 -20.971  18.952  1.00  0.00     0.263 C 
HETATM   35  O3  UNL     1      34.753 -20.006  18.163  1.00  0.00    -0.265 OA
BRANCH  34  36
HETATM   36  O4  UNL     1      33.734 -21.160  19.788  1.00  0.00    -0.326 OA
HETATM   37  C20 UNL     1      33.857 -21.728  21.073  1.00  0.00     0.213 C 
ENDBRANCH  34  36
ENDBRANCH  33  34
ENDBRANCH  16  33
ENDBRANCH   7  11
BRANCH  10  38
HETATM   38  O6  UNL     1      41.569 -27.040  14.624  1.00  0.00    -0.282 OA
ATOM     39  H6  UNL     1      41.300 -27.941  14.761  1.00  0.00     0.245 HD
ENDBRANCH  10  38
ENDBRANCH   3   4
TORSDOF 9
ENDMDL
MODEL 4
REMARK VINA RESULT: -9.718915749      4.020      7.837
REMARK  9 active torsions:
REMARK  status: ('A' for Active; 'I' for Inactive)
REMARK    1  A    between atoms: C3_3  and  C4_4 
REMARK    2  A    between atoms: C6_7  and  C7_8 
REMARK    3  A    between atoms: C9_11  and  C10_12 
REMARK    4  A    between atoms: C10_12  and  N1_13 
REMARK       I    between atoms: N1_13  and  C12_15 
REMARK    5  A    between atoms: C12_15  and  C13_17 
REMARK    6  A    between atoms: C17_27  and  C18_28 
REMARK    7  A    between atoms: C18_28  and  C19_29 
REMARK    8  A    between atoms: C19_29  and  O4_31 
REMARK    9  A    between atoms: N4_37  and  O6_38 
ROOT
HETATM    1  C1  UNL     1      30.953 -25.510   8.234  1.00  0.00     0.112 C 
HETATM    2  C2  UNL     1      32.017 -25.975   9.139  1.00  0.00    -0.104 C 
HETATM    3  C3  UNL     1      32.903 -26.350   9.866  1.00  0.00    -0.044 C 
ENDROOT
BRANCH   3   4
HETATM    4  C4  UNL     1      33.966 -26.800  10.713  1.00  0.00     0.154 A 
HETATM    5  C5  UNL     1      35.144 -26.077  10.752  1.00  0.00     0.161 A 
HETATM    6  F1  UNL     1      35.233 -24.995   9.989  1.00  0.00    -0.202 F 
HETATM    7  C6  UNL     1      36.174 -26.488  11.555  1.00  0.00    -0.001 A 
HETATM    8  C22 UNL     1      35.947 -27.631  12.287  1.00  0.00     0.031 A 
HETATM    9  C23 UNL     1      34.755 -28.338  12.231  1.00  0.00     0.125 A 
HETATM   10  N4  UNL     1      33.762 -27.912  11.435  1.00  0.00    -0.225 N 
BRANCH   7  11
HETATM   11  C7  UNL     1      37.488 -25.801  11.683  1.00  0.00     0.127 C 
HETATM   12  C8  UNL     1      37.458 -24.458  12.220  1.00  0.00     0.162 C 
HETATM   13  O1  UNL     1      37.381 -23.429  11.605  1.00  0.00    -0.295 OA
HETATM   14  C9  UNL     1      37.536 -24.379  13.729  1.00  0.00     0.168 C 
HETATM   15  N3  UNL     1      38.893 -24.806  13.988  1.00  0.00    -0.376 N 
HETATM   16  C17 UNL     1      39.284 -26.011  13.401  1.00  0.00     0.168 A 
ATOM     17  H3  UNL     1      39.530 -24.257  14.567  1.00  0.00     0.157 HD
HETATM   18  O5  UNL     1      38.425 -27.096  13.614  1.00  0.00    -0.347 OA
HETATM   19  C21 UNL     1      38.525 -26.649  12.299  1.00  0.00     0.196 A 
BRANCH  14  20
HETATM   20  C10 UNL     1      37.366 -22.978  14.202  1.00  0.00     0.158 C 
BRANCH  20  21
HETATM   21  N1  UNL     1      36.772 -22.873  15.540  1.00  0.00    -0.349 N 
HETATM   22  C11 UNL     1      35.368 -22.993  15.648  1.00  0.00     0.153 C 
HETATM   23  C12 UNL     1      37.665 -22.686  16.598  1.00  0.00     0.270 C 
HETATM   24  O2  UNL     1      38.936 -22.635  16.339  1.00  0.00    -0.266 OA
BRANCH  23  25
HETATM   25  C13 UNL     1      37.348 -22.537  18.007  1.00  0.00     0.103 A 
HETATM   26  C14 UNL     1      36.151 -22.156  18.586  1.00  0.00     0.062 A 
HETATM   27  C15 UNL     1      36.347 -22.143  19.973  1.00  0.00     0.074 A 
HETATM   28 CL1  UNL     1      35.114 -21.723  21.137  1.00  0.00    -0.081 Cl
HETATM   29  C16 UNL     1      37.633 -22.509  20.180  1.00  0.00     0.126 A 
HETATM   30 CL2  UNL     1      38.363 -22.642  21.786  1.00  0.00    -0.063 Cl
HETATM   31  N2  UNL     1      38.240 -22.746  19.020  1.00  0.00    -0.341 N 
ATOM     32  H2  UNL     1      39.211 -23.037  18.906  1.00  0.00     0.167 HD
ENDBRANCH  23  25
ENDBRANCH  20  21
ENDBRANCH  14  20
BRANCH  16  33
HETATM   33  C18 UNL     1      40.772 -26.312  13.347  1.00  0.00     0.174 C 
BRANCH  33  34
HETATM   34  C19 UNL     1      41.388 -26.497  14.672  1.00  0.00     0.263 C 
HETATM   35  O3  UNL     1      41.641 -25.580  15.484  1.00  0.00    -0.265 OA
BRANCH  34  36
HETATM   36  O4  UNL     1      41.738 -27.785  15.106  1.00  0.00    -0.326 OA
HETATM   37  C20 UNL     1      40.866 -28.569  15.889  1.00  0.00     0.213 C 
ENDBRANCH  34  36
ENDBRANCH  33  34
ENDBRANCH  16  33
ENDBRANCH   7  11
BRANCH  10  38
HETATM   38  O6  UNL     1      32.585 -28.619  11.385  1.00  0.00    -0.282 OA
ATOM     39  H6  UNL     1      31.734 -28.196  11.373  1.00  0.00     0.245 HD
ENDBRANCH  10  38
ENDBRANCH   3   4
TORSDOF 9
ENDMDL
MODEL 5
REMARK VINA RESULT: -9.702720038      3.160      4.743
REMARK  9 active torsions:
REMARK  status: ('A' for Active; 'I' for Inactive)
REMARK    1  A    between atoms: C3_3  and  C4_4 
REMARK    2  A    between atoms: C6_7  and  C7_8 
REMARK    3  A    between atoms: C9_11  and  C10_12 
REMARK    4  A    between atoms: C10_12  and  N1_13 
REMARK       I    between atoms: N1_13  and  C12_15 
REMARK    5  A    between atoms: C12_15  and  C13_17 
REMARK    6  A    between atoms: C17_27  and  C18_28 
REMARK    7  A    between atoms: C18_28  and  C19_29 
REMARK    8  A    between atoms: C19_29  and  O4_31 
REMARK    9  A    between atoms: N4_37  and  O6_38 
ROOT
HETATM    1  C1  UNL     1      41.288 -30.544  19.268  1.00  0.00     0.112 C 
HETATM    2  C2  UNL     1      40.662 -29.957  18.072  1.00  0.00    -0.104 C 
HETATM    3  C3  UNL     1      40.130 -29.479  17.102  1.00  0.00    -0.044 C 
ENDROOT
BRANCH   3   4
HETATM    4  C4  UNL     1      39.483 -28.922  15.952  1.00  0.00     0.154 A 
HETATM    5  C5  UNL     1      39.679 -27.586  15.655  1.00  0.00     0.161 A 
HETATM    6  F1  UNL     1      40.459 -26.879  16.462  1.00  0.00    -0.202 F 
HETATM    7  C6  UNL     1      39.071 -27.031  14.561  1.00  0.00    -0.001 A 
HETATM    8  C22 UNL     1      38.283 -27.879  13.815  1.00  0.00     0.031 A 
HETATM    9  C23 UNL     1      38.104 -29.217  14.135  1.00  0.00     0.125 A 
HETATM   10  N4  UNL     1      38.712 -29.734  15.214  1.00  0.00    -0.225 N 
BRANCH   7  11
HETATM   11  C7  UNL     1      39.199 -25.611  14.137  1.00  0.00     0.127 C 
HETATM   12  C8  UNL     1      38.581 -25.262  12.876  1.00  0.00     0.162 C 
HETATM   13  O1  UNL     1      39.092 -25.262  11.790  1.00  0.00    -0.295 OA
HETATM   14  C9  UNL     1      37.127 -24.853  12.977  1.00  0.00     0.168 C 
HETATM   15  N3  UNL     1      37.213 -23.583  13.663  1.00  0.00    -0.376 N 
HETATM   16  C17 UNL     1      37.953 -23.570  14.847  1.00  0.00     0.168 A 
ATOM     17  H3  UNL     1      36.759 -22.744  13.303  1.00  0.00     0.157 HD
HETATM   18  O5  UNL     1      37.623 -24.561  15.779  1.00  0.00    -0.347 OA
HETATM   19  C21 UNL     1      38.894 -24.655  15.217  1.00  0.00     0.196 A 
BRANCH  14  20
HETATM   20  C10 UNL     1      36.535 -24.641  11.628  1.00  0.00     0.158 C 
BRANCH  20  21
HETATM   21  N1  UNL     1      35.139 -25.081  11.519  1.00  0.00    -0.349 N 
HETATM   22  C11 UNL     1      34.137 -24.213  12.007  1.00  0.00     0.153 C 
HETATM   23  C12 UNL     1      34.929 -26.321  10.913  1.00  0.00     0.270 C 
HETATM   24  O2  UNL     1      35.957 -26.986  10.480  1.00  0.00    -0.266 OA
BRANCH  23  25
HETATM   25  C13 UNL     1      33.661 -26.995  10.693  1.00  0.00     0.103 A 
HETATM   26  C14 UNL     1      32.882 -27.015   9.551  1.00  0.00     0.062 A 
HETATM   27  C15 UNL     1      31.747 -27.785   9.836  1.00  0.00     0.074 A 
HETATM   28 CL1  UNL     1      30.462 -28.104   8.697  1.00  0.00    -0.081 Cl
HETATM   29  C16 UNL     1      31.877 -28.195  11.120  1.00  0.00     0.126 A 
HETATM   30 CL2  UNL     1      30.684 -29.205  11.946  1.00  0.00    -0.063 Cl
HETATM   31  N2  UNL     1      33.011 -27.732  11.641  1.00  0.00    -0.341 N 
ATOM     32  H2  UNL     1      33.340 -27.901  12.591  1.00  0.00     0.167 HD
ENDBRANCH  23  25
ENDBRANCH  20  21
ENDBRANCH  14  20
BRANCH  16  33
HETATM   33  C18 UNL     1      38.364 -22.216  15.399  1.00  0.00     0.174 C 
BRANCH  33  34
HETATM   34  C19 UNL     1      38.223 -21.114  14.432  1.00  0.00     0.263 C 
HETATM   35  O3  UNL     1      37.261 -20.316  14.385  1.00  0.00    -0.265 OA
BRANCH  34  36
HETATM   36  O4  UNL     1      39.218 -20.900  13.467  1.00  0.00    -0.326 OA
HETATM   37  C20 UNL     1      38.905 -20.702  12.106  1.00  0.00     0.213 C 
ENDBRANCH  34  36
ENDBRANCH  33  34
ENDBRANCH  16  33
ENDBRANCH   7  11
BRANCH  10  38
HETATM   38  O6  UNL     1      38.529 -31.060  15.522  1.00  0.00    -0.282 OA
ATOM     39  H6  UNL     1      39.244 -31.628  15.784  1.00  0.00     0.245 HD
ENDBRANCH  10  38
ENDBRANCH   3   4
TORSDOF 9
ENDMDL
