MODEL 1
REMARK VINA RESULT: -9.520800032      0.000      0.000
REMARK  7 active torsions:
REMARK  status: ('A' for Active; 'I' for Inactive)
REMARK    1  A    between atoms: C2_3  and  C3_4 
REMARK    2  A    between atoms: C5_6  and  C6_7 
REMARK    3  A    between atoms: C7_10  and  N3_11 
REMARK    4  A    between atoms: N3_11  and  C8_13 
REMARK    5  A    between atoms: C8_13  and  C9_14 
REMARK    6  A    between atoms: C9_14  and  C10_15 
REMARK    7  A    between atoms: C10_15  and  N4_16 
ROOT
HETATM    1  N1  UNL     1      35.986 -27.935  10.134  1.00  0.00    -0.197 NA
HETATM    2  C1  UNL     1      35.930 -26.827   9.849  1.00  0.00     0.063 C 
HETATM    3  C2  UNL     1      35.871 -25.403   9.498  1.00  0.00     0.164 C 
ENDROOT
BRANCH   3   4
HETATM    4  C3  UNL     1      35.415 -24.680  10.713  1.00  0.00    -0.022 A 
HETATM    5  C4  UNL     1      36.240 -23.900  11.484  1.00  0.00     0.025 A 
HETATM    6  C5  UNL     1      35.813 -23.214  12.631  1.00  0.00     0.015 A 
HETATM    7  C15 UNL     1      34.515 -23.350  12.974  1.00  0.00     0.048 A 
HETATM    8 CL1  UNL     1      33.838 -22.686  14.470  1.00  0.00    -0.083 Cl
HETATM    9  C16 UNL     1      33.653 -24.146  12.190  1.00  0.00     0.049 A 
HETATM   10  C17 UNL     1      34.081 -24.813  11.065  1.00  0.00     0.043 A 
HETATM   11 CL2  UNL     1      32.994 -25.796  10.108  1.00  0.00    -0.084 Cl
BRANCH   6  12
HETATM   12  C6  UNL     1      36.790 -22.496  13.421  1.00  0.00     0.084 A 
HETATM   13  N2  UNL     1      37.627 -23.300  14.157  1.00  0.00    -0.189 N 
HETATM   14  C7  UNL     1      38.631 -22.802  14.890  1.00  0.00     0.681 A 
ATOM     15  H2  UNL     1      37.478 -24.309  14.145  1.00  0.00     0.184 HD
HETATM   16  N5  UNL     1      38.834 -21.487  14.913  1.00  0.00    -0.155 N 
HETATM   17  C13 UNL     1      38.065 -20.640  14.222  1.00  0.00     0.279 A 
ATOM     18  H5  UNL     1      39.600 -21.114  15.474  1.00  0.00     0.187 HD
HETATM   19  O4  UNL     1      38.218 -19.409  14.215  1.00  0.00    -0.266 OA
HETATM   20  C14 UNL     1      37.015 -21.165  13.454  1.00  0.00     0.107 A 
HETATM   21 BR1  UNL     1      36.016 -19.984  12.325  1.00  0.00    -0.043 Br
BRANCH  14  22
HETATM   22  N3  UNL     1      39.404 -23.597  15.577  1.00  0.00    -0.226 N 
ATOM     23  H3  UNL     1      40.405 -23.396  15.601  1.00  0.00     0.177 HD
BRANCH  22  24
HETATM   24  C8  UNL     1      38.925 -24.729  16.294  1.00  0.00     0.139 C 
BRANCH  24  25
HETATM   25  C9  UNL     1      39.978 -25.850  16.281  1.00  0.00     0.038 C 
BRANCH  25  26
HETATM   26  C10 UNL     1      39.538 -26.833  15.244  1.00  0.00     0.141 C 
BRANCH  26  27
HETATM   27  N4  UNL     1      38.868 -26.304  14.117  1.00  0.00    -0.086 NA
HETATM   28  O1  UNL     1      37.931 -26.992  13.542  1.00  0.00    -0.288 OA
HETATM   29  C11 UNL     1      38.314 -27.736  12.477  1.00  0.00     0.211 C 
HETATM   30  C12 UNL     1      39.186 -26.867  11.557  1.00  0.00     0.188 C 
HETATM   31  S1  UNL     1      39.987 -25.925  12.873  1.00  0.00     0.235 S 
HETATM   32  O2  UNL     1      41.354 -26.446  13.133  1.00  0.00    -0.209 OA
HETATM   33  O3  UNL     1      39.964 -24.463  12.536  1.00  0.00    -0.209 OA
ENDBRANCH  26  27
ENDBRANCH  25  26
ENDBRANCH  24  25
ENDBRANCH  22  24
ENDBRANCH  14  22
ENDBRANCH   6  12
ENDBRANCH   3   4
TORSDOF 7
ENDMDL
MODEL 2
REMARK VINA RESULT: -9.512640375      1.143      1.499
REMARK  7 active torsions:
REMARK  status: ('A' for Active; 'I' for Inactive)
REMARK    1  A    between atoms: C2_3  and  C3_4 
REMARK    2  A    between atoms: C5_6  and  C6_7 
REMARK    3  A    between atoms: C7_10  and  N3_11 
REMARK    4  A    between atoms: N3_11  and  C8_13 
REMARK    5  A    between atoms: C8_13  and  C9_14 
REMARK    6  A    between atoms: C9_14  and  C10_15 
REMARK    7  A    between atoms: C10_15  and  N4_16 
ROOT
HETATM    1  N1  UNL     1      36.701 -28.067  10.435  1.00  0.00    -0.197 NA
HETATM    2  C1  UNL     1      36.360 -27.058  10.013  1.00  0.00     0.063 C 
HETATM    3  C2  UNL     1      35.935 -25.756   9.484  1.00  0.00     0.164 C 
ENDROOT
BRANCH   3   4
HETATM    4  C3  UNL     1      35.463 -24.956  10.643  1.00  0.00    -0.022 A 
HETATM    5  C4  UNL     1      36.292 -24.182  11.416  1.00  0.00     0.025 A 
HETATM    6  C5  UNL     1      35.850 -23.423  12.510  1.00  0.00     0.015 A 
HETATM    7  C15 UNL     1      34.533 -23.478  12.797  1.00  0.00     0.048 A 
HETATM    8 CL1  UNL     1      33.824 -22.712  14.229  1.00  0.00    -0.083 Cl
HETATM    9  C16 UNL     1      33.667 -24.266  12.010  1.00  0.00     0.049 A 
HETATM   10  C17 UNL     1      34.110 -25.006  10.938  1.00  0.00     0.043 A 
HETATM   11 CL2  UNL     1      33.017 -25.977   9.975  1.00  0.00    -0.084 Cl
BRANCH   6  12
HETATM   12  C6  UNL     1      36.827 -22.718  13.313  1.00  0.00     0.084 A 
HETATM   13  N2  UNL     1      37.735 -23.532  13.947  1.00  0.00    -0.189 N 
HETATM   14  C7  UNL     1      38.746 -23.041  14.673  1.00  0.00     0.681 A 
ATOM     15  H2  UNL     1      37.634 -24.543  13.862  1.00  0.00     0.184 HD
HETATM   16  N5  UNL     1      38.887 -21.722  14.792  1.00  0.00    -0.155 N 
HETATM   17  C13 UNL     1      38.046 -20.865  14.203  1.00  0.00     0.279 A 
ATOM     18  H5  UNL     1      39.659 -21.354  15.348  1.00  0.00     0.187 HD
HETATM   19  O4  UNL     1      38.139 -19.631  14.287  1.00  0.00    -0.266 OA
HETATM   20  C14 UNL     1      36.989 -21.383  13.442  1.00  0.00     0.107 A 
HETATM   21 BR1  UNL     1      35.882 -20.172  12.452  1.00  0.00    -0.043 Br
BRANCH  14  22
HETATM   22  N3  UNL     1      39.588 -23.844  15.262  1.00  0.00    -0.226 N 
ATOM     23  H3  UNL     1      40.202 -24.414  14.679  1.00  0.00     0.177 HD
BRANCH  22  24
HETATM   24  C8  UNL     1      39.695 -23.967  16.677  1.00  0.00     0.139 C 
BRANCH  24  25
HETATM   25  C9  UNL     1      40.861 -24.900  17.041  1.00  0.00     0.038 C 
BRANCH  25  26
HETATM   26  C10 UNL     1      40.829 -26.025  16.057  1.00  0.00     0.141 C 
BRANCH  26  27
HETATM   27  N4  UNL     1      39.625 -26.764  15.983  1.00  0.00    -0.086 NA
HETATM   28  O1  UNL     1      39.556 -27.940  16.523  1.00  0.00    -0.288 OA
HETATM   29  C11 UNL     1      39.789 -28.985  15.694  1.00  0.00     0.211 C 
HETATM   30  C12 UNL     1      38.985 -28.778  14.402  1.00  0.00     0.188 C 
HETATM   31  S1  UNL     1      39.151 -26.981  14.349  1.00  0.00     0.235 S 
HETATM   32  O2  UNL     1      40.198 -26.579  13.374  1.00  0.00    -0.209 OA
HETATM   33  O3  UNL     1      37.814 -26.357  14.073  1.00  0.00    -0.209 OA
ENDBRANCH  26  27
ENDBRANCH  25  26
ENDBRANCH  24  25
ENDBRANCH  22  24
ENDBRANCH  14  22
ENDBRANCH   6  12
ENDBRANCH   3   4
TORSDOF 7
ENDMDL
MODEL 3
REMARK VINA RESULT: -9.511611934      2.140      2.397
REMARK  7 active torsions:
REMARK  status: ('A' for Active; 'I' for Inactive)
REMARK    1  A    between atoms: C2_3  and  C3_4 
REMARK    2  A    between atoms: C5_6  and  C6_7 
REMARK    3  A    between atoms: C7_10  and  N3_11 
REMARK    4  A    between atoms: N3_11  and  C8_13 
REMARK    5  A    between atoms: C8_13  and  C9_14 
REMARK    6  A    between atoms: C9_14  and  C10_15 
REMARK    7  A    between atoms: C10_15  and  N4_16 
ROOT
HETATM    1  N1  UNL     1      33.045 -28.506  11.821  1.00  0.00    -0.197 NA
HETATM    2  C1  UNL     1      34.175 -28.327  11.881  1.00  0.00     0.063 C 
HETATM    3  C2  UNL     1      35.621 -28.087  11.973  1.00  0.00     0.164 C 
ENDROOT
BRANCH   3   4
HETATM    4  C3  UNL     1      35.818 -26.618  11.889  1.00  0.00    -0.022 A 
HETATM    5  C4  UNL     1      36.053 -25.822  12.982  1.00  0.00     0.025 A 
HETATM    6  C5  UNL     1      36.242 -24.434  12.907  1.00  0.00     0.015 A 
HETATM    7  C15 UNL     1      36.180 -23.876  11.680  1.00  0.00     0.048 A 
HETATM    8 CL1  UNL     1      36.240 -22.125  11.412  1.00  0.00    -0.083 Cl
HETATM    9  C16 UNL     1      35.942 -24.681  10.546  1.00  0.00     0.049 A 
HETATM   10  C17 UNL     1      35.760 -26.042  10.629  1.00  0.00     0.043 A 
HETATM   11 CL2  UNL     1      35.465 -27.021   9.209  1.00  0.00    -0.084 Cl
BRANCH   6  12
HETATM   12  C6  UNL     1      36.390 -23.680  14.135  1.00  0.00     0.084 A 
HETATM   13  N2  UNL     1      37.667 -23.670  14.643  1.00  0.00    -0.189 N 
HETATM   14  C7  UNL     1      37.994 -22.965  15.733  1.00  0.00     0.681 A 
ATOM     15  H2  UNL     1      38.389 -24.217  14.174  1.00  0.00     0.184 HD
HETATM   16  N5  UNL     1      37.059 -22.247  16.353  1.00  0.00    -0.155 N 
HETATM   17  C13 UNL     1      35.796 -22.205  15.918  1.00  0.00     0.279 A 
ATOM     18  H5  UNL     1      37.315 -21.714  17.184  1.00  0.00     0.187 HD
HETATM   19  O4  UNL     1      34.895 -21.551  16.464  1.00  0.00    -0.266 OA
HETATM   20  C14 UNL     1      35.458 -22.943  14.775  1.00  0.00     0.107 A 
HETATM   21 BR1  UNL     1      33.699 -22.754  14.040  1.00  0.00    -0.043 Br
BRANCH  14  22
HETATM   22  N3  UNL     1      39.216 -22.980  16.188  1.00  0.00    -0.226 N 
ATOM     23  H3  UNL     1      39.884 -22.310  15.804  1.00  0.00     0.177 HD
BRANCH  22  24
HETATM   24  C8  UNL     1      39.668 -23.883  17.192  1.00  0.00     0.139 C 
BRANCH  24  25
HETATM   25  C9  UNL     1      40.934 -24.614  16.717  1.00  0.00     0.038 C 
BRANCH  25  26
HETATM   26  C10 UNL     1      40.484 -25.930  16.169  1.00  0.00     0.141 C 
BRANCH  26  27
HETATM   27  N4  UNL     1      39.522 -25.886  15.133  1.00  0.00    -0.086 NA
HETATM   28  O1  UNL     1      38.581 -26.776  15.090  1.00  0.00    -0.288 OA
HETATM   29  C11 UNL     1      38.815 -27.846  14.294  1.00  0.00     0.211 C 
HETATM   30  C12 UNL     1      39.346 -27.346  12.941  1.00  0.00     0.188 C 
HETATM   31  S1  UNL     1      40.285 -25.951  13.598  1.00  0.00     0.235 S 
HETATM   32  O2  UNL     1      41.732 -26.282  13.674  1.00  0.00    -0.209 OA
HETATM   33  O3  UNL     1      40.000 -24.721  12.787  1.00  0.00    -0.209 OA
ENDBRANCH  26  27
ENDBRANCH  25  26
ENDBRANCH  24  25
ENDBRANCH  22  24
ENDBRANCH  14  22
ENDBRANCH   6  12
ENDBRANCH   3   4
TORSDOF 7
ENDMDL
MODEL 4
REMARK VINA RESULT: -9.499349964      3.298      5.982
REMARK  7 active torsions:
REMARK  status: ('A' for Active; 'I' for Inactive)
REMARK    1  A    between atoms: C2_3  and  C3_4 
REMARK    2  A    between atoms: C5_6  and  C6_7 
REMARK    3  A    between atoms: C7_10  and  N3_11 
REMARK    4  A    between atoms: N3_11  and  C8_13 
REMARK    5  A    between atoms: C8_13  and  C9_14 
REMARK    6  A    between atoms: C9_14  and  C10_15 
REMARK    7  A    between atoms: C10_15  and  N4_16 
ROOT
HETATM    1  N1  UNL     1      34.756 -19.238  18.468  1.00  0.00    -0.197 NA
HETATM    2  C1  UNL     1      34.868 -20.354  18.701  1.00  0.00     0.063 C 
HETATM    3  C2  UNL     1      35.029 -21.781  19.004  1.00  0.00     0.164 C 
ENDROOT
BRANCH   3   4
HETATM    4  C3  UNL     1      36.234 -22.243  18.270  1.00  0.00    -0.022 A 
HETATM    5  C4  UNL     1      36.256 -22.471  16.917  1.00  0.00     0.025 A 
HETATM    6  C5  UNL     1      37.393 -22.906  16.220  1.00  0.00     0.015 A 
HETATM    7  C15 UNL     1      38.512 -23.106  16.945  1.00  0.00     0.048 A 
HETATM    8 CL1  UNL     1      39.994 -23.800  16.263  1.00  0.00    -0.083 Cl
HETATM    9  C16 UNL     1      38.508 -22.874  18.337  1.00  0.00     0.049 A 
HETATM   10  C17 UNL     1      37.388 -22.446  19.012  1.00  0.00     0.043 A 
HETATM   11 CL2  UNL     1      37.405 -22.164  20.739  1.00  0.00    -0.084 Cl
BRANCH   6  12
HETATM   12  C6  UNL     1      37.277 -23.203  14.808  1.00  0.00     0.084 A 
HETATM   13  N2  UNL     1      36.560 -24.342  14.525  1.00  0.00    -0.189 N 
HETATM   14  C7  UNL     1      36.299 -24.726  13.270  1.00  0.00     0.681 A 
ATOM     15  H2  UNL     1      36.217 -24.913  15.297  1.00  0.00     0.184 HD
HETATM   16  N5  UNL     1      36.743 -23.988  12.254  1.00  0.00    -0.155 N 
HETATM   17  C13 UNL     1      37.444 -22.866  12.448  1.00  0.00     0.279 A 
ATOM     18  H5  UNL     1      36.541 -24.287  11.300  1.00  0.00     0.187 HD
HETATM   19  O4  UNL     1      37.876 -22.150  11.533  1.00  0.00    -0.266 OA
HETATM   20  C14 UNL     1      37.714 -22.466  13.764  1.00  0.00     0.107 A 
HETATM   21 BR1  UNL     1      38.564 -20.776  14.060  1.00  0.00    -0.043 Br
BRANCH  14  22
HETATM   22  N3  UNL     1      35.617 -25.813  13.040  1.00  0.00    -0.226 N 
ATOM     23  H3  UNL     1      34.927 -26.107  13.732  1.00  0.00     0.177 HD
BRANCH  22  24
HETATM   24  C8  UNL     1      35.786 -26.612  11.873  1.00  0.00     0.139 C 
BRANCH  24  25
HETATM   25  C9  UNL     1      36.511 -27.920  12.226  1.00  0.00     0.038 C 
BRANCH  25  26
HETATM   26  C10 UNL     1      37.972 -27.659  12.045  1.00  0.00     0.141 C 
BRANCH  26  27
HETATM   27  N4  UNL     1      38.513 -26.571  12.769  1.00  0.00    -0.086 NA
HETATM   28  O1  UNL     1      39.400 -25.807  12.215  1.00  0.00    -0.288 OA
HETATM   29  C11 UNL     1      40.693 -26.116  12.477  1.00  0.00     0.211 C 
HETATM   30  C12 UNL     1      40.845 -26.358  13.987  1.00  0.00     0.188 C 
HETATM   31  S1  UNL     1      39.224 -27.115  14.232  1.00  0.00     0.235 S 
HETATM   32  O2  UNL     1      39.343 -28.595  14.314  1.00  0.00    -0.209 OA
HETATM   33  O3  UNL     1      38.557 -26.507  15.431  1.00  0.00    -0.209 OA
ENDBRANCH  26  27
ENDBRANCH  25  26
ENDBRANCH  24  25
ENDBRANCH  22  24
ENDBRANCH  14  22
ENDBRANCH   6  12
ENDBRANCH   3   4
TORSDOF 7
ENDMDL
MODEL 5
REMARK VINA RESULT: -9.430396276      3.360      6.192
REMARK  7 active torsions:
REMARK  status: ('A' for Active; 'I' for Inactive)
REMARK    1  A    between atoms: C2_3  and  C3_4 
REMARK    2  A    between atoms: C5_6  and  C6_7 
REMARK    3  A    between atoms: C7_10  and  N3_11 
REMARK    4  A    between atoms: N3_11  and  C8_13 
REMARK    5  A    between atoms: C8_13  and  C9_14 
REMARK    6  A    between atoms: C9_14  and  C10_15 
REMARK    7  A    between atoms: C10_15  and  N4_16 
ROOT
HETATM    1  N1  UNL     1      34.541 -19.256  18.544  1.00  0.00    -0.197 NA
HETATM    2  C1  UNL     1      34.773 -20.338  18.840  1.00  0.00     0.063 C 
HETATM    3  C2  UNL     1      35.087 -21.720  19.221  1.00  0.00     0.164 C 
ENDROOT
BRANCH   3   4
HETATM    4  C3  UNL     1      36.119 -22.204  18.268  1.00  0.00    -0.022 A 
HETATM    5  C4  UNL     1      35.927 -22.267  16.911  1.00  0.00     0.025 A 
HETATM    6  C5  UNL     1      36.900 -22.722  16.008  1.00  0.00     0.015 A 
HETATM    7  C15 UNL     1      38.079 -23.116  16.531  1.00  0.00     0.048 A 
HETATM    8 CL1  UNL     1      39.363 -23.861  15.564  1.00  0.00    -0.083 Cl
HETATM    9  C16 UNL     1      38.294 -23.054  17.925  1.00  0.00     0.049 A 
HETATM   10  C17 UNL     1      37.334 -22.605  18.802  1.00  0.00     0.043 A 
HETATM   11 CL2  UNL     1      37.622 -22.538  20.527  1.00  0.00    -0.084 Cl
BRANCH   6  12
HETATM   12  C6  UNL     1      36.556 -22.834  14.606  1.00  0.00     0.084 A 
HETATM   13  N2  UNL     1      35.864 -23.976  14.282  1.00  0.00    -0.189 N 
HETATM   14  C7  UNL     1      35.409 -24.206  13.044  1.00  0.00     0.681 A 
ATOM     15  H2  UNL     1      35.692 -24.672  15.008  1.00  0.00     0.184 HD
HETATM   16  N5  UNL     1      35.629 -23.305  12.088  1.00  0.00    -0.155 N 
HETATM   17  C13 UNL     1      36.292 -22.169  12.327  1.00  0.00     0.279 A 
ATOM     18  H5  UNL     1      35.281 -23.487  11.147  1.00  0.00     0.187 HD
HETATM   19  O4  UNL     1      36.519 -21.304  11.468  1.00  0.00    -0.266 OA
HETATM   20  C14 UNL     1      36.765 -21.931  13.625  1.00  0.00     0.107 A 
HETATM   21 BR1  UNL     1      37.561 -20.234  14.021  1.00  0.00    -0.043 Br
BRANCH  14  22
HETATM   22  N3  UNL     1      34.757 -25.302  12.772  1.00  0.00    -0.226 N 
ATOM     23  H3  UNL     1      34.746 -26.045  13.472  1.00  0.00     0.177 HD
BRANCH  22  24
HETATM   24  C8  UNL     1      34.059 -25.516  11.550  1.00  0.00     0.139 C 
BRANCH  24  25
HETATM   25  C9  UNL     1      34.305 -26.946  11.042  1.00  0.00     0.038 C 
BRANCH  25  26
HETATM   26  C10 UNL     1      35.552 -26.896  10.218  1.00  0.00     0.141 C 
BRANCH  26  27
HETATM   27  N4  UNL     1      36.551 -27.847  10.528  1.00  0.00    -0.086 NA
HETATM   28  O1  UNL     1      36.291 -28.807  11.359  1.00  0.00    -0.288 OA
HETATM   29  C11 UNL     1      36.652 -28.588  12.646  1.00  0.00     0.211 C 
HETATM   30  C12 UNL     1      38.085 -28.034  12.669  1.00  0.00     0.188 C 
HETATM   31  S1  UNL     1      37.950 -27.071  11.148  1.00  0.00     0.235 S 
HETATM   32  O2  UNL     1      37.739 -25.632  11.454  1.00  0.00    -0.209 OA
HETATM   33  O3  UNL     1      39.150 -27.322  10.281  1.00  0.00    -0.209 OA
ENDBRANCH  26  27
ENDBRANCH  25  26
ENDBRANCH  24  25
ENDBRANCH  22  24
ENDBRANCH  14  22
ENDBRANCH   6  12
ENDBRANCH   3   4
TORSDOF 7
ENDMDL
