MODEL 1
REMARK VINA RESULT: -9.207412160      0.000      0.000
REMARK  6 active torsions:
REMARK  status: ('A' for Active; 'I' for Inactive)
REMARK    1  A    between atoms: C2_2  and  N1_3 
REMARK       I    between atoms: N1_3  and  C3_5 
REMARK    2  A    between atoms: C3_5  and  C4_7 
REMARK    3  A    between atoms: C4_7  and  N2_8 
REMARK    4  A    between atoms: C7_12  and  N3_13 
REMARK       I    between atoms: N3_13  and  C8_15 
REMARK    5  A    between atoms: C8_15  and  C9_17 
REMARK    6  A    between atoms: C9_17  and  C10_18 
ROOT
HETATM    1  N3  UNL     1      37.007 -24.910  13.079  1.00  0.00    -0.353 N 
ATOM      2  H3  UNL     1      36.780 -24.021  12.635  1.00  0.00     0.163 HD
HETATM    3  C8  UNL     1      37.880 -24.904  14.198  1.00  0.00     0.222 C 
HETATM    4  O3  UNL     1      38.187 -25.977  14.773  1.00  0.00    -0.273 OA
ENDROOT
BRANCH   3   5
HETATM    5  C9  UNL     1      38.461 -23.645  14.731  1.00  0.00     0.148 C 
BRANCH   5   6
HETATM    6  C10 UNL     1      37.705 -23.130  15.887  1.00  0.00     0.033 A 
HETATM    7  C11 UNL     1      38.280 -23.116  17.143  1.00  0.00    -0.036 A 
HETATM    8  C12 UNL     1      39.649 -23.596  17.393  1.00  0.00     0.050 C 
HETATM    9  C13 UNL     1      37.531 -22.630  18.184  1.00  0.00     0.006 A 
HETATM   10  C14 UNL     1      38.081 -22.604  19.448  1.00  0.00     0.035 A 
HETATM   11  C18 UNL     1      36.225 -22.158  18.007  1.00  0.00     0.092 A 
HETATM   12  C15 UNL     1      37.360 -22.117  20.545  1.00  0.00     0.033 A 
HETATM   13 BR1  UNL     1      38.172 -22.109  22.247  1.00  0.00    -0.049 Br
HETATM   14  C16 UNL     1      36.073 -21.661  20.327  1.00  0.00     0.054 A 
HETATM   15 CL1  UNL     1      35.131 -21.039  21.690  1.00  0.00    -0.083 Cl
HETATM   16  C17 UNL     1      35.490 -21.671  19.077  1.00  0.00     0.063 A 
HETATM   17  O4  UNL     1      35.745 -22.201  16.794  1.00  0.00    -0.274 OA
HETATM   18  C19 UNL     1      36.415 -22.652  15.775  1.00  0.00     0.295 A 
HETATM   19  O5  UNL     1      35.892 -22.668  14.624  1.00  0.00    -0.259 OA
ENDBRANCH   5   6
ENDBRANCH   3   5
BRANCH   1  20
HETATM   20  C7  UNL     1      36.428 -26.118  12.540  1.00  0.00     0.131 C 
HETATM   21  C6  UNL     1      36.986 -26.437  11.169  1.00  0.00     0.131 C 
HETATM   22  C5  UNL     1      35.858 -27.098  10.488  1.00  0.00     0.223 C 
HETATM   23  N2  UNL     1      34.678 -26.933  11.300  1.00  0.00    -0.324 N 
HETATM   24  O2  UNL     1      35.831 -27.715   9.407  1.00  0.00    -0.273 OA
HETATM   25  C20 UNL     1      34.970 -25.882  12.249  1.00  0.00     0.207 C 
HETATM   26 CL2  UNL     1      34.848 -24.318  11.402  1.00  0.00    -0.100 Cl
BRANCH  23  27
HETATM   27  C4  UNL     1      33.438 -27.650  11.216  1.00  0.00     0.230 C 
BRANCH  27  28
HETATM   28  C3  UNL     1      32.663 -27.297  10.011  1.00  0.00     0.235 C 
HETATM   29  N1  UNL     1      32.458 -25.972   9.577  1.00  0.00    -0.360 N 
ATOM     30  H1  UNL     1      32.866 -25.217  10.126  1.00  0.00     0.162 HD
HETATM   31  O1  UNL     1      32.143 -28.215   9.308  1.00  0.00    -0.272 OA
BRANCH  29  32
HETATM   32  C2  UNL     1      31.700 -25.627   8.396  1.00  0.00     0.118 C 
HETATM   33  C1  UNL     1      32.611 -25.332   7.248  1.00  0.00     0.026 C 
ENDBRANCH  29  32
ENDBRANCH  27  28
ENDBRANCH  23  27
ENDBRANCH   1  20
TORSDOF 6
ENDMDL
MODEL 2
REMARK VINA RESULT: -9.207032736      1.589      1.784
REMARK  6 active torsions:
REMARK  status: ('A' for Active; 'I' for Inactive)
REMARK    1  A    between atoms: C2_2  and  N1_3 
REMARK       I    between atoms: N1_3  and  C3_5 
REMARK    2  A    between atoms: C3_5  and  C4_7 
REMARK    3  A    between atoms: C4_7  and  N2_8 
REMARK    4  A    between atoms: C7_12  and  N3_13 
REMARK       I    between atoms: N3_13  and  C8_15 
REMARK    5  A    between atoms: C8_15  and  C9_17 
REMARK    6  A    between atoms: C9_17  and  C10_18 
ROOT
HETATM    1  N3  UNL     1      37.335 -25.122  13.368  1.00  0.00    -0.353 N 
ATOM      2  H3  UNL     1      36.839 -24.369  12.892  1.00  0.00     0.163 HD
HETATM    3  C8  UNL     1      38.282 -24.781  14.368  1.00  0.00     0.222 C 
HETATM    4  O3  UNL     1      38.917 -25.677  14.977  1.00  0.00    -0.273 OA
ENDROOT
BRANCH   3   5
HETATM    5  C9  UNL     1      38.563 -23.368  14.731  1.00  0.00     0.148 C 
BRANCH   5   6
HETATM    6  C10 UNL     1      37.770 -22.926  15.893  1.00  0.00     0.033 A 
HETATM    7  C11 UNL     1      38.318 -22.957  17.161  1.00  0.00    -0.036 A 
HETATM    8  C12 UNL     1      39.693 -23.415  17.418  1.00  0.00     0.050 C 
HETATM    9  C13 UNL     1      37.536 -22.537  18.206  1.00  0.00     0.006 A 
HETATM   10  C14 UNL     1      38.058 -22.557  19.481  1.00  0.00     0.035 A 
HETATM   11  C18 UNL     1      36.222 -22.089  18.021  1.00  0.00     0.092 A 
HETATM   12  C15 UNL     1      37.301 -22.139  20.583  1.00  0.00     0.033 A 
HETATM   13 BR1  UNL     1      38.077 -22.191  22.302  1.00  0.00    -0.049 Br
HETATM   14  C16 UNL     1      36.009 -21.704  20.358  1.00  0.00     0.054 A 
HETATM   15 CL1  UNL     1      35.023 -21.169  21.726  1.00  0.00    -0.083 Cl
HETATM   16  C17 UNL     1      35.452 -21.670  19.096  1.00  0.00     0.063 A 
HETATM   17  O4  UNL     1      35.769 -22.087  16.797  1.00  0.00    -0.274 OA
HETATM   18  C19 UNL     1      36.471 -22.474  15.774  1.00  0.00     0.295 A 
HETATM   19  O5  UNL     1      35.973 -22.449  14.612  1.00  0.00    -0.259 OA
ENDBRANCH   5   6
ENDBRANCH   3   5
BRANCH   1  20
HETATM   20  C7  UNL     1      37.042 -26.486  12.995  1.00  0.00     0.131 C 
HETATM   21  C6  UNL     1      37.510 -26.787  11.586  1.00  0.00     0.131 C 
HETATM   22  C5  UNL     1      36.531 -27.781  11.109  1.00  0.00     0.223 C 
HETATM   23  N2  UNL     1      35.447 -27.842  12.056  1.00  0.00    -0.324 N 
HETATM   24  O2  UNL     1      36.550 -28.489  10.084  1.00  0.00    -0.273 OA
HETATM   25  C20 UNL     1      35.551 -26.661  12.884  1.00  0.00     0.207 C 
HETATM   26 CL2  UNL     1      34.925 -25.274  11.957  1.00  0.00    -0.100 Cl
BRANCH  23  27
HETATM   27  C4  UNL     1      34.441 -28.857  12.187  1.00  0.00     0.230 C 
BRANCH  27  28
HETATM   28  C3  UNL     1      33.188 -28.501  11.494  1.00  0.00     0.235 C 
HETATM   29  N1  UNL     1      31.911 -28.897  11.939  1.00  0.00    -0.360 N 
ATOM     30  H1  UNL     1      31.849 -29.461  12.786  1.00  0.00     0.162 HD
HETATM   31  O1  UNL     1      33.232 -27.800  10.438  1.00  0.00    -0.272 OA
BRANCH  29  32
HETATM   32  C2  UNL     1      30.684 -28.547  11.260  1.00  0.00     0.118 C 
HETATM   33  C1  UNL     1      29.524 -29.283  11.849  1.00  0.00     0.026 C 
ENDBRANCH  29  32
ENDBRANCH  27  28
ENDBRANCH  23  27
ENDBRANCH   1  20
TORSDOF 6
ENDMDL
MODEL 3
REMARK VINA RESULT: -9.170132204      4.540      8.848
REMARK  6 active torsions:
REMARK  status: ('A' for Active; 'I' for Inactive)
REMARK    1  A    between atoms: C2_2  and  N1_3 
REMARK       I    between atoms: N1_3  and  C3_5 
REMARK    2  A    between atoms: C3_5  and  C4_7 
REMARK    3  A    between atoms: C4_7  and  N2_8 
REMARK    4  A    between atoms: C7_12  and  N3_13 
REMARK       I    between atoms: N3_13  and  C8_15 
REMARK    5  A    between atoms: C8_15  and  C9_17 
REMARK    6  A    between atoms: C9_17  and  C10_18 
ROOT
HETATM    1  N3  UNL     1      39.794 -26.457  13.263  1.00  0.00    -0.353 N 
ATOM      2  H3  UNL     1      40.109 -27.413  13.431  1.00  0.00     0.163 HD
HETATM    3  C8  UNL     1      38.949 -26.209  12.151  1.00  0.00     0.222 C 
HETATM    4  O3  UNL     1      38.541 -25.047  11.907  1.00  0.00    -0.273 OA
ENDROOT
BRANCH   3   5
HETATM    5  C9  UNL     1      38.519 -27.297  11.236  1.00  0.00     0.148 C 
BRANCH   5   6
HETATM    6  C10 UNL     1      37.103 -27.660  11.434  1.00  0.00     0.033 A 
HETATM    7  C11 UNL     1      36.136 -27.181  10.571  1.00  0.00    -0.036 A 
HETATM    8  C12 UNL     1      36.455 -26.308   9.429  1.00  0.00     0.050 C 
HETATM    9  C13 UNL     1      34.835 -27.548  10.802  1.00  0.00     0.006 A 
HETATM   10  C14 UNL     1      33.850 -27.084   9.956  1.00  0.00     0.035 A 
HETATM   11  C18 UNL     1      34.472 -28.377  11.870  1.00  0.00     0.092 A 
HETATM   12  C15 UNL     1      32.506 -27.428  10.148  1.00  0.00     0.033 A 
HETATM   13 BR1  UNL     1      31.208 -26.761   8.953  1.00  0.00    -0.049 Br
HETATM   14  C16 UNL     1      32.191 -28.250  11.215  1.00  0.00     0.054 A 
HETATM   15 CL1  UNL     1      30.503 -28.705  11.488  1.00  0.00    -0.083 Cl
HETATM   16  C17 UNL     1      33.148 -28.732  12.081  1.00  0.00     0.063 A 
HETATM   17  O4  UNL     1      35.437 -28.792  12.645  1.00  0.00    -0.274 OA
HETATM   18  C19 UNL     1      36.685 -28.473  12.467  1.00  0.00     0.295 A 
HETATM   19  O5  UNL     1      37.573 -28.909  13.255  1.00  0.00    -0.259 OA
ENDBRANCH   5   6
ENDBRANCH   3   5
BRANCH   1  20
HETATM   20  C7  UNL     1      40.229 -25.419  14.168  1.00  0.00     0.131 C 
HETATM   21  C6  UNL     1      41.130 -25.971  15.253  1.00  0.00     0.131 C 
HETATM   22  C5  UNL     1      40.839 -25.104  16.410  1.00  0.00     0.223 C 
HETATM   23  N2  UNL     1      39.683 -24.302  16.097  1.00  0.00    -0.324 N 
HETATM   24  O2  UNL     1      41.428 -25.010  17.503  1.00  0.00    -0.273 OA
HETATM   25  C20 UNL     1      39.046 -24.918  14.954  1.00  0.00     0.207 C 
HETATM   26 CL2  UNL     1      38.147 -26.348  15.521  1.00  0.00    -0.100 Cl
BRANCH  23  27
HETATM   27  C4  UNL     1      39.220 -23.118  16.762  1.00  0.00     0.230 C 
BRANCH  27  28
HETATM   28  C3  UNL     1      38.346 -22.295  15.904  1.00  0.00     0.235 C 
HETATM   29  N1  UNL     1      38.821 -21.496  14.845  1.00  0.00    -0.360 N 
ATOM     30  H1  UNL     1      39.824 -21.485  14.663  1.00  0.00     0.162 HD
HETATM   31  O1  UNL     1      37.095 -22.288  16.107  1.00  0.00    -0.272 OA
BRANCH  29  32
HETATM   32  C2  UNL     1      37.965 -20.691  14.004  1.00  0.00     0.118 C 
HETATM   33  C1  UNL     1      38.654 -19.429  13.598  1.00  0.00     0.026 C 
ENDBRANCH  29  32
ENDBRANCH  27  28
ENDBRANCH  23  27
ENDBRANCH   1  20
TORSDOF 6
ENDMDL
MODEL 4
REMARK VINA RESULT: -9.089614512      2.126      2.684
REMARK  6 active torsions:
REMARK  status: ('A' for Active; 'I' for Inactive)
REMARK    1  A    between atoms: C2_2  and  N1_3 
REMARK       I    between atoms: N1_3  and  C3_5 
REMARK    2  A    between atoms: C3_5  and  C4_7 
REMARK    3  A    between atoms: C4_7  and  N2_8 
REMARK    4  A    between atoms: C7_12  and  N3_13 
REMARK       I    between atoms: N3_13  and  C8_15 
REMARK    5  A    between atoms: C8_15  and  C9_17 
REMARK    6  A    between atoms: C9_17  and  C10_18 
ROOT
HETATM    1  N3  UNL     1      37.992 -25.202  12.849  1.00  0.00    -0.353 N 
ATOM      2  H3  UNL     1      38.000 -24.414  12.201  1.00  0.00     0.163 HD
HETATM    3  C8  UNL     1      38.536 -25.017  14.145  1.00  0.00     0.222 C 
HETATM    4  O3  UNL     1      38.547 -25.961  14.973  1.00  0.00    -0.273 OA
ENDROOT
BRANCH   3   5
HETATM    5  C9  UNL     1      39.112 -23.716  14.575  1.00  0.00     0.148 C 
BRANCH   5   6
HETATM    6  C10 UNL     1      38.737 -23.375  15.960  1.00  0.00     0.033 A 
HETATM    7  C11 UNL     1      37.503 -22.814  16.228  1.00  0.00    -0.036 A 
HETATM    8  C12 UNL     1      36.513 -22.538  15.173  1.00  0.00     0.050 C 
HETATM    9  C13 UNL     1      37.206 -22.514  17.533  1.00  0.00     0.006 A 
HETATM   10  C14 UNL     1      35.982 -21.954  17.827  1.00  0.00     0.035 A 
HETATM   11  C18 UNL     1      38.106 -22.756  18.577  1.00  0.00     0.092 A 
HETATM   12  C15 UNL     1      35.629 -21.629  19.143  1.00  0.00     0.033 A 
HETATM   13 BR1  UNL     1      33.937 -20.866  19.478  1.00  0.00    -0.049 Br
HETATM   14  C16 UNL     1      36.547 -21.884  20.145  1.00  0.00     0.054 A 
HETATM   15 CL1  UNL     1      36.136 -21.485  21.819  1.00  0.00    -0.083 Cl
HETATM   16  C17 UNL     1      37.781 -22.443  19.888  1.00  0.00     0.063 A 
HETATM   17  O4  UNL     1      39.254 -23.288  18.251  1.00  0.00    -0.274 OA
HETATM   18  C19 UNL     1      39.581 -23.590  17.030  1.00  0.00     0.295 A 
HETATM   19  O5  UNL     1      40.710 -24.102  16.780  1.00  0.00    -0.259 OA
ENDBRANCH   5   6
ENDBRANCH   3   5
BRANCH   1  20
HETATM   20  C7  UNL     1      37.427 -26.454  12.403  1.00  0.00     0.131 C 
HETATM   21  C6  UNL     1      37.361 -26.526  10.892  1.00  0.00     0.131 C 
HETATM   22  C5  UNL     1      36.165 -27.352  10.644  1.00  0.00     0.223 C 
HETATM   23  N2  UNL     1      35.457 -27.513  11.889  1.00  0.00    -0.324 N 
HETATM   24  O2  UNL     1      35.756 -27.864   9.584  1.00  0.00    -0.273 OA
HETATM   25  C20 UNL     1      35.974 -26.510  12.793  1.00  0.00     0.207 C 
HETATM   26 CL2  UNL     1      35.250 -24.940  12.356  1.00  0.00    -0.100 Cl
BRANCH  23  27
HETATM   27  C4  UNL     1      34.435 -28.468  12.210  1.00  0.00     0.230 C 
BRANCH  27  28
HETATM   28  C3  UNL     1      33.138 -28.135  11.590  1.00  0.00     0.235 C 
HETATM   29  N1  UNL     1      32.036 -29.012  11.570  1.00  0.00    -0.360 N 
ATOM     30  H1  UNL     1      32.140 -29.927  12.007  1.00  0.00     0.162 HD
HETATM   31  O1  UNL     1      32.978 -27.004  11.040  1.00  0.00    -0.272 OA
BRANCH  29  32
HETATM   32  C2  UNL     1      30.765 -28.685  10.964  1.00  0.00     0.118 C 
HETATM   33  C1  UNL     1      29.634 -29.211  11.786  1.00  0.00     0.026 C 
ENDBRANCH  29  32
ENDBRANCH  27  28
ENDBRANCH  23  27
ENDBRANCH   1  20
TORSDOF 6
ENDMDL
MODEL 5
REMARK VINA RESULT: -9.056617932      1.463      2.082
REMARK  6 active torsions:
REMARK  status: ('A' for Active; 'I' for Inactive)
REMARK    1  A    between atoms: C2_2  and  N1_3 
REMARK       I    between atoms: N1_3  and  C3_5 
REMARK    2  A    between atoms: C3_5  and  C4_7 
REMARK    3  A    between atoms: C4_7  and  N2_8 
REMARK    4  A    between atoms: C7_12  and  N3_13 
REMARK       I    between atoms: N3_13  and  C8_15 
REMARK    5  A    between atoms: C8_15  and  C9_17 
REMARK    6  A    between atoms: C9_17  and  C10_18 
ROOT
HETATM    1  N3  UNL     1      37.460 -24.970  12.843  1.00  0.00    -0.353 N 
ATOM      2  H3  UNL     1      37.467 -24.131  12.263  1.00  0.00     0.163 HD
HETATM    3  C8  UNL     1      38.178 -24.953  14.066  1.00  0.00     0.222 C 
HETATM    4  O3  UNL     1      38.197 -25.966  14.808  1.00  0.00    -0.273 OA
ENDROOT
BRANCH   3   5
HETATM    5  C9  UNL     1      38.930 -23.754  14.517  1.00  0.00     0.148 C 
BRANCH   5   6
HETATM    6  C10 UNL     1      38.630 -23.406  15.918  1.00  0.00     0.033 A 
HETATM    7  C11 UNL     1      37.410 -22.849  16.250  1.00  0.00    -0.036 A 
HETATM    8  C12 UNL     1      36.362 -22.582  15.250  1.00  0.00     0.050 C 
HETATM    9  C13 UNL     1      37.184 -22.542  17.568  1.00  0.00     0.006 A 
HETATM   10  C14 UNL     1      35.975 -21.985  17.926  1.00  0.00     0.035 A 
HETATM   11  C18 UNL     1      38.142 -22.775  18.562  1.00  0.00     0.092 A 
HETATM   12  C15 UNL     1      35.695 -21.654  19.258  1.00  0.00     0.033 A 
HETATM   13 BR1  UNL     1      34.019 -20.897  19.681  1.00  0.00    -0.049 Br
HETATM   14  C16 UNL     1      36.667 -21.900  20.209  1.00  0.00     0.054 A 
HETATM   15 CL1  UNL     1      36.347 -21.494  21.901  1.00  0.00    -0.083 Cl
HETATM   16  C17 UNL     1      37.887 -22.455  19.888  1.00  0.00     0.063 A 
HETATM   17  O4  UNL     1      39.271 -23.304  18.177  1.00  0.00    -0.274 OA
HETATM   18  C19 UNL     1      39.533 -23.611  16.942  1.00  0.00     0.295 A 
HETATM   19  O5  UNL     1      40.649 -24.121  16.633  1.00  0.00    -0.259 OA
ENDBRANCH   5   6
ENDBRANCH   3   5
BRANCH   1  20
HETATM   20  C7  UNL     1      36.722 -26.121  12.379  1.00  0.00     0.131 C 
HETATM   21  C6  UNL     1      37.151 -26.532  10.986  1.00  0.00     0.131 C 
HETATM   22  C5  UNL     1      35.917 -27.085  10.399  1.00  0.00     0.223 C 
HETATM   23  N2  UNL     1      34.817 -26.774  11.278  1.00  0.00    -0.324 N 
HETATM   24  O2  UNL     1      35.753 -27.721   9.341  1.00  0.00    -0.273 OA
HETATM   25  C20 UNL     1      35.281 -25.737  12.173  1.00  0.00     0.207 C 
HETATM   26 CL2  UNL     1      35.270 -24.191  11.287  1.00  0.00    -0.100 Cl
BRANCH  23  27
HETATM   27  C4  UNL     1      33.505 -27.355  11.295  1.00  0.00     0.230 C 
BRANCH  27  28
HETATM   28  C3  UNL     1      32.768 -27.118  10.039  1.00  0.00     0.235 C 
HETATM   29  N1  UNL     1      32.582 -25.841   9.474  1.00  0.00    -0.360 N 
ATOM     30  H1  UNL     1      32.979 -25.037   9.959  1.00  0.00     0.162 HD
HETATM   31  O1  UNL     1      32.263 -28.098   9.413  1.00  0.00    -0.272 OA
BRANCH  29  32
HETATM   32  C2  UNL     1      31.861 -25.609   8.243  1.00  0.00     0.118 C 
HETATM   33  C1  UNL     1      30.431 -25.272   8.521  1.00  0.00     0.026 C 
ENDBRANCH  29  32
ENDBRANCH  27  28
ENDBRANCH  23  27
ENDBRANCH   1  20
TORSDOF 6
ENDMDL
