MODEL 1
REMARK VINA RESULT: -7.221665830      0.000      0.000
REMARK  9 active torsions:
REMARK  status: ('A' for Active; 'I' for Inactive)
REMARK    1  A    between atoms: C2_2  and  C3_3 
REMARK    2  A    between atoms: C3_3  and  C4_4 
REMARK    3  A    between atoms: C4_4  and  C5_5 
REMARK    4  A    between atoms: C14_19  and  C15_20 
REMARK       I    between atoms: C15_20  and  N3_22 
REMARK    5  A    between atoms: N3_22  and  C16_24 
REMARK    6  A    between atoms: C16_24  and  C17_25 
REMARK    7  A    between atoms: C17_25  and  C18_26 
REMARK    8  A    between atoms: C18_26  and  N4_27 
REMARK    9  A    between atoms: C24_33  and  N5_34 
ROOT
HETATM    1  C4  UNL     1       2.391   3.175  20.391  1.00  0.00     0.108 C 
HETATM    2  O1  UNL     1       1.802   2.218  21.227  1.00  0.00    -0.373 OA
HETATM    3  C10 UNL     1       1.180   2.694  22.337  1.00  0.00     0.174 C 
HETATM    4  C11 UNL     1       2.130   3.333  23.344  1.00  0.00     0.069 C 
HETATM    5  C12 UNL     1       2.942   4.325  22.597  1.00  0.00    -0.000 A 
HETATM    6  C13 UNL     1       3.032   4.210  21.241  1.00  0.00     0.069 A 
HETATM    7  N1  UNL     1       3.776   5.127  20.560  1.00  0.00    -0.301 N 
ATOM      8  H1  UNL     1       3.848   5.050  19.546  1.00  0.00     0.186 HD
HETATM    9  N2  UNL     1       4.403   6.109  21.171  1.00  0.00    -0.293 N 
ATOM     10  H2  UNL     1       4.949   6.773  20.623  1.00  0.00     0.187 HD
HETATM   11  C14 UNL     1       4.336   6.250  22.490  1.00  0.00     0.143 A 
HETATM   12  C24 UNL     1       3.604   5.360  23.240  1.00  0.00     0.068 A 
ENDROOT
BRANCH  11  13
HETATM   13  C15 UNL     1       5.029   7.344  23.138  1.00  0.00     0.271 C 
HETATM   14  O2  UNL     1       5.955   7.104  23.979  1.00  0.00    -0.266 OA
HETATM   15  N3  UNL     1       4.675   8.677  22.837  1.00  0.00    -0.355 N 
ATOM     16  H3  UNL     1       3.933   8.825  22.153  1.00  0.00     0.162 HD
BRANCH  15  17
HETATM   17  C16 UNL     1       5.280   9.834  23.418  1.00  0.00     0.125 C 
BRANCH  17  18
HETATM   18  C17 UNL     1       5.405  10.922  22.382  1.00  0.00     0.050 C 
BRANCH  18  19
HETATM   19  C18 UNL     1       5.934  10.278  21.115  1.00  0.00     0.274 C 
BRANCH  19  20
HETATM   20  N4  UNL     1       7.138  10.899  20.636  1.00  0.00     0.088 N 
HETATM   21  C19 UNL     1       8.036   9.999  19.994  1.00  0.00     0.272 C 
HETATM   22  C20 UNL     1       8.136  10.295  18.529  1.00  0.00     0.030 C 
HETATM   23  C21 UNL     1       8.854  11.638  18.406  1.00  0.00     0.003 C 
HETATM   24  C22 UNL     1       7.951  12.647  19.089  1.00  0.00     0.030 C 
HETATM   25  C23 UNL     1       6.796  12.001  19.794  1.00  0.00     0.272 C 
ENDBRANCH  19  20
ENDBRANCH  18  19
ENDBRANCH  17  18
ENDBRANCH  15  17
ENDBRANCH  11  13
BRANCH  12  26
HETATM   26  N5  UNL     1       3.518   5.447  24.514  1.00  0.00    -0.397 N 
ATOM     27  H52 UNL     1       2.635   5.631  24.990  1.00  0.00     0.156 HD
ATOM     28  H51 UNL     1       4.365   5.335  25.071  1.00  0.00     0.156 HD
ENDBRANCH  12  26
BRANCH   1  29
HETATM   29  C3  UNL     1       1.316   3.827  19.627  1.00  0.00     0.045 C 
BRANCH  29  30
HETATM   30  C2  UNL     1      -0.029   3.161  19.630  1.00  0.00    -0.001 C 
HETATM   31  C1  UNL     1      -0.336   2.605  18.216  1.00  0.00     0.005 C 
ENDBRANCH  29  30
ENDBRANCH   1  29
BRANCH   1  32
HETATM   32  C5  UNL     1       3.479   2.475  19.626  1.00  0.00     0.026 C 
HETATM   33  C6  UNL     1       4.463   1.852  20.602  1.00  0.00     0.008 C 
HETATM   34  C7  UNL     1       4.273   0.360  20.570  1.00  0.00     0.001 C 
HETATM   35  C8  UNL     1       3.841   0.104  19.132  1.00  0.00     0.001 C 
HETATM   36  C9  UNL     1       3.017   1.336  18.774  1.00  0.00     0.008 C 
ENDBRANCH   1  32
TORSDOF 9
ENDMDL
MODEL 2
REMARK VINA RESULT: -7.099818423      1.254      1.822
REMARK  9 active torsions:
REMARK  status: ('A' for Active; 'I' for Inactive)
REMARK    1  A    between atoms: C2_2  and  C3_3 
REMARK    2  A    between atoms: C3_3  and  C4_4 
REMARK    3  A    between atoms: C4_4  and  C5_5 
REMARK    4  A    between atoms: C14_19  and  C15_20 
REMARK       I    between atoms: C15_20  and  N3_22 
REMARK    5  A    between atoms: N3_22  and  C16_24 
REMARK    6  A    between atoms: C16_24  and  C17_25 
REMARK    7  A    between atoms: C17_25  and  C18_26 
REMARK    8  A    between atoms: C18_26  and  N4_27 
REMARK    9  A    between atoms: C24_33  and  N5_34 
ROOT
HETATM    1  C4  UNL     1       1.991   2.522  20.164  1.00  0.00     0.108 C 
HETATM    2  O1  UNL     1       1.428   1.824  21.239  1.00  0.00    -0.373 OA
HETATM    3  C10 UNL     1       0.944   2.581  22.258  1.00  0.00     0.174 C 
HETATM    4  C11 UNL     1       2.020   3.350  23.015  1.00  0.00     0.069 C 
HETATM    5  C12 UNL     1       2.816   4.084  22.001  1.00  0.00    -0.000 A 
HETATM    6  C13 UNL     1       2.771   3.666  20.703  1.00  0.00     0.069 A 
HETATM    7  N1  UNL     1       3.500   4.347  19.775  1.00  0.00    -0.301 N 
ATOM      8  H1  UNL     1       3.472   4.042  18.803  1.00  0.00     0.186 HD
HETATM    9  N2  UNL     1       4.240   5.387  20.096  1.00  0.00    -0.293 N 
ATOM     10  H2  UNL     1       4.770   5.868  19.371  1.00  0.00     0.187 HD
HETATM   11  C14 UNL     1       4.306   5.821  21.349  1.00  0.00     0.143 A 
HETATM   12  C24 UNL     1       3.596   5.180  22.338  1.00  0.00     0.068 A 
ENDROOT
BRANCH  11  13
HETATM   13  C15 UNL     1       5.121   6.973  21.675  1.00  0.00     0.271 C 
HETATM   14  O2  UNL     1       5.848   6.965  22.722  1.00  0.00    -0.266 OA
HETATM   15  N3  UNL     1       5.107   8.105  20.832  1.00  0.00    -0.355 N 
ATOM     16  H3  UNL     1       4.516   8.068  20.002  1.00  0.00     0.162 HD
BRANCH  15  17
HETATM   17  C16 UNL     1       5.860   9.300  21.056  1.00  0.00     0.125 C 
BRANCH  17  18
HETATM   18  C17 UNL     1       7.197   9.199  20.367  1.00  0.00     0.050 C 
BRANCH  18  19
HETATM   19  C18 UNL     1       7.694  10.614  20.140  1.00  0.00     0.274 C 
BRANCH  19  20
HETATM   20  N4  UNL     1       7.737  10.972  18.750  1.00  0.00     0.088 N 
HETATM   21  C19 UNL     1       8.461  12.170  18.484  1.00  0.00     0.272 C 
HETATM   22  C20 UNL     1       9.720  11.878  17.725  1.00  0.00     0.030 C 
HETATM   23  C21 UNL     1       9.289  11.425  16.331  1.00  0.00     0.003 C 
HETATM   24  C22 UNL     1       8.493  10.152  16.544  1.00  0.00     0.030 C 
HETATM   25  C23 UNL     1       8.239   9.869  17.994  1.00  0.00     0.272 C 
ENDBRANCH  19  20
ENDBRANCH  18  19
ENDBRANCH  17  18
ENDBRANCH  15  17
ENDBRANCH  11  13
BRANCH  12  26
HETATM   26  N5  UNL     1       3.636   5.554  23.561  1.00  0.00    -0.397 N 
ATOM     27  H52 UNL     1       3.680   4.889  24.333  1.00  0.00     0.156 HD
ATOM     28  H51 UNL     1       3.616   6.552  23.769  1.00  0.00     0.156 HD
ENDBRANCH  12  26
BRANCH   1  29
HETATM   29  C3  UNL     1       0.890   3.072  19.359  1.00  0.00     0.045 C 
BRANCH  29  30
HETATM   30  C2  UNL     1      -0.367   2.259  19.270  1.00  0.00    -0.001 C 
HETATM   31  C1  UNL     1      -0.821   2.166  17.790  1.00  0.00     0.005 C 
ENDBRANCH  29  30
ENDBRANCH   1  29
BRANCH   1  32
HETATM   32  C5  UNL     1       2.959   1.586  19.495  1.00  0.00     0.026 C 
HETATM   33  C6  UNL     1       2.808   0.195  20.087  1.00  0.00     0.008 C 
HETATM   34  C7  UNL     1       2.141  -0.681  19.060  1.00  0.00     0.001 C 
HETATM   35  C8  UNL     1       2.634  -0.095  17.744  1.00  0.00     0.001 C 
HETATM   36  C9  UNL     1       2.742   1.400  18.027  1.00  0.00     0.008 C 
ENDBRANCH   1  32
TORSDOF 9
ENDMDL
MODEL 3
REMARK VINA RESULT: -6.988183348      2.583      8.801
REMARK  9 active torsions:
REMARK  status: ('A' for Active; 'I' for Inactive)
REMARK    1  A    between atoms: C2_2  and  C3_3 
REMARK    2  A    between atoms: C3_3  and  C4_4 
REMARK    3  A    between atoms: C4_4  and  C5_5 
REMARK    4  A    between atoms: C14_19  and  C15_20 
REMARK       I    between atoms: C15_20  and  N3_22 
REMARK    5  A    between atoms: N3_22  and  C16_24 
REMARK    6  A    between atoms: C16_24  and  C17_25 
REMARK    7  A    between atoms: C17_25  and  C18_26 
REMARK    8  A    between atoms: C18_26  and  N4_27 
REMARK    9  A    between atoms: C24_33  and  N5_34 
ROOT
HETATM    1  C4  UNL     1       4.248   9.132  24.014  1.00  0.00     0.108 C 
HETATM    2  O1  UNL     1       5.032  10.210  23.586  1.00  0.00    -0.373 OA
HETATM    3  C10 UNL     1       4.972  10.508  22.262  1.00  0.00     0.174 C 
HETATM    4  C11 UNL     1       5.555   9.423  21.364  1.00  0.00     0.069 C 
HETATM    5  C12 UNL     1       4.909   8.147  21.758  1.00  0.00    -0.000 A 
HETATM    6  C13 UNL     1       4.322   8.062  22.986  1.00  0.00     0.069 A 
HETATM    7  N1  UNL     1       3.726   6.889  23.341  1.00  0.00    -0.301 N 
ATOM      8  H1  UNL     1       3.284   6.816  24.258  1.00  0.00     0.186 HD
HETATM    9  N2  UNL     1       3.703   5.847  22.538  1.00  0.00    -0.293 N 
ATOM     10  H2  UNL     1       3.246   4.988  22.843  1.00  0.00     0.187 HD
HETATM   11  C14 UNL     1       4.265   5.896  21.336  1.00  0.00     0.143 A 
HETATM   12  C24 UNL     1       4.884   7.048  20.913  1.00  0.00     0.068 A 
ENDROOT
BRANCH  11  13
HETATM   13  C15 UNL     1       4.218   4.738  20.467  1.00  0.00     0.271 C 
HETATM   14  O2  UNL     1       5.257   4.018  20.309  1.00  0.00    -0.266 OA
HETATM   15  N3  UNL     1       3.021   4.410  19.795  1.00  0.00    -0.355 N 
ATOM     16  H3  UNL     1       2.211   5.009  19.954  1.00  0.00     0.162 HD
BRANCH  15  17
HETATM   17  C16 UNL     1       2.859   3.301  18.909  1.00  0.00     0.125 C 
BRANCH  17  18
HETATM   18  C17 UNL     1       2.513   2.062  19.695  1.00  0.00     0.050 C 
BRANCH  18  19
HETATM   19  C18 UNL     1       3.379   0.936  19.165  1.00  0.00     0.274 C 
BRANCH  19  20
HETATM   20  N4  UNL     1       4.561   0.725  19.953  1.00  0.00     0.088 N 
HETATM   21  C19 UNL     1       4.332   0.757  21.358  1.00  0.00     0.272 C 
HETATM   22  C20 UNL     1       4.535  -0.597  21.967  1.00  0.00     0.030 C 
HETATM   23  C21 UNL     1       6.031  -0.895  21.872  1.00  0.00     0.003 C 
HETATM   24  C22 UNL     1       6.347  -0.928  20.389  1.00  0.00     0.030 C 
HETATM   25  C23 UNL     1       5.187  -0.492  19.544  1.00  0.00     0.272 C 
ENDBRANCH  19  20
ENDBRANCH  18  19
ENDBRANCH  17  18
ENDBRANCH  15  17
ENDBRANCH  11  13
BRANCH  12  26
HETATM   26  N5  UNL     1       5.449   7.141  19.768  1.00  0.00    -0.397 N 
ATOM     27  H52 UNL     1       5.136   7.802  19.057  1.00  0.00     0.156 HD
ATOM     28  H51 UNL     1       6.235   6.526  19.558  1.00  0.00     0.156 HD
ENDBRANCH  12  26
BRANCH   1  29
HETATM   29  C3  UNL     1       2.852   9.591  24.082  1.00  0.00     0.045 C 
BRANCH  29  30
HETATM   30  C2  UNL     1       2.619  11.025  24.453  1.00  0.00    -0.001 C 
HETATM   31  C1  UNL     1       1.647  11.099  25.659  1.00  0.00     0.005 C 
ENDBRANCH  29  30
ENDBRANCH   1  29
BRANCH   1  32
HETATM   32  C5  UNL     1       4.882   8.603  25.270  1.00  0.00     0.026 C 
HETATM   33  C6  UNL     1       5.818   9.653  25.844  1.00  0.00     0.008 C 
HETATM   34  C7  UNL     1       5.184  10.216  27.088  1.00  0.00     0.001 C 
HETATM   35  C8  UNL     1       4.395   9.033  27.631  1.00  0.00     0.001 C 
HETATM   36  C9  UNL     1       3.925   8.301  26.378  1.00  0.00     0.008 C 
ENDBRANCH   1  32
TORSDOF 9
ENDMDL
MODEL 4
REMARK VINA RESULT: -6.938965829      1.829      3.533
REMARK  9 active torsions:
REMARK  status: ('A' for Active; 'I' for Inactive)
REMARK    1  A    between atoms: C2_2  and  C3_3 
REMARK    2  A    between atoms: C3_3  and  C4_4 
REMARK    3  A    between atoms: C4_4  and  C5_5 
REMARK    4  A    between atoms: C14_19  and  C15_20 
REMARK       I    between atoms: C15_20  and  N3_22 
REMARK    5  A    between atoms: N3_22  and  C16_24 
REMARK    6  A    between atoms: C16_24  and  C17_25 
REMARK    7  A    between atoms: C17_25  and  C18_26 
REMARK    8  A    between atoms: C18_26  and  N4_27 
REMARK    9  A    between atoms: C24_33  and  N5_34 
ROOT
HETATM    1  C4  UNL     1       2.866   3.677  20.927  1.00  0.00     0.108 C 
HETATM    2  O1  UNL     1       2.741   3.135  22.212  1.00  0.00    -0.373 OA
HETATM    3  C10 UNL     1       2.479   4.017  23.212  1.00  0.00     0.174 C 
HETATM    4  C11 UNL     1       3.616   4.995  23.479  1.00  0.00     0.069 C 
HETATM    5  C12 UNL     1       3.975   5.604  22.174  1.00  0.00    -0.000 A 
HETATM    6  C13 UNL     1       3.608   4.960  21.029  1.00  0.00     0.069 A 
HETATM    7  N1  UNL     1       3.936   5.526  19.833  1.00  0.00    -0.301 N 
ATOM      8  H1  UNL     1       3.666   5.052  18.971  1.00  0.00     0.186 HD
HETATM    9  N2  UNL     1       4.590   6.665  19.757  1.00  0.00    -0.293 N 
ATOM     10  H2  UNL     1       4.816   7.053  18.842  1.00  0.00     0.187 HD
HETATM   11  C14 UNL     1       4.962   7.317  20.852  1.00  0.00     0.143 A 
HETATM   12  C24 UNL     1       4.665   6.804  22.093  1.00  0.00     0.068 A 
ENDROOT
BRANCH  11  13
HETATM   13  C15 UNL     1       5.674   8.574  20.741  1.00  0.00     0.271 C 
HETATM   14  O2  UNL     1       6.944   8.580  20.642  1.00  0.00    -0.266 OA
HETATM   15  N3  UNL     1       4.958   9.790  20.744  1.00  0.00    -0.355 N 
ATOM     16  H3  UNL     1       3.942   9.740  20.819  1.00  0.00     0.162 HD
BRANCH  15  17
HETATM   17  C16 UNL     1       5.551  11.087  20.649  1.00  0.00     0.125 C 
BRANCH  17  18
HETATM   18  C17 UNL     1       5.895  11.595  22.026  1.00  0.00     0.050 C 
BRANCH  18  19
HETATM   19  C18 UNL     1       4.654  12.266  22.583  1.00  0.00     0.274 C 
BRANCH  19  20
HETATM   20  N4  UNL     1       4.366  11.871  23.933  1.00  0.00     0.088 N 
HETATM   21  C19 UNL     1       3.000  11.534  24.157  1.00  0.00     0.272 C 
HETATM   22  C20 UNL     1       2.848  10.070  24.440  1.00  0.00     0.030 C 
HETATM   23  C21 UNL     1       3.488   9.825  25.806  1.00  0.00     0.003 C 
HETATM   24  C22 UNL     1       4.952  10.183  25.641  1.00  0.00     0.030 C 
HETATM   25  C23 UNL     1       5.244  10.810  24.311  1.00  0.00     0.272 C 
ENDBRANCH  19  20
ENDBRANCH  18  19
ENDBRANCH  17  18
ENDBRANCH  15  17
ENDBRANCH  11  13
BRANCH  12  26
HETATM   26  N5  UNL     1       5.010   7.389  23.176  1.00  0.00    -0.397 N 
ATOM     27  H52 UNL     1       4.567   8.250  23.497  1.00  0.00     0.156 HD
ATOM     28  H51 UNL     1       5.760   6.983  23.735  1.00  0.00     0.156 HD
ENDBRANCH  12  26
BRANCH   1  29
HETATM   29  C3  UNL     1       1.514   3.982  20.434  1.00  0.00     0.045 C 
BRANCH  29  30
HETATM   30  C2  UNL     1       0.389   3.137  20.954  1.00  0.00    -0.001 C 
HETATM   31  C1  UNL     1      -0.285   2.386  19.776  1.00  0.00     0.005 C 
ENDBRANCH  29  30
ENDBRANCH   1  29
BRANCH   1  32
HETATM   32  C5  UNL     1       3.712   2.723  20.131  1.00  0.00     0.026 C 
HETATM   33  C6  UNL     1       3.985   1.479  20.959  1.00  0.00     0.008 C 
HETATM   34  C7  UNL     1       3.181   0.345  20.380  1.00  0.00     0.001 C 
HETATM   35  C8  UNL     1       3.131   0.689  18.897  1.00  0.00     0.001 C 
HETATM   36  C9  UNL     1       3.076   2.213  18.878  1.00  0.00     0.008 C 
ENDBRANCH   1  32
TORSDOF 9
ENDMDL
MODEL 5
REMARK VINA RESULT: -6.793511742      1.487      3.202
REMARK  9 active torsions:
REMARK  status: ('A' for Active; 'I' for Inactive)
REMARK    1  A    between atoms: C2_2  and  C3_3 
REMARK    2  A    between atoms: C3_3  and  C4_4 
REMARK    3  A    between atoms: C4_4  and  C5_5 
REMARK    4  A    between atoms: C14_19  and  C15_20 
REMARK       I    between atoms: C15_20  and  N3_22 
REMARK    5  A    between atoms: N3_22  and  C16_24 
REMARK    6  A    between atoms: C16_24  and  C17_25 
REMARK    7  A    between atoms: C17_25  and  C18_26 
REMARK    8  A    between atoms: C18_26  and  N4_27 
REMARK    9  A    between atoms: C24_33  and  N5_34 
ROOT
HETATM    1  C4  UNL     1       2.282   2.962  21.337  1.00  0.00     0.108 C 
HETATM    2  O1  UNL     1       1.924   2.559  20.044  1.00  0.00    -0.373 OA
HETATM    3  C10 UNL     1       2.870   2.718  19.083  1.00  0.00     0.174 C 
HETATM    4  C11 UNL     1       3.206   4.175  18.790  1.00  0.00     0.069 C 
HETATM    5  C12 UNL     1       3.513   4.815  20.093  1.00  0.00    -0.000 A 
HETATM    6  C13 UNL     1       3.066   4.219  21.236  1.00  0.00     0.069 A 
HETATM    7  N1  UNL     1       3.354   4.809  22.431  1.00  0.00    -0.301 N 
ATOM      8  H1  UNL     1       3.024   4.371  23.290  1.00  0.00     0.186 HD
HETATM    9  N2  UNL     1       4.044   5.926  22.508  1.00  0.00    -0.293 N 
ATOM     10  H2  UNL     1       4.237   6.334  23.422  1.00  0.00     0.187 HD
HETATM   11  C14 UNL     1       4.494   6.532  21.415  1.00  0.00     0.143 A 
HETATM   12  C24 UNL     1       4.240   5.993  20.176  1.00  0.00     0.068 A 
ENDROOT
BRANCH  11  13
HETATM   13  C15 UNL     1       5.259   7.757  21.528  1.00  0.00     0.271 C 
HETATM   14  O2  UNL     1       6.464   7.796  21.117  1.00  0.00    -0.266 OA
HETATM   15  N3  UNL     1       4.667   8.906  22.095  1.00  0.00    -0.355 N 
ATOM     16  H3  UNL     1       3.698   8.834  22.406  1.00  0.00     0.162 HD
BRANCH  15  17
HETATM   17  C16 UNL     1       5.324  10.164  22.266  1.00  0.00     0.125 C 
BRANCH  17  18
HETATM   18  C17 UNL     1       5.644  10.762  20.920  1.00  0.00     0.050 C 
BRANCH  18  19
HETATM   19  C18 UNL     1       6.604  11.912  21.154  1.00  0.00     0.274 C 
BRANCH  19  20
HETATM   20  N4  UNL     1       7.782  11.829  20.338  1.00  0.00     0.088 N 
HETATM   21  C19 UNL     1       8.185  10.496  20.040  1.00  0.00     0.272 C 
HETATM   22  C20 UNL     1       8.007  10.195  18.583  1.00  0.00     0.030 C 
HETATM   23  C21 UNL     1       9.041  11.037  17.838  1.00  0.00     0.003 C 
HETATM   24  C22 UNL     1       8.677  12.480  18.128  1.00  0.00     0.030 C 
HETATM   25  C23 UNL     1       7.591  12.604  19.154  1.00  0.00     0.272 C 
ENDBRANCH  19  20
ENDBRANCH  18  19
ENDBRANCH  17  18
ENDBRANCH  15  17
ENDBRANCH  11  13
BRANCH  12  26
HETATM   26  N5  UNL     1       4.642   6.544  19.094  1.00  0.00    -0.397 N 
ATOM     27  H52 UNL     1       5.442   6.193  18.567  1.00  0.00     0.156 HD
ATOM     28  H51 UNL     1       4.149   7.368  18.751  1.00  0.00     0.156 HD
ENDBRANCH  12  26
BRANCH   1  29
HETATM   29  C3  UNL     1       3.165   1.929  21.900  1.00  0.00     0.045 C 
BRANCH  29  30
HETATM   30  C2  UNL     1       2.942   0.516  21.451  1.00  0.00    -0.001 C 
HETATM   31  C1  UNL     1       4.286  -0.099  20.982  1.00  0.00     0.005 C 
ENDBRANCH  29  30
ENDBRANCH   1  29
BRANCH   1  32
HETATM   32  C5  UNL     1       1.006   3.277  22.066  1.00  0.00     0.026 C 
HETATM   33  C6  UNL     1      -0.180   2.917  21.186  1.00  0.00     0.008 C 
HETATM   34  C7  UNL     1      -0.832   1.687  21.758  1.00  0.00     0.001 C 
HETATM   35  C8  UNL     1      -0.577   1.833  23.253  1.00  0.00     0.001 C 
HETATM   36  C9  UNL     1       0.793   2.501  23.326  1.00  0.00     0.008 C 
ENDBRANCH   1  32
TORSDOF 9
ENDMDL
