MODEL 1
REMARK VINA RESULT: -7.960857126      0.000      0.000
REMARK  10 active torsions:
REMARK  status: ('A' for Active; 'I' for Inactive)
REMARK    1  A    between atoms: O1_1  and  C1_3 
REMARK    2  A    between atoms: C1_3  and  C2_4 
REMARK    3  A    between atoms: N1_5  and  C3_6 
REMARK    4  A    between atoms: C3_6  and  C4_7 
REMARK    5  A    between atoms: C14_17  and  O2_18 
REMARK    6  A    between atoms: O2_18  and  C15_19 
REMARK    7  A    between atoms: C15_19  and  C16_20 
REMARK    8  A    between atoms: C16_20  and  O3_21 
REMARK    9  A    between atoms: O3_21  and  C17_22 
REMARK   10  A    between atoms: C25_30  and  O4_31 
ROOT
HETATM    1  C2  UNL     1       5.768  10.599  20.978  1.00  0.00     0.052 C 
HETATM    2  N1  UNL     1       6.572   9.585  20.517  1.00  0.00    -0.354 N 
HETATM    3  C10 UNL     1       5.968   8.303  20.190  1.00  0.00     0.167 C 
HETATM    4  C11 UNL     1       5.339   7.894  21.503  1.00  0.00    -0.030 A 
HETATM    5  C12 UNL     1       5.337   6.698  22.154  1.00  0.00     0.012 A 
HETATM    6  C13 UNL     1       4.767   6.608  23.440  1.00  0.00     0.038 A 
HETATM    7  C14 UNL     1       4.222   7.746  24.021  1.00  0.00     0.075 A 
HETATM    8  C23 UNL     1       4.219   8.981  23.365  1.00  0.00    -0.011 A 
HETATM    9  C24 UNL     1       4.776   8.904  22.177  1.00  0.00    -0.001 A 
HETATM   10  C25 UNL     1       4.487  10.231  21.643  1.00  0.00     0.130 C 
HETATM   11  C26 UNL     1       4.060  10.452  23.041  1.00  0.00     0.091 C 
ENDROOT
BRANCH   7  12
HETATM   12  O2  UNL     1       3.641   7.766  25.277  1.00  0.00    -0.348 OA
BRANCH  12  13
HETATM   13  C15 UNL     1       4.107   6.956  26.347  1.00  0.00     0.202 C 
BRANCH  13  14
HETATM   14  C16 UNL     1       4.550   7.877  27.438  1.00  0.00     0.202 C 
BRANCH  14  15
HETATM   15  O3  UNL     1       5.577   8.703  27.031  1.00  0.00    -0.349 OA
BRANCH  15  16
HETATM   16  C17 UNL     1       5.655  10.044  27.244  1.00  0.00     0.068 A 
HETATM   17  C18 UNL     1       4.906  10.895  26.427  1.00  0.00     0.037 A 
HETATM   18  C19 UNL     1       4.952  12.249  26.608  1.00  0.00     0.003 A 
HETATM   19  C20 UNL     1       5.740  12.784  27.605  1.00  0.00     0.000 A 
HETATM   20  C21 UNL     1       6.470  11.957  28.403  1.00  0.00     0.003 A 
HETATM   21  C22 UNL     1       6.443  10.561  28.240  1.00  0.00     0.037 A 
ENDBRANCH  15  16
ENDBRANCH  14  15
ENDBRANCH  13  14
ENDBRANCH  12  13
ENDBRANCH   7  12
BRANCH  10  22
HETATM   22  O4  UNL     1       3.413  10.246  20.712  1.00  0.00    -0.378 OA
ATOM     23  H4  UNL     1       3.510   9.550  20.073  1.00  0.00     0.211 HD
ENDBRANCH  10  22
BRANCH   1  24
HETATM   24  C1  UNL     1       6.341  11.750  21.763  1.00  0.00     0.220 C 
BRANCH  24  25
HETATM   25  O1  UNL     1       5.787  12.971  21.411  1.00  0.00    -0.395 OA
ATOM     26  H1  UNL     1       5.157  13.289  22.047  1.00  0.00     0.209 HD
ENDBRANCH  24  25
ENDBRANCH   1  24
BRANCH   2  27
HETATM   27  C3  UNL     1       7.889   9.655  20.146  1.00  0.00     0.102 C 
BRANCH  27  28
HETATM   28  C4  UNL     1       8.308  10.311  18.892  1.00  0.00    -0.021 A 
HETATM   29  C5  UNL     1       8.654  11.622  18.844  1.00  0.00     0.013 A 
HETATM   30  C6  UNL     1       9.063  12.165  17.638  1.00  0.00     0.001 A 
HETATM   31  C7  UNL     1       9.134  11.424  16.475  1.00  0.00     0.000 A 
HETATM   32  C8  UNL     1       8.772  10.095  16.574  1.00  0.00     0.001 A 
HETATM   33  C9  UNL     1       8.364   9.540  17.755  1.00  0.00     0.013 A 
ENDBRANCH  27  28
ENDBRANCH   2  27
TORSDOF 10
ENDMDL
MODEL 2
REMARK VINA RESULT: -7.776910171      0.764      1.052
REMARK  10 active torsions:
REMARK  status: ('A' for Active; 'I' for Inactive)
REMARK    1  A    between atoms: O1_1  and  C1_3 
REMARK    2  A    between atoms: C1_3  and  C2_4 
REMARK    3  A    between atoms: N1_5  and  C3_6 
REMARK    4  A    between atoms: C3_6  and  C4_7 
REMARK    5  A    between atoms: C14_17  and  O2_18 
REMARK    6  A    between atoms: O2_18  and  C15_19 
REMARK    7  A    between atoms: C15_19  and  C16_20 
REMARK    8  A    between atoms: C16_20  and  O3_21 
REMARK    9  A    between atoms: O3_21  and  C17_22 
REMARK   10  A    between atoms: C25_30  and  O4_31 
ROOT
HETATM    1  C2  UNL     1       5.711  10.489  21.065  1.00  0.00     0.052 C 
HETATM    2  N1  UNL     1       6.498   9.486  20.552  1.00  0.00    -0.354 N 
HETATM    3  C10 UNL     1       5.872   8.235  20.156  1.00  0.00     0.167 C 
HETATM    4  C11 UNL     1       5.232   7.768  21.445  1.00  0.00    -0.030 A 
HETATM    5  C12 UNL     1       5.206   6.540  22.032  1.00  0.00     0.012 A 
HETATM    6  C13 UNL     1       4.632   6.392  23.310  1.00  0.00     0.038 A 
HETATM    7  C14 UNL     1       4.106   7.507  23.950  1.00  0.00     0.075 A 
HETATM    8  C23 UNL     1       4.127   8.775  23.361  1.00  0.00    -0.011 A 
HETATM    9  C24 UNL     1       4.685   8.752  22.171  1.00  0.00    -0.001 A 
HETATM   10  C25 UNL     1       4.423  10.109  21.708  1.00  0.00     0.130 C 
HETATM   11  C26 UNL     1       3.996  10.264  23.115  1.00  0.00     0.091 C 
ENDROOT
BRANCH   7  12
HETATM   12  O2  UNL     1       3.523   7.471  25.204  1.00  0.00    -0.348 OA
BRANCH  12  13
HETATM   13  C15 UNL     1       4.192   6.949  26.344  1.00  0.00     0.202 C 
BRANCH  13  14
HETATM   14  C16 UNL     1       5.124   8.012  26.834  1.00  0.00     0.202 C 
BRANCH  14  15
HETATM   15  O3  UNL     1       4.450   9.045  27.448  1.00  0.00    -0.349 OA
BRANCH  15  16
HETATM   16  C17 UNL     1       4.233  10.281  26.922  1.00  0.00     0.068 A 
HETATM   17  C18 UNL     1       2.914  10.697  26.717  1.00  0.00     0.037 A 
HETATM   18  C19 UNL     1       2.650  11.932  26.195  1.00  0.00     0.003 A 
HETATM   19  C20 UNL     1       3.688  12.778  25.868  1.00  0.00     0.000 A 
HETATM   20  C21 UNL     1       4.974  12.375  26.066  1.00  0.00     0.003 A 
HETATM   21  C22 UNL     1       5.276  11.112  26.602  1.00  0.00     0.037 A 
ENDBRANCH  15  16
ENDBRANCH  14  15
ENDBRANCH  13  14
ENDBRANCH  12  13
ENDBRANCH   7  12
BRANCH  10  22
HETATM   22  O4  UNL     1       3.351  10.194  20.777  1.00  0.00    -0.378 OA
ATOM     23  H4  UNL     1       3.611  10.686  20.008  1.00  0.00     0.211 HD
ENDBRANCH  10  22
BRANCH   1  24
HETATM   24  C1  UNL     1       6.304  11.585  21.912  1.00  0.00     0.220 C 
BRANCH  24  25
HETATM   25  O1  UNL     1       5.841  12.845  21.562  1.00  0.00    -0.395 OA
ATOM     26  H1  UNL     1       6.307  13.217  20.822  1.00  0.00     0.209 HD
ENDBRANCH  24  25
ENDBRANCH   1  24
BRANCH   2  27
HETATM   27  C3  UNL     1       7.817   9.552  20.188  1.00  0.00     0.102 C 
BRANCH  27  28
HETATM   28  C4  UNL     1       8.248  10.246  18.959  1.00  0.00    -0.021 A 
HETATM   29  C5  UNL     1       8.569  11.564  18.949  1.00  0.00     0.013 A 
HETATM   30  C6  UNL     1       8.992  12.144  17.766  1.00  0.00     0.001 A 
HETATM   31  C7  UNL     1       9.102  11.433  16.587  1.00  0.00     0.000 A 
HETATM   32  C8  UNL     1       8.764  10.096  16.646  1.00  0.00     0.001 A 
HETATM   33  C9  UNL     1       8.344   9.504  17.805  1.00  0.00     0.013 A 
ENDBRANCH  27  28
ENDBRANCH   2  27
TORSDOF 10
ENDMDL
MODEL 3
REMARK VINA RESULT: -7.712261216      1.403      1.898
REMARK  10 active torsions:
REMARK  status: ('A' for Active; 'I' for Inactive)
REMARK    1  A    between atoms: O1_1  and  C1_3 
REMARK    2  A    between atoms: C1_3  and  C2_4 
REMARK    3  A    between atoms: N1_5  and  C3_6 
REMARK    4  A    between atoms: C3_6  and  C4_7 
REMARK    5  A    between atoms: C14_17  and  O2_18 
REMARK    6  A    between atoms: O2_18  and  C15_19 
REMARK    7  A    between atoms: C15_19  and  C16_20 
REMARK    8  A    between atoms: C16_20  and  O3_21 
REMARK    9  A    between atoms: O3_21  and  C17_22 
REMARK   10  A    between atoms: C25_30  and  O4_31 
ROOT
HETATM    1  C2  UNL     1       5.921  10.650  20.884  1.00  0.00     0.052 C 
HETATM    2  N1  UNL     1       6.668   9.550  20.541  1.00  0.00    -0.354 N 
HETATM    3  C10 UNL     1       6.019   8.249  20.484  1.00  0.00     0.167 C 
HETATM    4  C11 UNL     1       5.493   8.086  21.893  1.00  0.00    -0.030 A 
HETATM    5  C12 UNL     1       5.523   7.017  22.736  1.00  0.00     0.012 A 
HETATM    6  C13 UNL     1       5.059   7.162  24.059  1.00  0.00     0.038 A 
HETATM    7  C14 UNL     1       4.581   8.396  24.478  1.00  0.00     0.075 A 
HETATM    8  C23 UNL     1       4.545   9.503  23.624  1.00  0.00    -0.011 A 
HETATM    9  C24 UNL     1       5.002   9.212  22.426  1.00  0.00    -0.001 A 
HETATM   10  C25 UNL     1       4.693  10.437  21.699  1.00  0.00     0.130 C 
HETATM   11  C26 UNL     1       4.384  10.903  23.068  1.00  0.00     0.091 C 
ENDROOT
BRANCH   7  12
HETATM   12  O2  UNL     1       4.105   8.645  25.753  1.00  0.00    -0.348 OA
BRANCH  12  13
HETATM   13  C15 UNL     1       4.874   9.322  26.737  1.00  0.00     0.202 C 
BRANCH  13  14
HETATM   14  C16 UNL     1       4.163  10.599  27.053  1.00  0.00     0.202 C 
BRANCH  14  15
HETATM   15  O3  UNL     1       4.799  11.692  26.504  1.00  0.00    -0.349 OA
BRANCH  15  16
HETATM   16  C17 UNL     1       4.269  12.936  26.360  1.00  0.00     0.068 A 
HETATM   17  C18 UNL     1       3.204  13.109  25.471  1.00  0.00     0.037 A 
HETATM   18  C19 UNL     1       2.637  14.341  25.299  1.00  0.00     0.003 A 
HETATM   19  C20 UNL     1       3.115  15.424  26.006  1.00  0.00     0.000 A 
HETATM   20  C21 UNL     1       4.152  15.258  26.873  1.00  0.00     0.003 A 
HETATM   21  C22 UNL     1       4.754  14.003  27.071  1.00  0.00     0.037 A 
ENDBRANCH  15  16
ENDBRANCH  14  15
ENDBRANCH  13  14
ENDBRANCH  12  13
ENDBRANCH   7  12
BRANCH  10  22
HETATM   22  O4  UNL     1       3.547  10.328  20.865  1.00  0.00    -0.378 OA
ATOM     23  H4  UNL     1       3.057   9.539  21.066  1.00  0.00     0.211 HD
ENDBRANCH  10  22
BRANCH   1  24
HETATM   24  C1  UNL     1       6.575  11.899  21.415  1.00  0.00     0.220 C 
BRANCH  24  25
HETATM   25  O1  UNL     1       6.116  13.052  20.797  1.00  0.00    -0.395 OA
ATOM     26  H1  UNL     1       6.388  13.845  21.245  1.00  0.00     0.209 HD
ENDBRANCH  24  25
ENDBRANCH   1  24
BRANCH   2  27
HETATM   27  C3  UNL     1       7.952   9.517  20.063  1.00  0.00     0.102 C 
BRANCH  27  28
HETATM   28  C4  UNL     1       8.328  10.193  18.807  1.00  0.00    -0.021 A 
HETATM   29  C5  UNL     1       8.734  11.488  18.777  1.00  0.00     0.013 A 
HETATM   30  C6  UNL     1       9.099  12.051  17.566  1.00  0.00     0.001 A 
HETATM   31  C7  UNL     1       9.066  11.346  16.379  1.00  0.00     0.000 A 
HETATM   32  C8  UNL     1       8.647  10.032  16.459  1.00  0.00     0.001 A 
HETATM   33  C9  UNL     1       8.282   9.458  17.646  1.00  0.00     0.013 A 
ENDBRANCH  27  28
ENDBRANCH   2  27
TORSDOF 10
ENDMDL
MODEL 4
REMARK VINA RESULT: -7.574169621      1.545      2.036
REMARK  10 active torsions:
REMARK  status: ('A' for Active; 'I' for Inactive)
REMARK    1  A    between atoms: O1_1  and  C1_3 
REMARK    2  A    between atoms: C1_3  and  C2_4 
REMARK    3  A    between atoms: N1_5  and  C3_6 
REMARK    4  A    between atoms: C3_6  and  C4_7 
REMARK    5  A    between atoms: C14_17  and  O2_18 
REMARK    6  A    between atoms: O2_18  and  C15_19 
REMARK    7  A    between atoms: C15_19  and  C16_20 
REMARK    8  A    between atoms: C16_20  and  O3_21 
REMARK    9  A    between atoms: O3_21  and  C17_22 
REMARK   10  A    between atoms: C25_30  and  O4_31 
ROOT
HETATM    1  C2  UNL     1       5.592  10.460  21.161  1.00  0.00     0.052 C 
HETATM    2  N1  UNL     1       6.378   9.477  20.610  1.00  0.00    -0.354 N 
HETATM    3  C10 UNL     1       5.747   8.257  20.133  1.00  0.00     0.167 C 
HETATM    4  C11 UNL     1       5.075   7.728  21.380  1.00  0.00    -0.030 A 
HETATM    5  C12 UNL     1       5.022   6.470  21.898  1.00  0.00     0.012 A 
HETATM    6  C13 UNL     1       4.419   6.260  23.154  1.00  0.00     0.038 A 
HETATM    7  C14 UNL     1       3.892   7.344  23.843  1.00  0.00     0.075 A 
HETATM    8  C23 UNL     1       3.940   8.642  23.325  1.00  0.00    -0.011 A 
HETATM    9  C24 UNL     1       4.523   8.677  22.147  1.00  0.00    -0.001 A 
HETATM   10  C25 UNL     1       4.286  10.062  21.755  1.00  0.00     0.130 C 
HETATM   11  C26 UNL     1       3.830  10.144  23.159  1.00  0.00     0.091 C 
ENDROOT
BRANCH   7  12
HETATM   12  O2  UNL     1       3.281   7.247  25.081  1.00  0.00    -0.348 OA
BRANCH  12  13
HETATM   13  C15 UNL     1       2.443   8.269  25.601  1.00  0.00     0.202 C 
BRANCH  13  14
HETATM   14  C16 UNL     1       2.967   8.624  26.956  1.00  0.00     0.202 C 
BRANCH  14  15
HETATM   15  O3  UNL     1       4.237   9.155  26.894  1.00  0.00    -0.349 OA
BRANCH  15  16
HETATM   16  C17 UNL     1       5.392   8.499  27.184  1.00  0.00     0.068 A 
HETATM   17  C18 UNL     1       5.494   7.835  28.410  1.00  0.00     0.037 A 
HETATM   18  C19 UNL     1       6.635   7.159  28.741  1.00  0.00     0.003 A 
HETATM   19  C20 UNL     1       7.696   7.128  27.862  1.00  0.00     0.000 A 
HETATM   20  C21 UNL     1       7.600   7.773  26.667  1.00  0.00     0.003 A 
HETATM   21  C22 UNL     1       6.440   8.476  26.299  1.00  0.00     0.037 A 
ENDBRANCH  15  16
ENDBRANCH  14  15
ENDBRANCH  13  14
ENDBRANCH  12  13
ENDBRANCH   7  12
BRANCH  10  22
HETATM   22  O4  UNL     1       3.235  10.211  20.808  1.00  0.00    -0.378 OA
ATOM     23  H4  UNL     1       2.788  11.040  20.928  1.00  0.00     0.211 HD
ENDBRANCH  10  22
BRANCH   1  24
HETATM   24  C1  UNL     1       6.178  11.501  22.079  1.00  0.00     0.220 C 
BRANCH  24  25
HETATM   25  O1  UNL     1       5.791  12.791  21.747  1.00  0.00    -0.395 OA
ATOM     26  H1  UNL     1       6.041  13.432  22.402  1.00  0.00     0.209 HD
ENDBRANCH  24  25
ENDBRANCH   1  24
BRANCH   2  27
HETATM   27  C3  UNL     1       7.706   9.547  20.277  1.00  0.00     0.102 C 
BRANCH  27  28
HETATM   28  C4  UNL     1       8.166  10.255  19.068  1.00  0.00    -0.021 A 
HETATM   29  C5  UNL     1       8.406  11.591  19.061  1.00  0.00     0.013 A 
HETATM   30  C6  UNL     1       8.862  12.186  17.897  1.00  0.00     0.001 A 
HETATM   31  C7  UNL     1       9.084  11.473  16.735  1.00  0.00     0.000 A 
HETATM   32  C8  UNL     1       8.826  10.118  16.791  1.00  0.00     0.001 A 
HETATM   33  C9  UNL     1       8.374   9.511  17.930  1.00  0.00     0.013 A 
ENDBRANCH  27  28
ENDBRANCH   2  27
TORSDOF 10
ENDMDL
MODEL 5
REMARK VINA RESULT: -7.562520227      1.445      2.410
REMARK  10 active torsions:
REMARK  status: ('A' for Active; 'I' for Inactive)
REMARK    1  A    between atoms: O1_1  and  C1_3 
REMARK    2  A    between atoms: C1_3  and  C2_4 
REMARK    3  A    between atoms: N1_5  and  C3_6 
REMARK    4  A    between atoms: C3_6  and  C4_7 
REMARK    5  A    between atoms: C14_17  and  O2_18 
REMARK    6  A    between atoms: O2_18  and  C15_19 
REMARK    7  A    between atoms: C15_19  and  C16_20 
REMARK    8  A    between atoms: C16_20  and  O3_21 
REMARK    9  A    between atoms: O3_21  and  C17_22 
REMARK   10  A    between atoms: C25_30  and  O4_31 
ROOT
HETATM    1  C2  UNL     1       5.862  10.691  20.891  1.00  0.00     0.052 C 
HETATM    2  N1  UNL     1       6.614   9.589  20.569  1.00  0.00    -0.354 N 
HETATM    3  C10 UNL     1       5.963   8.291  20.495  1.00  0.00     0.167 C 
HETATM    4  C11 UNL     1       5.398   8.129  21.889  1.00  0.00    -0.030 A 
HETATM    5  C12 UNL     1       5.403   7.061  22.733  1.00  0.00     0.012 A 
HETATM    6  C13 UNL     1       4.904   7.208  24.043  1.00  0.00     0.038 A 
HETATM    7  C14 UNL     1       4.419   8.444  24.449  1.00  0.00     0.075 A 
HETATM    8  C23 UNL     1       4.410   9.551  23.594  1.00  0.00    -0.011 A 
HETATM    9  C24 UNL     1       4.898   9.257  22.409  1.00  0.00    -0.001 A 
HETATM   10  C25 UNL     1       4.612  10.483  21.673  1.00  0.00     0.130 C 
HETATM   11  C26 UNL     1       4.268  10.951  23.034  1.00  0.00     0.091 C 
ENDROOT
BRANCH   7  12
HETATM   12  O2  UNL     1       3.910   8.694  25.711  1.00  0.00    -0.348 OA
BRANCH  12  13
HETATM   13  C15 UNL     1       3.931   9.987  26.300  1.00  0.00     0.202 C 
BRANCH  13  14
HETATM   14  C16 UNL     1       4.596   9.855  27.633  1.00  0.00     0.202 C 
BRANCH  14  15
HETATM   15  O3  UNL     1       5.944   9.596  27.513  1.00  0.00    -0.349 OA
BRANCH  15  16
HETATM   16  C17 UNL     1       6.545   8.390  27.696  1.00  0.00     0.068 A 
HETATM   17  C18 UNL     1       6.375   7.737  28.920  1.00  0.00     0.037 A 
HETATM   18  C19 UNL     1       6.957   6.521  29.145  1.00  0.00     0.003 A 
HETATM   19  C20 UNL     1       7.717   5.929  28.159  1.00  0.00     0.000 A 
HETATM   20  C21 UNL     1       7.884   6.562  26.965  1.00  0.00     0.003 A 
HETATM   21  C22 UNL     1       7.298   7.812  26.705  1.00  0.00     0.037 A 
ENDBRANCH  15  16
ENDBRANCH  14  15
ENDBRANCH  13  14
ENDBRANCH  12  13
ENDBRANCH   7  12
BRANCH  10  22
HETATM   22  O4  UNL     1       3.488  10.378  20.809  1.00  0.00    -0.378 OA
ATOM     23  H4  UNL     1       2.782   9.901  21.230  1.00  0.00     0.211 HD
ENDBRANCH  10  22
BRANCH   1  24
HETATM   24  C1  UNL     1       6.506  11.938  21.440  1.00  0.00     0.220 C 
BRANCH  24  25
HETATM   25  O1  UNL     1       6.169  13.078  20.724  1.00  0.00    -0.395 OA
ATOM     26  H1  UNL     1       5.616  12.893  19.974  1.00  0.00     0.209 HD
ENDBRANCH  24  25
ENDBRANCH   1  24
BRANCH   2  27
HETATM   27  C3  UNL     1       7.910   9.552  20.125  1.00  0.00     0.102 C 
BRANCH  27  28
HETATM   28  C4  UNL     1       8.317  10.201  18.864  1.00  0.00    -0.021 A 
HETATM   29  C5  UNL     1       8.722  11.496  18.817  1.00  0.00     0.013 A 
HETATM   30  C6  UNL     1       9.115  12.033  17.603  1.00  0.00     0.001 A 
HETATM   31  C7  UNL     1       9.113  11.303  16.431  1.00  0.00     0.000 A 
HETATM   32  C8  UNL     1       8.693   9.991  16.529  1.00  0.00     0.001 A 
HETATM   33  C9  UNL     1       8.300   9.441  17.719  1.00  0.00     0.013 A 
ENDBRANCH  27  28
ENDBRANCH   2  27
TORSDOF 10
ENDMDL
