MODEL 1
REMARK VINA RESULT: -7.746148254      0.000      0.000
REMARK  11 active torsions:
REMARK  status: ('A' for Active; 'I' for Inactive)
REMARK    1  A    between atoms: C2_2  and  C3_3 
REMARK    2  A    between atoms: C3_3  and  C4_4 
REMARK    3  A    between atoms: N1_9  and  C9_10 
REMARK    4  A    between atoms: C9_10  and  C10_11 
REMARK    5  A    between atoms: C13_14  and  O1_15 
REMARK    6  A    between atoms: O1_15  and  C14_16 
REMARK    7  A    between atoms: C14_16  and  C15_17 
REMARK    8  A    between atoms: C23_25  and  C24_26 
REMARK    9  A    between atoms: C24_26  and  O2_27 
REMARK   10  A    between atoms: C25_29  and  O3_30 
REMARK   11  A    between atoms: C26_32  and  O4_33 
ROOT
HETATM    1  C1  UNL     1       4.542  10.991  29.420  1.00  0.00     0.018 C 
HETATM    2  C2  UNL     1       5.095  10.316  28.128  1.00  0.00    -0.011 C 
HETATM    3  C7  UNL     1       3.892   9.824  27.351  1.00  0.00     0.056 C 
HETATM    4  C8  UNL     1       3.967  10.107  25.877  1.00  0.00     0.065 C 
HETATM    5  N1  UNL     1       3.881  11.443  25.493  1.00  0.00    -0.360 N 
HETATM    6  C23 UNL     1       3.828  12.468  26.447  1.00  0.00     0.143 C 
HETATM    7  C25 UNL     1       5.033  12.619  27.314  1.00  0.00     0.172 C 
HETATM    8  C26 UNL     1       5.877  11.349  27.404  1.00  0.00     0.157 C 
ENDROOT
BRANCH   5   9
HETATM    9  C9  UNL     1       3.463  11.664  24.180  1.00  0.00     0.102 C 
BRANCH   9  10
HETATM   10  C10 UNL     1       4.300  11.124  23.088  1.00  0.00    -0.021 A 
HETATM   11  C11 UNL     1       3.913   9.932  22.488  1.00  0.00     0.015 A 
HETATM   12  C12 UNL     1       4.610   9.343  21.484  1.00  0.00     0.037 A 
HETATM   13  C13 UNL     1       5.766   9.948  21.024  1.00  0.00     0.069 A 
HETATM   14  C21 UNL     1       6.151  11.130  21.618  1.00  0.00     0.037 A 
HETATM   15  C22 UNL     1       5.444  11.720  22.631  1.00  0.00     0.015 A 
BRANCH  13  16
HETATM   16  O1  UNL     1       6.448   9.317  19.999  1.00  0.00    -0.347 OA
BRANCH  16  17
HETATM   17  C14 UNL     1       7.841   9.432  19.942  1.00  0.00     0.214 C 
BRANCH  17  18
HETATM   18  C15 UNL     1       8.300  10.106  18.694  1.00  0.00    -0.034 A 
HETATM   19  C16 UNL     1       8.371   9.481  17.473  1.00  0.00     0.009 A 
HETATM   20  C17 UNL     1       8.808  10.200  16.388  1.00  0.00     0.001 A 
HETATM   21  C18 UNL     1       9.184  11.522  16.445  1.00  0.00     0.000 A 
HETATM   22  C19 UNL     1       9.107  12.142  17.687  1.00  0.00     0.001 A 
HETATM   23  C20 UNL     1       8.665  11.427  18.798  1.00  0.00     0.009 A 
ENDBRANCH  17  18
ENDBRANCH  16  17
ENDBRANCH  13  16
ENDBRANCH   9  10
ENDBRANCH   5   9
BRANCH   6  24
HETATM   24  C24 UNL     1       3.571  13.810  25.791  1.00  0.00     0.192 C 
BRANCH  24  25
HETATM   25  O2  UNL     1       3.133  14.720  26.782  1.00  0.00    -0.399 OA
ATOM     26  H2  UNL     1       3.887  15.007  27.284  1.00  0.00     0.209 HD
ENDBRANCH  24  25
ENDBRANCH   6  24
BRANCH   7  27
HETATM   27  O3  UNL     1       5.853  13.692  26.898  1.00  0.00    -0.391 OA
ATOM     28  H3  UNL     1       6.517  13.903  27.543  1.00  0.00     0.210 HD
ENDBRANCH   7  27
BRANCH   2  29
HETATM   29  C3  UNL     1       5.953   9.219  28.648  1.00  0.00     0.016 C 
BRANCH  29  30
HETATM   30  C4  UNL     1       6.217   8.032  27.817  1.00  0.00    -0.014 A 
HETATM   31  C5  UNL     1       7.156   7.911  26.705  1.00  0.00     0.005 A 
HETATM   32  C6  UNL     1       7.552   7.334  28.031  1.00  0.00     0.005 A 
ENDBRANCH  29  30
ENDBRANCH   2  29
BRANCH   8  33
HETATM   33  O4  UNL     1       6.979  11.700  28.177  1.00  0.00    -0.392 OA
ATOM     34  H4  UNL     1       6.750  12.449  28.715  1.00  0.00     0.210 HD
ENDBRANCH   8  33
TORSDOF 11
ENDMDL
MODEL 2
REMARK VINA RESULT: -7.678957435      0.112      1.204
REMARK  11 active torsions:
REMARK  status: ('A' for Active; 'I' for Inactive)
REMARK    1  A    between atoms: C2_2  and  C3_3 
REMARK    2  A    between atoms: C3_3  and  C4_4 
REMARK    3  A    between atoms: N1_9  and  C9_10 
REMARK    4  A    between atoms: C9_10  and  C10_11 
REMARK    5  A    between atoms: C13_14  and  O1_15 
REMARK    6  A    between atoms: O1_15  and  C14_16 
REMARK    7  A    between atoms: C14_16  and  C15_17 
REMARK    8  A    between atoms: C23_25  and  C24_26 
REMARK    9  A    between atoms: C24_26  and  O2_27 
REMARK   10  A    between atoms: C25_29  and  O3_30 
REMARK   11  A    between atoms: C26_32  and  O4_33 
ROOT
HETATM    1  C1  UNL     1       4.498  10.991  29.335  1.00  0.00     0.018 C 
HETATM    2  C2  UNL     1       5.083  10.349  28.041  1.00  0.00    -0.011 C 
HETATM    3  C7  UNL     1       3.901   9.857  27.233  1.00  0.00     0.056 C 
HETATM    4  C8  UNL     1       3.999  10.170  25.765  1.00  0.00     0.065 C 
HETATM    5  N1  UNL     1       3.901  11.511  25.407  1.00  0.00    -0.360 N 
HETATM    6  C23 UNL     1       3.817  12.516  26.379  1.00  0.00     0.143 C 
HETATM    7  C25 UNL     1       5.004  12.666  27.270  1.00  0.00     0.172 C 
HETATM    8  C26 UNL     1       5.864  11.407  27.351  1.00  0.00     0.157 C 
ENDROOT
BRANCH   5   9
HETATM    9  C9  UNL     1       3.504  11.753  24.090  1.00  0.00     0.102 C 
BRANCH   9  10
HETATM   10  C10 UNL     1       4.222  11.044  23.011  1.00  0.00    -0.021 A 
HETATM   11  C11 UNL     1       5.420  11.578  22.553  1.00  0.00     0.015 A 
HETATM   12  C12 UNL     1       6.157  11.016  21.563  1.00  0.00     0.037 A 
HETATM   13  C13 UNL     1       5.706   9.850  20.969  1.00  0.00     0.069 A 
HETATM   14  C21 UNL     1       4.517   9.319  21.421  1.00  0.00     0.037 A 
HETATM   15  C22 UNL     1       3.778   9.892  22.420  1.00  0.00     0.015 A 
BRANCH  13  16
HETATM   16  O1  UNL     1       6.485   9.307  19.964  1.00  0.00    -0.347 OA
BRANCH  16  17
HETATM   17  C14 UNL     1       7.864   9.540  19.976  1.00  0.00     0.214 C 
BRANCH  17  18
HETATM   18  C15 UNL     1       8.323  10.276  18.763  1.00  0.00    -0.034 A 
HETATM   19  C16 UNL     1       8.739  11.585  18.780  1.00  0.00     0.009 A 
HETATM   20  C17 UNL     1       9.143  12.164  17.603  1.00  0.00     0.001 A 
HETATM   21  C18 UNL     1       9.158  11.511  16.392  1.00  0.00     0.000 A 
HETATM   22  C19 UNL     1       8.734  10.187  16.390  1.00  0.00     0.001 A 
HETATM   23  C20 UNL     1       8.321   9.584  17.576  1.00  0.00     0.009 A 
ENDBRANCH  17  18
ENDBRANCH  16  17
ENDBRANCH  13  16
ENDBRANCH   9  10
ENDBRANCH   5   9
BRANCH   6  24
HETATM   24  C24 UNL     1       3.554  13.868  25.745  1.00  0.00     0.192 C 
BRANCH  24  25
HETATM   25  O2  UNL     1       3.097  14.755  26.747  1.00  0.00    -0.399 OA
ATOM     26  H2  UNL     1       2.302  15.176  26.440  1.00  0.00     0.209 HD
ENDBRANCH  24  25
ENDBRANCH   6  24
BRANCH   7  27
HETATM   27  O3  UNL     1       5.817  13.758  26.890  1.00  0.00    -0.391 OA
ATOM     28  H3  UNL     1       5.449  14.589  27.167  1.00  0.00     0.210 HD
ENDBRANCH   7  27
BRANCH   2  29
HETATM   29  C3  UNL     1       5.946   9.254  28.554  1.00  0.00     0.016 C 
BRANCH  29  30
HETATM   30  C4  UNL     1       6.209   8.069  27.721  1.00  0.00    -0.014 A 
HETATM   31  C5  UNL     1       7.180   7.935  26.638  1.00  0.00     0.005 A 
HETATM   32  C6  UNL     1       7.520   7.337  27.971  1.00  0.00     0.005 A 
ENDBRANCH  29  30
ENDBRANCH   2  29
BRANCH   8  33
HETATM   33  O4  UNL     1       6.947  11.757  28.150  1.00  0.00    -0.392 OA
ATOM     34  H4  UNL     1       7.660  12.041  27.591  1.00  0.00     0.210 HD
ENDBRANCH   8  33
TORSDOF 11
ENDMDL
MODEL 3
REMARK VINA RESULT: -7.545848218      2.513      3.838
REMARK  11 active torsions:
REMARK  status: ('A' for Active; 'I' for Inactive)
REMARK    1  A    between atoms: C2_2  and  C3_3 
REMARK    2  A    between atoms: C3_3  and  C4_4 
REMARK    3  A    between atoms: N1_9  and  C9_10 
REMARK    4  A    between atoms: C9_10  and  C10_11 
REMARK    5  A    between atoms: C13_14  and  O1_15 
REMARK    6  A    between atoms: O1_15  and  C14_16 
REMARK    7  A    between atoms: C14_16  and  C15_17 
REMARK    8  A    between atoms: C23_25  and  C24_26 
REMARK    9  A    between atoms: C24_26  and  O2_27 
REMARK   10  A    between atoms: C25_29  and  O3_30 
REMARK   11  A    between atoms: C26_32  and  O4_33 
ROOT
HETATM    1  C1  UNL     1       3.672   6.306  26.338  1.00  0.00     0.018 C 
HETATM    2  C2  UNL     1       3.869   6.911  24.914  1.00  0.00    -0.011 C 
HETATM    3  C7  UNL     1       2.718   7.868  24.690  1.00  0.00     0.056 C 
HETATM    4  C8  UNL     1       3.128   9.174  24.069  1.00  0.00     0.065 C 
HETATM    5  N1  UNL     1       3.901  10.023  24.856  1.00  0.00    -0.360 N 
HETATM    6  C23 UNL     1       4.351   9.626  26.122  1.00  0.00     0.143 C 
HETATM    7  C25 UNL     1       5.291   8.468  26.150  1.00  0.00     0.172 C 
HETATM    8  C26 UNL     1       5.195   7.579  24.912  1.00  0.00     0.157 C 
ENDROOT
BRANCH   5   9
HETATM    9  C9  UNL     1       3.864  11.372  24.499  1.00  0.00     0.102 C 
BRANCH   9  10
HETATM   10  C10 UNL     1       4.511  11.770  23.231  1.00  0.00    -0.021 A 
HETATM   11  C11 UNL     1       5.757  11.234  22.930  1.00  0.00     0.015 A 
HETATM   12  C12 UNL     1       6.445  11.535  21.801  1.00  0.00     0.037 A 
HETATM   13  C13 UNL     1       5.889  12.419  20.892  1.00  0.00     0.069 A 
HETATM   14  C21 UNL     1       4.654  12.951  21.188  1.00  0.00     0.037 A 
HETATM   15  C22 UNL     1       3.965  12.643  22.331  1.00  0.00     0.015 A 
BRANCH  13  16
HETATM   16  O1  UNL     1       6.620  12.700  19.752  1.00  0.00    -0.347 OA
BRANCH  16  17
HETATM   17  C14 UNL     1       7.986  12.400  19.732  1.00  0.00     0.214 C 
BRANCH  17  18
HETATM   18  C15 UNL     1       8.337  11.438  18.648  1.00  0.00    -0.034 A 
HETATM   19  C16 UNL     1       7.989  10.110  18.666  1.00  0.00     0.009 A 
HETATM   20  C17 UNL     1       8.363   9.315  17.612  1.00  0.00     0.001 A 
HETATM   21  C18 UNL     1       9.074   9.767  16.525  1.00  0.00     0.000 A 
HETATM   22  C19 UNL     1       9.420  11.114  16.519  1.00  0.00     0.001 A 
HETATM   23  C20 UNL     1       9.047  11.934  17.581  1.00  0.00     0.009 A 
ENDBRANCH  17  18
ENDBRANCH  16  17
ENDBRANCH  13  16
ENDBRANCH   9  10
ENDBRANCH   5   9
BRANCH   6  24
HETATM   24  C24 UNL     1       5.027  10.775  26.845  1.00  0.00     0.192 C 
BRANCH  24  25
HETATM   25  O2  UNL     1       5.082  10.470  28.224  1.00  0.00    -0.399 OA
ATOM     26  H2  UNL     1       5.506  11.189  28.677  1.00  0.00     0.209 HD
ENDBRANCH  24  25
ENDBRANCH   6  24
BRANCH   7  27
HETATM   27  O3  UNL     1       6.632   8.878  26.323  1.00  0.00    -0.391 OA
ATOM     28  H3  UNL     1       6.963   8.658  27.186  1.00  0.00     0.210 HD
ENDBRANCH   7  27
BRANCH   2  29
HETATM   29  C3  UNL     1       3.833   5.723  24.023  1.00  0.00     0.016 C 
BRANCH  29  30
HETATM   30  C4  UNL     1       3.826   5.897  22.561  1.00  0.00    -0.014 A 
HETATM   31  C5  UNL     1       4.914   5.631  21.624  1.00  0.00     0.005 A 
HETATM   32  C6  UNL     1       3.804   4.627  21.723  1.00  0.00     0.005 A 
ENDBRANCH  29  30
ENDBRANCH   2  29
BRANCH   8  33
HETATM   33  O4  UNL     1       6.183   6.615  25.078  1.00  0.00    -0.392 OA
ATOM     34  H4  UNL     1       6.307   6.462  26.007  1.00  0.00     0.210 HD
ENDBRANCH   8  33
TORSDOF 11
ENDMDL
MODEL 4
REMARK VINA RESULT: -7.330308704      1.519      2.191
REMARK  11 active torsions:
REMARK  status: ('A' for Active; 'I' for Inactive)
REMARK    1  A    between atoms: C2_2  and  C3_3 
REMARK    2  A    between atoms: C3_3  and  C4_4 
REMARK    3  A    between atoms: N1_9  and  C9_10 
REMARK    4  A    between atoms: C9_10  and  C10_11 
REMARK    5  A    between atoms: C13_14  and  O1_15 
REMARK    6  A    between atoms: O1_15  and  C14_16 
REMARK    7  A    between atoms: C14_16  and  C15_17 
REMARK    8  A    between atoms: C23_25  and  C24_26 
REMARK    9  A    between atoms: C24_26  and  O2_27 
REMARK   10  A    between atoms: C25_29  and  O3_30 
REMARK   11  A    between atoms: C26_32  and  O4_33 
ROOT
HETATM    1  C1  UNL     1       5.107   8.344  28.840  1.00  0.00     0.018 C 
HETATM    2  C2  UNL     1       5.779   8.293  27.433  1.00  0.00    -0.011 C 
HETATM    3  C7  UNL     1       4.845   7.505  26.539  1.00  0.00     0.056 C 
HETATM    4  C8  UNL     1       4.654   8.113  25.178  1.00  0.00     0.065 C 
HETATM    5  N1  UNL     1       3.959   9.318  25.125  1.00  0.00    -0.360 N 
HETATM    6  C23 UNL     1       3.552   9.970  26.297  1.00  0.00     0.143 C 
HETATM    7  C25 UNL     1       4.644  10.445  27.196  1.00  0.00     0.172 C 
HETATM    8  C26 UNL     1       5.962   9.700  26.993  1.00  0.00     0.157 C 
ENDROOT
BRANCH   5   9
HETATM    9  C9  UNL     1       3.368   9.617  23.896  1.00  0.00     0.102 C 
BRANCH   9  10
HETATM   10  C10 UNL     1       4.207  10.263  22.866  1.00  0.00    -0.021 A 
HETATM   11  C11 UNL     1       5.167  11.180  23.275  1.00  0.00     0.015 A 
HETATM   12  C12 UNL     1       5.985  11.837  22.416  1.00  0.00     0.037 A 
HETATM   13  C13 UNL     1       5.870  11.592  21.059  1.00  0.00     0.069 A 
HETATM   14  C21 UNL     1       4.918  10.684  20.651  1.00  0.00     0.037 A 
HETATM   15  C22 UNL     1       4.095  10.024  21.523  1.00  0.00     0.015 A 
BRANCH  13  16
HETATM   16  O1  UNL     1       6.722  12.281  20.215  1.00  0.00    -0.347 OA
BRANCH  16  17
HETATM   17  C14 UNL     1       8.062  11.890  20.139  1.00  0.00     0.214 C 
BRANCH  17  18
HETATM   18  C15 UNL     1       8.366  11.159  18.875  1.00  0.00    -0.034 A 
HETATM   19  C16 UNL     1       8.091   9.828  18.681  1.00  0.00     0.009 A 
HETATM   20  C17 UNL     1       8.411   9.256  17.475  1.00  0.00     0.001 A 
HETATM   21  C18 UNL     1       8.998   9.940  16.435  1.00  0.00     0.000 A 
HETATM   22  C19 UNL     1       9.271  11.286  16.645  1.00  0.00     0.001 A 
HETATM   23  C20 UNL     1       8.951  11.881  17.863  1.00  0.00     0.009 A 
ENDBRANCH  17  18
ENDBRANCH  16  17
ENDBRANCH  13  16
ENDBRANCH   9  10
ENDBRANCH   5   9
BRANCH   6  24
HETATM   24  C24 UNL     1       2.676  11.166  25.978  1.00  0.00     0.192 C 
BRANCH  24  25
HETATM   25  O2  UNL     1       1.856  11.435  27.098  1.00  0.00    -0.399 OA
ATOM     26  H2  UNL     1       1.500  12.312  27.010  1.00  0.00     0.209 HD
ENDBRANCH  24  25
ENDBRANCH   6  24
BRANCH   7  27
HETATM   27  O3  UNL     1       4.872  11.833  27.065  1.00  0.00    -0.391 OA
ATOM     28  H3  UNL     1       5.723  12.088  27.402  1.00  0.00     0.210 HD
ENDBRANCH   7  27
BRANCH   2  29
HETATM   29  C3  UNL     1       7.072   7.609  27.689  1.00  0.00     0.016 C 
BRANCH  29  30
HETATM   30  C4  UNL     1       7.217   6.713  28.848  1.00  0.00    -0.014 A 
HETATM   31  C5  UNL     1       7.226   5.253  28.854  1.00  0.00     0.005 A 
HETATM   32  C6  UNL     1       8.538   5.968  28.975  1.00  0.00     0.005 A 
ENDBRANCH  29  30
ENDBRANCH   2  29
BRANCH   8  33
HETATM   33  O4  UNL     1       6.866  10.322  27.847  1.00  0.00    -0.392 OA
ATOM     34  H4  UNL     1       6.539  11.188  28.060  1.00  0.00     0.210 HD
ENDBRANCH   8  33
TORSDOF 11
ENDMDL
MODEL 5
REMARK VINA RESULT: -7.146378506      2.272      3.575
REMARK  11 active torsions:
REMARK  status: ('A' for Active; 'I' for Inactive)
REMARK    1  A    between atoms: C2_2  and  C3_3 
REMARK    2  A    between atoms: C3_3  and  C4_4 
REMARK    3  A    between atoms: N1_9  and  C9_10 
REMARK    4  A    between atoms: C9_10  and  C10_11 
REMARK    5  A    between atoms: C13_14  and  O1_15 
REMARK    6  A    between atoms: O1_15  and  C14_16 
REMARK    7  A    between atoms: C14_16  and  C15_17 
REMARK    8  A    between atoms: C23_25  and  C24_26 
REMARK    9  A    between atoms: C24_26  and  O2_27 
REMARK   10  A    between atoms: C25_29  and  O3_30 
REMARK   11  A    between atoms: C26_32  and  O4_33 
ROOT
HETATM    1  C1  UNL     1       6.322   7.987  28.014  1.00  0.00     0.018 C 
HETATM    2  C2  UNL     1       5.562   9.344  27.901  1.00  0.00    -0.011 C 
HETATM    3  C7  UNL     1       6.050  10.005  26.630  1.00  0.00     0.056 C 
HETATM    4  C8  UNL     1       4.951  10.615  25.805  1.00  0.00     0.065 C 
HETATM    5  N1  UNL     1       4.060   9.731  25.203  1.00  0.00    -0.360 N 
HETATM    6  C23 UNL     1       4.134   8.353  25.443  1.00  0.00     0.143 C 
HETATM    7  C25 UNL     1       3.880   7.918  26.848  1.00  0.00     0.172 C 
HETATM    8  C26 UNL     1       4.113   9.024  27.876  1.00  0.00     0.157 C 
ENDROOT
BRANCH   5   9
HETATM    9  C9  UNL     1       3.381  10.229  24.089  1.00  0.00     0.102 C 
BRANCH   9  10
HETATM   10  C10 UNL     1       4.181  10.850  23.013  1.00  0.00    -0.021 A 
HETATM   11  C11 UNL     1       4.975  10.028  22.223  1.00  0.00     0.015 A 
HETATM   12  C12 UNL     1       5.754  10.492  21.214  1.00  0.00     0.037 A 
HETATM   13  C13 UNL     1       5.770  11.849  20.946  1.00  0.00     0.069 A 
HETATM   14  C21 UNL     1       4.983  12.665  21.729  1.00  0.00     0.037 A 
HETATM   15  C22 UNL     1       4.199  12.192  22.746  1.00  0.00     0.015 A 
BRANCH  13  16
HETATM   16  O1  UNL     1       6.577  12.283  19.910  1.00  0.00    -0.347 OA
BRANCH  16  17
HETATM   17  C14 UNL     1       7.940  11.971  19.937  1.00  0.00     0.214 C 
BRANCH  17  18
HETATM   18  C15 UNL     1       8.386  11.284  18.691  1.00  0.00    -0.034 A 
HETATM   19  C16 UNL     1       9.089  11.907  17.689  1.00  0.00     0.009 A 
HETATM   20  C17 UNL     1       9.452  11.178  16.585  1.00  0.00     0.001 A 
HETATM   21  C18 UNL     1       9.154   9.846  16.414  1.00  0.00     0.000 A 
HETATM   22  C19 UNL     1       8.442   9.227  17.436  1.00  0.00     0.001 A 
HETATM   23  C20 UNL     1       8.067   9.954  18.564  1.00  0.00     0.009 A 
ENDBRANCH  17  18
ENDBRANCH  16  17
ENDBRANCH  13  16
ENDBRANCH   9  10
ENDBRANCH   5   9
BRANCH   6  24
HETATM   24  C24 UNL     1       3.171   7.592  24.554  1.00  0.00     0.192 C 
BRANCH  24  25
HETATM   25  O2  UNL     1       3.614   6.252  24.452  1.00  0.00    -0.399 OA
ATOM     26  H2  UNL     1       2.913   5.679  24.739  1.00  0.00     0.209 HD
ENDBRANCH  24  25
ENDBRANCH   6  24
BRANCH   7  27
HETATM   27  O3  UNL     1       2.576   7.399  27.014  1.00  0.00    -0.391 OA
ATOM     28  H3  UNL     1       2.366   7.248  27.928  1.00  0.00     0.210 HD
ENDBRANCH   7  27
BRANCH   2  29
HETATM   29  C3  UNL     1       5.959  10.069  29.136  1.00  0.00     0.016 C 
BRANCH  29  30
HETATM   30  C4  UNL     1       6.382  11.478  29.061  1.00  0.00    -0.014 A 
HETATM   31  C5  UNL     1       5.537  12.668  29.109  1.00  0.00     0.005 A 
HETATM   32  C6  UNL     1       6.293  12.286  30.347  1.00  0.00     0.005 A 
ENDBRANCH  29  30
ENDBRANCH   2  29
BRANCH   8  33
HETATM   33  O4  UNL     1       3.756   8.465  29.098  1.00  0.00    -0.392 OA
ATOM     34  H4  UNL     1       2.827   8.605  29.239  1.00  0.00     0.210 HD
ENDBRANCH   8  33
TORSDOF 11
ENDMDL
