MODEL 1
REMARK VINA RESULT: -7.415916256      0.000      0.000
REMARK  6 active torsions:
REMARK  status: ('A' for Active; 'I' for Inactive)
REMARK    1  A    between atoms: C3_3  and  N1_4 
REMARK    2  A    between atoms: N1_4  and  C4_6 
REMARK    3  A    between atoms: C4_6  and  C5_7 
REMARK    4  A    between atoms: C5_7  and  N2_8 
REMARK    5  A    between atoms: C11_16  and  C12_17 
REMARK    6  A    between atoms: C15_23  and  N6_24 
ROOT
HETATM    1  C12 UNL     1      -7.724   7.955   2.815  1.00  0.00    -0.020 A 
HETATM    2  C13 UNL     1      -8.476   7.918   3.993  1.00  0.00     0.031 A 
HETATM    3  C14 UNL     1      -9.674   7.284   4.093  1.00  0.00     0.119 A 
HETATM    4  N4  UNL     1     -10.206   6.640   3.023  1.00  0.00    -0.236 N 
HETATM    5  N5  UNL     1     -11.311   5.960   2.816  1.00  0.00    -0.124 N 
ATOM      6  H5  UNL     1     -12.030   5.788   3.518  1.00  0.00     0.206 HD
HETATM    7  C15 UNL     1     -11.357   5.525   1.553  1.00  0.00     0.697 A 
HETATM    8  N7  UNL     1     -10.231   5.960   0.966  1.00  0.00    -0.173 N 
ATOM      9  H7  UNL     1      -9.963   5.793  -0.004  1.00  0.00     0.186 HD
HETATM   10  C22 UNL     1      -9.516   6.652   1.875  1.00  0.00     0.143 A 
HETATM   11  C23 UNL     1      -8.278   7.297   1.739  1.00  0.00     0.063 A 
ENDROOT
BRANCH   1  12
HETATM   12  C11 UNL     1      -6.461   8.648   2.773  1.00  0.00    -0.010 A 
HETATM   13  C1  UNL     1      -5.806   8.893   1.594  1.00  0.00     0.017 A 
HETATM   14  C2  UNL     1      -4.581   9.562   1.571  1.00  0.00     0.049 A 
HETATM   15  C3  UNL     1      -4.012   9.989   2.777  1.00  0.00     0.100 A 
HETATM   16  N3  UNL     1      -4.673   9.737   3.920  1.00  0.00    -0.352 N 
HETATM   17  C10 UNL     1      -5.872   9.082   3.925  1.00  0.00     0.102 A 
ATOM     18  H3  UNL     1      -4.270  10.043   4.805  1.00  0.00     0.166 HD
BRANCH  15  19
HETATM   19  N1  UNL     1      -2.887  10.599   2.738  1.00  0.00    -0.375 N 
ATOM     20  H1  UNL     1      -2.856  11.511   2.282  1.00  0.00     0.161 HD
BRANCH  19  21
HETATM   21  C4  UNL     1      -1.663  10.086   3.297  1.00  0.00     0.151 C 
BRANCH  21  22
HETATM   22  C5  UNL     1      -1.135   8.979   2.417  1.00  0.00     0.292 C 
BRANCH  22  23
HETATM   23  N2  UNL     1      -1.132   7.702   3.061  1.00  0.00     0.090 N 
HETATM   24  C6  UNL     1      -1.522   7.738   4.435  1.00  0.00     0.272 C 
HETATM   25  C7  UNL     1      -2.724   6.861   4.608  1.00  0.00     0.032 C 
HETATM   26  C8  UNL     1      -3.123   6.461   3.207  1.00  0.00     0.032 C 
HETATM   27  C9  UNL     1      -1.883   6.702   2.376  1.00  0.00     0.272 C 
ENDBRANCH  22  23
ENDBRANCH  21  22
ENDBRANCH  19  21
ENDBRANCH  15  19
ENDBRANCH   1  12
BRANCH   7  28
HETATM   28  N6  UNL     1     -12.407   4.744   0.931  1.00  0.00    -0.216 N 
HETATM   29  C16 UNL     1     -12.371   3.358   1.269  1.00  0.00     0.141 C 
HETATM   30  C17 UNL     1     -13.212   3.016   2.474  1.00  0.00     0.020 C 
HETATM   31  C18 UNL     1     -14.590   3.559   2.415  1.00  0.00     0.002 C 
HETATM   32  C19 UNL     1     -15.059   3.926   1.025  1.00  0.00     0.002 C 
HETATM   33  C20 UNL     1     -14.701   5.350   0.669  1.00  0.00     0.020 C 
HETATM   34  C21 UNL     1     -13.317   5.450   0.085  1.00  0.00     0.141 C 
ENDBRANCH   7  28
TORSDOF 6
ENDMDL
MODEL 2
REMARK VINA RESULT: -7.392506262      4.140     10.512
REMARK  6 active torsions:
REMARK  status: ('A' for Active; 'I' for Inactive)
REMARK    1  A    between atoms: C3_3  and  N1_4 
REMARK    2  A    between atoms: N1_4  and  C4_6 
REMARK    3  A    between atoms: C4_6  and  C5_7 
REMARK    4  A    between atoms: C5_7  and  N2_8 
REMARK    5  A    between atoms: C11_16  and  C12_17 
REMARK    6  A    between atoms: C15_23  and  N6_24 
ROOT
HETATM    1  C12 UNL     1     -11.223   6.366  -0.951  1.00  0.00    -0.020 A 
HETATM    2  C13 UNL     1     -11.665   5.637   0.156  1.00  0.00     0.031 A 
HETATM    3  C14 UNL     1     -11.053   5.680   1.369  1.00  0.00     0.119 A 
HETATM    4  N4  UNL     1      -9.956   6.455   1.562  1.00  0.00    -0.236 N 
HETATM    5  N5  UNL     1      -9.169   6.697   2.587  1.00  0.00    -0.124 N 
ATOM      6  H5  UNL     1      -9.277   6.287   3.515  1.00  0.00     0.206 HD
HETATM    7  C15 UNL     1      -8.208   7.558   2.240  1.00  0.00     0.697 A 
HETATM    8  N7  UNL     1      -8.419   7.853   0.948  1.00  0.00    -0.173 N 
ATOM      9  H7  UNL     1      -7.854   8.488   0.382  1.00  0.00     0.186 HD
HETATM   10  C22 UNL     1      -9.500   7.171   0.525  1.00  0.00     0.143 A 
HETATM   11  C23 UNL     1     -10.109   7.148  -0.738  1.00  0.00     0.063 A 
ENDROOT
BRANCH   1  12
HETATM   12  C11 UNL     1     -11.915   6.275  -2.212  1.00  0.00    -0.010 A 
HETATM   13  C1  UNL     1     -11.252   6.328  -3.410  1.00  0.00     0.017 A 
HETATM   14  C2  UNL     1     -11.937   6.242  -4.623  1.00  0.00     0.049 A 
HETATM   15  C3  UNL     1     -13.330   6.100  -4.612  1.00  0.00     0.100 A 
HETATM   16  N3  UNL     1     -13.959   6.050  -3.425  1.00  0.00    -0.352 N 
HETATM   17  C10 UNL     1     -13.272   6.135  -2.247  1.00  0.00     0.102 A 
ATOM     18  H3  UNL     1     -14.973   5.946  -3.403  1.00  0.00     0.166 HD
BRANCH  15  19
HETATM   19  N1  UNL     1     -13.945   6.025  -5.733  1.00  0.00    -0.375 N 
ATOM     20  H1  UNL     1     -13.613   5.340  -6.413  1.00  0.00     0.161 HD
BRANCH  19  21
HETATM   21  C4  UNL     1     -15.073   6.841  -6.100  1.00  0.00     0.151 C 
BRANCH  21  22
HETATM   22  C5  UNL     1     -14.586   8.203  -6.532  1.00  0.00     0.292 C 
BRANCH  22  23
HETATM   23  N2  UNL     1     -15.048   9.260  -5.686  1.00  0.00     0.090 N 
HETATM   24  C6  UNL     1     -15.979   8.844  -4.685  1.00  0.00     0.272 C 
HETATM   25  C7  UNL     1     -15.410   9.177  -3.341  1.00  0.00     0.032 C 
HETATM   26  C8  UNL     1     -13.998   9.642  -3.617  1.00  0.00     0.032 C 
HETATM   27  C9  UNL     1     -14.003  10.020  -5.080  1.00  0.00     0.272 C 
ENDBRANCH  22  23
ENDBRANCH  21  22
ENDBRANCH  19  21
ENDBRANCH  15  19
ENDBRANCH   1  12
BRANCH   7  28
HETATM   28  N6  UNL     1      -7.146   8.073   3.080  1.00  0.00    -0.216 N 
HETATM   29  C16 UNL     1      -5.835   7.793   2.588  1.00  0.00     0.141 C 
HETATM   30  C17 UNL     1      -5.287   8.884   1.701  1.00  0.00     0.020 C 
HETATM   31  C18 UNL     1      -5.407  10.243   2.281  1.00  0.00     0.002 C 
HETATM   32  C19 UNL     1      -5.597  10.269   3.782  1.00  0.00     0.002 C 
HETATM   33  C20 UNL     1      -7.057  10.198   4.163  1.00  0.00     0.020 C 
HETATM   34  C21 UNL     1      -7.542   8.776   4.259  1.00  0.00     0.141 C 
ENDBRANCH   7  28
TORSDOF 6
ENDMDL
MODEL 3
REMARK VINA RESULT: -7.358284955      1.824     10.030
REMARK  6 active torsions:
REMARK  status: ('A' for Active; 'I' for Inactive)
REMARK    1  A    between atoms: C3_3  and  N1_4 
REMARK    2  A    between atoms: N1_4  and  C4_6 
REMARK    3  A    between atoms: C4_6  and  C5_7 
REMARK    4  A    between atoms: C5_7  and  N2_8 
REMARK    5  A    between atoms: C11_16  and  C12_17 
REMARK    6  A    between atoms: C15_23  and  N6_24 
ROOT
HETATM    1  C12 UNL     1      -9.186   7.296   0.784  1.00  0.00    -0.020 A 
HETATM    2  C13 UNL     1      -8.692   8.240  -0.120  1.00  0.00     0.031 A 
HETATM    3  C14 UNL     1      -7.470   8.822   0.002  1.00  0.00     0.119 A 
HETATM    4  N4  UNL     1      -6.653   8.502   1.037  1.00  0.00    -0.236 N 
HETATM    5  N5  UNL     1      -5.454   8.885   1.414  1.00  0.00    -0.124 N 
ATOM      6  H5  UNL     1      -4.878   9.568   0.922  1.00  0.00     0.206 HD
HETATM    7  C15 UNL     1      -5.096   8.250   2.534  1.00  0.00     0.697 A 
HETATM    8  N7  UNL     1      -6.122   7.446   2.853  1.00  0.00    -0.173 N 
ATOM      9  H7  UNL     1      -6.162   6.823   3.660  1.00  0.00     0.186 HD
HETATM   10  C22 UNL     1      -7.089   7.601   1.928  1.00  0.00     0.143 A 
HETATM   11  C23 UNL     1      -8.344   6.982   1.829  1.00  0.00     0.063 A 
ENDROOT
BRANCH   1  12
HETATM   12  C11 UNL     1     -10.492   6.716   0.600  1.00  0.00    -0.010 A 
HETATM   13  C1  UNL     1     -10.963   6.363  -0.637  1.00  0.00     0.017 A 
HETATM   14  C2  UNL     1     -12.232   5.807  -0.799  1.00  0.00     0.049 A 
HETATM   15  C3  UNL     1     -13.039   5.606   0.328  1.00  0.00     0.100 A 
HETATM   16  N3  UNL     1     -12.556   5.960   1.531  1.00  0.00    -0.352 N 
HETATM   17  C10 UNL     1     -11.311   6.503   1.672  1.00  0.00     0.102 A 
ATOM     18  H3  UNL     1     -13.133   5.819   2.360  1.00  0.00     0.166 HD
BRANCH  15  19
HETATM   19  N1  UNL     1     -14.202   5.096   0.163  1.00  0.00    -0.375 N 
ATOM     20  H1  UNL     1     -14.951   5.712  -0.155  1.00  0.00     0.161 HD
BRANCH  19  21
HETATM   21  C4  UNL     1     -14.525   3.712   0.395  1.00  0.00     0.151 C 
BRANCH  21  22
HETATM   22  C5  UNL     1     -14.913   3.524   1.841  1.00  0.00     0.292 C 
BRANCH  22  23
HETATM   23  N2  UNL     1     -14.217   2.445   2.473  1.00  0.00     0.090 N 
HETATM   24  C6  UNL     1     -13.016   2.834   3.141  1.00  0.00     0.272 C 
HETATM   25  C7  UNL     1     -13.138   2.465   4.587  1.00  0.00     0.032 C 
HETATM   26  C8  UNL     1     -14.568   2.008   4.756  1.00  0.00     0.032 C 
HETATM   27  C9  UNL     1     -15.025   1.669   3.357  1.00  0.00     0.272 C 
ENDBRANCH  22  23
ENDBRANCH  21  22
ENDBRANCH  19  21
ENDBRANCH  15  19
ENDBRANCH   1  12
BRANCH   7  28
HETATM   28  N6  UNL     1      -3.855   8.395   3.268  1.00  0.00    -0.216 N 
HETATM   29  C16 UNL     1      -3.637   7.372   4.239  1.00  0.00     0.141 C 
HETATM   30  C17 UNL     1      -2.858   6.197   3.700  1.00  0.00     0.020 C 
HETATM   31  C18 UNL     1      -1.622   6.578   2.976  1.00  0.00     0.002 C 
HETATM   32  C19 UNL     1      -1.111   7.966   3.299  1.00  0.00     0.002 C 
HETATM   33  C20 UNL     1      -1.720   9.011   2.395  1.00  0.00     0.020 C 
HETATM   34  C21 UNL     1      -3.035   9.515   2.928  1.00  0.00     0.141 C 
ENDBRANCH   7  28
TORSDOF 6
ENDMDL
MODEL 4
REMARK VINA RESULT: -7.278994446      1.922      9.955
REMARK  6 active torsions:
REMARK  status: ('A' for Active; 'I' for Inactive)
REMARK    1  A    between atoms: C3_3  and  N1_4 
REMARK    2  A    between atoms: N1_4  and  C4_6 
REMARK    3  A    between atoms: C4_6  and  C5_7 
REMARK    4  A    between atoms: C5_7  and  N2_8 
REMARK    5  A    between atoms: C11_16  and  C12_17 
REMARK    6  A    between atoms: C15_23  and  N6_24 
ROOT
HETATM    1  C12 UNL     1      -9.135   7.375   0.773  1.00  0.00    -0.020 A 
HETATM    2  C13 UNL     1      -8.586   8.203  -0.210  1.00  0.00     0.031 A 
HETATM    3  C14 UNL     1      -7.366   8.791  -0.094  1.00  0.00     0.119 A 
HETATM    4  N4  UNL     1      -6.606   8.592   1.013  1.00  0.00    -0.236 N 
HETATM    5  N5  UNL     1      -5.423   9.011   1.404  1.00  0.00    -0.124 N 
ATOM      6  H5  UNL     1      -4.817   9.630   0.865  1.00  0.00     0.206 HD
HETATM    7  C15 UNL     1      -5.129   8.511   2.607  1.00  0.00     0.697 A 
HETATM    8  N7  UNL     1      -6.178   7.755   2.965  1.00  0.00    -0.173 N 
ATOM      9  H7  UNL     1      -6.266   7.231   3.836  1.00  0.00     0.186 HD
HETATM   10  C22 UNL     1      -7.095   7.804   1.979  1.00  0.00     0.143 A 
HETATM   11  C23 UNL     1      -8.350   7.183   1.890  1.00  0.00     0.063 A 
ENDROOT
BRANCH   1  12
HETATM   12  C11 UNL     1     -10.436   6.783   0.592  1.00  0.00    -0.010 A 
HETATM   13  C1  UNL     1     -10.925   6.469  -0.650  1.00  0.00     0.017 A 
HETATM   14  C2  UNL     1     -12.189   5.900  -0.809  1.00  0.00     0.049 A 
HETATM   15  C3  UNL     1     -12.972   5.646   0.324  1.00  0.00     0.100 A 
HETATM   16  N3  UNL     1     -12.471   5.962   1.531  1.00  0.00    -0.352 N 
HETATM   17  C10 UNL     1     -11.231   6.519   1.669  1.00  0.00     0.102 A 
ATOM     18  H3  UNL     1     -13.031   5.782   2.364  1.00  0.00     0.166 HD
BRANCH  15  19
HETATM   19  N1  UNL     1     -14.130   5.125   0.162  1.00  0.00    -0.375 N 
ATOM     20  H1  UNL     1     -14.884   5.733  -0.159  1.00  0.00     0.161 HD
BRANCH  19  21
HETATM   21  C4  UNL     1     -14.442   3.740   0.400  1.00  0.00     0.151 C 
BRANCH  21  22
HETATM   22  C5  UNL     1     -14.810   3.552   1.852  1.00  0.00     0.292 C 
BRANCH  22  23
HETATM   23  N2  UNL     1     -14.132   2.453   2.466  1.00  0.00     0.090 N 
HETATM   24  C6  UNL     1     -12.951   2.820   3.183  1.00  0.00     0.272 C 
HETATM   25  C7  UNL     1     -13.115   2.402   4.611  1.00  0.00     0.032 C 
HETATM   26  C8  UNL     1     -14.549   1.937   4.722  1.00  0.00     0.032 C 
HETATM   27  C9  UNL     1     -14.964   1.646   3.298  1.00  0.00     0.272 C 
ENDBRANCH  22  23
ENDBRANCH  21  22
ENDBRANCH  19  21
ENDBRANCH  15  19
ENDBRANCH   1  12
BRANCH   7  28
HETATM   28  N6  UNL     1      -3.925   8.737   3.382  1.00  0.00    -0.216 N 
HETATM   29  C16 UNL     1      -3.922   9.974   4.093  1.00  0.00     0.141 C 
HETATM   30  C17 UNL     1      -4.468   9.856   5.495  1.00  0.00     0.020 C 
HETATM   31  C18 UNL     1      -3.880   8.740   6.275  1.00  0.00     0.002 C 
HETATM   32  C19 UNL     1      -2.556   8.236   5.745  1.00  0.00     0.002 C 
HETATM   33  C20 UNL     1      -2.741   7.149   4.713  1.00  0.00     0.020 C 
HETATM   34  C21 UNL     1      -2.928   7.715   3.330  1.00  0.00     0.141 C 
ENDBRANCH   7  28
TORSDOF 6
ENDMDL
MODEL 5
REMARK VINA RESULT: -7.258063539      1.319      2.117
REMARK  6 active torsions:
REMARK  status: ('A' for Active; 'I' for Inactive)
REMARK    1  A    between atoms: C3_3  and  N1_4 
REMARK    2  A    between atoms: N1_4  and  C4_6 
REMARK    3  A    between atoms: C4_6  and  C5_7 
REMARK    4  A    between atoms: C5_7  and  N2_8 
REMARK    5  A    between atoms: C11_16  and  C12_17 
REMARK    6  A    between atoms: C15_23  and  N6_24 
ROOT
HETATM    1  C12 UNL     1      -8.181   7.730   2.174  1.00  0.00    -0.020 A 
HETATM    2  C13 UNL     1      -8.137   7.892   0.787  1.00  0.00     0.031 A 
HETATM    3  C14 UNL     1      -9.020   7.302  -0.061  1.00  0.00     0.119 A 
HETATM    4  N4  UNL     1     -10.011   6.507   0.417  1.00  0.00    -0.236 N 
HETATM    5  N5  UNL     1     -10.985   5.819  -0.135  1.00  0.00    -0.124 N 
ATOM      6  H5  UNL     1     -11.170   5.772  -1.137  1.00  0.00     0.206 HD
HETATM    7  C15 UNL     1     -11.699   5.191   0.804  1.00  0.00     0.697 A 
HETATM    8  N7  UNL     1     -11.135   5.511   1.979  1.00  0.00    -0.173 N 
ATOM      9  H7  UNL     1     -11.447   5.191   2.896  1.00  0.00     0.186 HD
HETATM   10  C22 UNL     1     -10.088   6.326   1.742  1.00  0.00     0.143 A 
HETATM   11  C23 UNL     1      -9.193   6.920   2.643  1.00  0.00     0.063 A 
ENDROOT
BRANCH   1  12
HETATM   12  C11 UNL     1      -7.212   8.381   3.020  1.00  0.00    -0.010 A 
HETATM   13  C1  UNL     1      -7.510   8.768   4.301  1.00  0.00     0.017 A 
HETATM   14  C2  UNL     1      -6.562   9.401   5.106  1.00  0.00     0.049 A 
HETATM   15  C3  UNL     1      -5.283   9.645   4.592  1.00  0.00     0.100 A 
HETATM   16  N3  UNL     1      -5.014   9.257   3.333  1.00  0.00    -0.352 N 
HETATM   17  C10 UNL     1      -5.954   8.638   2.559  1.00  0.00     0.102 A 
ATOM     18  H3  UNL     1      -4.086   9.429   2.947  1.00  0.00     0.166 HD
BRANCH  15  19
HETATM   19  N1  UNL     1      -4.425  10.229   5.342  1.00  0.00    -0.375 N 
ATOM     20  H1  UNL     1      -4.745  11.014   5.910  1.00  0.00     0.161 HD
BRANCH  19  21
HETATM   21  C4  UNL     1      -3.038   9.854   5.439  1.00  0.00     0.151 C 
BRANCH  21  22
HETATM   22  C5  UNL     1      -2.936   8.449   5.981  1.00  0.00     0.292 C 
BRANCH  22  23
HETATM   23  N2  UNL     1      -1.984   7.644   5.280  1.00  0.00     0.090 N 
HETATM   24  C6  UNL     1      -2.003   6.263   5.644  1.00  0.00     0.272 C 
HETATM   25  C7  UNL     1      -2.300   5.454   4.419  1.00  0.00     0.032 C 
HETATM   26  C8  UNL     1      -2.640   6.470   3.353  1.00  0.00     0.032 C 
HETATM   27  C9  UNL     1      -2.051   7.765   3.860  1.00  0.00     0.272 C 
ENDBRANCH  22  23
ENDBRANCH  21  22
ENDBRANCH  19  21
ENDBRANCH  15  19
ENDBRANCH   1  12
BRANCH   7  28
HETATM   28  N6  UNL     1     -12.849   4.333   0.605  1.00  0.00    -0.216 N 
HETATM   29  C16 UNL     1     -12.697   3.028   1.163  1.00  0.00     0.141 C 
HETATM   30  C17 UNL     1     -13.211   2.922   2.578  1.00  0.00     0.020 C 
HETATM   31  C18 UNL     1     -14.575   3.473   2.762  1.00  0.00     0.002 C 
HETATM   32  C19 UNL     1     -15.377   3.596   1.486  1.00  0.00     0.002 C 
HETATM   33  C20 UNL     1     -15.152   4.927   0.808  1.00  0.00     0.020 C 
HETATM   34  C21 UNL     1     -13.954   4.894  -0.105  1.00  0.00     0.141 C 
ENDBRANCH   7  28
TORSDOF 6
ENDMDL
