MODEL 1
REMARK VINA RESULT: -7.192612586      0.000      0.000
REMARK  5 active torsions:
REMARK  status: ('A' for Active; 'I' for Inactive)
REMARK    1  A    between atoms: C2_2  and  C3_3 
REMARK    2  A    between atoms: C3_3  and  N1_4 
REMARK    3  A    between atoms: N2_11  and  S1_12 
REMARK    4  A    between atoms: S1_12  and  C10_15 
REMARK    5  A    between atoms: C14_21  and  C15_22 
ROOT
HETATM    1  S1  UNL     1     -10.467   6.680  -2.462  1.00  0.00     0.266 S 
HETATM    2  O1  UNL     1      -9.684   7.993  -2.659  1.00  0.00    -0.200 OA
HETATM    3  O2  UNL     1      -9.512   5.858  -1.592  1.00  0.00    -0.200 OA
ENDROOT
BRANCH   1   4
HETATM    4  N2  UNL     1     -11.811   7.021  -1.574  1.00  0.00    -0.285 N 
HETATM    5  C9  UNL     1     -12.217   8.298  -1.224  1.00  0.00     0.076 C 
HETATM    6  C8  UNL     1     -12.883   8.307   0.134  1.00  0.00     0.046 C 
HETATM    7  C7  UNL     1     -13.849   7.164   0.343  1.00  0.00     0.016 C 
HETATM    8  C6  UNL     1     -13.248   5.850  -0.121  1.00  0.00    -0.020 C 
HETATM    9  C5  UNL     1     -11.962   5.643   0.643  1.00  0.00     0.031 C 
HETATM   10  C18 UNL     1     -12.869   6.067  -1.565  1.00  0.00     0.150 C 
HETATM   11  C19 UNL     1     -14.216   4.740   0.021  1.00  0.00     0.031 C 
HETATM   12  C4  UNL     1     -12.240   5.147   2.054  1.00  0.00     0.122 C 
HETATM   13  N1  UNL     1     -12.990   3.960   1.902  1.00  0.00    -0.393 N 
HETATM   14  C20 UNL     1     -14.311   4.132   1.400  1.00  0.00     0.122 C 
BRANCH  13  15
HETATM   15  C3  UNL     1     -12.784   2.894   2.794  1.00  0.00     0.057 C 
BRANCH  15  16
HETATM   16  C2  UNL     1     -14.094   2.205   3.076  1.00  0.00     0.040 C 
HETATM   17  C1  UNL     1     -14.190   1.739   4.515  1.00  0.00     0.010 C 
ENDBRANCH  15  16
ENDBRANCH  13  15
ENDBRANCH   1   4
BRANCH   1  18
HETATM   18  C10 UNL     1     -10.609   5.967  -4.022  1.00  0.00     0.109 A 
HETATM   19  C11 UNL     1      -9.631   5.081  -4.512  1.00  0.00     0.114 A 
HETATM   20  N3  UNL     1     -10.022   4.694  -5.728  1.00  0.00    -0.367 N 
HETATM   21  C12 UNL     1     -11.164   5.241  -6.082  1.00  0.00     0.019 A 
ATOM     22  H3  UNL     1      -9.496   4.048  -6.316  1.00  0.00     0.165 HD
HETATM   23  C13 UNL     1     -11.968   5.106  -7.328  1.00  0.00     0.069 C 
HETATM   24  C14 UNL     1     -11.547   6.055  -5.002  1.00  0.00     0.039 A 
BRANCH  24  25
HETATM   25  C15 UNL     1     -12.759   6.858  -4.971  1.00  0.00     0.070 A 
HETATM   26  C16 UNL     1     -12.779   8.240  -5.106  1.00  0.00     0.173 A 
HETATM   27  O3  UNL     1     -14.027   8.629  -5.027  1.00  0.00    -0.316 OA
HETATM   28  C17 UNL     1     -14.823   7.604  -4.850  1.00  0.00     0.233 A 
HETATM   29  N4  UNL     1     -14.035   6.504  -4.816  1.00  0.00    -0.345 N 
ATOM     30  H4  UNL     1     -14.367   5.548  -4.691  1.00  0.00     0.167 HD
ENDBRANCH  24  25
ENDBRANCH   1  18
TORSDOF 5
ENDMDL
MODEL 2
REMARK VINA RESULT: -7.160829918      1.877      2.576
REMARK  5 active torsions:
REMARK  status: ('A' for Active; 'I' for Inactive)
REMARK    1  A    between atoms: C2_2  and  C3_3 
REMARK    2  A    between atoms: C3_3  and  N1_4 
REMARK    3  A    between atoms: N2_11  and  S1_12 
REMARK    4  A    between atoms: S1_12  and  C10_15 
REMARK    5  A    between atoms: C14_21  and  C15_22 
ROOT
HETATM    1  S1  UNL     1     -12.463   7.076  -3.651  1.00  0.00     0.266 S 
HETATM    2  O1  UNL     1     -13.540   6.142  -4.239  1.00  0.00    -0.200 OA
HETATM    3  O2  UNL     1     -12.561   8.301  -4.564  1.00  0.00    -0.200 OA
ENDROOT
BRANCH   1   4
HETATM    4  N2  UNL     1     -12.945   7.516  -2.141  1.00  0.00    -0.285 N 
HETATM    5  C9  UNL     1     -12.559   8.684  -1.502  1.00  0.00     0.076 C 
HETATM    6  C8  UNL     1     -12.434   8.475  -0.009  1.00  0.00     0.046 C 
HETATM    7  C7  UNL     1     -13.567   7.671   0.587  1.00  0.00     0.016 C 
HETATM    8  C6  UNL     1     -13.870   6.447  -0.257  1.00  0.00    -0.020 C 
HETATM    9  C5  UNL     1     -12.600   5.637  -0.357  1.00  0.00     0.031 C 
HETATM   10  C18 UNL     1     -14.163   6.973  -1.641  1.00  0.00     0.150 C 
HETATM   11  C19 UNL     1     -15.022   5.695   0.288  1.00  0.00     0.031 C 
HETATM   12  C4  UNL     1     -12.362   4.838   0.917  1.00  0.00     0.122 C 
HETATM   13  N1  UNL     1     -13.514   4.041   1.091  1.00  0.00    -0.393 N 
HETATM   14  C20 UNL     1     -14.703   4.750   1.423  1.00  0.00     0.122 C 
BRANCH  13  15
HETATM   15  C3  UNL     1     -13.383   2.742   1.611  1.00  0.00     0.057 C 
BRANCH  15  16
HETATM   16  C2  UNL     1     -14.597   2.400   2.437  1.00  0.00     0.040 C 
HETATM   17  C1  UNL     1     -14.221   1.711   3.734  1.00  0.00     0.010 C 
ENDBRANCH  15  16
ENDBRANCH  13  15
ENDBRANCH   1   4
BRANCH   1  18
HETATM   18  C10 UNL     1     -10.956   6.278  -3.890  1.00  0.00     0.109 A 
HETATM   19  C11 UNL     1     -10.029   6.139  -2.840  1.00  0.00     0.114 A 
HETATM   20  N3  UNL     1      -8.978   5.477  -3.328  1.00  0.00    -0.367 N 
HETATM   21  C12 UNL     1      -9.127   5.168  -4.596  1.00  0.00     0.019 A 
ATOM     22  H3  UNL     1      -8.152   5.238  -2.778  1.00  0.00     0.165 HD
HETATM   23  C13 UNL     1      -8.229   4.445  -5.539  1.00  0.00     0.069 C 
HETATM   24  C14 UNL     1     -10.385   5.674  -4.965  1.00  0.00     0.039 A 
BRANCH  24  25
HETATM   25  C15 UNL     1     -10.955   5.561  -6.299  1.00  0.00     0.070 A 
HETATM   26  C16 UNL     1     -10.445   6.204  -7.419  1.00  0.00     0.173 A 
HETATM   27  O3  UNL     1     -11.200   5.883  -8.440  1.00  0.00    -0.316 OA
HETATM   28  C17 UNL     1     -12.166   5.078  -8.069  1.00  0.00     0.233 A 
HETATM   29  N4  UNL     1     -12.012   4.878  -6.739  1.00  0.00    -0.345 N 
ATOM     30  H4  UNL     1     -12.615   4.293  -6.161  1.00  0.00     0.167 HD
ENDBRANCH  24  25
ENDBRANCH   1  18
TORSDOF 5
ENDMDL
MODEL 3
REMARK VINA RESULT: -7.108599005      1.574      3.169
REMARK  5 active torsions:
REMARK  status: ('A' for Active; 'I' for Inactive)
REMARK    1  A    between atoms: C2_2  and  C3_3 
REMARK    2  A    between atoms: C3_3  and  N1_4 
REMARK    3  A    between atoms: N2_11  and  S1_12 
REMARK    4  A    between atoms: S1_12  and  C10_15 
REMARK    5  A    between atoms: C14_21  and  C15_22 
ROOT
HETATM    1  S1  UNL     1     -12.739   7.375  -4.081  1.00  0.00     0.266 S 
HETATM    2  O1  UNL     1     -13.998   6.679  -4.637  1.00  0.00    -0.200 OA
HETATM    3  O2  UNL     1     -12.666   8.646  -4.932  1.00  0.00    -0.200 OA
ENDROOT
BRANCH   1   4
HETATM    4  N2  UNL     1     -13.048   7.812  -2.525  1.00  0.00    -0.285 N 
HETATM    5  C9  UNL     1     -12.549   8.951  -1.915  1.00  0.00     0.076 C 
HETATM    6  C8  UNL     1     -12.285   8.714  -0.444  1.00  0.00     0.046 C 
HETATM    7  C7  UNL     1     -13.386   7.950   0.253  1.00  0.00     0.016 C 
HETATM    8  C6  UNL     1     -13.825   6.753  -0.570  1.00  0.00    -0.020 C 
HETATM    9  C5  UNL     1     -12.608   5.891  -0.806  1.00  0.00     0.031 C 
HETATM   10  C18 UNL     1     -14.232   7.312  -1.911  1.00  0.00     0.150 C 
HETATM   11  C19 UNL     1     -14.948   6.041   0.080  1.00  0.00     0.031 C 
HETATM   12  C4  UNL     1     -12.279   5.064   0.427  1.00  0.00     0.122 C 
HETATM   13  N1  UNL     1     -13.441   4.313   0.708  1.00  0.00    -0.393 N 
HETATM   14  C20 UNL     1     -14.559   5.066   1.166  1.00  0.00     0.122 C 
BRANCH  13  15
HETATM   15  C3  UNL     1     -13.315   3.002   1.197  1.00  0.00     0.057 C 
BRANCH  15  16
HETATM   16  C2  UNL     1     -14.384   2.738   2.227  1.00  0.00     0.040 C 
HETATM   17  C1  UNL     1     -13.793   2.362   3.571  1.00  0.00     0.010 C 
ENDBRANCH  15  16
ENDBRANCH  13  15
ENDBRANCH   1   4
BRANCH   1  18
HETATM   18  C10 UNL     1     -11.415   6.338  -4.452  1.00  0.00     0.109 A 
HETATM   19  C11 UNL     1     -11.481   5.422  -5.517  1.00  0.00     0.114 A 
HETATM   20  N3  UNL     1     -10.313   4.778  -5.557  1.00  0.00    -0.367 N 
HETATM   21  C12 UNL     1      -9.487   5.185  -4.619  1.00  0.00     0.019 A 
ATOM     22  H3  UNL     1     -10.086   4.053  -6.237  1.00  0.00     0.165 HD
HETATM   23  C13 UNL     1      -8.100   4.759  -4.286  1.00  0.00     0.069 C 
HETATM   24  C14 UNL     1     -10.180   6.180  -3.908  1.00  0.00     0.039 A 
BRANCH  24  25
HETATM   25  C15 UNL     1      -9.635   6.902  -2.769  1.00  0.00     0.070 A 
HETATM   26  C16 UNL     1      -9.200   8.220  -2.821  1.00  0.00     0.173 A 
HETATM   27  O3  UNL     1      -8.772   8.544  -1.626  1.00  0.00    -0.316 OA
HETATM   28  C17 UNL     1      -8.894   7.535  -0.799  1.00  0.00     0.233 A 
HETATM   29  N4  UNL     1      -9.431   6.516  -1.510  1.00  0.00    -0.345 N 
ATOM     30  H4  UNL     1      -9.647   5.592  -1.137  1.00  0.00     0.167 HD
ENDBRANCH  24  25
ENDBRANCH   1  18
TORSDOF 5
ENDMDL
MODEL 4
REMARK VINA RESULT: -6.978420891      3.946      6.197
REMARK  5 active torsions:
REMARK  status: ('A' for Active; 'I' for Inactive)
REMARK    1  A    between atoms: C2_2  and  C3_3 
REMARK    2  A    between atoms: C3_3  and  N1_4 
REMARK    3  A    between atoms: N2_11  and  S1_12 
REMARK    4  A    between atoms: S1_12  and  C10_15 
REMARK    5  A    between atoms: C14_21  and  C15_22 
ROOT
HETATM    1  S1  UNL     1      -8.896   7.584  -0.958  1.00  0.00     0.266 S 
HETATM    2  O1  UNL     1      -8.720   6.109  -1.371  1.00  0.00    -0.200 OA
HETATM    3  O2  UNL     1      -7.927   8.304  -1.901  1.00  0.00    -0.200 OA
ENDROOT
BRANCH   1   4
HETATM    4  N2  UNL     1     -10.429   8.038  -1.347  1.00  0.00    -0.285 N 
HETATM    5  C9  UNL     1     -10.836   9.349  -1.535  1.00  0.00     0.076 C 
HETATM    6  C8  UNL     1     -12.264   9.549  -1.078  1.00  0.00     0.046 C 
HETATM    7  C7  UNL     1     -13.198   8.439  -1.503  1.00  0.00     0.016 C 
HETATM    8  C6  UNL     1     -12.577   7.078  -1.248  1.00  0.00    -0.020 C 
HETATM    9  C5  UNL     1     -12.243   6.997   0.222  1.00  0.00     0.031 C 
HETATM   10  C18 UNL     1     -11.266   7.085  -1.995  1.00  0.00     0.150 C 
HETATM   11  C19 UNL     1     -13.462   5.991  -1.724  1.00  0.00     0.031 C 
HETATM   12  C4  UNL     1     -13.488   6.709   1.049  1.00  0.00     0.122 C 
HETATM   13  N1  UNL     1     -14.019   5.506   0.536  1.00  0.00    -0.393 N 
HETATM   14  C20 UNL     1     -14.567   5.590  -0.775  1.00  0.00     0.122 C 
BRANCH  13  15
HETATM   15  C3  UNL     1     -14.612   4.583   1.415  1.00  0.00     0.057 C 
BRANCH  15  16
HETATM   16  C2  UNL     1     -13.920   3.249   1.295  1.00  0.00     0.040 C 
HETATM   17  C1  UNL     1     -12.421   3.373   1.480  1.00  0.00     0.010 C 
ENDBRANCH  15  16
ENDBRANCH  13  15
ENDBRANCH   1   4
BRANCH   1  18
HETATM   18  C10 UNL     1      -8.335   7.698   0.665  1.00  0.00     0.109 A 
HETATM   19  C11 UNL     1      -8.963   6.990   1.706  1.00  0.00     0.114 A 
HETATM   20  N3  UNL     1      -8.301   7.272   2.831  1.00  0.00    -0.367 N 
HETATM   21  C12 UNL     1      -7.300   8.097   2.626  1.00  0.00     0.019 A 
ATOM     22  H3  UNL     1      -8.546   6.890   3.745  1.00  0.00     0.165 HD
HETATM   23  C13 UNL     1      -6.305   8.679   3.569  1.00  0.00     0.069 C 
HETATM   24  C14 UNL     1      -7.312   8.376   1.249  1.00  0.00     0.039 A 
BRANCH  24  25
HETATM   25  C15 UNL     1      -6.368   9.261   0.584  1.00  0.00     0.070 A 
HETATM   26  C16 UNL     1      -4.990   9.189   0.744  1.00  0.00     0.173 A 
HETATM   27  O3  UNL     1      -4.455  10.132   0.008  1.00  0.00    -0.316 OA
HETATM   28  C17 UNL     1      -5.382  10.813  -0.620  1.00  0.00     0.233 A 
HETATM   29  N4  UNL     1      -6.570  10.271  -0.262  1.00  0.00    -0.345 N 
ATOM     30  H4  UNL     1      -7.481  10.588  -0.591  1.00  0.00     0.167 HD
ENDBRANCH  24  25
ENDBRANCH   1  18
TORSDOF 5
ENDMDL
MODEL 5
REMARK VINA RESULT: -6.974485045      1.735      2.190
REMARK  5 active torsions:
REMARK  status: ('A' for Active; 'I' for Inactive)
REMARK    1  A    between atoms: C2_2  and  C3_3 
REMARK    2  A    between atoms: C3_3  and  N1_4 
REMARK    3  A    between atoms: N2_11  and  S1_12 
REMARK    4  A    between atoms: S1_12  and  C10_15 
REMARK    5  A    between atoms: C14_21  and  C15_22 
ROOT
HETATM    1  S1  UNL     1     -12.045   6.917  -3.833  1.00  0.00     0.266 S 
HETATM    2  O1  UNL     1     -11.008   7.978  -4.254  1.00  0.00    -0.200 OA
HETATM    3  O2  UNL     1     -11.165   5.700  -3.534  1.00  0.00    -0.200 OA
ENDROOT
BRANCH   1   4
HETATM    4  N2  UNL     1     -12.735   7.415  -2.425  1.00  0.00    -0.285 N 
HETATM    5  C9  UNL     1     -12.565   8.673  -1.869  1.00  0.00     0.076 C 
HETATM    6  C8  UNL     1     -12.575   8.609  -0.357  1.00  0.00     0.046 C 
HETATM    7  C7  UNL     1     -13.656   7.716   0.204  1.00  0.00     0.016 C 
HETATM    8  C6  UNL     1     -13.716   6.395  -0.542  1.00  0.00    -0.020 C 
HETATM    9  C5  UNL     1     -12.352   5.755  -0.443  1.00  0.00     0.031 C 
HETATM   10  C18 UNL     1     -13.923   6.760  -1.991  1.00  0.00     0.150 C 
HETATM   11  C19 UNL     1     -14.817   5.546  -0.037  1.00  0.00     0.031 C 
HETATM   12  C4  UNL     1     -12.154   5.104   0.919  1.00  0.00     0.122 C 
HETATM   13  N1  UNL     1     -13.211   4.180   1.061  1.00  0.00    -0.393 N 
HETATM   14  C20 UNL     1     -14.506   4.751   1.209  1.00  0.00     0.122 C 
BRANCH  13  15
HETATM   15  C3  UNL     1     -12.977   2.958   1.714  1.00  0.00     0.057 C 
BRANCH  15  16
HETATM   16  C2  UNL     1     -14.244   2.486   2.380  1.00  0.00     0.040 C 
HETATM   17  C1  UNL     1     -14.010   2.094   3.826  1.00  0.00     0.010 C 
ENDBRANCH  15  16
ENDBRANCH  13  15
ENDBRANCH   1   4
BRANCH   1  18
HETATM   18  C10 UNL     1     -13.015   6.618  -5.224  1.00  0.00     0.109 A 
HETATM   19  C11 UNL     1     -12.662   5.631  -6.162  1.00  0.00     0.114 A 
HETATM   20  N3  UNL     1     -13.603   5.632  -7.109  1.00  0.00    -0.367 N 
HETATM   21  C12 UNL     1     -14.540   6.525  -6.880  1.00  0.00     0.019 A 
ATOM     22  H3  UNL     1     -13.596   5.010  -7.918  1.00  0.00     0.165 HD
HETATM   23  C13 UNL     1     -15.764   6.877  -7.652  1.00  0.00     0.069 C 
HETATM   24  C14 UNL     1     -14.175   7.160  -5.681  1.00  0.00     0.039 A 
BRANCH  24  25
HETATM   25  C15 UNL     1     -14.936   8.230  -5.057  1.00  0.00     0.070 A 
HETATM   26  C16 UNL     1     -14.556   9.566  -5.072  1.00  0.00     0.173 A 
HETATM   27  O3  UNL     1     -15.464  10.246  -4.417  1.00  0.00    -0.316 OA
HETATM   28  C17 UNL     1     -16.409   9.453  -3.976  1.00  0.00     0.233 A 
HETATM   29  N4  UNL     1     -16.081   8.201  -4.374  1.00  0.00    -0.345 N 
ATOM     30  H4  UNL     1     -16.628   7.362  -4.180  1.00  0.00     0.167 HD
ENDBRANCH  24  25
ENDBRANCH   1  18
TORSDOF 5
ENDMDL
