MODEL 1
REMARK VINA RESULT: -7.138163139      0.000      0.000
REMARK  6 active torsions:
REMARK  status: ('A' for Active; 'I' for Inactive)
REMARK    1  A    between atoms: C2_2  and  O1_4 
REMARK    2  A    between atoms: O1_4  and  C4_5 
REMARK    3  A    between atoms: C4_5  and  C5_6 
REMARK    4  A    between atoms: C5_6  and  O2_7 
REMARK    5  A    between atoms: C5_6  and  C6_9 
REMARK    6  A    between atoms: C6_9  and  N1_10 
ROOT
HETATM    1  N1  UNL     1     -14.009   6.573   0.313  1.00  0.00     0.091 N 
HETATM    2  C7  UNL     1     -14.290   6.236  -1.034  1.00  0.00     0.275 C 
HETATM    3  C8  UNL     1     -13.308   6.609  -2.075  1.00  0.00     0.073 C 
HETATM    4  C9  UNL     1     -12.070   7.305  -1.644  1.00  0.00     0.121 C 
HETATM    5  C10 UNL     1     -12.211   7.978  -0.288  1.00  0.00     0.073 C 
HETATM    6  C11 UNL     1     -12.649   6.839   0.650  1.00  0.00     0.275 C 
HETATM    7  C12 UNL     1     -11.690   8.347  -2.660  1.00  0.00     0.213 C 
HETATM    8  O3  UNL     1     -10.447   8.185  -3.221  1.00  0.00    -0.349 OA
HETATM    9  C13 UNL     1     -10.191   6.885  -3.575  1.00  0.00     0.204 C 
HETATM   10  O4  UNL     1     -10.691   5.939  -2.660  1.00  0.00    -0.199 OA
HETATM   11  O5  UNL     1     -10.955   6.446  -1.495  1.00  0.00    -0.224 OA
HETATM   12  C14 UNL     1     -10.742   6.473  -4.916  1.00  0.00     0.052 C 
HETATM   13  C15 UNL     1     -10.026   7.059  -6.088  1.00  0.00     0.014 C 
HETATM   14  C16 UNL     1      -8.545   6.719  -6.044  1.00  0.00    -0.013 C 
HETATM   15  C17 UNL     1      -8.361   5.223  -6.074  1.00  0.00     0.009 C 
HETATM   16  C18 UNL     1      -9.097   4.595  -4.913  1.00  0.00    -0.013 C 
HETATM   17  C19 UNL     1     -10.551   4.952  -4.997  1.00  0.00     0.014 C 
HETATM   18  C20 UNL     1      -8.471   5.152  -3.635  1.00  0.00     0.014 C 
HETATM   19  C21 UNL     1      -8.692   6.635  -3.620  1.00  0.00     0.052 C 
HETATM   20  C22 UNL     1      -8.012   7.322  -4.768  1.00  0.00     0.014 C 
ENDROOT
BRANCH   1  21
HETATM   21  C6  UNL     1     -14.665   5.631   1.199  1.00  0.00     0.306 C 
BRANCH  21  22
HETATM   22  C5  UNL     1     -14.438   4.256   0.633  1.00  0.00     0.170 C 
BRANCH  22  23
HETATM   23  C4  UNL     1     -13.403   3.456   1.386  1.00  0.00     0.201 C 
BRANCH  23  24
HETATM   24  O1  UNL     1     -13.954   2.375   2.029  1.00  0.00    -0.384 OA
BRANCH  24  25
HETATM   25  C2  UNL     1     -13.991   2.694   3.399  1.00  0.00     0.113 C 
HETATM   26  C1  UNL     1     -14.664   1.541   4.106  1.00  0.00     0.039 C 
HETATM   27  C3  UNL     1     -12.544   2.745   3.856  1.00  0.00     0.039 C 
ENDBRANCH  24  25
ENDBRANCH  23  24
ENDBRANCH  22  23
BRANCH  22  28
HETATM   28  O2  UNL     1     -15.642   3.548   0.506  1.00  0.00    -0.392 OA
ATOM     29  H2  UNL     1     -16.214   3.949  -0.138  1.00  0.00     0.210 HD
ENDBRANCH  22  28
ENDBRANCH  21  22
ENDBRANCH   1  21
TORSDOF 6
ENDMDL
MODEL 2
REMARK VINA RESULT: -7.069139176      1.140      1.529
REMARK  6 active torsions:
REMARK  status: ('A' for Active; 'I' for Inactive)
REMARK    1  A    between atoms: C2_2  and  O1_4 
REMARK    2  A    between atoms: O1_4  and  C4_5 
REMARK    3  A    between atoms: C4_5  and  C5_6 
REMARK    4  A    between atoms: C5_6  and  O2_7 
REMARK    5  A    between atoms: C5_6  and  C6_9 
REMARK    6  A    between atoms: C6_9  and  N1_10 
ROOT
HETATM    1  N1  UNL     1     -14.589   5.676   0.676  1.00  0.00     0.091 N 
HETATM    2  C7  UNL     1     -14.687   5.745  -0.735  1.00  0.00     0.275 C 
HETATM    3  C8  UNL     1     -13.612   6.431  -1.485  1.00  0.00     0.073 C 
HETATM    4  C9  UNL     1     -12.480   6.997  -0.711  1.00  0.00     0.121 C 
HETATM    5  C10 UNL     1     -12.822   7.238   0.750  1.00  0.00     0.073 C 
HETATM    6  C11 UNL     1     -13.298   5.863   1.252  1.00  0.00     0.275 C 
HETATM    7  C12 UNL     1     -12.046   8.302  -1.323  1.00  0.00     0.213 C 
HETATM    8  O3  UNL     1     -10.737   8.341  -1.738  1.00  0.00    -0.349 OA
HETATM    9  C13 UNL     1     -10.361   7.210  -2.416  1.00  0.00     0.204 C 
HETATM   10  O4  UNL     1     -10.908   6.025  -1.887  1.00  0.00    -0.199 OA
HETATM   11  O5  UNL     1     -11.340   6.159  -0.671  1.00  0.00    -0.224 OA
HETATM   12  C14 UNL     1     -10.722   7.198  -3.879  1.00  0.00     0.052 C 
HETATM   13  C15 UNL     1      -9.909   8.120  -4.727  1.00  0.00     0.014 C 
HETATM   14  C16 UNL     1      -8.426   7.818  -4.588  1.00  0.00    -0.013 C 
HETATM   15  C17 UNL     1      -8.148   6.401  -5.024  1.00  0.00     0.009 C 
HETATM   16  C18 UNL     1      -8.978   5.442  -4.203  1.00  0.00    -0.013 C 
HETATM   17  C19 UNL     1     -10.431   5.773  -4.370  1.00  0.00     0.014 C 
HETATM   18  C20 UNL     1      -8.544   5.612  -2.747  1.00  0.00     0.014 C 
HETATM   19  C21 UNL     1      -8.855   7.019  -2.334  1.00  0.00     0.052 C 
HETATM   20  C22 UNL     1      -8.086   8.030  -3.133  1.00  0.00     0.014 C 
ENDROOT
BRANCH   1  21
HETATM   21  C6  UNL     1     -15.288   4.500   1.158  1.00  0.00     0.306 C 
BRANCH  21  22
HETATM   22  C5  UNL     1     -14.263   3.607   1.801  1.00  0.00     0.170 C 
BRANCH  22  23
HETATM   23  C4  UNL     1     -14.805   2.803   2.958  1.00  0.00     0.201 C 
BRANCH  23  24
HETATM   24  O1  UNL     1     -14.178   1.588   3.081  1.00  0.00    -0.384 OA
BRANCH  24  25
HETATM   25  C2  UNL     1     -14.005   1.358   4.459  1.00  0.00     0.113 C 
HETATM   26  C1  UNL     1     -12.940   2.317   4.939  1.00  0.00     0.039 C 
HETATM   27  C3  UNL     1     -15.318   1.748   5.115  1.00  0.00     0.039 C 
ENDBRANCH  24  25
ENDBRANCH  23  24
ENDBRANCH  22  23
BRANCH  22  28
HETATM   28  O2  UNL     1     -13.632   2.786   0.856  1.00  0.00    -0.392 OA
ATOM     29  H2  UNL     1     -12.686   2.865   0.903  1.00  0.00     0.210 HD
ENDBRANCH  22  28
ENDBRANCH  21  22
ENDBRANCH   1  21
TORSDOF 6
ENDMDL
MODEL 3
REMARK VINA RESULT: -7.000941605      2.362      3.735
REMARK  6 active torsions:
REMARK  status: ('A' for Active; 'I' for Inactive)
REMARK    1  A    between atoms: C2_2  and  O1_4 
REMARK    2  A    between atoms: O1_4  and  C4_5 
REMARK    3  A    between atoms: C4_5  and  C5_6 
REMARK    4  A    between atoms: C5_6  and  O2_7 
REMARK    5  A    between atoms: C5_6  and  C6_9 
REMARK    6  A    between atoms: C6_9  and  N1_10 
ROOT
HETATM    1  N1  UNL     1     -13.593   4.917   0.165  1.00  0.00     0.091 N 
HETATM    2  C7  UNL     1     -12.240   5.332   0.209  1.00  0.00     0.275 C 
HETATM    3  C8  UNL     1     -11.739   6.224  -0.859  1.00  0.00     0.073 C 
HETATM    4  C9  UNL     1     -12.694   6.647  -1.913  1.00  0.00     0.121 C 
HETATM    5  C10 UNL     1     -13.893   5.720  -2.033  1.00  0.00     0.073 C 
HETATM    6  C11 UNL     1     -14.492   5.702  -0.616  1.00  0.00     0.275 C 
HETATM    7  C12 UNL     1     -11.994   6.700  -3.244  1.00  0.00     0.213 C 
HETATM    8  O3  UNL     1     -12.011   7.928  -3.859  1.00  0.00    -0.349 OA
HETATM    9  C13 UNL     1     -11.731   8.957  -2.997  1.00  0.00     0.204 C 
HETATM   10  O4  UNL     1     -12.294   8.792  -1.717  1.00  0.00    -0.199 OA
HETATM   11  O5  UNL     1     -13.259   7.925  -1.691  1.00  0.00    -0.224 OA
HETATM   12  C14 UNL     1     -10.264   9.205  -2.759  1.00  0.00     0.052 C 
HETATM   13  C15 UNL     1      -9.543   9.818  -3.914  1.00  0.00     0.014 C 
HETATM   14  C16 UNL     1     -10.197  11.126  -4.329  1.00  0.00    -0.013 C 
HETATM   15  C17 UNL     1     -10.170  12.101  -3.178  1.00  0.00     0.009 C 
HETATM   16  C18 UNL     1     -10.870  11.498  -1.982  1.00  0.00    -0.013 C 
HETATM   17  C19 UNL     1     -10.192  10.215  -1.605  1.00  0.00     0.014 C 
HETATM   18  C20 UNL     1     -12.321  11.249  -2.394  1.00  0.00     0.014 C 
HETATM   19  C21 UNL     1     -12.318  10.259  -3.519  1.00  0.00     0.052 C 
HETATM   20  C22 UNL     1     -11.609  10.781  -4.734  1.00  0.00     0.014 C 
ENDROOT
BRANCH   1  21
HETATM   21  C6  UNL     1     -14.063   4.639   1.509  1.00  0.00     0.306 C 
BRANCH  21  22
HETATM   22  C5  UNL     1     -14.775   3.315   1.466  1.00  0.00     0.170 C 
BRANCH  22  23
HETATM   23  C4  UNL     1     -14.278   2.330   2.496  1.00  0.00     0.201 C 
BRANCH  23  24
HETATM   24  O1  UNL     1     -13.271   2.854   3.268  1.00  0.00    -0.384 OA
BRANCH  24  25
HETATM   25  C2  UNL     1     -13.606   2.585   4.609  1.00  0.00     0.113 C 
HETATM   26  C1  UNL     1     -14.559   1.413   4.602  1.00  0.00     0.039 C 
HETATM   27  C3  UNL     1     -12.319   2.140   5.280  1.00  0.00     0.039 C 
ENDBRANCH  24  25
ENDBRANCH  23  24
ENDBRANCH  22  23
BRANCH  22  28
HETATM   28  O2  UNL     1     -16.165   3.478   1.540  1.00  0.00    -0.392 OA
ATOM     29  H2  UNL     1     -16.401   4.198   2.114  1.00  0.00     0.210 HD
ENDBRANCH  22  28
ENDBRANCH  21  22
ENDBRANCH   1  21
TORSDOF 6
ENDMDL
MODEL 4
REMARK VINA RESULT: -6.997524291      1.339      1.778
REMARK  6 active torsions:
REMARK  status: ('A' for Active; 'I' for Inactive)
REMARK    1  A    between atoms: C2_2  and  O1_4 
REMARK    2  A    between atoms: O1_4  and  C4_5 
REMARK    3  A    between atoms: C4_5  and  C5_6 
REMARK    4  A    between atoms: C5_6  and  O2_7 
REMARK    5  A    between atoms: C5_6  and  C6_9 
REMARK    6  A    between atoms: C6_9  and  N1_10 
ROOT
HETATM    1  N1  UNL     1     -12.805   6.882   0.526  1.00  0.00     0.091 N 
HETATM    2  C7  UNL     1     -12.930   7.721  -0.608  1.00  0.00     0.275 C 
HETATM    3  C8  UNL     1     -11.812   7.774  -1.575  1.00  0.00     0.073 C 
HETATM    4  C9  UNL     1     -10.622   6.929  -1.306  1.00  0.00     0.121 C 
HETATM    5  C10 UNL     1     -10.503   6.521   0.153  1.00  0.00     0.073 C 
HETATM    6  C11 UNL     1     -11.844   5.830   0.458  1.00  0.00     0.275 C 
HETATM    7  C12 UNL     1      -9.372   7.667  -1.702  1.00  0.00     0.213 C 
HETATM    8  O3  UNL     1      -8.606   7.041  -2.655  1.00  0.00    -0.349 OA
HETATM    9  C13 UNL     1      -9.353   6.536  -3.688  1.00  0.00     0.204 C 
HETATM   10  O4  UNL     1     -10.581   5.981  -3.281  1.00  0.00    -0.199 OA
HETATM   11  O5  UNL     1     -10.622   5.703  -2.014  1.00  0.00    -0.224 OA
HETATM   12  C14 UNL     1      -9.703   7.533  -4.763  1.00  0.00     0.052 C 
HETATM   13  C15 UNL     1      -8.557   7.937  -5.632  1.00  0.00     0.014 C 
HETATM   14  C16 UNL     1      -7.915   6.723  -6.282  1.00  0.00    -0.013 C 
HETATM   15  C17 UNL     1      -8.928   6.002  -7.136  1.00  0.00     0.009 C 
HETATM   16  C18 UNL     1     -10.116   5.602  -6.291  1.00  0.00    -0.013 C 
HETATM   17  C19 UNL     1     -10.720   6.827  -5.672  1.00  0.00     0.014 C 
HETATM   18  C20 UNL     1      -9.596   4.647  -5.217  1.00  0.00     0.014 C 
HETATM   19  C21 UNL     1      -8.613   5.397  -4.369  1.00  0.00     0.052 C 
HETATM   20  C22 UNL     1      -7.418   5.853  -5.154  1.00  0.00     0.014 C 
ENDROOT
BRANCH   1  21
HETATM   21  C6  UNL     1     -14.120   6.456   0.966  1.00  0.00     0.306 C 
BRANCH  21  22
HETATM   22  C5  UNL     1     -14.430   5.168   0.255  1.00  0.00     0.170 C 
BRANCH  22  23
HETATM   23  C4  UNL     1     -15.266   4.213   1.073  1.00  0.00     0.201 C 
BRANCH  23  24
HETATM   24  O1  UNL     1     -14.745   4.015   2.327  1.00  0.00    -0.384 OA
BRANCH  24  25
HETATM   25  C2  UNL     1     -14.023   2.808   2.280  1.00  0.00     0.113 C 
HETATM   26  C1  UNL     1     -12.642   3.095   2.820  1.00  0.00     0.039 C 
HETATM   27  C3  UNL     1     -14.720   1.867   3.248  1.00  0.00     0.039 C 
ENDBRANCH  24  25
ENDBRANCH  23  24
ENDBRANCH  22  23
BRANCH  22  28
HETATM   28  O2  UNL     1     -15.002   5.402  -1.003  1.00  0.00    -0.392 OA
ATOM     29  H2  UNL     1     -15.736   4.821  -1.165  1.00  0.00     0.210 HD
ENDBRANCH  22  28
ENDBRANCH  21  22
ENDBRANCH   1  21
TORSDOF 6
ENDMDL
MODEL 5
REMARK VINA RESULT: -6.983429297      4.795      7.687
REMARK  6 active torsions:
REMARK  status: ('A' for Active; 'I' for Inactive)
REMARK    1  A    between atoms: C2_2  and  O1_4 
REMARK    2  A    between atoms: O1_4  and  C4_5 
REMARK    3  A    between atoms: C4_5  and  C5_6 
REMARK    4  A    between atoms: C5_6  and  O2_7 
REMARK    5  A    between atoms: C5_6  and  C6_9 
REMARK    6  A    between atoms: C6_9  and  N1_10 
ROOT
HETATM    1  N1  UNL     1     -16.153   8.856  -5.215  1.00  0.00     0.091 N 
HETATM    2  C7  UNL     1     -15.411   7.649  -5.209  1.00  0.00     0.275 C 
HETATM    3  C8  UNL     1     -14.439   7.423  -4.118  1.00  0.00     0.073 C 
HETATM    4  C9  UNL     1     -14.306   8.474  -3.079  1.00  0.00     0.121 C 
HETATM    5  C10 UNL     1     -14.805   9.832  -3.543  1.00  0.00     0.073 C 
HETATM    6  C11 UNL     1     -16.256   9.565  -3.982  1.00  0.00     0.275 C 
HETATM    7  C12 UNL     1     -12.864   8.607  -2.669  1.00  0.00     0.213 C 
HETATM    8  O3  UNL     1     -12.617   8.384  -1.336  1.00  0.00    -0.349 OA
HETATM    9  C13 UNL     1     -13.276   7.283  -0.851  1.00  0.00     0.204 C 
HETATM   10  O4  UNL     1     -14.573   7.124  -1.374  1.00  0.00    -0.199 OA
HETATM   11  O5  UNL     1     -15.048   8.209  -1.903  1.00  0.00    -0.224 OA
HETATM   12  C14 UNL     1     -12.582   5.969  -1.100  1.00  0.00     0.052 C 
HETATM   13  C15 UNL     1     -11.357   5.747  -0.275  1.00  0.00     0.014 C 
HETATM   14  C16 UNL     1     -11.675   5.858   1.208  1.00  0.00    -0.013 C 
HETATM   15  C17 UNL     1     -12.701   4.822   1.591  1.00  0.00     0.009 C 
HETATM   16  C18 UNL     1     -13.946   5.001   0.753  1.00  0.00    -0.013 C 
HETATM   17  C19 UNL     1     -13.589   4.881  -0.698  1.00  0.00     0.014 C 
HETATM   18  C20 UNL     1     -14.497   6.392   1.067  1.00  0.00     0.014 C 
HETATM   19  C21 UNL     1     -13.468   7.401   0.652  1.00  0.00     0.052 C 
HETATM   20  C22 UNL     1     -12.190   7.260   1.425  1.00  0.00     0.014 C 
ENDROOT
BRANCH   1  21
HETATM   21  C6  UNL     1     -17.422   8.646  -5.885  1.00  0.00     0.306 C 
BRANCH  21  22
HETATM   22  C5  UNL     1     -18.446   8.365  -4.820  1.00  0.00     0.170 C 
BRANCH  22  23
HETATM   23  C4  UNL     1     -19.711   9.175  -4.971  1.00  0.00     0.201 C 
BRANCH  23  24
HETATM   24  O1  UNL     1     -19.822  10.144  -4.005  1.00  0.00    -0.384 OA
BRANCH  24  25
HETATM   25  C2  UNL     1     -19.730  11.385  -4.664  1.00  0.00     0.113 C 
HETATM   26  C1  UNL     1     -21.130  11.946  -4.750  1.00  0.00     0.039 C 
HETATM   27  C3  UNL     1     -18.918  12.284  -3.748  1.00  0.00     0.039 C 
ENDBRANCH  24  25
ENDBRANCH  23  24
ENDBRANCH  22  23
BRANCH  22  28
HETATM   28  O2  UNL     1     -18.723   6.994  -4.722  1.00  0.00    -0.392 OA
ATOM     29  H2  UNL     1     -19.168   6.787  -3.909  1.00  0.00     0.210 HD
ENDBRANCH  22  28
ENDBRANCH  21  22
ENDBRANCH   1  21
TORSDOF 6
ENDMDL
