MODEL 1
REMARK VINA RESULT: -8.287639418      0.000      0.000
REMARK  5 active torsions:
REMARK  status: ('A' for Active; 'I' for Inactive)
REMARK    1  A    between atoms: C3_3  and  N1_4 
REMARK    2  A    between atoms: N2_7  and  C6_8 
REMARK    3  A    between atoms: N3_11  and  C9_12 
REMARK    4  A    between atoms: C9_12  and  C10_13 
REMARK    5  A    between atoms: C10_13  and  C11_14 
ROOT
HETATM    1  N1  UNL     1      -8.248   7.435   2.575  1.00  0.00    -0.376 N 
HETATM    2  C4  UNL     1      -9.300   6.630   3.170  1.00  0.00     0.153 C 
HETATM    3  C5  UNL     1     -10.589   6.895   2.426  1.00  0.00     0.292 C 
HETATM    4  N2  UNL     1     -10.471   6.539   1.023  1.00  0.00     0.096 N 
HETATM    5  C16 UNL     1      -9.368   7.154   0.375  1.00  0.00     0.292 C 
HETATM    6  C17 UNL     1      -8.098   7.279   1.138  1.00  0.00     0.153 C 
ENDROOT
BRANCH   4   7
HETATM    7  C6  UNL     1     -11.725   6.959   0.393  1.00  0.00     0.226 C 
HETATM    8  C7  UNL     1     -12.219   5.927  -0.589  1.00  0.00     0.066 C 
HETATM    9  C8  UNL     1     -12.823   4.791   0.166  1.00  0.00     0.274 C 
HETATM   10  N3  UNL     1     -14.121   5.229   0.653  1.00  0.00     0.088 N 
HETATM   11  C14 UNL     1     -14.141   6.610   1.016  1.00  0.00     0.274 C 
HETATM   12  C15 UNL     1     -12.805   7.173   1.414  1.00  0.00     0.066 C 
BRANCH  10  13
HETATM   13  C9  UNL     1     -14.528   4.312   1.670  1.00  0.00     0.278 C 
BRANCH  13  14
HETATM   14  C10 UNL     1     -13.712   3.066   1.771  1.00  0.00     0.088 C 
BRANCH  14  15
HETATM   15  C11 UNL     1     -13.319   2.754   3.167  1.00  0.00     0.027 A 
HETATM   16  C12 UNL     1     -14.151   2.072   4.042  1.00  0.00     0.114 A 
HETATM   17  N4  UNL     1     -13.521   1.943   5.219  1.00  0.00    -0.360 N 
HETATM   18  C13 UNL     1     -12.318   2.524   5.111  1.00  0.00     0.180 A 
ATOM     19  H4  UNL     1     -13.893   1.484   6.051  1.00  0.00     0.166 HD
HETATM   20  N5  UNL     1     -12.206   3.015   3.852  1.00  0.00    -0.355 N 
ATOM     21  H5  UNL     1     -11.394   3.511   3.486  1.00  0.00     0.166 HD
ENDBRANCH  14  15
ENDBRANCH  13  14
ENDBRANCH  10  13
ENDBRANCH   4   7
BRANCH   1  22
HETATM   22  C3  UNL     1      -7.448   8.328   3.353  1.00  0.00     0.058 A 
HETATM   23  C2  UNL     1      -8.041   9.379   3.964  1.00  0.00     0.032 A 
HETATM   24  C1  UNL     1      -7.395  10.346   4.728  1.00  0.00     0.004 A 
HETATM   25  C21 UNL     1      -6.029  10.179   4.846  1.00  0.00     0.021 A 
HETATM   26  C20 UNL     1      -5.385   9.099   4.224  1.00  0.00     0.035 A 
HETATM   27  C18 UNL     1      -6.054   8.164   3.478  1.00  0.00     0.076 A 
HETATM   28  S1  UNL     1      -3.771   8.531   4.124  1.00  0.00    -0.083 SA
HETATM   29  N6  UNL     1      -5.343   7.200   2.954  1.00  0.00    -0.357 N 
HETATM   30  C19 UNL     1      -4.041   7.155   3.152  1.00  0.00     0.139 A 
ATOM     31  H6  UNL     1      -5.798   6.482   2.391  1.00  0.00     0.166 HD
ENDBRANCH   1  22
TORSDOF 5
ENDMDL
MODEL 2
REMARK VINA RESULT: -8.125229780      1.282      1.475
REMARK  5 active torsions:
REMARK  status: ('A' for Active; 'I' for Inactive)
REMARK    1  A    between atoms: C3_3  and  N1_4 
REMARK    2  A    between atoms: N2_7  and  C6_8 
REMARK    3  A    between atoms: N3_11  and  C9_12 
REMARK    4  A    between atoms: C9_12  and  C10_13 
REMARK    5  A    between atoms: C10_13  and  C11_14 
ROOT
HETATM    1  N1  UNL     1      -8.931   7.273   2.527  1.00  0.00    -0.376 N 
HETATM    2  C4  UNL     1     -10.036   6.533   3.109  1.00  0.00     0.153 C 
HETATM    3  C5  UNL     1     -11.280   6.802   2.292  1.00  0.00     0.292 C 
HETATM    4  N2  UNL     1     -11.109   6.373   0.916  1.00  0.00     0.096 N 
HETATM    5  C16 UNL     1      -9.956   6.919   0.292  1.00  0.00     0.292 C 
HETATM    6  C17 UNL     1      -8.720   7.040   1.109  1.00  0.00     0.153 C 
ENDROOT
BRANCH   4   7
HETATM    7  C6  UNL     1     -12.316   6.801   0.207  1.00  0.00     0.226 C 
HETATM    8  C7  UNL     1     -12.722   5.797  -0.844  1.00  0.00     0.066 C 
HETATM    9  C8  UNL     1     -13.367   4.631  -0.175  1.00  0.00     0.274 C 
HETATM   10  N3  UNL     1     -14.703   5.039   0.226  1.00  0.00     0.088 N 
HETATM   11  C14 UNL     1     -14.768   6.407   0.633  1.00  0.00     0.274 C 
HETATM   12  C15 UNL     1     -13.474   6.969   1.149  1.00  0.00     0.066 C 
BRANCH  10  13
HETATM   13  C9  UNL     1     -15.174   4.083   1.179  1.00  0.00     0.278 C 
BRANCH  13  14
HETATM   14  C10 UNL     1     -14.193   3.027   1.563  1.00  0.00     0.088 C 
BRANCH  14  15
HETATM   15  C11 UNL     1     -14.418   2.511   2.935  1.00  0.00     0.027 A 
HETATM   16  C12 UNL     1     -13.407   2.443   3.882  1.00  0.00     0.114 A 
HETATM   17  N4  UNL     1     -13.916   1.938   5.016  1.00  0.00    -0.360 N 
HETATM   18  C13 UNL     1     -15.216   1.687   4.811  1.00  0.00     0.180 A 
ATOM     19  H4  UNL     1     -13.403   1.774   5.883  1.00  0.00     0.166 HD
HETATM   20  N5  UNL     1     -15.511   2.041   3.536  1.00  0.00    -0.355 N 
ATOM     21  H5  UNL     1     -16.430   1.960   3.102  1.00  0.00     0.166 HD
ENDBRANCH  14  15
ENDBRANCH  13  14
ENDBRANCH  10  13
ENDBRANCH   4   7
BRANCH   1  22
HETATM   22  C3  UNL     1      -8.138   8.177   3.299  1.00  0.00     0.058 A 
HETATM   23  C2  UNL     1      -8.501   8.448   4.574  1.00  0.00     0.032 A 
HETATM   24  C1  UNL     1      -7.850   9.324   5.437  1.00  0.00     0.004 A 
HETATM   25  C21 UNL     1      -6.741   9.950   4.904  1.00  0.00     0.021 A 
HETATM   26  C20 UNL     1      -6.339   9.691   3.585  1.00  0.00     0.035 A 
HETATM   27  C18 UNL     1      -7.004   8.821   2.762  1.00  0.00     0.076 A 
HETATM   28  S1  UNL     1      -5.066  10.223   2.568  1.00  0.00    -0.083 SA
HETATM   29  N6  UNL     1      -6.528   8.658   1.556  1.00  0.00    -0.357 N 
HETATM   30  C19 UNL     1      -5.452   9.316   1.175  1.00  0.00     0.139 A 
ATOM     31  H6  UNL     1      -6.991   8.020   0.909  1.00  0.00     0.166 HD
ENDBRANCH   1  22
TORSDOF 5
ENDMDL
MODEL 3
REMARK VINA RESULT: -8.070282447      1.453      1.918
REMARK  5 active torsions:
REMARK  status: ('A' for Active; 'I' for Inactive)
REMARK    1  A    between atoms: C3_3  and  N1_4 
REMARK    2  A    between atoms: N2_7  and  C6_8 
REMARK    3  A    between atoms: N3_11  and  C9_12 
REMARK    4  A    between atoms: C9_12  and  C10_13 
REMARK    5  A    between atoms: C10_13  and  C11_14 
ROOT
HETATM    1  N1  UNL     1      -8.473   7.484   1.139  1.00  0.00    -0.376 N 
HETATM    2  C4  UNL     1      -9.312   6.599   1.926  1.00  0.00     0.153 C 
HETATM    3  C5  UNL     1     -10.756   6.839   1.546  1.00  0.00     0.292 C 
HETATM    4  N2  UNL     1     -10.982   6.562   0.139  1.00  0.00     0.096 N 
HETATM    5  C16 UNL     1     -10.100   7.263  -0.725  1.00  0.00     0.292 C 
HETATM    6  C17 UNL     1      -8.685   7.410  -0.296  1.00  0.00     0.153 C 
ENDROOT
BRANCH   4   7
HETATM    7  C6  UNL     1     -12.368   6.951  -0.131  1.00  0.00     0.226 C 
HETATM    8  C7  UNL     1     -13.062   5.943  -1.013  1.00  0.00     0.066 C 
HETATM    9  C8  UNL     1     -13.416   4.748  -0.195  1.00  0.00     0.274 C 
HETATM   10  N3  UNL     1     -14.561   5.103   0.627  1.00  0.00     0.088 N 
HETATM   11  C14 UNL     1     -14.534   6.464   1.060  1.00  0.00     0.274 C 
HETATM   12  C15 UNL     1     -13.161   7.069   1.140  1.00  0.00     0.066 C 
BRANCH  10  13
HETATM   13  C9  UNL     1     -14.666   4.122   1.661  1.00  0.00     0.278 C 
BRANCH  13  14
HETATM   14  C10 UNL     1     -13.502   3.196   1.784  1.00  0.00     0.088 C 
BRANCH  14  15
HETATM   15  C11 UNL     1     -13.218   2.823   3.191  1.00  0.00     0.027 A 
HETATM   16  C12 UNL     1     -14.154   2.200   4.002  1.00  0.00     0.114 A 
HETATM   17  N4  UNL     1     -13.606   1.991   5.208  1.00  0.00    -0.360 N 
HETATM   18  C13 UNL     1     -12.352   2.465   5.180  1.00  0.00     0.180 A 
ATOM     19  H4  UNL     1     -14.063   1.551   6.007  1.00  0.00     0.166 HD
HETATM   20  N5  UNL     1     -12.127   2.970   3.943  1.00  0.00    -0.355 N 
ATOM     21  H5  UNL     1     -11.255   3.398   3.634  1.00  0.00     0.166 HD
ENDBRANCH  14  15
ENDBRANCH  13  14
ENDBRANCH  10  13
ENDBRANCH   4   7
BRANCH   1  22
HETATM   22  C3  UNL     1      -7.534   8.374   1.747  1.00  0.00     0.058 A 
HETATM   23  C2  UNL     1      -6.526   8.878   0.997  1.00  0.00     0.032 A 
HETATM   24  C1  UNL     1      -5.522   9.729   1.451  1.00  0.00     0.004 A 
HETATM   25  C21 UNL     1      -5.601  10.062   2.789  1.00  0.00     0.021 A 
HETATM   26  C20 UNL     1      -6.633   9.554   3.592  1.00  0.00     0.035 A 
HETATM   27  C18 UNL     1      -7.607   8.718   3.111  1.00  0.00     0.076 A 
HETATM   28  S1  UNL     1      -7.095   9.713   5.235  1.00  0.00    -0.083 SA
HETATM   29  N6  UNL     1      -8.519   8.317   3.956  1.00  0.00    -0.357 N 
HETATM   30  C19 UNL     1      -8.481   8.717   5.212  1.00  0.00     0.139 A 
ATOM     31  H6  UNL     1      -9.263   7.694   3.643  1.00  0.00     0.166 HD
ENDBRANCH   1  22
TORSDOF 5
ENDMDL
MODEL 4
REMARK VINA RESULT: -7.827325611      1.922      2.498
REMARK  5 active torsions:
REMARK  status: ('A' for Active; 'I' for Inactive)
REMARK    1  A    between atoms: C3_3  and  N1_4 
REMARK    2  A    between atoms: N2_7  and  C6_8 
REMARK    3  A    between atoms: N3_11  and  C9_12 
REMARK    4  A    between atoms: C9_12  and  C10_13 
REMARK    5  A    between atoms: C10_13  and  C11_14 
ROOT
HETATM    1  N1  UNL     1      -8.673   7.019   1.007  1.00  0.00    -0.376 N 
HETATM    2  C4  UNL     1      -9.645   6.519   1.962  1.00  0.00     0.153 C 
HETATM    3  C5  UNL     1     -11.031   6.871   1.469  1.00  0.00     0.292 C 
HETATM    4  N2  UNL     1     -11.298   6.267   0.176  1.00  0.00     0.096 N 
HETATM    5  C16 UNL     1     -10.314   6.565  -0.802  1.00  0.00     0.292 C 
HETATM    6  C17 UNL     1      -8.893   6.598  -0.366  1.00  0.00     0.153 C 
ENDROOT
BRANCH   4   7
HETATM    7  C6  UNL     1     -12.602   6.782  -0.248  1.00  0.00     0.226 C 
HETATM    8  C7  UNL     1     -13.279   5.840  -1.213  1.00  0.00     0.066 C 
HETATM    9  C8  UNL     1     -13.833   4.684  -0.451  1.00  0.00     0.274 C 
HETATM   10  N3  UNL     1     -15.028   5.144   0.236  1.00  0.00     0.088 N 
HETATM   11  C14 UNL     1     -14.927   6.498   0.682  1.00  0.00     0.274 C 
HETATM   12  C15 UNL     1     -13.522   6.974   0.924  1.00  0.00     0.066 C 
BRANCH  10  13
HETATM   13  C9  UNL     1     -15.341   4.179   1.243  1.00  0.00     0.278 C 
BRANCH  13  14
HETATM   14  C10 UNL     1     -14.245   3.221   1.572  1.00  0.00     0.088 C 
BRANCH  14  15
HETATM   15  C11 UNL     1     -14.427   2.580   2.897  1.00  0.00     0.027 A 
HETATM   16  C12 UNL     1     -13.392   2.446   3.810  1.00  0.00     0.114 A 
HETATM   17  N4  UNL     1     -13.863   1.831   4.905  1.00  0.00    -0.360 N 
HETATM   18  C13 UNL     1     -15.164   1.575   4.708  1.00  0.00     0.180 A 
ATOM     19  H4  UNL     1     -13.327   1.599   5.741  1.00  0.00     0.166 HD
HETATM   20  N5  UNL     1     -15.497   2.037   3.478  1.00  0.00    -0.355 N 
ATOM     21  H5  UNL     1     -16.425   1.978   3.060  1.00  0.00     0.166 HD
ENDBRANCH  14  15
ENDBRANCH  13  14
ENDBRANCH  10  13
ENDBRANCH   4   7
BRANCH   1  22
HETATM   22  C3  UNL     1      -7.602   7.881   1.399  1.00  0.00     0.058 A 
HETATM   23  C2  UNL     1      -7.112   7.789   2.658  1.00  0.00     0.032 A 
HETATM   24  C1  UNL     1      -6.096   8.575   3.193  1.00  0.00     0.004 A 
HETATM   25  C21 UNL     1      -5.571   9.518   2.331  1.00  0.00     0.021 A 
HETATM   26  C20 UNL     1      -6.059   9.637   1.021  1.00  0.00     0.035 A 
HETATM   27  C18 UNL     1      -7.061   8.845   0.525  1.00  0.00     0.076 A 
HETATM   28  S1  UNL     1      -5.700  10.627  -0.331  1.00  0.00    -0.083 SA
HETATM   29  N6  UNL     1      -7.424   9.048  -0.713  1.00  0.00    -0.357 N 
HETATM   30  C19 UNL     1      -6.833   9.982  -1.432  1.00  0.00     0.139 A 
ATOM     31  H6  UNL     1      -8.167   8.483  -1.125  1.00  0.00     0.166 HD
ENDBRANCH   1  22
TORSDOF 5
ENDMDL
MODEL 5
REMARK VINA RESULT: -7.687098509      2.265      2.893
REMARK  5 active torsions:
REMARK  status: ('A' for Active; 'I' for Inactive)
REMARK    1  A    between atoms: C3_3  and  N1_4 
REMARK    2  A    between atoms: N2_7  and  C6_8 
REMARK    3  A    between atoms: N3_11  and  C9_12 
REMARK    4  A    between atoms: C9_12  and  C10_13 
REMARK    5  A    between atoms: C10_13  and  C11_14 
ROOT
HETATM    1  N1  UNL     1      -8.921   8.067  -0.295  1.00  0.00    -0.376 N 
HETATM    2  C4  UNL     1      -9.533   6.750  -0.262  1.00  0.00     0.153 C 
HETATM    3  C5  UNL     1     -11.006   6.910   0.041  1.00  0.00     0.292 C 
HETATM    4  N2  UNL     1     -11.669   7.704  -0.977  1.00  0.00     0.096 N 
HETATM    5  C16 UNL     1     -11.052   8.962  -1.206  1.00  0.00     0.292 C 
HETATM    6  C17 UNL     1      -9.567   9.017  -1.184  1.00  0.00     0.153 C 
ENDROOT
BRANCH   4   7
HETATM    7  C6  UNL     1     -13.044   7.894  -0.509  1.00  0.00     0.226 C 
HETATM    8  C7  UNL     1     -14.038   7.256  -1.447  1.00  0.00     0.066 C 
HETATM    9  C8  UNL     1     -14.028   5.781  -1.233  1.00  0.00     0.274 C 
HETATM   10  N3  UNL     1     -14.736   5.512   0.008  1.00  0.00     0.088 N 
HETATM   11  C14 UNL     1     -14.533   6.525   0.994  1.00  0.00     0.274 C 
HETATM   12  C15 UNL     1     -13.247   7.290   0.852  1.00  0.00     0.066 C 
BRANCH  10  13
HETATM   13  C9  UNL     1     -14.408   4.180   0.407  1.00  0.00     0.278 C 
BRANCH  13  14
HETATM   14  C10 UNL     1     -15.430   3.497   1.254  1.00  0.00     0.088 C 
BRANCH  14  15
HETATM   15  C11 UNL     1     -14.841   2.864   2.459  1.00  0.00     0.027 A 
HETATM   16  C12 UNL     1     -13.516   3.046   2.825  1.00  0.00     0.114 A 
HETATM   17  N4  UNL     1     -13.283   2.352   3.949  1.00  0.00    -0.360 N 
HETATM   18  C13 UNL     1     -14.422   1.738   4.300  1.00  0.00     0.180 A 
ATOM     19  H4  UNL     1     -12.395   2.299   4.449  1.00  0.00     0.166 HD
HETATM   20  N5  UNL     1     -15.366   2.059   3.382  1.00  0.00    -0.355 N 
ATOM     21  H5  UNL     1     -16.332   1.733   3.395  1.00  0.00     0.166 HD
ENDBRANCH  14  15
ENDBRANCH  13  14
ENDBRANCH  10  13
ENDBRANCH   4   7
BRANCH   1  22
HETATM   22  C3  UNL     1      -7.787   8.393   0.511  1.00  0.00     0.058 A 
HETATM   23  C2  UNL     1      -7.770   8.009   1.809  1.00  0.00     0.032 A 
HETATM   24  C1  UNL     1      -6.755   8.277   2.722  1.00  0.00     0.004 A 
HETATM   25  C21 UNL     1      -5.692   9.000   2.218  1.00  0.00     0.021 A 
HETATM   26  C20 UNL     1      -5.681   9.413   0.878  1.00  0.00     0.035 A 
HETATM   27  C18 UNL     1      -6.699   9.131   0.004  1.00  0.00     0.076 A 
HETATM   28  S1  UNL     1      -4.599  10.287  -0.124  1.00  0.00    -0.083 SA
HETATM   29  N6  UNL     1      -6.569   9.565  -1.222  1.00  0.00    -0.357 N 
HETATM   30  C19 UNL     1      -5.495  10.242  -1.575  1.00  0.00     0.139 A 
ATOM     31  H6  UNL     1      -7.302   9.379  -1.907  1.00  0.00     0.166 HD
ENDBRANCH   1  22
TORSDOF 5
ENDMDL
