MODEL 1
REMARK VINA RESULT: -6.344106475      0.000      0.000
REMARK  5 active torsions:
REMARK  status: ('A' for Active; 'I' for Inactive)
REMARK    1  A    between atoms: N1_1  and  C1_5 
REMARK    2  A    between atoms: C1_5  and  C2_6 
REMARK    3  A    between atoms: N2_9  and  C5_10 
REMARK    4  A    between atoms: C5_10  and  C6_11 
REMARK    5  A    between atoms: C12_17  and  N3_18 
ROOT
HETATM    1  C2  UNL     1      13.520  41.458  79.933  1.00  0.00     0.073 C 
HETATM    2  C3  UNL     1      14.977  41.193  79.586  1.00  0.00     0.040 C 
HETATM    3  C4  UNL     1      14.823  40.652  78.159  1.00  0.00     0.276 C 
HETATM    4  N2  UNL     1      13.578  39.935  78.152  1.00  0.00     0.123 N 
HETATM    5  C12 UNL     1      12.844  40.247  79.338  1.00  0.00     0.423 C 
ENDROOT
BRANCH   4   6
HETATM    6  C5  UNL     1      13.659  38.532  77.998  1.00  0.00     0.309 C 
BRANCH   6   7
HETATM    7  C6  UNL     1      13.025  37.937  76.808  1.00  0.00    -0.056 C 
HETATM    8  C7  UNL     1      13.567  38.073  75.619  1.00  0.00    -0.022 C 
HETATM    9  C8  UNL     1      12.844  37.425  74.456  1.00  0.00     0.027 C 
HETATM   10  C9  UNL     1      11.380  37.777  74.643  1.00  0.00     0.004 C 
HETATM   11  C10 UNL     1      10.918  36.987  75.845  1.00  0.00     0.005 C 
HETATM   12  C11 UNL     1      11.756  37.188  77.051  1.00  0.00     0.035 C 
ENDBRANCH   6   7
ENDBRANCH   4   6
BRANCH   5  13
HETATM   13  N3  UNL     1      11.460  40.516  78.992  1.00  0.00    -0.047 N 
ATOM     14  H33 UNL     1      10.832  39.838  79.421  1.00  0.00     0.276 HD
ATOM     15  H32 UNL     1      11.121  41.361  79.452  1.00  0.00     0.276 HD
ATOM     16  H31 UNL     1      11.323  40.563  77.983  1.00  0.00     0.276 HD
ENDBRANCH   5  13
BRANCH   1  17
HETATM   17  C1  UNL     1      13.323  41.437  81.439  1.00  0.00     0.238 C 
BRANCH  17  18
HETATM   18  N1  UNL     1      14.627  41.352  82.052  1.00  0.00    -0.079 N 
ATOM     19  H13 UNL     1      15.230  40.661  81.606  1.00  0.00     0.274 HD
ATOM     20  H12 UNL     1      15.205  42.172  81.870  1.00  0.00     0.274 HD
ATOM     21  H11 UNL     1      14.491  41.176  83.048  1.00  0.00     0.274 HD
ENDBRANCH  17  18
ENDBRANCH   1  17
TORSDOF 5
ENDMDL
MODEL 2
REMARK VINA RESULT: -6.228299492      0.490      1.381
REMARK  5 active torsions:
REMARK  status: ('A' for Active; 'I' for Inactive)
REMARK    1  A    between atoms: N1_1  and  C1_5 
REMARK    2  A    between atoms: C1_5  and  C2_6 
REMARK    3  A    between atoms: N2_9  and  C5_10 
REMARK    4  A    between atoms: C5_10  and  C6_11 
REMARK    5  A    between atoms: C12_17  and  N3_18 
ROOT
HETATM    1  C2  UNL     1      13.541  41.461  79.930  1.00  0.00     0.073 C 
HETATM    2  C3  UNL     1      14.996  41.195  79.577  1.00  0.00     0.040 C 
HETATM    3  C4  UNL     1      14.833  40.633  78.159  1.00  0.00     0.276 C 
HETATM    4  N2  UNL     1      13.590  39.912  78.172  1.00  0.00     0.123 N 
HETATM    5  C12 UNL     1      12.864  40.240  79.358  1.00  0.00     0.423 C 
ENDROOT
BRANCH   4   6
HETATM    6  C5  UNL     1      13.674  38.507  78.039  1.00  0.00     0.309 C 
BRANCH   6   7
HETATM    7  C6  UNL     1      12.906  37.876  76.950  1.00  0.00    -0.056 C 
HETATM    8  C7  UNL     1      11.774  37.258  77.198  1.00  0.00    -0.022 C 
HETATM    9  C8  UNL     1      11.054  36.642  76.014  1.00  0.00     0.027 C 
HETATM   10  C9  UNL     1      12.126  35.926  75.217  1.00  0.00     0.004 C 
HETATM   11  C10 UNL     1      12.977  37.013  74.601  1.00  0.00     0.005 C 
HETATM   12  C11 UNL     1      13.496  37.994  75.583  1.00  0.00     0.035 C 
ENDBRANCH   6   7
ENDBRANCH   4   6
BRANCH   5  13
HETATM   13  N3  UNL     1      11.476  40.500  79.019  1.00  0.00    -0.047 N 
ATOM     14  H33 UNL     1      10.843  39.971  79.618  1.00  0.00     0.276 HD
ATOM     15  H32 UNL     1      11.200  41.444  79.287  1.00  0.00     0.276 HD
ATOM     16  H31 UNL     1      11.287  40.324  78.033  1.00  0.00     0.276 HD
ENDBRANCH   5  13
BRANCH   1  17
HETATM   17  C1  UNL     1      13.355  41.462  81.438  1.00  0.00     0.238 C 
BRANCH  17  18
HETATM   18  N1  UNL     1      14.665  41.431  82.042  1.00  0.00    -0.079 N 
ATOM     19  H13 UNL     1      14.967  40.488  82.285  1.00  0.00     0.274 HD
ATOM     20  H12 UNL     1      15.412  41.646  81.381  1.00  0.00     0.274 HD
ATOM     21  H11 UNL     1      14.653  42.062  82.844  1.00  0.00     0.274 HD
ENDBRANCH  17  18
ENDBRANCH   1  17
TORSDOF 5
ENDMDL
MODEL 3
REMARK VINA RESULT: -6.161112673      0.924      1.073
REMARK  5 active torsions:
REMARK  status: ('A' for Active; 'I' for Inactive)
REMARK    1  A    between atoms: N1_1  and  C1_5 
REMARK    2  A    between atoms: C1_5  and  C2_6 
REMARK    3  A    between atoms: N2_9  and  C5_10 
REMARK    4  A    between atoms: C5_10  and  C6_11 
REMARK    5  A    between atoms: C12_17  and  N3_18 
ROOT
HETATM    1  C2  UNL     1      13.707  41.428  79.880  1.00  0.00     0.073 C 
HETATM    2  C3  UNL     1      15.013  41.015  79.218  1.00  0.00     0.040 C 
HETATM    3  C4  UNL     1      14.485  40.501  77.872  1.00  0.00     0.276 C 
HETATM    4  N2  UNL     1      13.203  39.918  78.159  1.00  0.00     0.123 N 
HETATM    5  C12 UNL     1      12.793  40.297  79.474  1.00  0.00     0.423 C 
ENDROOT
BRANCH   4   6
HETATM    6  C5  UNL     1      13.103  38.514  78.016  1.00  0.00     0.309 C 
BRANCH   6   7
HETATM    7  C6  UNL     1      12.040  37.992  77.139  1.00  0.00    -0.056 C 
HETATM    8  C7  UNL     1      12.234  37.874  75.845  1.00  0.00    -0.022 C 
HETATM    9  C8  UNL     1      11.084  37.325  75.025  1.00  0.00     0.027 C 
HETATM   10  C9  UNL     1       9.849  38.051  75.523  1.00  0.00     0.004 C 
HETATM   11  C10 UNL     1       9.592  37.519  76.913  1.00  0.00     0.005 C 
HETATM   12  C11 UNL     1      10.764  37.614  77.816  1.00  0.00     0.035 C 
ENDBRANCH   6   7
ENDBRANCH   4   6
BRANCH   5  13
HETATM   13  N3  UNL     1      11.402  40.711  79.445  1.00  0.00    -0.047 N 
ATOM     14  H33 UNL     1      10.783  39.919  79.272  1.00  0.00     0.276 HD
ATOM     15  H32 UNL     1      11.073  40.971  80.375  1.00  0.00     0.276 HD
ATOM     16  H31 UNL     1      11.243  41.460  78.772  1.00  0.00     0.276 HD
ENDBRANCH   5  13
BRANCH   1  17
HETATM   17  C1  UNL     1      13.855  41.418  81.392  1.00  0.00     0.238 C 
BRANCH  17  18
HETATM   18  N1  UNL     1      14.804  42.445  81.747  1.00  0.00    -0.079 N 
ATOM     19  H13 UNL     1      15.609  42.474  81.122  1.00  0.00     0.274 HD
ATOM     20  H12 UNL     1      14.457  43.387  81.563  1.00  0.00     0.274 HD
ATOM     21  H11 UNL     1      15.065  42.303  82.723  1.00  0.00     0.274 HD
ENDBRANCH  17  18
ENDBRANCH   1  17
TORSDOF 5
ENDMDL
MODEL 4
REMARK VINA RESULT: -6.142943478      1.407      1.949
REMARK  5 active torsions:
REMARK  status: ('A' for Active; 'I' for Inactive)
REMARK    1  A    between atoms: N1_1  and  C1_5 
REMARK    2  A    between atoms: C1_5  and  C2_6 
REMARK    3  A    between atoms: N2_9  and  C5_10 
REMARK    4  A    between atoms: C5_10  and  C6_11 
REMARK    5  A    between atoms: C12_17  and  N3_18 
ROOT
HETATM    1  C2  UNL     1      13.735  40.945  79.023  1.00  0.00     0.073 C 
HETATM    2  C3  UNL     1      14.829  40.052  78.457  1.00  0.00     0.040 C 
HETATM    3  C4  UNL     1      14.066  39.380  77.310  1.00  0.00     0.276 C 
HETATM    4  N2  UNL     1      12.713  39.244  77.776  1.00  0.00     0.123 N 
HETATM    5  C12 UNL     1      12.536  40.031  78.955  1.00  0.00     0.423 C 
ENDROOT
BRANCH   4   6
HETATM    6  C5  UNL     1      12.255  37.927  78.010  1.00  0.00     0.309 C 
BRANCH   6   7
HETATM    7  C6  UNL     1      11.063  37.476  77.271  1.00  0.00    -0.056 C 
HETATM    8  C7  UNL     1      11.153  37.095  76.017  1.00  0.00    -0.022 C 
HETATM    9  C8  UNL     1       9.873  36.646  75.342  1.00  0.00     0.027 C 
HETATM   10  C9  UNL     1       8.830  37.678  75.725  1.00  0.00     0.004 C 
HETATM   11  C10 UNL     1       8.560  37.463  77.196  1.00  0.00     0.005 C 
HETATM   12  C11 UNL     1       9.780  37.483  78.037  1.00  0.00     0.035 C 
ENDBRANCH   6   7
ENDBRANCH   4   6
BRANCH   5  13
HETATM   13  N3  UNL     1      11.294  40.777  78.856  1.00  0.00    -0.047 N 
ATOM     14  H33 UNL     1      11.370  41.686  79.310  1.00  0.00     0.276 HD
ATOM     15  H32 UNL     1      11.124  41.089  77.900  1.00  0.00     0.276 HD
ATOM     16  H31 UNL     1      10.503  40.246  79.219  1.00  0.00     0.276 HD
ENDBRANCH   5  13
BRANCH   1  17
HETATM   17  C1  UNL     1      14.019  41.271  80.479  1.00  0.00     0.238 C 
BRANCH  17  18
HETATM   18  N1  UNL     1      15.290  41.952  80.537  1.00  0.00    -0.079 N 
ATOM     19  H13 UNL     1      15.867  41.785  79.713  1.00  0.00     0.274 HD
ATOM     20  H12 UNL     1      15.203  42.964  80.438  1.00  0.00     0.274 HD
ATOM     21  H11 UNL     1      15.750  41.678  81.406  1.00  0.00     0.274 HD
ENDBRANCH  17  18
ENDBRANCH   1  17
TORSDOF 5
ENDMDL
MODEL 5
REMARK VINA RESULT: -6.122900946      1.956      5.970
REMARK  5 active torsions:
REMARK  status: ('A' for Active; 'I' for Inactive)
REMARK    1  A    between atoms: N1_1  and  C1_5 
REMARK    2  A    between atoms: C1_5  and  C2_6 
REMARK    3  A    between atoms: N2_9  and  C5_10 
REMARK    4  A    between atoms: C5_10  and  C6_11 
REMARK    5  A    between atoms: C12_17  and  N3_18 
ROOT
HETATM    1  C2  UNL     1      10.480  37.267  77.078  1.00  0.00     0.073 C 
HETATM    2  C3  UNL     1      11.493  37.828  76.091  1.00  0.00     0.040 C 
HETATM    3  C4  UNL     1      12.557  38.352  77.063  1.00  0.00     0.276 C 
HETATM    4  N2  UNL     1      11.834  38.801  78.221  1.00  0.00     0.123 N 
HETATM    5  C12 UNL     1      10.488  38.326  78.153  1.00  0.00     0.423 C 
ENDROOT
BRANCH   4   6
HETATM    6  C5  UNL     1      11.835  40.194  78.464  1.00  0.00     0.309 C 
BRANCH   6   7
HETATM    7  C6  UNL     1      12.704  40.699  79.542  1.00  0.00    -0.056 C 
HETATM    8  C7  UNL     1      12.218  40.941  80.738  1.00  0.00    -0.022 C 
HETATM    9  C8  UNL     1      13.189  41.456  81.782  1.00  0.00     0.027 C 
HETATM   10  C9  UNL     1      14.001  42.530  81.085  1.00  0.00     0.004 C 
HETATM   11  C10 UNL     1      14.881  41.803  80.095  1.00  0.00     0.005 C 
HETATM   12  C11 UNL     1      14.138  40.906  79.180  1.00  0.00     0.035 C 
ENDBRANCH   6   7
ENDBRANCH   4   6
BRANCH   5  13
HETATM   13  N3  UNL     1      10.101  37.787  79.444  1.00  0.00    -0.047 N 
ATOM     14  H33 UNL     1       9.927  36.783  79.390  1.00  0.00     0.276 HD
ATOM     15  H32 UNL     1      10.888  37.777  80.093  1.00  0.00     0.276 HD
ATOM     16  H31 UNL     1       9.301  38.282  79.838  1.00  0.00     0.276 HD
ENDBRANCH   5  13
BRANCH   1  17
HETATM   17  C1  UNL     1       9.098  37.221  76.448  1.00  0.00     0.238 C 
BRANCH  17  18
HETATM   18  N1  UNL     1       9.137  38.018  75.245  1.00  0.00    -0.079 N 
ATOM     19  H13 UNL     1       9.869  38.727  75.263  1.00  0.00     0.274 HD
ATOM     20  H12 UNL     1       9.473  37.497  74.435  1.00  0.00     0.274 HD
ATOM     21  H11 UNL     1       8.206  38.412  75.104  1.00  0.00     0.274 HD
ENDBRANCH  17  18
ENDBRANCH   1  17
TORSDOF 5
ENDMDL
