MODEL 1
REMARK VINA RESULT: -6.520993454      0.000      0.000
REMARK  4 active torsions:
REMARK  status: ('A' for Active; 'I' for Inactive)
REMARK    1  A    between atoms: O1_1  and  C1_3 
REMARK    2  A    between atoms: C1_3  and  C2_4 
REMARK    3  A    between atoms: C2_4  and  N1_5 
REMARK    4  A    between atoms: N1_5  and  C3_8 
ROOT
HETATM    1  C3  UNL     1      11.375  38.547  77.747  1.00  0.00     0.194 C 
HETATM    2  C4  UNL     1      11.909  37.151  77.586  1.00  0.00     0.038 C 
HETATM    3  C5  UNL     1      13.168  36.917  76.914  1.00  0.00    -0.012 C 
HETATM    4  C6  UNL     1      13.833  38.014  76.150  1.00  0.00     0.009 C 
HETATM    5  C7  UNL     1      14.841  38.191  77.225  1.00  0.00    -0.013 C 
HETATM    6  C8  UNL     1      14.412  36.865  77.783  1.00  0.00     0.009 C 
HETATM    7  C9  UNL     1      14.667  39.370  78.133  1.00  0.00     0.014 C 
HETATM    8  C10 UNL     1      13.347  40.023  78.000  1.00  0.00     0.018 A 
HETATM    9  C11 UNL     1      12.948  41.113  78.843  1.00  0.00    -0.025 A 
HETATM   10  C12 UNL     1      12.027  40.415  79.425  1.00  0.00    -0.023 A 
HETATM   11  C13 UNL     1      12.309  39.247  78.685  1.00  0.00     0.046 A 
ENDROOT
BRANCH   1  12
HETATM   12  N1  UNL     1      10.071  38.460  78.344  1.00  0.00    -0.068 N 
ATOM     13  H12 UNL     1       9.601  39.365  78.300  1.00  0.00     0.277 HD
ATOM     14  H11 UNL     1      10.152  38.352  79.354  1.00  0.00     0.277 HD
BRANCH  12  15
HETATM   15  C2  UNL     1       9.232  37.440  77.802  1.00  0.00     0.258 C 
BRANCH  15  16
HETATM   16  C1  UNL     1       7.975  37.244  78.646  1.00  0.00     0.191 C 
BRANCH  16  17
HETATM   17  O1  UNL     1       8.337  37.592  79.958  1.00  0.00    -0.399 OA
ATOM     18  H1  UNL     1       7.535  37.876  80.380  1.00  0.00     0.209 HD
ENDBRANCH  16  17
ENDBRANCH  15  16
ENDBRANCH  12  15
ENDBRANCH   1  12
TORSDOF 4
ENDMDL
MODEL 2
REMARK VINA RESULT: -6.494368409      2.109      3.836
REMARK  4 active torsions:
REMARK  status: ('A' for Active; 'I' for Inactive)
REMARK    1  A    between atoms: O1_1  and  C1_3 
REMARK    2  A    between atoms: C1_3  and  C2_4 
REMARK    3  A    between atoms: C2_4  and  N1_5 
REMARK    4  A    between atoms: N1_5  and  C3_8 
ROOT
HETATM    1  C3  UNL     1       9.875  37.947  77.721  1.00  0.00     0.194 C 
HETATM    2  C4  UNL     1       8.685  37.287  77.081  1.00  0.00     0.038 C 
HETATM    3  C5  UNL     1       8.442  37.422  75.662  1.00  0.00    -0.012 C 
HETATM    4  C6  UNL     1       9.211  38.414  74.855  1.00  0.00     0.009 C 
HETATM    5  C7  UNL     1      10.034  37.335  74.255  1.00  0.00    -0.013 C 
HETATM    6  C8  UNL     1       9.022  36.347  74.761  1.00  0.00     0.009 C 
HETATM    7  C9  UNL     1      11.427  37.170  74.780  1.00  0.00     0.014 C 
HETATM    8  C10 UNL     1      11.678  37.927  76.025  1.00  0.00     0.018 A 
HETATM    9  C11 UNL     1      12.920  37.833  76.737  1.00  0.00    -0.025 A 
HETATM   10  C12 UNL     1      12.373  37.247  77.752  1.00  0.00    -0.023 A 
HETATM   11  C13 UNL     1      11.083  37.248  77.179  1.00  0.00     0.046 A 
ENDROOT
BRANCH   1  12
HETATM   12  N1  UNL     1       9.794  37.735  79.140  1.00  0.00    -0.068 N 
ATOM     13  H12 UNL     1       9.913  38.618  79.637  1.00  0.00     0.277 HD
ATOM     14  H11 UNL     1      10.619  37.235  79.470  1.00  0.00     0.277 HD
BRANCH  12  15
HETATM   15  C2  UNL     1       8.606  37.075  79.580  1.00  0.00     0.258 C 
BRANCH  15  16
HETATM   16  C1  UNL     1       8.720  36.630  81.035  1.00  0.00     0.191 C 
BRANCH  16  17
HETATM   17  O1  UNL     1       8.999  37.794  81.770  1.00  0.00    -0.399 OA
ATOM     18  H1  UNL     1       9.930  37.951  81.663  1.00  0.00     0.209 HD
ENDBRANCH  16  17
ENDBRANCH  15  16
ENDBRANCH  12  15
ENDBRANCH   1  12
TORSDOF 4
ENDMDL
MODEL 3
REMARK VINA RESULT: -6.341488052      2.760      4.750
REMARK  4 active torsions:
REMARK  status: ('A' for Active; 'I' for Inactive)
REMARK    1  A    between atoms: O1_1  and  C1_3 
REMARK    2  A    between atoms: C1_3  and  C2_4 
REMARK    3  A    between atoms: C2_4  and  N1_5 
REMARK    4  A    between atoms: N1_5  and  C3_8 
ROOT
HETATM    1  C3  UNL     1      13.219  39.688  77.804  1.00  0.00     0.194 C 
HETATM    2  C4  UNL     1      11.980  39.617  78.653  1.00  0.00     0.038 C 
HETATM    3  C5  UNL     1      10.808  38.908  78.188  1.00  0.00    -0.012 C 
HETATM    4  C6  UNL     1      10.713  38.453  76.769  1.00  0.00     0.009 C 
HETATM    5  C7  UNL     1      10.973  37.048  77.171  1.00  0.00    -0.013 C 
HETATM    6  C8  UNL     1      10.685  37.449  78.589  1.00  0.00     0.009 C 
HETATM    7  C9  UNL     1      12.346  36.510  76.910  1.00  0.00     0.014 C 
HETATM    8  C10 UNL     1      13.329  37.555  76.552  1.00  0.00     0.018 A 
HETATM    9  C11 UNL     1      14.718  37.260  76.351  1.00  0.00    -0.025 A 
HETATM   10  C12 UNL     1      15.082  37.930  77.396  1.00  0.00    -0.023 A 
HETATM   11  C13 UNL     1      13.763  38.294  77.740  1.00  0.00     0.046 A 
ENDROOT
BRANCH   1  12
HETATM   12  N1  UNL     1      14.165  40.543  78.466  1.00  0.00    -0.068 N 
ATOM     13  H12 UNL     1      14.483  41.276  77.832  1.00  0.00     0.277 HD
ATOM     14  H11 UNL     1      15.044  40.047  78.617  1.00  0.00     0.277 HD
BRANCH  12  15
HETATM   15  C2  UNL     1      13.702  41.113  79.691  1.00  0.00     0.258 C 
BRANCH  15  16
HETATM   16  C1  UNL     1      14.786  41.955  80.360  1.00  0.00     0.191 C 
BRANCH  16  17
HETATM   17  O1  UNL     1      16.008  41.374  79.984  1.00  0.00    -0.399 OA
ATOM     18  H1  UNL     1      15.814  40.465  79.790  1.00  0.00     0.209 HD
ENDBRANCH  16  17
ENDBRANCH  15  16
ENDBRANCH  12  15
ENDBRANCH   1  12
TORSDOF 4
ENDMDL
MODEL 4
REMARK VINA RESULT: -6.304842987      1.749      3.472
REMARK  4 active torsions:
REMARK  status: ('A' for Active; 'I' for Inactive)
REMARK    1  A    between atoms: O1_1  and  C1_3 
REMARK    2  A    between atoms: C1_3  and  C2_4 
REMARK    3  A    between atoms: C2_4  and  N1_5 
REMARK    4  A    between atoms: N1_5  and  C3_8 
ROOT
HETATM    1  C3  UNL     1       9.975  37.408  78.219  1.00  0.00     0.194 C 
HETATM    2  C4  UNL     1      11.197  38.166  78.659  1.00  0.00     0.038 C 
HETATM    3  C5  UNL     1      12.493  37.866  78.093  1.00  0.00    -0.012 C 
HETATM    4  C6  UNL     1      12.689  36.644  77.258  1.00  0.00     0.009 C 
HETATM    5  C7  UNL     1      12.726  37.460  76.019  1.00  0.00    -0.013 C 
HETATM    6  C8  UNL     1      12.916  38.675  76.880  1.00  0.00     0.009 C 
HETATM    7  C9  UNL     1      11.497  37.450  75.162  1.00  0.00     0.014 C 
HETATM    8  C10 UNL     1      10.320  36.855  75.831  1.00  0.00     0.018 A 
HETATM    9  C11 UNL     1       9.024  36.832  75.216  1.00  0.00    -0.025 A 
HETATM   10  C12 UNL     1       8.523  37.650  76.084  1.00  0.00    -0.023 A 
HETATM   11  C13 UNL     1       9.734  37.793  76.793  1.00  0.00     0.046 A 
ENDROOT
BRANCH   1  12
HETATM   12  N1  UNL     1       8.868  37.839  79.027  1.00  0.00    -0.068 N 
ATOM     13  H12 UNL     1       8.214  38.387  78.467  1.00  0.00     0.277 HD
ATOM     14  H11 UNL     1       9.171  38.551  79.691  1.00  0.00     0.277 HD
BRANCH  12  15
HETATM   15  C2  UNL     1       8.178  36.790  79.707  1.00  0.00     0.258 C 
BRANCH  15  16
HETATM   16  C1  UNL     1       8.784  36.522  81.082  1.00  0.00     0.191 C 
BRANCH  16  17
HETATM   17  O1  UNL     1       8.965  37.783  81.673  1.00  0.00    -0.399 OA
ATOM     18  H1  UNL     1       9.102  38.389  80.953  1.00  0.00     0.209 HD
ENDBRANCH  16  17
ENDBRANCH  15  16
ENDBRANCH  12  15
ENDBRANCH   1  12
TORSDOF 4
ENDMDL
MODEL 5
REMARK VINA RESULT: -6.273420494      2.945      4.443
REMARK  4 active torsions:
REMARK  status: ('A' for Active; 'I' for Inactive)
REMARK    1  A    between atoms: O1_1  and  C1_3 
REMARK    2  A    between atoms: C1_3  and  C2_4 
REMARK    3  A    between atoms: C2_4  and  N1_5 
REMARK    4  A    between atoms: N1_5  and  C3_8 
ROOT
HETATM    1  C3  UNL     1      14.097  39.920  78.674  1.00  0.00     0.194 C 
HETATM    2  C4  UNL     1      15.021  39.458  77.581  1.00  0.00     0.038 C 
HETATM    3  C5  UNL     1      15.047  38.070  77.177  1.00  0.00    -0.012 C 
HETATM    4  C6  UNL     1      14.352  37.031  77.994  1.00  0.00     0.009 C 
HETATM    5  C7  UNL     1      13.256  36.937  76.999  1.00  0.00    -0.013 C 
HETATM    6  C8  UNL     1      14.135  37.672  76.029  1.00  0.00     0.009 C 
HETATM    7  C9  UNL     1      11.962  37.608  77.347  1.00  0.00     0.014 C 
HETATM    8  C10 UNL     1      12.066  38.514  78.511  1.00  0.00     0.018 A 
HETATM    9  C11 UNL     1      10.964  39.320  78.951  1.00  0.00    -0.025 A 
HETATM   10  C12 UNL     1      11.553  40.425  78.626  1.00  0.00    -0.023 A 
HETATM   11  C13 UNL     1      12.707  39.777  78.136  1.00  0.00     0.046 A 
ENDROOT
BRANCH   1  12
HETATM   12  N1  UNL     1      14.372  41.307  78.933  1.00  0.00    -0.068 N 
ATOM     13  H12 UNL     1      13.505  41.845  78.933  1.00  0.00     0.277 HD
ATOM     14  H11 UNL     1      14.842  41.729  78.133  1.00  0.00     0.277 HD
BRANCH  12  15
HETATM   15  C2  UNL     1      15.109  41.557  80.131  1.00  0.00     0.258 C 
BRANCH  15  16
HETATM   16  C1  UNL     1      14.225  42.173  81.212  1.00  0.00     0.191 C 
BRANCH  16  17
HETATM   17  O1  UNL     1      15.097  42.569  82.240  1.00  0.00    -0.399 OA
ATOM     18  H1  UNL     1      15.918  42.123  82.069  1.00  0.00     0.209 HD
ENDBRANCH  16  17
ENDBRANCH  15  16
ENDBRANCH  12  15
ENDBRANCH   1  12
TORSDOF 4
ENDMDL
