MODEL 1
REMARK VINA RESULT: -6.888653077      0.000      0.000
REMARK  4 active torsions:
REMARK  status: ('A' for Active; 'I' for Inactive)
REMARK    1  A    between atoms: O1_1  and  C1_3 
REMARK    2  A    between atoms: N1_6  and  C4_7 
REMARK    3  A    between atoms: C4_7  and  C5_8 
REMARK    4  A    between atoms: C5_8  and  C6_9 
ROOT
HETATM    1  C1  UNL     1      14.432  41.606  81.468  1.00  0.00     0.124 C 
HETATM    2  C2  UNL     1      12.951  41.774  81.690  1.00  0.00     0.051 C 
HETATM    3  C3  UNL     1      12.109  40.917  80.804  1.00  0.00     0.124 C 
HETATM    4  N1  UNL     1      12.578  40.803  79.469  1.00  0.00    -0.393 N 
HETATM    5  C12 UNL     1      13.969  40.662  79.288  1.00  0.00     0.060 C 
HETATM    6  C13 UNL     1      14.722  41.785  79.993  1.00  0.00     0.076 C 
ENDROOT
BRANCH   4   7
HETATM    7  C4  UNL     1      11.689  40.263  78.534  1.00  0.00     0.126 C 
BRANCH   7   8
HETATM    8  C5  UNL     1      11.809  38.736  78.557  1.00  0.00     0.058 C 
BRANCH   8   9
HETATM    9  C6  UNL     1      10.642  38.124  77.855  1.00  0.00    -0.057 A 
HETATM   10  C7  UNL     1      10.591  37.952  76.495  1.00  0.00     0.007 A 
HETATM   11  C8  UNL     1       9.490  37.396  75.855  1.00  0.00     0.001 A 
HETATM   12  C9  UNL     1       8.381  36.987  76.584  1.00  0.00     0.000 A 
HETATM   13  C10 UNL     1       8.430  37.158  77.949  1.00  0.00     0.001 A 
HETATM   14  C11 UNL     1       9.522  37.710  78.580  1.00  0.00     0.007 A 
ENDBRANCH   8   9
ENDBRANCH   7   8
ENDBRANCH   4   7
BRANCH   1  15
HETATM   15  O1  UNL     1      15.095  42.618  82.191  1.00  0.00    -0.395 OA
ATOM     16  H1  UNL     1      16.013  42.382  82.247  1.00  0.00     0.210 HD
ENDBRANCH   1  15
TORSDOF 4
ENDMDL
MODEL 2
REMARK VINA RESULT: -6.824778208      0.589      1.380
REMARK  4 active torsions:
REMARK  status: ('A' for Active; 'I' for Inactive)
REMARK    1  A    between atoms: O1_1  and  C1_3 
REMARK    2  A    between atoms: N1_6  and  C4_7 
REMARK    3  A    between atoms: C4_7  and  C5_8 
REMARK    4  A    between atoms: C5_8  and  C6_9 
ROOT
HETATM    1  C1  UNL     1      14.023  42.249  80.926  1.00  0.00     0.124 C 
HETATM    2  C2  UNL     1      14.882  41.629  79.854  1.00  0.00     0.051 C 
HETATM    3  C3  UNL     1      14.103  41.029  78.731  1.00  0.00     0.124 C 
HETATM    4  N1  UNL     1      12.924  40.343  79.128  1.00  0.00    -0.393 N 
HETATM    5  C12 UNL     1      12.147  40.937  80.143  1.00  0.00     0.060 C 
HETATM    6  C13 UNL     1      12.998  41.230  81.373  1.00  0.00     0.076 C 
ENDROOT
BRANCH   4   7
HETATM    7  C4  UNL     1      12.320  39.524  78.168  1.00  0.00     0.126 C 
BRANCH   7   8
HETATM    8  C5  UNL     1      11.372  38.548  78.871  1.00  0.00     0.058 C 
BRANCH   8   9
HETATM    9  C6  UNL     1      10.389  37.999  77.890  1.00  0.00    -0.057 A 
HETATM   10  C7  UNL     1      10.646  37.895  76.547  1.00  0.00     0.007 A 
HETATM   11  C8  UNL     1       9.714  37.398  75.645  1.00  0.00     0.001 A 
HETATM   12  C9  UNL     1       8.464  36.980  76.080  1.00  0.00     0.000 A 
HETATM   13  C10 UNL     1       8.202  37.082  77.427  1.00  0.00     0.001 A 
HETATM   14  C11 UNL     1       9.128  37.576  78.319  1.00  0.00     0.007 A 
ENDBRANCH   8   9
ENDBRANCH   7   8
ENDBRANCH   4   7
BRANCH   1  15
HETATM   15  O1  UNL     1      14.858  42.569  82.016  1.00  0.00    -0.395 OA
ATOM     16  H1  UNL     1      15.087  41.758  82.454  1.00  0.00     0.210 HD
ENDBRANCH   1  15
TORSDOF 4
ENDMDL
MODEL 3
REMARK VINA RESULT: -6.823719429      1.905      3.207
REMARK  4 active torsions:
REMARK  status: ('A' for Active; 'I' for Inactive)
REMARK    1  A    between atoms: O1_1  and  C1_3 
REMARK    2  A    between atoms: N1_6  and  C4_7 
REMARK    3  A    between atoms: C4_7  and  C5_8 
REMARK    4  A    between atoms: C5_8  and  C6_9 
ROOT
HETATM    1  C1  UNL     1      14.458  42.043  81.484  1.00  0.00     0.124 C 
HETATM    2  C2  UNL     1      15.003  41.592  80.153  1.00  0.00     0.051 C 
HETATM    3  C3  UNL     1      13.954  41.393  79.110  1.00  0.00     0.124 C 
HETATM    4  N1  UNL     1      12.756  40.794  79.582  1.00  0.00    -0.393 N 
HETATM    5  C12 UNL     1      12.276  41.222  80.836  1.00  0.00     0.060 C 
HETATM    6  C13 UNL     1      13.358  41.091  81.902  1.00  0.00     0.076 C 
ENDROOT
BRANCH   4   7
HETATM    7  C4  UNL     1      11.865  40.321  78.612  1.00  0.00     0.126 C 
BRANCH   7   8
HETATM    8  C5  UNL     1      11.812  38.793  78.688  1.00  0.00     0.058 C 
BRANCH   8   9
HETATM    9  C6  UNL     1      12.742  38.201  77.680  1.00  0.00    -0.057 A 
HETATM   10  C7  UNL     1      14.029  37.829  77.973  1.00  0.00     0.007 A 
HETATM   11  C8  UNL     1      14.888  37.296  77.019  1.00  0.00     0.001 A 
HETATM   12  C9  UNL     1      14.463  37.118  75.709  1.00  0.00     0.000 A 
HETATM   13  C10 UNL     1      13.173  37.490  75.412  1.00  0.00     0.001 A 
HETATM   14  C11 UNL     1      12.325  38.019  76.359  1.00  0.00     0.007 A 
ENDBRANCH   8   9
ENDBRANCH   7   8
ENDBRANCH   4   7
BRANCH   1  15
HETATM   15  O1  UNL     1      15.506  41.974  82.425  1.00  0.00    -0.395 OA
ATOM     16  H1  UNL     1      15.884  41.104  82.376  1.00  0.00     0.210 HD
ENDBRANCH   1  15
TORSDOF 4
ENDMDL
MODEL 4
REMARK VINA RESULT: -6.819788820      1.714      2.645
REMARK  4 active torsions:
REMARK  status: ('A' for Active; 'I' for Inactive)
REMARK    1  A    between atoms: O1_1  and  C1_3 
REMARK    2  A    between atoms: N1_6  and  C4_7 
REMARK    3  A    between atoms: C4_7  and  C5_8 
REMARK    4  A    between atoms: C5_8  and  C6_9 
ROOT
HETATM    1  C1  UNL     1      14.471  41.658  81.541  1.00  0.00     0.124 C 
HETATM    2  C2  UNL     1      12.981  41.776  81.736  1.00  0.00     0.051 C 
HETATM    3  C3  UNL     1      12.184  40.908  80.819  1.00  0.00     0.124 C 
HETATM    4  N1  UNL     1      12.683  40.833  79.492  1.00  0.00    -0.393 N 
HETATM    5  C12 UNL     1      14.081  40.740  79.336  1.00  0.00     0.060 C 
HETATM    6  C13 UNL     1      14.783  41.873  80.076  1.00  0.00     0.076 C 
ENDROOT
BRANCH   4   7
HETATM    7  C4  UNL     1      11.830  40.282  78.530  1.00  0.00     0.126 C 
BRANCH   7   8
HETATM    8  C5  UNL     1      11.853  38.756  78.660  1.00  0.00     0.058 C 
BRANCH   8   9
HETATM    9  C6  UNL     1      12.520  38.154  77.467  1.00  0.00    -0.057 A 
HETATM   10  C7  UNL     1      13.840  37.782  77.453  1.00  0.00     0.007 A 
HETATM   11  C8  UNL     1      14.450  37.239  76.329  1.00  0.00     0.001 A 
HETATM   12  C9  UNL     1      13.730  37.050  75.157  1.00  0.00     0.000 A 
HETATM   13  C10 UNL     1      12.405  37.422  75.167  1.00  0.00     0.001 A 
HETATM   14  C11 UNL     1      11.804  37.961  76.283  1.00  0.00     0.007 A 
ENDBRANCH   8   9
ENDBRANCH   7   8
ENDBRANCH   4   7
BRANCH   1  15
HETATM   15  O1  UNL     1      15.086  42.678  82.295  1.00  0.00    -0.395 OA
ATOM     16  H1  UNL     1      14.895  42.517  83.212  1.00  0.00     0.210 HD
ENDBRANCH   1  15
TORSDOF 4
ENDMDL
MODEL 5
REMARK VINA RESULT: -6.786414964      1.610      2.535
REMARK  4 active torsions:
REMARK  status: ('A' for Active; 'I' for Inactive)
REMARK    1  A    between atoms: O1_1  and  C1_3 
REMARK    2  A    between atoms: N1_6  and  C4_7 
REMARK    3  A    between atoms: C4_7  and  C5_8 
REMARK    4  A    between atoms: C5_8  and  C6_9 
ROOT
HETATM    1  C1  UNL     1      14.197  42.360  81.253  1.00  0.00     0.124 C 
HETATM    2  C2  UNL     1      14.954  41.810  80.071  1.00  0.00     0.051 C 
HETATM    3  C3  UNL     1      14.075  41.281  78.987  1.00  0.00     0.124 C 
HETATM    4  N1  UNL     1      12.934  40.569  79.443  1.00  0.00    -0.393 N 
HETATM    5  C12 UNL     1      12.254  41.096  80.559  1.00  0.00     0.060 C 
HETATM    6  C13 UNL     1      13.213  41.312  81.724  1.00  0.00     0.076 C 
ENDROOT
BRANCH   4   7
HETATM    7  C4  UNL     1      12.244  39.812  78.491  1.00  0.00     0.126 C 
BRANCH   7   8
HETATM    8  C5  UNL     1      13.147  38.672  78.011  1.00  0.00     0.058 C 
BRANCH   8   9
HETATM    9  C6  UNL     1      12.686  38.187  76.676  1.00  0.00    -0.057 A 
HETATM   10  C7  UNL     1      13.529  38.021  75.606  1.00  0.00     0.007 A 
HETATM   11  C8  UNL     1      13.082  37.585  74.365  1.00  0.00     0.001 A 
HETATM   12  C9  UNL     1      11.739  37.295  74.160  1.00  0.00     0.000 A 
HETATM   13  C10 UNL     1      10.891  37.460  75.231  1.00  0.00     0.001 A 
HETATM   14  C11 UNL     1      11.338  37.893  76.460  1.00  0.00     0.007 A 
ENDBRANCH   8   9
ENDBRANCH   7   8
ENDBRANCH   4   7
BRANCH   1  15
HETATM   15  O1  UNL     1      15.128  42.611  82.282  1.00  0.00    -0.395 OA
ATOM     16  H1  UNL     1      15.444  41.773  82.598  1.00  0.00     0.210 HD
ENDBRANCH   1  15
TORSDOF 4
ENDMDL
