MODEL 1
REMARK VINA RESULT: -5.823643085      0.000      0.000
REMARK  5 active torsions:
REMARK  status: ('A' for Active; 'I' for Inactive)
REMARK    1  A    between atoms: N1_1  and  C1_5 
REMARK    2  A    between atoms: C1_5  and  O1_6 
REMARK    3  A    between atoms: C1_5  and  C2_8 
REMARK    4  A    between atoms: C2_8  and  C3_9 
REMARK    5  A    between atoms: C3_9  and  N2_10 
ROOT
HETATM    1  N2  UNL     1      13.802  38.982  77.570  1.00  0.00    -0.388 N 
HETATM    2  C4  UNL     1      12.399  39.027  77.587  1.00  0.00     0.127 C 
HETATM    3  C5  UNL     1      11.927  37.943  76.591  1.00  0.00     0.004 C 
HETATM    4  C6  UNL     1      12.793  38.046  75.391  1.00  0.00     0.006 C 
HETATM    5  C7  UNL     1      13.914  37.057  75.294  1.00  0.00     0.002 C 
HETATM    6  C8  UNL     1      14.947  37.179  76.380  1.00  0.00     0.025 C 
HETATM    7  C9  UNL     1      14.384  37.673  77.679  1.00  0.00     0.083 C 
HETATM    8  C10 UNL     1      13.350  36.704  78.200  1.00  0.00     0.026 C 
HETATM    9  C11 UNL     1      12.106  36.635  77.340  1.00  0.00     0.008 C 
ENDROOT
BRANCH   1  10
HETATM   10  C3  UNL     1      14.557  40.028  78.124  1.00  0.00     0.063 C 
BRANCH  10  11
HETATM   11  C2  UNL     1      13.788  41.102  78.851  1.00  0.00     0.105 C 
BRANCH  11  12
HETATM   12  C1  UNL     1      14.635  41.454  80.080  1.00  0.00     0.320 C 
BRANCH  12  13
HETATM   13  N1  UNL     1      14.473  42.845  80.456  1.00  0.00    -0.053 N 
ATOM     14  H13 UNL     1      14.130  42.952  81.410  1.00  0.00     0.277 HD
ATOM     15  H12 UNL     1      15.366  43.323  80.572  1.00  0.00     0.277 HD
ATOM     16  H11 UNL     1      13.871  43.303  79.771  1.00  0.00     0.277 HD
ENDBRANCH  12  13
BRANCH  12  17
HETATM   17  O1  UNL     1      15.987  41.214  79.807  1.00  0.00    -0.370 OA
ATOM     18  H1  UNL     1      16.077  40.340  79.445  1.00  0.00     0.212 HD
ENDBRANCH  12  17
ENDBRANCH  11  12
ENDBRANCH  10  11
ENDBRANCH   1  10
TORSDOF 5
ENDMDL
MODEL 2
REMARK VINA RESULT: -5.794543580      1.246      1.392
REMARK  5 active torsions:
REMARK  status: ('A' for Active; 'I' for Inactive)
REMARK    1  A    between atoms: N1_1  and  C1_5 
REMARK    2  A    between atoms: C1_5  and  O1_6 
REMARK    3  A    between atoms: C1_5  and  C2_8 
REMARK    4  A    between atoms: C2_8  and  C3_9 
REMARK    5  A    between atoms: C3_9  and  N2_10 
ROOT
HETATM    1  N2  UNL     1      13.004  39.459  77.802  1.00  0.00    -0.388 N 
HETATM    2  C4  UNL     1      11.983  38.863  78.559  1.00  0.00     0.127 C 
HETATM    3  C5  UNL     1      11.499  37.647  77.736  1.00  0.00     0.004 C 
HETATM    4  C6  UNL     1      11.401  38.088  76.323  1.00  0.00     0.006 C 
HETATM    5  C7  UNL     1      12.542  37.713  75.429  1.00  0.00     0.002 C 
HETATM    6  C8  UNL     1      13.859  38.331  75.810  1.00  0.00     0.025 C 
HETATM    7  C9  UNL     1      13.999  38.562  77.285  1.00  0.00     0.083 C 
HETATM    8  C10 UNL     1      13.929  37.249  78.026  1.00  0.00     0.026 C 
HETATM    9  C11 UNL     1      12.567  36.591  77.953  1.00  0.00     0.008 C 
ENDROOT
BRANCH   1  10
HETATM   10  C3  UNL     1      13.455  40.754  78.106  1.00  0.00     0.063 C 
BRANCH  10  11
HETATM   11  C2  UNL     1      14.706  40.853  78.943  1.00  0.00     0.105 C 
BRANCH  11  12
HETATM   12  C1  UNL     1      14.380  41.860  80.052  1.00  0.00     0.320 C 
BRANCH  12  13
HETATM   13  N1  UNL     1      15.507  42.052  80.943  1.00  0.00    -0.053 N 
ATOM     14  H13 UNL     1      15.663  43.035  81.167  1.00  0.00     0.277 HD
ATOM     15  H12 UNL     1      15.317  41.720  81.888  1.00  0.00     0.277 HD
ATOM     16  H11 UNL     1      16.330  41.610  80.532  1.00  0.00     0.277 HD
ENDBRANCH  12  13
BRANCH  12  17
HETATM   17  O1  UNL     1      13.286  41.405  80.799  1.00  0.00    -0.370 OA
ATOM     18  H1  UNL     1      12.794  40.783  80.275  1.00  0.00     0.212 HD
ENDBRANCH  12  17
ENDBRANCH  11  12
ENDBRANCH  10  11
ENDBRANCH   1  10
TORSDOF 5
ENDMDL
MODEL 3
REMARK VINA RESULT: -5.432484374      0.746      2.217
REMARK  5 active torsions:
REMARK  status: ('A' for Active; 'I' for Inactive)
REMARK    1  A    between atoms: N1_1  and  C1_5 
REMARK    2  A    between atoms: C1_5  and  O1_6 
REMARK    3  A    between atoms: C1_5  and  C2_8 
REMARK    4  A    between atoms: C2_8  and  C3_9 
REMARK    5  A    between atoms: C3_9  and  N2_10 
ROOT
HETATM    1  N2  UNL     1      13.214  39.302  77.911  1.00  0.00    -0.388 N 
HETATM    2  C4  UNL     1      14.397  39.289  77.154  1.00  0.00     0.127 C 
HETATM    3  C5  UNL     1      14.652  37.809  76.788  1.00  0.00     0.004 C 
HETATM    4  C6  UNL     1      14.380  37.006  78.005  1.00  0.00     0.006 C 
HETATM    5  C7  UNL     1      13.046  36.328  78.071  1.00  0.00     0.002 C 
HETATM    6  C8  UNL     1      11.873  37.268  78.104  1.00  0.00     0.025 C 
HETATM    7  C9  UNL     1      12.119  38.549  77.365  1.00  0.00     0.083 C 
HETATM    8  C10 UNL     1      12.380  38.265  75.905  1.00  0.00     0.026 C 
HETATM    9  C11 UNL     1      13.677  37.523  75.661  1.00  0.00     0.008 C 
ENDROOT
BRANCH   1  10
HETATM   10  C3  UNL     1      12.857  40.435  78.659  1.00  0.00     0.063 C 
BRANCH  10  11
HETATM   11  C2  UNL     1      13.865  41.556  78.707  1.00  0.00     0.105 C 
BRANCH  11  12
HETATM   12  C1  UNL     1      14.500  41.478  80.100  1.00  0.00     0.320 C 
BRANCH  12  13
HETATM   13  N1  UNL     1      14.192  42.653  80.890  1.00  0.00    -0.053 N 
ATOM     14  H13 UNL     1      14.473  42.551  81.865  1.00  0.00     0.277 HD
ATOM     15  H12 UNL     1      14.786  43.448  80.654  1.00  0.00     0.277 HD
ATOM     16  H11 UNL     1      13.199  42.866  80.791  1.00  0.00     0.277 HD
ENDBRANCH  12  13
BRANCH  12  17
HETATM   17  O1  UNL     1      15.891  41.365  79.981  1.00  0.00    -0.370 OA
ATOM     18  H1  UNL     1      16.098  41.012  79.124  1.00  0.00     0.212 HD
ENDBRANCH  12  17
ENDBRANCH  11  12
ENDBRANCH  10  11
ENDBRANCH   1  10
TORSDOF 5
ENDMDL
MODEL 4
REMARK VINA RESULT: -5.405283774      1.072      1.225
REMARK  5 active torsions:
REMARK  status: ('A' for Active; 'I' for Inactive)
REMARK    1  A    between atoms: N1_1  and  C1_5 
REMARK    2  A    between atoms: C1_5  and  O1_6 
REMARK    3  A    between atoms: C1_5  and  C2_8 
REMARK    4  A    between atoms: C2_8  and  C3_9 
REMARK    5  A    between atoms: C3_9  and  N2_10 
ROOT
HETATM    1  N2  UNL     1      12.690  38.702  77.593  1.00  0.00    -0.388 N 
HETATM    2  C4  UNL     1      11.551  38.523  76.793  1.00  0.00     0.127 C 
HETATM    3  C5  UNL     1      11.965  37.537  75.677  1.00  0.00     0.004 C 
HETATM    4  C6  UNL     1      13.310  37.950  75.208  1.00  0.00     0.006 C 
HETATM    5  C7  UNL     1      14.471  37.175  75.751  1.00  0.00     0.002 C 
HETATM    6  C8  UNL     1      14.658  37.297  77.238  1.00  0.00     0.025 C 
HETATM    7  C9  UNL     1      13.372  37.499  77.982  1.00  0.00     0.083 C 
HETATM    8  C10 UNL     1      12.461  36.314  77.776  1.00  0.00     0.026 C 
HETATM    9  C11 UNL     1      11.965  36.178  76.352  1.00  0.00     0.008 C 
ENDROOT
BRANCH   1  10
HETATM   10  C3  UNL     1      12.759  39.761  78.513  1.00  0.00     0.063 C 
BRANCH  10  11
HETATM   11  C2  UNL     1      13.755  40.853  78.210  1.00  0.00     0.105 C 
BRANCH  11  12
HETATM   12  C1  UNL     1      14.998  40.517  79.042  1.00  0.00     0.320 C 
BRANCH  12  13
HETATM   13  N1  UNL     1      15.307  41.573  79.985  1.00  0.00    -0.053 N 
ATOM     14  H13 UNL     1      14.675  41.577  80.786  1.00  0.00     0.277 HD
ATOM     15  H12 UNL     1      16.175  41.401  80.492  1.00  0.00     0.277 HD
ATOM     16  H11 UNL     1      15.315  42.465  79.490  1.00  0.00     0.277 HD
ENDBRANCH  12  13
BRANCH  12  17
HETATM   17  O1  UNL     1      16.098  40.330  78.195  1.00  0.00    -0.370 OA
ATOM     18  H1  UNL     1      16.533  39.519  78.432  1.00  0.00     0.212 HD
ENDBRANCH  12  17
ENDBRANCH  11  12
ENDBRANCH  10  11
ENDBRANCH   1  10
TORSDOF 5
ENDMDL
MODEL 5
REMARK VINA RESULT: -5.005131110      4.107      5.115
REMARK  5 active torsions:
REMARK  status: ('A' for Active; 'I' for Inactive)
REMARK    1  A    between atoms: N1_1  and  C1_5 
REMARK    2  A    between atoms: C1_5  and  O1_6 
REMARK    3  A    between atoms: C1_5  and  C2_8 
REMARK    4  A    between atoms: C2_8  and  C3_9 
REMARK    5  A    between atoms: C3_9  and  N2_10 
ROOT
HETATM    1  N2  UNL     1      11.132  37.627  75.895  1.00  0.00    -0.388 N 
HETATM    2  C4  UNL     1      11.529  37.833  74.564  1.00  0.00     0.127 C 
HETATM    3  C5  UNL     1      13.059  37.614  74.538  1.00  0.00     0.004 C 
HETATM    4  C6  UNL     1      13.617  38.291  75.735  1.00  0.00     0.006 C 
HETATM    5  C7  UNL     1      13.929  37.414  76.908  1.00  0.00     0.002 C 
HETATM    6  C8  UNL     1      12.731  36.740  77.517  1.00  0.00     0.025 C 
HETATM    7  C9  UNL     1      11.650  36.443  76.521  1.00  0.00     0.083 C 
HETATM    8  C10 UNL     1      12.163  35.496  75.463  1.00  0.00     0.026 C 
HETATM    9  C11 UNL     1      13.228  36.107  74.577  1.00  0.00     0.008 C 
ENDROOT
BRANCH   1  10
HETATM   10  C3  UNL     1       9.864  38.039  76.335  1.00  0.00     0.063 C 
BRANCH  10  11
HETATM   11  C2  UNL     1       8.840  36.953  76.553  1.00  0.00     0.105 C 
BRANCH  11  12
HETATM   12  C1  UNL     1       8.178  37.275  77.897  1.00  0.00     0.320 C 
BRANCH  12  13
HETATM   13  N1  UNL     1       9.159  37.659  78.893  1.00  0.00    -0.053 N 
ATOM     14  H13 UNL     1      10.116  37.507  78.576  1.00  0.00     0.277 HD
ATOM     15  H12 UNL     1       9.211  38.670  79.019  1.00  0.00     0.277 HD
ATOM     16  H11 UNL     1       8.953  37.168  79.764  1.00  0.00     0.277 HD
ENDBRANCH  12  13
BRANCH  12  17
HETATM   17  O1  UNL     1       7.477  36.155  78.361  1.00  0.00    -0.370 OA
ATOM     18  H1  UNL     1       6.807  36.443  78.970  1.00  0.00     0.212 HD
ENDBRANCH  12  17
ENDBRANCH  11  12
ENDBRANCH  10  11
ENDBRANCH   1  10
TORSDOF 5
ENDMDL
