MODEL 1
REMARK VINA RESULT: -6.782449261      0.000      0.000
REMARK  0 active torsions:
REMARK  status: ('A' for Active; 'I' for Inactive)
ROOT
HETATM    1  C1  UNL     1     -21.296 -45.103  25.302  1.00  0.00     0.013 C 
HETATM    2  C2  UNL     1     -21.192 -43.760  25.990  1.00  0.00     0.025 C 
HETATM    3  C3  UNL     1     -21.226 -42.622  25.052  1.00  0.00     0.034 C 
HETATM    4  C4  UNL     1     -20.019 -42.251  24.273  1.00  0.00     0.228 C 
HETATM    5  C5  UNL     1     -20.267 -42.556  22.870  1.00  0.00     0.040 C 
HETATM    6  C6  UNL     1     -20.878 -41.325  22.231  1.00  0.00     0.029 C 
HETATM    7  C7  UNL     1     -22.211 -40.906  22.634  1.00  0.00    -0.031 C 
HETATM    8  C8  UNL     1     -22.622 -40.535  23.968  1.00  0.00    -0.030 C 
HETATM    9  C9  UNL     1     -21.724 -40.252  25.092  1.00  0.00     0.036 C 
HETATM   10  C10 UNL     1     -21.348 -41.438  25.982  1.00  0.00    -0.027 C 
HETATM   11  C11 UNL     1     -20.047 -41.280  26.675  1.00  0.00     0.040 C 
HETATM   12  C12 UNL     1     -18.805 -41.861  26.173  1.00  0.00     0.273 C 
HETATM   13  N1  UNL     1     -18.913 -42.763  25.004  1.00  0.00     0.089 N 
HETATM   14  C13 UNL     1     -17.657 -42.725  24.293  1.00  0.00     0.310 C 
HETATM   15  C14 UNL     1     -22.466 -41.897  26.870  1.00  0.00     0.050 C 
HETATM   16  C15 UNL     1     -22.475 -43.434  26.786  1.00  0.00     0.141 C 
HETATM   17  C16 UNL     1     -23.639 -43.904  26.054  1.00  0.00     0.085 C 
HETATM   18  N2  UNL     1     -24.586 -44.267  25.476  1.00  0.00    -0.195 NA
HETATM   19  C17 UNL     1     -22.454 -44.045  28.090  1.00  0.00     0.085 C 
HETATM   20  N3  UNL     1     -22.448 -44.524  29.132  1.00  0.00    -0.195 NA
ENDROOT
TORSDOF 0
ENDMDL
MODEL 2
REMARK VINA RESULT: -6.608099007      2.032      4.038
REMARK  0 active torsions:
REMARK  status: ('A' for Active; 'I' for Inactive)
ROOT
HETATM    1  C1  UNL     1     -24.175 -42.638  28.152  1.00  0.00     0.013 C 
HETATM    2  C2  UNL     1     -23.643 -43.569  27.084  1.00  0.00     0.025 C 
HETATM    3  C3  UNL     1     -22.481 -43.020  26.361  1.00  0.00     0.034 C 
HETATM    4  C4  UNL     1     -22.667 -42.001  25.298  1.00  0.00     0.228 C 
HETATM    5  C5  UNL     1     -22.125 -40.735  25.777  1.00  0.00     0.040 C 
HETATM    6  C6  UNL     1     -20.665 -40.677  25.374  1.00  0.00     0.029 C 
HETATM    7  C7  UNL     1     -19.724 -41.598  25.990  1.00  0.00    -0.031 C 
HETATM    8  C8  UNL     1     -19.780 -43.040  25.932  1.00  0.00    -0.030 C 
HETATM    9  C9  UNL     1     -20.626 -43.828  25.029  1.00  0.00     0.036 C 
HETATM   10  C10 UNL     1     -22.015 -44.205  25.549  1.00  0.00    -0.027 C 
HETATM   11  C11 UNL     1     -23.014 -44.434  24.479  1.00  0.00     0.040 C 
HETATM   12  C12 UNL     1     -23.965 -43.412  24.049  1.00  0.00     0.273 C 
HETATM   13  N1  UNL     1     -24.002 -42.160  24.838  1.00  0.00     0.089 N 
HETATM   14  C13 UNL     1     -24.465 -41.101  23.972  1.00  0.00     0.310 C 
HETATM   15  C14 UNL     1     -21.988 -45.270  26.605  1.00  0.00     0.050 C 
HETATM   16  C15 UNL     1     -22.959 -44.806  27.705  1.00  0.00     0.141 C 
HETATM   17  C16 UNL     1     -22.234 -44.416  28.902  1.00  0.00     0.085 C 
HETATM   18  N2  UNL     1     -21.638 -44.119  29.861  1.00  0.00    -0.195 NA
HETATM   19  C17 UNL     1     -23.919 -45.825  28.041  1.00  0.00     0.085 C 
HETATM   20  N3  UNL     1     -24.674 -46.645  28.310  1.00  0.00    -0.195 NA
ENDROOT
TORSDOF 0
ENDMDL
MODEL 3
REMARK VINA RESULT: -6.532972960      2.619      5.745
REMARK  0 active torsions:
REMARK  status: ('A' for Active; 'I' for Inactive)
ROOT
HETATM    1  C1  UNL     1     -20.711 -41.989  20.659  1.00  0.00     0.013 C 
HETATM    2  C2  UNL     1     -21.391 -41.029  21.610  1.00  0.00     0.025 C 
HETATM    3  C3  UNL     1     -21.283 -41.437  23.023  1.00  0.00     0.034 C 
HETATM    4  C4  UNL     1     -22.158 -42.505  23.568  1.00  0.00     0.228 C 
HETATM    5  C5  UNL     1     -21.332 -43.669  23.860  1.00  0.00     0.040 C 
HETATM    6  C6  UNL     1     -20.846 -43.542  25.290  1.00  0.00     0.029 C 
HETATM    7  C7  UNL     1     -19.908 -42.483  25.627  1.00  0.00    -0.031 C 
HETATM    8  C8  UNL     1     -20.135 -41.064  25.477  1.00  0.00    -0.030 C 
HETATM    9  C9  UNL     1     -21.430 -40.426  25.219  1.00  0.00     0.036 C 
HETATM   10  C10 UNL     1     -21.813 -40.226  23.752  1.00  0.00    -0.027 C 
HETATM   11  C11 UNL     1     -23.275 -40.167  23.516  1.00  0.00     0.040 C 
HETATM   12  C12 UNL     1     -24.055 -41.322  23.077  1.00  0.00     0.273 C 
HETATM   13  N1  UNL     1     -23.298 -42.543  22.719  1.00  0.00     0.089 N 
HETATM   14  C13 UNL     1     -24.161 -43.681  22.929  1.00  0.00     0.310 C 
HETATM   15  C14 UNL     1     -21.037 -39.134  23.076  1.00  0.00     0.050 C 
HETATM   16  C15 UNL     1     -20.623 -39.691  21.702  1.00  0.00     0.141 C 
HETATM   17  C16 UNL     1     -19.193 -39.942  21.657  1.00  0.00     0.085 C 
HETATM   18  N2  UNL     1     -18.041 -40.125  21.631  1.00  0.00    -0.195 NA
HETATM   19  C17 UNL     1     -20.985 -38.802  20.629  1.00  0.00     0.085 C 
HETATM   20  N3  UNL     1     -21.268 -38.084  19.781  1.00  0.00    -0.195 NA
ENDROOT
TORSDOF 0
ENDMDL
MODEL 4
REMARK VINA RESULT: -6.527890217      1.411      1.984
REMARK  0 active torsions:
REMARK  status: ('A' for Active; 'I' for Inactive)
ROOT
HETATM    1  C1  UNL     1     -20.971 -44.868  25.306  1.00  0.00     0.013 C 
HETATM    2  C2  UNL     1     -21.361 -43.442  25.632  1.00  0.00     0.025 C 
HETATM    3  C3  UNL     1     -20.648 -42.444  24.813  1.00  0.00     0.034 C 
HETATM    4  C4  UNL     1     -19.246 -42.072  25.130  1.00  0.00     0.228 C 
HETATM    5  C5  UNL     1     -18.387 -42.578  24.067  1.00  0.00     0.040 C 
HETATM    6  C6  UNL     1     -18.280 -41.499  23.008  1.00  0.00     0.029 C 
HETATM    7  C7  UNL     1     -19.457 -41.151  22.230  1.00  0.00    -0.031 C 
HETATM    8  C8  UNL     1     -20.707 -40.648  22.752  1.00  0.00    -0.030 C 
HETATM    9  C9  UNL     1     -20.924 -40.142  24.112  1.00  0.00     0.036 C 
HETATM   10  C10 UNL     1     -21.373 -41.165  25.157  1.00  0.00    -0.027 C 
HETATM   11  C11 UNL     1     -21.006 -40.803  26.547  1.00  0.00     0.040 C 
HETATM   12  C12 UNL     1     -19.821 -41.333  27.218  1.00  0.00     0.273 C 
HETATM   13  N1  UNL     1     -19.063 -42.385  26.504  1.00  0.00     0.089 N 
HETATM   14  C13 UNL     1     -17.692 -42.328  26.952  1.00  0.00     0.310 C 
HETATM   15  C14 UNL     1     -22.799 -41.602  24.992  1.00  0.00     0.050 C 
HETATM   16  C15 UNL     1     -22.800 -43.132  25.165  1.00  0.00     0.141 C 
HETATM   17  C16 UNL     1     -23.058 -43.793  23.898  1.00  0.00     0.085 C 
HETATM   18  N2  UNL     1     -23.280 -44.311  22.875  1.00  0.00    -0.195 NA
HETATM   19  C17 UNL     1     -23.773 -43.563  26.135  1.00  0.00     0.085 C 
HETATM   20  N3  UNL     1     -24.557 -43.900  26.901  1.00  0.00    -0.195 NA
ENDROOT
TORSDOF 0
ENDMDL
MODEL 5
REMARK VINA RESULT: -6.440166788      1.833      4.364
REMARK  0 active torsions:
REMARK  status: ('A' for Active; 'I' for Inactive)
ROOT
HETATM    1  C1  UNL     1     -21.828 -40.192  26.611  1.00  0.00     0.013 C 
HETATM    2  C2  UNL     1     -21.121 -41.054  25.588  1.00  0.00     0.025 C 
HETATM    3  C3  UNL     1     -21.117 -42.487  25.939  1.00  0.00     0.034 C 
HETATM    4  C4  UNL     1     -20.167 -43.012  26.951  1.00  0.00     0.228 C 
HETATM    5  C5  UNL     1     -20.928 -43.407  28.130  1.00  0.00     0.040 C 
HETATM    6  C6  UNL     1     -21.320 -44.861  27.959  1.00  0.00     0.029 C 
HETATM    7  C7  UNL     1     -22.271 -45.220  26.919  1.00  0.00    -0.031 C 
HETATM    8  C8  UNL     1     -22.108 -44.998  25.500  1.00  0.00    -0.030 C 
HETATM    9  C9  UNL     1     -20.858 -44.625  24.831  1.00  0.00     0.036 C 
HETATM   10  C10 UNL     1     -20.583 -43.127  24.680  1.00  0.00    -0.027 C 
HETATM   11  C11 UNL     1     -19.144 -42.788  24.582  1.00  0.00     0.040 C 
HETATM   12  C12 UNL     1     -18.354 -42.342  25.727  1.00  0.00     0.273 C 
HETATM   13  N1  UNL     1     -19.088 -42.087  26.987  1.00  0.00     0.089 N 
HETATM   14  C13 UNL     1     -18.171 -42.282  28.085  1.00  0.00     0.310 C 
HETATM   15  C14 UNL     1     -21.444 -42.464  23.645  1.00  0.00     0.050 C 
HETATM   16  C15 UNL     1     -21.929 -41.146  24.275  1.00  0.00     0.141 C 
HETATM   17  C16 UNL     1     -23.349 -41.210  24.576  1.00  0.00     0.085 C 
HETATM   18  N2  UNL     1     -24.493 -41.272  24.800  1.00  0.00    -0.195 NA
HETATM   19  C17 UNL     1     -21.674 -40.015  23.420  1.00  0.00     0.085 C 
HETATM   20  N3  UNL     1     -21.477 -39.121  22.729  1.00  0.00    -0.195 NA
ENDROOT
TORSDOF 0
ENDMDL
