MODEL 1
REMARK VINA RESULT: -8.106550435      0.000      0.000
REMARK  0 active torsions:
REMARK  status: ('A' for Active; 'I' for Inactive)
ROOT
HETATM    1  C1  UNL     1     -14.331 -43.400  25.661  1.00  0.00     0.010 C 
HETATM    2  C2  UNL     1     -15.466 -42.565  25.048  1.00  0.00    -0.019 C 
HETATM    3  C3  UNL     1     -16.584 -42.546  26.003  1.00  0.00     0.007 C 
HETATM    4  C4  UNL     1     -17.955 -42.471  25.469  1.00  0.00     0.042 C 
HETATM    5  C5  UNL     1     -18.069 -42.367  23.982  1.00  0.00     0.099 C 
HETATM    6  C6  UNL     1     -17.149 -43.366  23.358  1.00  0.00     0.042 C 
HETATM    7  C7  UNL     1     -15.717 -43.078  23.689  1.00  0.00     0.007 C 
HETATM    8  C8  UNL     1     -19.509 -42.752  23.618  1.00  0.00     0.085 C 
HETATM    9  C9  UNL     1     -19.975 -41.479  22.942  1.00  0.00     0.138 C 
HETATM   10  O1  UNL     1     -18.770 -40.960  22.475  1.00  0.00    -0.226 OA
HETATM   11  O2  UNL     1     -17.953 -41.098  23.485  1.00  0.00    -0.229 OA
HETATM   12  C10 UNL     1     -20.566 -40.499  23.939  1.00  0.00     0.029 C 
HETATM   13  C11 UNL     1     -21.150 -39.353  23.102  1.00  0.00     0.038 C 
HETATM   14  C12 UNL     1     -22.390 -39.921  22.432  1.00  0.00     0.274 C 
HETATM   15  N1  UNL     1     -22.326 -41.367  22.349  1.00  0.00     0.101 N 
HETATM   16  C13 UNL     1     -22.565 -41.887  23.677  1.00  0.00     0.274 C 
HETATM   17  C14 UNL     1     -21.744 -41.120  24.666  1.00  0.00     0.038 C 
HETATM   18  C15 UNL     1     -20.985 -41.714  21.874  1.00  0.00     0.194 A 
HETATM   19  C16 UNL     1     -20.690 -41.151  20.504  1.00  0.00     0.048 A 
HETATM   20  C17 UNL     1     -20.807 -42.650  20.766  1.00  0.00     0.048 A 
ENDROOT
TORSDOF 0
ENDMDL
MODEL 2
REMARK VINA RESULT: -7.555948217      1.407      2.865
REMARK  0 active torsions:
REMARK  status: ('A' for Active; 'I' for Inactive)
ROOT
HETATM    1  C1  UNL     1     -15.234 -42.587  26.225  1.00  0.00     0.010 C 
HETATM    2  C2  UNL     1     -16.515 -42.885  25.429  1.00  0.00    -0.019 C 
HETATM    3  C3  UNL     1     -16.383 -42.259  24.105  1.00  0.00     0.007 C 
HETATM    4  C4  UNL     1     -17.604 -41.770  23.441  1.00  0.00     0.042 C 
HETATM    5  C5  UNL     1     -18.885 -42.014  24.174  1.00  0.00     0.099 C 
HETATM    6  C6  UNL     1     -18.695 -41.643  25.610  1.00  0.00     0.042 C 
HETATM    7  C7  UNL     1     -17.664 -42.506  26.270  1.00  0.00     0.007 C 
HETATM    8  C8  UNL     1     -19.930 -41.066  23.571  1.00  0.00     0.085 C 
HETATM    9  C9  UNL     1     -20.955 -42.064  23.073  1.00  0.00     0.138 C 
HETATM   10  O1  UNL     1     -20.736 -43.135  23.936  1.00  0.00    -0.226 OA
HETATM   11  O2  UNL     1     -19.434 -43.250  23.973  1.00  0.00    -0.229 OA
HETATM   12  C10 UNL     1     -20.655 -42.518  21.656  1.00  0.00     0.029 C 
HETATM   13  C11 UNL     1     -21.856 -43.372  21.228  1.00  0.00     0.038 C 
HETATM   14  C12 UNL     1     -23.003 -42.398  21.019  1.00  0.00     0.274 C 
HETATM   15  N1  UNL     1     -22.787 -41.168  21.756  1.00  0.00     0.101 N 
HETATM   16  C13 UNL     1     -21.764 -40.420  21.059  1.00  0.00     0.274 C 
HETATM   17  C14 UNL     1     -20.632 -41.334  20.708  1.00  0.00     0.038 C 
HETATM   18  C15 UNL     1     -22.349 -41.542  23.103  1.00  0.00     0.194 A 
HETATM   19  C16 UNL     1     -23.381 -42.359  23.843  1.00  0.00     0.048 A 
HETATM   20  C17 UNL     1     -22.981 -40.953  24.281  1.00  0.00     0.048 A 
ENDROOT
TORSDOF 0
ENDMDL
MODEL 3
REMARK VINA RESULT: -7.480119885      1.693      3.188
REMARK  0 active torsions:
REMARK  status: ('A' for Active; 'I' for Inactive)
ROOT
HETATM    1  C1  UNL     1     -16.061 -42.827  25.713  1.00  0.00     0.010 C 
HETATM    2  C2  UNL     1     -17.418 -42.862  24.991  1.00  0.00    -0.019 C 
HETATM    3  C3  UNL     1     -17.271 -42.147  23.715  1.00  0.00     0.007 C 
HETATM    4  C4  UNL     1     -18.441 -41.427  23.181  1.00  0.00     0.042 C 
HETATM    5  C5  UNL     1     -19.697 -41.544  23.984  1.00  0.00     0.099 C 
HETATM    6  C6  UNL     1     -19.368 -41.334  25.427  1.00  0.00     0.042 C 
HETATM    7  C7  UNL     1     -18.443 -42.394  25.940  1.00  0.00     0.007 C 
HETATM    8  C8  UNL     1     -20.620 -40.403  23.535  1.00  0.00     0.085 C 
HETATM    9  C9  UNL     1     -21.814 -41.191  23.036  1.00  0.00     0.138 C 
HETATM   10  O1  UNL     1     -21.709 -42.355  23.793  1.00  0.00    -0.226 OA
HETATM   11  O2  UNL     1     -20.440 -42.663  23.727  1.00  0.00    -0.229 OA
HETATM   12  C10 UNL     1     -21.672 -41.556  21.570  1.00  0.00     0.029 C 
HETATM   13  C11 UNL     1     -23.012 -42.183  21.163  1.00  0.00     0.038 C 
HETATM   14  C12 UNL     1     -24.007 -41.036  21.116  1.00  0.00     0.274 C 
HETATM   15  N1  UNL     1     -23.562 -39.922  21.931  1.00  0.00     0.101 N 
HETATM   16  C13 UNL     1     -22.481 -39.273  21.222  1.00  0.00     0.274 C 
HETATM   17  C14 UNL     1     -21.525 -40.309  20.719  1.00  0.00     0.038 C 
HETATM   18  C15 UNL     1     -23.107 -40.474  23.208  1.00  0.00     0.194 A 
HETATM   19  C16 UNL     1     -24.205 -41.193  23.954  1.00  0.00     0.048 A 
HETATM   20  C17 UNL     1     -23.570 -39.906  24.472  1.00  0.00     0.048 A 
ENDROOT
TORSDOF 0
ENDMDL
MODEL 4
REMARK VINA RESULT: -7.297507545      1.260      1.464
REMARK  0 active torsions:
REMARK  status: ('A' for Active; 'I' for Inactive)
ROOT
HETATM    1  C1  UNL     1     -13.887 -42.919  24.926  1.00  0.00     0.010 C 
HETATM    2  C2  UNL     1     -15.274 -42.279  24.761  1.00  0.00    -0.019 C 
HETATM    3  C3  UNL     1     -16.036 -42.524  25.994  1.00  0.00     0.007 C 
HETATM    4  C4  UNL     1     -17.498 -42.678  25.891  1.00  0.00     0.042 C 
HETATM    5  C5  UNL     1     -18.074 -42.514  24.520  1.00  0.00     0.099 C 
HETATM    6  C6  UNL     1     -17.236 -43.286  23.552  1.00  0.00     0.042 C 
HETATM    7  C7  UNL     1     -15.839 -42.754  23.485  1.00  0.00     0.007 C 
HETATM    8  C8  UNL     1     -19.474 -43.143  24.548  1.00  0.00     0.085 C 
HETATM    9  C9  UNL     1     -20.323 -41.944  24.178  1.00  0.00     0.138 C 
HETATM   10  O1  UNL     1     -19.418 -41.183  23.442  1.00  0.00    -0.226 OA
HETATM   11  O2  UNL     1     -18.321 -41.220  24.153  1.00  0.00    -0.229 OA
HETATM   12  C10 UNL     1     -20.735 -41.149  25.404  1.00  0.00     0.029 C 
HETATM   13  C11 UNL     1     -21.724 -40.089  24.901  1.00  0.00     0.038 C 
HETATM   14  C12 UNL     1     -22.999 -40.842  24.560  1.00  0.00     0.274 C 
HETATM   15  N1  UNL     1     -22.728 -42.243  24.305  1.00  0.00     0.101 N 
HETATM   16  C13 UNL     1     -22.464 -42.872  25.581  1.00  0.00     0.274 C 
HETATM   17  C14 UNL     1     -21.519 -42.019  26.367  1.00  0.00     0.038 C 
HETATM   18  C15 UNL     1     -21.557 -42.305  23.428  1.00  0.00     0.194 A 
HETATM   19  C16 UNL     1     -21.788 -41.622  22.102  1.00  0.00     0.048 A 
HETATM   20  C17 UNL     1     -21.574 -43.128  22.221  1.00  0.00     0.048 A 
ENDROOT
TORSDOF 0
ENDMDL
MODEL 5
REMARK VINA RESULT: -7.181395625      1.567      3.028
REMARK  0 active torsions:
REMARK  status: ('A' for Active; 'I' for Inactive)
ROOT
HETATM    1  C1  UNL     1     -14.183 -42.985  25.013  1.00  0.00     0.010 C 
HETATM    2  C2  UNL     1     -15.677 -43.241  24.759  1.00  0.00    -0.019 C 
HETATM    3  C3  UNL     1     -16.070 -42.483  23.562  1.00  0.00     0.007 C 
HETATM    4  C4  UNL     1     -17.448 -41.967  23.485  1.00  0.00     0.042 C 
HETATM    5  C5  UNL     1     -18.339 -42.319  24.633  1.00  0.00     0.099 C 
HETATM    6  C6  UNL     1     -17.594 -42.087  25.909  1.00  0.00     0.042 C 
HETATM    7  C7  UNL     1     -16.398 -42.981  26.018  1.00  0.00     0.007 C 
HETATM    8  C8  UNL     1     -19.526 -41.347  24.591  1.00  0.00     0.085 C 
HETATM    9  C9  UNL     1     -20.676 -42.320  24.437  1.00  0.00     0.138 C 
HETATM   10  O1  UNL     1     -20.147 -43.465  25.029  1.00  0.00    -0.226 OA
HETATM   11  O2  UNL     1     -18.938 -43.545  24.540  1.00  0.00    -0.229 OA
HETATM   12  C10 UNL     1     -20.964 -42.623  22.977  1.00  0.00     0.029 C 
HETATM   13  C11 UNL     1     -22.247 -43.465  22.970  1.00  0.00     0.038 C 
HETATM   14  C12 UNL     1     -23.371 -42.509  23.331  1.00  0.00     0.274 C 
HETATM   15  N1  UNL     1     -22.867 -41.353  24.046  1.00  0.00     0.101 N 
HETATM   16  C13 UNL     1     -22.193 -40.509  23.083  1.00  0.00     0.274 C 
HETATM   17  C14 UNL     1     -21.302 -41.351  22.224  1.00  0.00     0.038 C 
HETATM   18  C15 UNL     1     -21.939 -41.845  25.065  1.00  0.00     0.194 A 
HETATM   19  C16 UNL     1     -22.605 -42.761  26.064  1.00  0.00     0.048 A 
HETATM   20  C17 UNL     1     -22.048 -41.394  26.451  1.00  0.00     0.048 A 
ENDROOT
TORSDOF 0
ENDMDL
