MODEL 1
REMARK VINA RESULT: -8.518366386      0.000      0.000
REMARK  2 active torsions:
REMARK  status: ('A' for Active; 'I' for Inactive)
REMARK    1  A    between atoms: C1_2  and  O2_3 
REMARK       I    between atoms: C1_2  and  N1_15 
REMARK    2  A    between atoms: O2_3  and  C2_4 
ROOT
HETATM    1  C2  UNL     1     -10.950 -43.137  28.831  1.00  0.00     0.077 C 
HETATM    2  C3  UNL     1     -11.300 -42.421  30.089  1.00  0.00     0.039 C 
HETATM    3  C4  UNL     1     -11.500 -43.351  31.260  1.00  0.00     0.007 C 
HETATM    4  C5  UNL     1     -10.470 -43.078  32.322  1.00  0.00     0.027 C 
HETATM    5  C6  UNL     1      -9.111 -43.517  32.007  1.00  0.00    -0.028 C 
HETATM    6  C7  UNL     1      -8.367 -43.672  30.930  1.00  0.00     0.001 C 
HETATM    7  C8  UNL     1      -8.530 -43.476  29.471  1.00  0.00     0.146 C 
HETATM    8  C9  UNL     1      -9.791 -44.127  29.040  1.00  0.00     0.074 C 
HETATM    9  O3  UNL     1      -8.492 -42.119  29.162  1.00  0.00    -0.382 OA
HETATM   10  C10 UNL     1      -9.005 -41.873  27.916  1.00  0.00     0.171 C 
HETATM   11  C11 UNL     1     -10.466 -42.180  27.767  1.00  0.00     0.065 C 
ENDROOT
BRANCH   1  12
HETATM   12  O2  UNL     1     -11.995 -43.946  28.440  1.00  0.00    -0.292 OA
BRANCH  12  13
HETATM   13  C1  UNL     1     -13.312 -43.697  28.247  1.00  0.00     0.363 C 
HETATM   14  O1  UNL     1     -14.068 -43.956  29.241  1.00  0.00    -0.238 OA
HETATM   15  N1  UNL     1     -13.844 -43.184  27.035  1.00  0.00    -0.328 N 
HETATM   16  C12 UNL     1     -12.968 -42.901  25.931  1.00  0.00     0.128 C 
HETATM   17  C16 UNL     1     -15.253 -42.953  26.926  1.00  0.00     0.128 C 
HETATM   18  C13 UNL     1     -13.582 -43.098  24.589  1.00  0.00     0.020 C 
HETATM   19  C14 UNL     1     -14.834 -43.949  24.675  1.00  0.00     0.003 C 
HETATM   20  C15 UNL     1     -15.812 -43.201  25.557  1.00  0.00     0.020 C 
ENDBRANCH  12  13
ENDBRANCH   1  12
TORSDOF 2
ENDMDL
MODEL 2
REMARK VINA RESULT: -7.771010730      5.421      9.740
REMARK  2 active torsions:
REMARK  status: ('A' for Active; 'I' for Inactive)
REMARK    1  A    between atoms: C1_2  and  O2_3 
REMARK       I    between atoms: C1_2  and  N1_15 
REMARK    2  A    between atoms: O2_3  and  C2_4 
ROOT
HETATM    1  C2  UNL     1     -19.705 -42.219  24.594  1.00  0.00     0.077 C 
HETATM    2  C3  UNL     1     -20.775 -43.233  24.377  1.00  0.00     0.039 C 
HETATM    3  C4  UNL     1     -21.048 -44.072  25.601  1.00  0.00     0.007 C 
HETATM    4  C5  UNL     1     -22.454 -43.846  26.084  1.00  0.00     0.027 C 
HETATM    5  C6  UNL     1     -22.698 -42.555  26.727  1.00  0.00    -0.028 C 
HETATM    6  C7  UNL     1     -22.231 -41.325  26.641  1.00  0.00     0.001 C 
HETATM    7  C8  UNL     1     -21.210 -40.614  25.837  1.00  0.00     0.146 C 
HETATM    8  C9  UNL     1     -19.948 -41.395  25.870  1.00  0.00     0.074 C 
HETATM    9  O3  UNL     1     -21.679 -40.405  24.543  1.00  0.00    -0.382 OA
HETATM   10  C10 UNL     1     -20.657 -40.102  23.681  1.00  0.00     0.171 C 
HETATM   11  C11 UNL     1     -19.665 -41.209  23.472  1.00  0.00     0.065 C 
ENDROOT
BRANCH   1  12
HETATM   12  O2  UNL     1     -18.503 -42.846  24.843  1.00  0.00    -0.292 OA
BRANCH  12  13
HETATM   13  C1  UNL     1     -17.264 -42.670  24.326  1.00  0.00     0.363 C 
HETATM   14  O1  UNL     1     -17.218 -42.497  23.063  1.00  0.00    -0.238 OA
HETATM   15  N1  UNL     1     -16.080 -42.670  25.109  1.00  0.00    -0.328 N 
HETATM   16  C12 UNL     1     -16.161 -42.867  26.531  1.00  0.00     0.128 C 
HETATM   17  C16 UNL     1     -14.813 -42.475  24.472  1.00  0.00     0.128 C 
HETATM   18  C13 UNL     1     -14.992 -43.570  27.125  1.00  0.00     0.020 C 
HETATM   19  C14 UNL     1     -14.185 -44.293  26.065  1.00  0.00     0.003 C 
HETATM   20  C15 UNL     1     -13.685 -43.237  25.100  1.00  0.00     0.020 C 
ENDBRANCH  12  13
ENDBRANCH   1  12
TORSDOF 2
ENDMDL
MODEL 3
REMARK VINA RESULT: -7.654009624      5.051      9.784
REMARK  2 active torsions:
REMARK  status: ('A' for Active; 'I' for Inactive)
REMARK    1  A    between atoms: C1_2  and  O2_3 
REMARK       I    between atoms: C1_2  and  N1_15 
REMARK    2  A    between atoms: O2_3  and  C2_4 
ROOT
HETATM    1  C2  UNL     1     -19.088 -42.294  24.893  1.00  0.00     0.077 C 
HETATM    2  C3  UNL     1     -19.361 -41.361  23.764  1.00  0.00     0.039 C 
HETATM    3  C4  UNL     1     -19.752 -42.073  22.493  1.00  0.00     0.007 C 
HETATM    4  C5  UNL     1     -21.156 -41.703  22.101  1.00  0.00     0.027 C 
HETATM    5  C6  UNL     1     -22.213 -42.279  22.930  1.00  0.00    -0.028 C 
HETATM    6  C7  UNL     1     -22.364 -42.658  24.184  1.00  0.00     0.001 C 
HETATM    7  C8  UNL     1     -21.530 -42.691  25.408  1.00  0.00     0.146 C 
HETATM    8  C9  UNL     1     -20.225 -43.314  25.079  1.00  0.00     0.074 C 
HETATM    9  O3  UNL     1     -21.396 -41.407  25.931  1.00  0.00    -0.382 OA
HETATM   10  C10 UNL     1     -20.353 -41.333  26.816  1.00  0.00     0.171 C 
HETATM   11  C11 UNL     1     -18.998 -41.559  26.209  1.00  0.00     0.065 C 
ENDROOT
BRANCH   1  12
HETATM   12  O2  UNL     1     -17.996 -43.083  24.603  1.00  0.00    -0.292 OA
BRANCH  12  13
HETATM   13  C1  UNL     1     -16.695 -42.782  24.376  1.00  0.00     0.363 C 
HETATM   14  O1  UNL     1     -16.407 -42.476  23.172  1.00  0.00    -0.238 OA
HETATM   15  N1  UNL     1     -15.698 -42.798  25.386  1.00  0.00    -0.328 N 
HETATM   16  C12 UNL     1     -16.051 -43.147  26.735  1.00  0.00     0.128 C 
HETATM   17  C16 UNL     1     -14.348 -42.465  25.049  1.00  0.00     0.128 C 
HETATM   18  C13 UNL     1     -14.975 -43.842  27.495  1.00  0.00     0.020 C 
HETATM   19  C14 UNL     1     -13.916 -44.401  26.566  1.00  0.00     0.003 C 
HETATM   20  C15 UNL     1     -13.315 -43.223  25.828  1.00  0.00     0.020 C 
ENDBRANCH  12  13
ENDBRANCH   1  12
TORSDOF 2
ENDMDL
MODEL 4
REMARK VINA RESULT: -7.535689281      1.973      6.484
REMARK  2 active torsions:
REMARK  status: ('A' for Active; 'I' for Inactive)
REMARK    1  A    between atoms: C1_2  and  O2_3 
REMARK       I    between atoms: C1_2  and  N1_15 
REMARK    2  A    between atoms: O2_3  and  C2_4 
ROOT
HETATM    1  C2  UNL     1     -14.177 -43.418  26.426  1.00  0.00     0.077 C 
HETATM    2  C3  UNL     1     -15.451 -43.795  27.101  1.00  0.00     0.039 C 
HETATM    3  C4  UNL     1     -16.246 -42.600  27.566  1.00  0.00     0.007 C 
HETATM    4  C5  UNL     1     -17.565 -42.542  26.846  1.00  0.00     0.027 C 
HETATM    5  C6  UNL     1     -17.497 -42.142  25.441  1.00  0.00    -0.028 C 
HETATM    6  C7  UNL     1     -16.638 -42.242  24.445  1.00  0.00     0.001 C 
HETATM    7  C8  UNL     1     -15.290 -42.819  24.238  1.00  0.00     0.146 C 
HETATM    8  C9  UNL     1     -14.401 -42.359  25.333  1.00  0.00     0.074 C 
HETATM    9  O3  UNL     1     -15.370 -44.207  24.158  1.00  0.00    -0.382 OA
HETATM   10  C10 UNL     1     -14.145 -44.792  24.345  1.00  0.00     0.171 C 
HETATM   11  C11 UNL     1     -13.559 -44.597  25.713  1.00  0.00     0.065 C 
ENDROOT
BRANCH   1  12
HETATM   12  O2  UNL     1     -13.338 -42.785  27.318  1.00  0.00    -0.292 OA
BRANCH  12  13
HETATM   13  C1  UNL     1     -12.506 -43.260  28.274  1.00  0.00     0.363 C 
HETATM   14  O1  UNL     1     -13.075 -43.667  29.340  1.00  0.00    -0.238 OA
HETATM   15  N1  UNL     1     -11.095 -43.314  28.130  1.00  0.00    -0.328 N 
HETATM   16  C12 UNL     1     -10.480 -42.848  26.917  1.00  0.00     0.128 C 
HETATM   17  C16 UNL     1     -10.297 -43.834  29.199  1.00  0.00     0.128 C 
HETATM   18  C13 UNL     1      -9.127 -42.254  27.099  1.00  0.00     0.020 C 
HETATM   19  C14 UNL     1      -8.876 -41.886  28.548  1.00  0.00     0.003 C 
HETATM   20  C15 UNL     1      -8.960 -43.171  29.347  1.00  0.00     0.020 C 
ENDBRANCH  12  13
ENDBRANCH   1  12
TORSDOF 2
ENDMDL
MODEL 5
REMARK VINA RESULT: -7.530674677      7.158     10.252
REMARK  2 active torsions:
REMARK  status: ('A' for Active; 'I' for Inactive)
REMARK    1  A    between atoms: C1_2  and  O2_3 
REMARK       I    between atoms: C1_2  and  N1_15 
REMARK    2  A    between atoms: O2_3  and  C2_4 
ROOT
HETATM    1  C2  UNL     1     -19.908 -42.154  24.811  1.00  0.00     0.077 C 
HETATM    2  C3  UNL     1     -18.716 -43.026  24.619  1.00  0.00     0.039 C 
HETATM    3  C4  UNL     1     -17.412 -42.279  24.750  1.00  0.00     0.007 C 
HETATM    4  C5  UNL     1     -16.627 -42.805  25.920  1.00  0.00     0.027 C 
HETATM    5  C6  UNL     1     -17.144 -42.442  27.239  1.00  0.00    -0.028 C 
HETATM    6  C7  UNL     1     -18.317 -42.185  27.783  1.00  0.00     0.001 C 
HETATM    7  C8  UNL     1     -19.727 -42.133  27.331  1.00  0.00     0.146 C 
HETATM    8  C9  UNL     1     -19.801 -41.314  26.096  1.00  0.00     0.074 C 
HETATM    9  O3  UNL     1     -20.221 -43.422  27.153  1.00  0.00    -0.382 OA
HETATM   10  C10 UNL     1     -21.361 -43.422  26.392  1.00  0.00     0.171 C 
HETATM   11  C11 UNL     1     -21.169 -42.968  24.975  1.00  0.00     0.065 C 
ENDROOT
BRANCH   1  12
HETATM   12  O2  UNL     1     -19.966 -41.205  23.813  1.00  0.00    -0.292 OA
BRANCH  12  13
HETATM   13  C1  UNL     1     -20.657 -41.152  22.650  1.00  0.00     0.363 C 
HETATM   14  O1  UNL     1     -20.120 -41.760  21.667  1.00  0.00    -0.238 OA
HETATM   15  N1  UNL     1     -21.896 -40.475  22.504  1.00  0.00    -0.328 N 
HETATM   16  C12 UNL     1     -22.480 -39.798  23.630  1.00  0.00     0.128 C 
HETATM   17  C16 UNL     1     -22.554 -40.475  21.233  1.00  0.00     0.128 C 
HETATM   18  C13 UNL     1     -23.271 -38.586  23.280  1.00  0.00     0.020 C 
HETATM   19  C14 UNL     1     -22.940 -38.096  21.884  1.00  0.00     0.003 C 
HETATM   20  C15 UNL     1     -23.305 -39.213  20.929  1.00  0.00     0.020 C 
ENDBRANCH  12  13
ENDBRANCH   1  12
TORSDOF 2
ENDMDL
