MODEL 1
REMARK VINA RESULT: -7.721080980      0.000      0.000
REMARK  1 active torsions:
REMARK  status: ('A' for Active; 'I' for Inactive)
REMARK    1  A    between atoms: C2_2  and  C4_4 
ROOT
HETATM    1  C4  UNL     1     -21.053 -41.978  24.307  1.00  0.00     0.013 C 
HETATM    2  C5  UNL     1     -20.695 -40.709  25.068  1.00  0.00     0.027 C 
HETATM    3  C6  UNL     1     -19.449 -41.246  25.801  1.00  0.00     0.123 C 
HETATM    4  N1  UNL     1     -18.881 -42.106  24.890  1.00  0.00    -0.387 N 
HETATM    5  C7  UNL     1     -17.881 -43.000  25.184  1.00  0.00     0.074 C 
HETATM    6  C8  UNL     1     -16.672 -42.828  24.360  1.00  0.00     0.063 A 
HETATM    7  C9  UNL     1     -16.762 -43.508  22.978  1.00  0.00     0.064 A 
HETATM    8  C10 UNL     1     -16.717 -42.057  23.147  1.00  0.00     0.113 A 
HETATM    9  C11 UNL     1     -17.769 -41.094  22.898  1.00  0.00     0.044 C 
HETATM   10  C12 UNL     1     -19.163 -41.614  22.636  1.00  0.00     0.029 C 
HETATM   11  C13 UNL     1     -19.742 -42.382  23.770  1.00  0.00     0.088 C 
HETATM   12  O1  UNL     1     -15.414 -41.501  23.045  1.00  0.00    -0.228 OA
HETATM   13  O2  UNL     1     -14.929 -41.421  24.240  1.00  0.00    -0.228 OA
HETATM   14  C14 UNL     1     -15.313 -42.595  24.912  1.00  0.00     0.112 C 
HETATM   15  C15 UNL     1     -15.101 -42.488  26.356  1.00  0.00     0.042 C 
HETATM   16  C16 UNL     1     -14.526 -43.888  26.362  1.00  0.00     0.006 C 
HETATM   17  C17 UNL     1     -14.334 -43.725  24.847  1.00  0.00     0.042 C 
ENDROOT
BRANCH   1  18
HETATM   18  C2  UNL     1     -22.243 -41.925  23.492  1.00  0.00    -0.017 C 
HETATM   19  C1  UNL     1     -22.684 -40.477  23.317  1.00  0.00     0.010 C 
HETATM   20  C3  UNL     1     -23.434 -42.730  23.840  1.00  0.00     0.010 C 
ENDBRANCH   1  18
TORSDOF 1
ENDMDL
MODEL 2
REMARK VINA RESULT: -7.434319846      2.277      6.670
REMARK  1 active torsions:
REMARK  status: ('A' for Active; 'I' for Inactive)
REMARK    1  A    between atoms: C2_2  and  C4_4 
ROOT
HETATM    1  C4  UNL     1     -13.103 -43.189  27.697  1.00  0.00     0.013 C 
HETATM    2  C5  UNL     1     -13.843 -44.496  27.946  1.00  0.00     0.027 C 
HETATM    3  C6  UNL     1     -15.268 -43.994  27.635  1.00  0.00     0.123 C 
HETATM    4  N1  UNL     1     -15.078 -43.084  26.620  1.00  0.00    -0.387 N 
HETATM    5  C7  UNL     1     -16.034 -42.204  26.178  1.00  0.00     0.074 C 
HETATM    6  C8  UNL     1     -16.332 -42.327  24.740  1.00  0.00     0.063 A 
HETATM    7  C9  UNL     1     -15.336 -41.574  23.833  1.00  0.00     0.064 A 
HETATM    8  C10 UNL     1     -15.436 -43.032  23.865  1.00  0.00     0.113 A 
HETATM    9  C11 UNL     1     -14.471 -43.985  24.373  1.00  0.00     0.044 C 
HETATM   10  C12 UNL     1     -13.301 -43.457  25.169  1.00  0.00     0.029 C 
HETATM   11  C13 UNL     1     -13.692 -42.752  26.420  1.00  0.00     0.088 C 
HETATM   12  O1  UNL     1     -16.287 -43.576  22.867  1.00  0.00    -0.228 OA
HETATM   13  O2  UNL     1     -17.461 -43.718  23.390  1.00  0.00    -0.228 OA
HETATM   14  C14 UNL     1     -17.687 -42.583  24.189  1.00  0.00     0.112 C 
HETATM   15  C15 UNL     1     -18.834 -42.766  25.079  1.00  0.00     0.042 C 
HETATM   16  C16 UNL     1     -19.301 -41.366  24.743  1.00  0.00     0.006 C 
HETATM   17  C17 UNL     1     -18.388 -41.448  23.512  1.00  0.00     0.042 C 
ENDROOT
BRANCH   1  18
HETATM   18  C2  UNL     1     -11.678 -43.204  27.929  1.00  0.00    -0.017 C 
HETATM   19  C1  UNL     1     -11.399 -43.361  29.418  1.00  0.00     0.010 C 
HETATM   20  C3  UNL     1     -10.817 -42.116  27.413  1.00  0.00     0.010 C 
ENDBRANCH   1  18
TORSDOF 1
ENDMDL
MODEL 3
REMARK VINA RESULT: -7.403365439      3.173      6.391
REMARK  1 active torsions:
REMARK  status: ('A' for Active; 'I' for Inactive)
REMARK    1  A    between atoms: C2_2  and  C4_4 
ROOT
HETATM    1  C4  UNL     1     -17.490 -42.652  24.455  1.00  0.00     0.013 C 
HETATM    2  C5  UNL     1     -18.171 -41.665  23.517  1.00  0.00     0.027 C 
HETATM    3  C6  UNL     1     -19.521 -42.398  23.382  1.00  0.00     0.123 C 
HETATM    4  N1  UNL     1     -19.716 -42.952  24.626  1.00  0.00    -0.387 N 
HETATM    5  C7  UNL     1     -20.670 -43.896  24.915  1.00  0.00     0.074 C 
HETATM    6  C8  UNL     1     -21.596 -43.491  25.988  1.00  0.00     0.063 A 
HETATM    7  C9  UNL     1     -21.044 -43.733  27.408  1.00  0.00     0.064 A 
HETATM    8  C10 UNL     1     -21.271 -42.397  26.861  1.00  0.00     0.113 A 
HETATM    9  C11 UNL     1     -20.286 -41.400  26.496  1.00  0.00     0.044 C 
HETATM   10  C12 UNL     1     -18.835 -41.816  26.453  1.00  0.00     0.029 C 
HETATM   11  C13 UNL     1     -18.543 -42.883  25.458  1.00  0.00     0.088 C 
HETATM   12  O1  UNL     1     -22.533 -41.839  27.198  1.00  0.00    -0.228 OA
HETATM   13  O2  UNL     1     -23.352 -42.117  26.237  1.00  0.00    -0.228 OA
HETATM   14  C14 UNL     1     -23.073 -43.436  25.837  1.00  0.00     0.112 C 
HETATM   15  C15 UNL     1     -23.706 -43.760  24.559  1.00  0.00     0.042 C 
HETATM   16  C16 UNL     1     -24.126 -45.101  25.121  1.00  0.00     0.006 C 
HETATM   17  C17 UNL     1     -23.881 -44.499  26.512  1.00  0.00     0.042 C 
ENDROOT
BRANCH   1  18
HETATM   18  C2  UNL     1     -16.124 -42.357  24.817  1.00  0.00    -0.017 C 
HETATM   19  C1  UNL     1     -15.380 -41.795  23.613  1.00  0.00     0.010 C 
HETATM   20  C3  UNL     1     -15.269 -43.389  25.445  1.00  0.00     0.010 C 
ENDBRANCH   1  18
TORSDOF 1
ENDMDL
MODEL 4
REMARK VINA RESULT: -7.333024015      2.296      6.121
REMARK  1 active torsions:
REMARK  status: ('A' for Active; 'I' for Inactive)
REMARK    1  A    between atoms: C2_2  and  C4_4 
ROOT
HETATM    1  C4  UNL     1     -16.074 -43.020  23.803  1.00  0.00     0.013 C 
HETATM    2  C5  UNL     1     -15.785 -41.536  23.624  1.00  0.00     0.027 C 
HETATM    3  C6  UNL     1     -17.004 -41.187  22.747  1.00  0.00     0.123 C 
HETATM    4  N1  UNL     1     -18.000 -42.000  23.238  1.00  0.00    -0.387 N 
HETATM    5  C7  UNL     1     -19.206 -42.212  22.615  1.00  0.00     0.074 C 
HETATM    6  C8  UNL     1     -20.371 -41.869  23.449  1.00  0.00     0.063 A 
HETATM    7  C9  UNL     1     -20.777 -42.982  24.437  1.00  0.00     0.064 A 
HETATM    8  C10 UNL     1     -20.229 -41.698  24.870  1.00  0.00     0.113 A 
HETATM    9  C11 UNL     1     -18.942 -41.433  25.478  1.00  0.00     0.044 C 
HETATM   10  C12 UNL     1     -17.921 -42.546  25.496  1.00  0.00     0.029 C 
HETATM   11  C13 UNL     1     -17.507 -43.005  24.142  1.00  0.00     0.088 C 
HETATM   12  O1  UNL     1     -21.214 -40.730  25.199  1.00  0.00    -0.228 OA
HETATM   13  O2  UNL     1     -21.430 -40.017  24.143  1.00  0.00    -0.228 OA
HETATM   14  C14 UNL     1     -21.425 -40.902  23.050  1.00  0.00     0.112 C 
HETATM   15  C15 UNL     1     -21.342 -40.189  21.776  1.00  0.00     0.042 C 
HETATM   16  C16 UNL     1     -22.404 -41.106  21.209  1.00  0.00     0.006 C 
HETATM   17  C17 UNL     1     -22.761 -41.452  22.661  1.00  0.00     0.042 C 
ENDROOT
BRANCH   1  18
HETATM   18  C2  UNL     1     -15.106 -43.777  24.560  1.00  0.00    -0.017 C 
HETATM   19  C1  UNL     1     -14.162 -42.827  25.287  1.00  0.00     0.010 C 
HETATM   20  C3  UNL     1     -14.289 -44.826  23.910  1.00  0.00     0.010 C 
ENDBRANCH   1  18
TORSDOF 1
ENDMDL
MODEL 5
REMARK VINA RESULT: -7.313502941      2.239      6.001
REMARK  1 active torsions:
REMARK  status: ('A' for Active; 'I' for Inactive)
REMARK    1  A    between atoms: C2_2  and  C4_4 
ROOT
HETATM    1  C4  UNL     1     -15.471 -43.256  24.704  1.00  0.00     0.013 C 
HETATM    2  C5  UNL     1     -15.096 -41.808  24.421  1.00  0.00     0.027 C 
HETATM    3  C6  UNL     1     -16.079 -41.558  23.260  1.00  0.00     0.123 C 
HETATM    4  N1  UNL     1     -17.188 -42.296  23.608  1.00  0.00    -0.387 N 
HETATM    5  C7  UNL     1     -18.233 -42.572  22.762  1.00  0.00     0.074 C 
HETATM    6  C8  UNL     1     -19.540 -42.119  23.269  1.00  0.00     0.063 A 
HETATM    7  C9  UNL     1     -20.193 -43.100  24.265  1.00  0.00     0.064 A 
HETATM    8  C10 UNL     1     -19.709 -41.778  24.655  1.00  0.00     0.113 A 
HETATM    9  C11 UNL     1     -18.579 -41.452  25.500  1.00  0.00     0.044 C 
HETATM   10  C12 UNL     1     -17.627 -42.563  25.875  1.00  0.00     0.029 C 
HETATM   11  C13 UNL     1     -16.942 -43.187  24.711  1.00  0.00     0.088 C 
HETATM   12  O1  UNL     1     -20.707 -40.767  24.641  1.00  0.00    -0.228 OA
HETATM   13  O2  UNL     1     -20.659 -40.187  23.487  1.00  0.00    -0.228 OA
HETATM   14  C14 UNL     1     -20.445 -41.199  22.534  1.00  0.00     0.112 C 
HETATM   15  C15 UNL     1     -20.058 -40.648  21.236  1.00  0.00     0.042 C 
HETATM   16  C16 UNL     1     -21.002 -41.618  20.558  1.00  0.00     0.006 C 
HETATM   17  C17 UNL     1     -21.682 -41.781  21.925  1.00  0.00     0.042 C 
ENDROOT
BRANCH   1  18
HETATM   18  C2  UNL     1     -14.721 -43.924  25.741  1.00  0.00    -0.017 C 
HETATM   19  C1  UNL     1     -13.847 -42.915  26.476  1.00  0.00     0.010 C 
HETATM   20  C3  UNL     1     -13.891 -45.109  25.431  1.00  0.00     0.010 C 
ENDBRANCH   1  18
TORSDOF 1
ENDMDL
