MODEL 1
REMARK VINA RESULT: -11.658292317      0.000      0.000
REMARK  4 active torsions:
REMARK  status: ('A' for Active; 'I' for Inactive)
REMARK    1  A    between atoms: C3_4  and  C4_5 
REMARK    2  A    between atoms: N4_19  and  C13_21 
REMARK    3  A    between atoms: C17_27  and  C18_28 
REMARK    4  A    between atoms: C18_28  and  N6_29 
ROOT
HETATM    1  N1  UNL     1     -17.137 -42.630  29.388  1.00  0.00    -0.191 NA
HETATM    2  C1  UNL     1     -16.556 -43.063  28.449  1.00  0.00     0.102 C 
HETATM    3  C2  UNL     1     -15.851 -43.639  27.279  1.00  0.00     0.078 A 
HETATM    4  C3  UNL     1     -16.335 -43.422  26.006  1.00  0.00     0.031 A 
HETATM    5  S1  UNL     1     -15.261 -44.299  25.037  1.00  0.00    -0.070 SA
HETATM    6  C10 UNL     1     -14.210 -44.928  26.256  1.00  0.00     0.091 A 
HETATM    7  N2  UNL     1     -13.130 -45.763  26.199  1.00  0.00    -0.346 N 
ATOM      8  H2  UNL     1     -12.784 -46.094  25.298  1.00  0.00     0.167 HD
HETATM    9  C11 UNL     1     -12.519 -46.150  27.348  1.00  0.00     0.182 A 
HETATM   10  N3  UNL     1     -13.053 -45.665  28.461  1.00  0.00    -0.338 N 
ATOM     11  H3  UNL     1     -12.597 -45.955  29.326  1.00  0.00     0.168 HD
HETATM   12  C12 UNL     1     -14.101 -44.851  28.613  1.00  0.00     0.122 A 
HETATM   13  N4  UNL     1     -14.637 -44.562  29.691  1.00  0.00    -0.327 N 
ATOM     14  H4  UNL     1     -15.408 -43.920  29.506  1.00  0.00     0.169 HD
HETATM   15  C26 UNL     1     -14.753 -44.423  27.392  1.00  0.00     0.064 A 
ENDROOT
BRANCH   4  16
HETATM   16  C4  UNL     1     -17.438 -42.514  25.510  1.00  0.00    -0.061 C 
HETATM   17  C5  UNL     1     -17.311 -42.289  24.036  1.00  0.00     0.036 C 
HETATM   18  C6  UNL     1     -18.595 -42.092  23.321  1.00  0.00     0.004 C 
HETATM   19  C7  UNL     1     -19.698 -42.873  23.945  1.00  0.00     0.001 C 
HETATM   20  C8  UNL     1     -19.949 -42.552  25.388  1.00  0.00     0.004 C 
HETATM   21  C9  UNL     1     -18.701 -42.549  26.215  1.00  0.00     0.036 C 
ENDBRANCH   4  16
BRANCH  13  22
HETATM   22  C13 UNL     1     -14.576 -44.787  31.049  1.00  0.00     0.117 A 
HETATM   23  N5  UNL     1     -15.438 -45.826  31.443  1.00  0.00    -0.352 N 
HETATM   24  C14 UNL     1     -15.537 -46.239  32.693  1.00  0.00     0.090 A 
ATOM     25  H5  UNL     1     -16.011 -46.280  30.732  1.00  0.00     0.166 HD
HETATM   26  C15 UNL     1     -14.773 -45.642  33.682  1.00  0.00     0.018 A 
HETATM   27  C16 UNL     1     -13.930 -44.622  33.296  1.00  0.00     0.017 A 
HETATM   28  C17 UNL     1     -13.818 -44.185  31.985  1.00  0.00     0.018 A 
BRANCH  28  29
HETATM   29  C18 UNL     1     -12.958 -43.020  31.650  1.00  0.00     0.074 C 
BRANCH  29  30
HETATM   30  N6  UNL     1     -11.957 -43.345  30.725  1.00  0.00    -0.287 NA
HETATM   31  C19 UNL     1     -11.909 -42.409  29.612  1.00  0.00     0.128 C 
HETATM   32  C20 UNL     1     -10.551 -42.606  29.122  1.00  0.00     0.209 C 
HETATM   33  C21 UNL     1      -9.918 -42.108  27.935  1.00  0.00     0.137 C 
HETATM   34  N8  UNL     1     -10.408 -44.076  29.017  1.00  0.00    -0.058 N 
HETATM   35  C22 UNL     1      -8.474 -42.536  28.165  1.00  0.00     0.224 C 
HETATM   36  O1  UNL     1      -7.752 -42.367  27.174  1.00  0.00    -0.273 OA
HETATM   37  N7  UNL     1      -7.836 -43.087  29.316  1.00  0.00    -0.323 N 
HETATM   38  C23 UNL     1      -8.433 -43.879  30.191  1.00  0.00     0.092 C 
ATOM     39  H7  UNL     1      -6.857 -42.855  29.475  1.00  0.00     0.169 HD
HETATM   40  S2  UNL     1      -7.377 -44.430  31.548  1.00  0.00    -0.035 SA
HETATM   41  C24 UNL     1      -9.802 -44.431  30.288  1.00  0.00     0.257 C 
HETATM   42  C25 UNL     1     -10.713 -43.713  31.302  1.00  0.00     0.135 C 
ATOM     43  H82 UNL     1     -11.271 -44.574  28.800  1.00  0.00     0.278 HD
ATOM     44  H81 UNL     1      -9.896 -44.398  28.195  1.00  0.00     0.278 HD
ENDBRANCH  29  30
ENDBRANCH  28  29
ENDBRANCH  13  22
TORSDOF 4
ENDMDL
MODEL 2
REMARK VINA RESULT: -11.157609559      5.238     10.745
REMARK  4 active torsions:
REMARK  status: ('A' for Active; 'I' for Inactive)
REMARK    1  A    between atoms: C3_4  and  C4_5 
REMARK    2  A    between atoms: N4_19  and  C13_21 
REMARK    3  A    between atoms: C17_27  and  C18_28 
REMARK    4  A    between atoms: C18_28  and  N6_29 
ROOT
HETATM    1  N1  UNL     1     -17.333 -43.134  28.639  1.00  0.00    -0.191 NA
HETATM    2  C1  UNL     1     -16.628 -43.181  27.685  1.00  0.00     0.102 C 
HETATM    3  C2  UNL     1     -15.743 -43.198  26.496  1.00  0.00     0.078 A 
HETATM    4  C3  UNL     1     -14.382 -43.357  26.650  1.00  0.00     0.031 A 
HETATM    5  S1  UNL     1     -13.806 -43.257  25.063  1.00  0.00    -0.070 SA
HETATM    6  C10 UNL     1     -15.297 -43.018  24.222  1.00  0.00     0.091 A 
HETATM    7  N2  UNL     1     -15.588 -42.815  22.903  1.00  0.00    -0.346 N 
ATOM      8  H2  UNL     1     -14.844 -42.833  22.205  1.00  0.00     0.167 HD
HETATM    9  C11 UNL     1     -16.872 -42.589  22.525  1.00  0.00     0.182 A 
HETATM   10  N3  UNL     1     -17.757 -42.582  23.513  1.00  0.00    -0.338 N 
ATOM     11  H3  UNL     1     -18.723 -42.410  23.233  1.00  0.00     0.168 HD
HETATM   12  C12 UNL     1     -17.567 -42.768  24.822  1.00  0.00     0.122 A 
HETATM   13  N4  UNL     1     -18.418 -42.596  25.705  1.00  0.00    -0.327 N 
ATOM     14  H4  UNL     1     -17.996 -42.816  26.607  1.00  0.00     0.169 HD
HETATM   15  C26 UNL     1     -16.201 -43.021  25.234  1.00  0.00     0.064 A 
ENDROOT
BRANCH   4  16
HETATM   16  C4  UNL     1     -13.559 -43.699  27.873  1.00  0.00    -0.061 C 
HETATM   17  C5  UNL     1     -13.793 -45.119  28.283  1.00  0.00     0.036 C 
HETATM   18  C6  UNL     1     -12.627 -45.790  28.907  1.00  0.00     0.004 C 
HETATM   19  C7  UNL     1     -11.341 -45.294  28.342  1.00  0.00     0.001 C 
HETATM   20  C8  UNL     1     -11.125 -43.818  28.489  1.00  0.00     0.004 C 
HETATM   21  C9  UNL     1     -12.303 -43.005  28.049  1.00  0.00     0.036 C 
ENDBRANCH   4  16
BRANCH  13  22
HETATM   22  C13 UNL     1     -19.726 -42.216  25.917  1.00  0.00     0.117 A 
HETATM   23  N5  UNL     1     -20.034 -42.157  27.288  1.00  0.00    -0.352 N 
HETATM   24  C14 UNL     1     -21.220 -41.796  27.741  1.00  0.00     0.090 A 
ATOM     25  H5  UNL     1     -19.309 -42.404  27.962  1.00  0.00     0.166 HD
HETATM   26  C15 UNL     1     -22.226 -41.456  26.851  1.00  0.00     0.018 A 
HETATM   27  C16 UNL     1     -21.925 -41.516  25.507  1.00  0.00     0.017 A 
HETATM   28  C17 UNL     1     -20.680 -41.892  25.025  1.00  0.00     0.018 A 
BRANCH  28  29
HETATM   29  C18 UNL     1     -20.448 -42.023  23.563  1.00  0.00     0.074 C 
BRANCH  29  30
HETATM   30  N6  UNL     1     -21.071 -41.006  22.830  1.00  0.00    -0.287 NA
HETATM   31  C19 UNL     1     -20.134 -39.976  22.407  1.00  0.00     0.128 C 
HETATM   32  C20 UNL     1     -20.845 -39.376  21.284  1.00  0.00     0.209 C 
HETATM   33  C21 UNL     1     -20.545 -38.195  20.529  1.00  0.00     0.137 C 
HETATM   34  N8  UNL     1     -22.211 -39.136  21.801  1.00  0.00    -0.058 N 
HETATM   35  C22 UNL     1     -21.577 -38.284  19.411  1.00  0.00     0.224 C 
HETATM   36  O1  UNL     1     -21.631 -37.264  18.715  1.00  0.00    -0.273 OA
HETATM   37  N7  UNL     1     -22.469 -39.337  19.049  1.00  0.00    -0.323 N 
HETATM   38  C23 UNL     1     -23.015 -40.181  19.909  1.00  0.00     0.092 C 
ATOM     39  H7  UNL     1     -22.702 -39.445  18.063  1.00  0.00     0.169 HD
HETATM   40  S2  UNL     1     -24.111 -41.408  19.165  1.00  0.00    -0.035 SA
HETATM   41  C24 UNL     1     -22.928 -40.326  21.379  1.00  0.00     0.257 C 
HETATM   42  C25 UNL     1     -22.001 -41.459  21.857  1.00  0.00     0.135 C 
ATOM     43  H82 UNL     1     -22.261 -38.939  22.800  1.00  0.00     0.278 HD
ATOM     44  H81 UNL     1     -22.632 -38.256  21.503  1.00  0.00     0.278 HD
ENDBRANCH  29  30
ENDBRANCH  28  29
ENDBRANCH  13  22
TORSDOF 4
ENDMDL
MODEL 3
REMARK VINA RESULT: -11.008021551      6.420     12.220
REMARK  4 active torsions:
REMARK  status: ('A' for Active; 'I' for Inactive)
REMARK    1  A    between atoms: C3_4  and  C4_5 
REMARK    2  A    between atoms: N4_19  and  C13_21 
REMARK    3  A    between atoms: C17_27  and  C18_28 
REMARK    4  A    between atoms: C18_28  and  N6_29 
ROOT
HETATM    1  N1  UNL     1     -16.050 -42.958  22.635  1.00  0.00    -0.191 NA
HETATM    2  C1  UNL     1     -16.427 -42.913  23.760  1.00  0.00     0.102 C 
HETATM    3  C2  UNL     1     -16.911 -42.894  25.161  1.00  0.00     0.078 A 
HETATM    4  C3  UNL     1     -16.069 -43.268  26.187  1.00  0.00     0.031 A 
HETATM    5  S1  UNL     1     -17.057 -43.142  27.554  1.00  0.00    -0.070 SA
HETATM    6  C10 UNL     1     -18.525 -42.614  26.809  1.00  0.00     0.091 A 
HETATM    7  N2  UNL     1     -19.768 -42.348  27.310  1.00  0.00    -0.346 N 
ATOM      8  H2  UNL     1     -19.940 -42.408  28.314  1.00  0.00     0.167 HD
HETATM    9  C11 UNL     1     -20.773 -42.002  26.465  1.00  0.00     0.182 A 
HETATM   10  N3  UNL     1     -20.440 -41.958  25.182  1.00  0.00    -0.338 N 
ATOM     11  H3  UNL     1     -21.193 -41.701  24.544  1.00  0.00     0.168 HD
HETATM   12  C12 UNL     1     -19.261 -42.202  24.604  1.00  0.00     0.122 A 
HETATM   13  N4  UNL     1     -19.062 -42.291  23.385  1.00  0.00    -0.327 N 
ATOM     14  H4  UNL     1     -18.070 -42.478  23.233  1.00  0.00     0.169 HD
HETATM   15  C26 UNL     1     -18.179 -42.561  25.498  1.00  0.00     0.064 A 
ENDROOT
BRANCH   4  16
HETATM   16  C4  UNL     1     -14.587 -43.569  26.189  1.00  0.00    -0.061 C 
HETATM   17  C5  UNL     1     -13.848 -42.570  27.022  1.00  0.00     0.036 C 
HETATM   18  C6  UNL     1     -12.639 -43.094  27.702  1.00  0.00     0.004 C 
HETATM   19  C7  UNL     1     -12.798 -44.526  28.078  1.00  0.00     0.001 C 
HETATM   20  C8  UNL     1     -13.082 -45.443  26.927  1.00  0.00     0.004 C 
HETATM   21  C9  UNL     1     -14.185 -44.951  26.042  1.00  0.00     0.036 C 
ENDBRANCH   4  16
BRANCH  13  22
HETATM   22  C13 UNL     1     -19.686 -42.230  22.158  1.00  0.00     0.117 A 
HETATM   23  N5  UNL     1     -19.917 -43.512  21.628  1.00  0.00    -0.352 N 
HETATM   24  C14 UNL     1     -20.522 -43.711  20.472  1.00  0.00     0.090 A 
ATOM     25  H5  UNL     1     -19.603 -44.324  22.160  1.00  0.00     0.166 HD
HETATM   26  C15 UNL     1     -20.959 -42.629  19.724  1.00  0.00     0.018 A 
HETATM   27  C16 UNL     1     -20.730 -41.372  20.243  1.00  0.00     0.017 A 
HETATM   28  C17 UNL     1     -20.098 -41.157  21.457  1.00  0.00     0.018 A 
BRANCH  28  29
HETATM   29  C18 UNL     1     -19.801 -39.775  21.917  1.00  0.00     0.074 C 
BRANCH  29  30
HETATM   30  N6  UNL     1     -20.728 -38.842  21.435  1.00  0.00    -0.287 NA
HETATM   31  C19 UNL     1     -20.467 -38.466  20.053  1.00  0.00     0.128 C 
HETATM   32  C20 UNL     1     -21.771 -37.967  19.634  1.00  0.00     0.209 C 
HETATM   33  C21 UNL     1     -22.153 -37.288  18.430  1.00  0.00     0.137 C 
HETATM   34  N8  UNL     1     -22.175 -37.041  20.715  1.00  0.00    -0.058 N 
HETATM   35  C22 UNL     1     -23.669 -37.247  18.579  1.00  0.00     0.224 C 
HETATM   36  O1  UNL     1     -24.223 -36.540  17.729  1.00  0.00    -0.273 OA
HETATM   37  N7  UNL     1     -24.531 -37.882  19.523  1.00  0.00    -0.323 N 
HETATM   38  C23 UNL     1     -24.201 -38.138  20.778  1.00  0.00     0.092 C 
ATOM     39  H7  UNL     1     -25.461 -38.156  19.209  1.00  0.00     0.169 HD
HETATM   40  S2  UNL     1     -25.496 -38.946  21.744  1.00  0.00    -0.035 SA
HETATM   41  C24 UNL     1     -22.982 -37.885  21.577  1.00  0.00     0.257 C 
HETATM   42  C25 UNL     1     -22.079 -39.117  21.775  1.00  0.00     0.135 C 
ATOM     43  H82 UNL     1     -21.402 -36.568  21.183  1.00  0.00     0.278 HD
ATOM     44  H81 UNL     1     -22.637 -36.188  20.397  1.00  0.00     0.278 HD
ENDBRANCH  29  30
ENDBRANCH  28  29
ENDBRANCH  13  22
TORSDOF 4
ENDMDL
MODEL 4
REMARK VINA RESULT: -10.947332823      1.887      2.811
REMARK  4 active torsions:
REMARK  status: ('A' for Active; 'I' for Inactive)
REMARK    1  A    between atoms: C3_4  and  C4_5 
REMARK    2  A    between atoms: N4_19  and  C13_21 
REMARK    3  A    between atoms: C17_27  and  C18_28 
REMARK    4  A    between atoms: C18_28  and  N6_29 
ROOT
HETATM    1  N1  UNL     1     -19.009 -42.951  28.517  1.00  0.00    -0.191 NA
HETATM    2  C1  UNL     1     -18.579 -42.833  27.417  1.00  0.00     0.102 C 
HETATM    3  C2  UNL     1     -18.047 -42.724  26.037  1.00  0.00     0.078 A 
HETATM    4  C3  UNL     1     -18.895 -42.418  24.994  1.00  0.00     0.031 A 
HETATM    5  S1  UNL     1     -17.870 -42.462  23.648  1.00  0.00    -0.070 SA
HETATM    6  C10 UNL     1     -16.380 -42.863  24.425  1.00  0.00     0.091 A 
HETATM    7  N2  UNL     1     -15.124 -43.102  23.941  1.00  0.00    -0.346 N 
ATOM      8  H2  UNL     1     -14.932 -43.006  22.944  1.00  0.00     0.167 HD
HETATM    9  C11 UNL     1     -14.134 -43.468  24.795  1.00  0.00     0.182 A 
HETATM   10  N3  UNL     1     -14.495 -43.566  26.068  1.00  0.00    -0.338 N 
ATOM     11  H3  UNL     1     -13.754 -43.843  26.711  1.00  0.00     0.168 HD
HETATM   12  C12 UNL     1     -15.689 -43.356  26.628  1.00  0.00     0.122 A 
HETATM   13  N4  UNL     1     -15.989 -43.616  27.802  1.00  0.00    -0.327 N 
ATOM     14  H4  UNL     1     -16.961 -43.348  27.953  1.00  0.00     0.169 HD
HETATM   15  C26 UNL     1     -16.750 -42.955  25.727  1.00  0.00     0.064 A 
ENDROOT
BRANCH   4  16
HETATM   16  C4  UNL     1     -20.344 -41.984  24.992  1.00  0.00    -0.061 C 
HETATM   17  C5  UNL     1     -20.582 -40.953  23.934  1.00  0.00     0.036 C 
HETATM   18  C6  UNL     1     -21.936 -40.979  23.329  1.00  0.00     0.004 C 
HETATM   19  C7  UNL     1     -22.486 -42.361  23.274  1.00  0.00     0.001 C 
HETATM   20  C8  UNL     1     -22.591 -43.043  24.604  1.00  0.00     0.004 C 
HETATM   21  C9  UNL     1     -21.332 -42.952  25.412  1.00  0.00     0.036 C 
ENDBRANCH   4  16
BRANCH  13  22
HETATM   22  C13 UNL     1     -15.493 -44.134  28.978  1.00  0.00     0.117 A 
HETATM   23  N5  UNL     1     -16.143 -43.590  30.100  1.00  0.00    -0.352 N 
HETATM   24  C14 UNL     1     -15.856 -43.948  31.338  1.00  0.00     0.090 A 
ATOM     25  H5  UNL     1     -16.868 -42.888  29.951  1.00  0.00     0.166 HD
HETATM   26  C15 UNL     1     -14.875 -44.898  31.574  1.00  0.00     0.018 A 
HETATM   27  C16 UNL     1     -14.236 -45.429  30.474  1.00  0.00     0.017 A 
HETATM   28  C17 UNL     1     -14.535 -45.060  29.171  1.00  0.00     0.018 A 
BRANCH  28  29
HETATM   29  C18 UNL     1     -13.747 -45.604  28.035  1.00  0.00     0.074 C 
BRANCH  29  30
HETATM   30  N6  UNL     1     -12.396 -45.237  28.098  1.00  0.00    -0.287 NA
HETATM   31  C19 UNL     1     -12.199 -43.813  27.872  1.00  0.00     0.128 C 
HETATM   32  C20 UNL     1     -10.897 -43.596  28.492  1.00  0.00     0.209 C 
HETATM   33  C21 UNL     1     -10.048 -42.441  28.471  1.00  0.00     0.137 C 
HETATM   34  N8  UNL     1     -10.047 -44.679  27.948  1.00  0.00    -0.058 N 
HETATM   35  C22 UNL     1      -8.970 -42.844  29.469  1.00  0.00     0.224 C 
HETATM   36  O1  UNL     1      -8.011 -42.064  29.491  1.00  0.00    -0.273 OA
HETATM   37  N7  UNL     1      -8.895 -43.954  30.362  1.00  0.00    -0.323 N 
HETATM   38  C23 UNL     1      -9.411 -45.146  30.115  1.00  0.00     0.092 C 
ATOM     39  H7  UNL     1      -8.411 -43.819  31.250  1.00  0.00     0.169 HD
HETATM   40  S2  UNL     1      -9.157 -46.362  31.426  1.00  0.00    -0.035 SA
HETATM   41  C24 UNL     1     -10.151 -45.711  28.965  1.00  0.00     0.257 C 
HETATM   42  C25 UNL     1     -11.673 -45.818  29.174  1.00  0.00     0.135 C 
ATOM     43  H82 UNL     1     -10.292 -44.982  27.006  1.00  0.00     0.278 HD
ATOM     44  H81 UNL     1      -9.092 -44.399  27.720  1.00  0.00     0.278 HD
ENDBRANCH  29  30
ENDBRANCH  28  29
ENDBRANCH  13  22
TORSDOF 4
ENDMDL
MODEL 5
REMARK VINA RESULT: -10.876132391      1.819      2.389
REMARK  4 active torsions:
REMARK  status: ('A' for Active; 'I' for Inactive)
REMARK    1  A    between atoms: C3_4  and  C4_5 
REMARK    2  A    between atoms: N4_19  and  C13_21 
REMARK    3  A    between atoms: C17_27  and  C18_28 
REMARK    4  A    between atoms: C18_28  and  N6_29 
ROOT
HETATM    1  N1  UNL     1     -17.152 -42.789  29.451  1.00  0.00    -0.191 NA
HETATM    2  C1  UNL     1     -16.454 -43.208  28.587  1.00  0.00     0.102 C 
HETATM    3  C2  UNL     1     -15.604 -43.765  27.508  1.00  0.00     0.078 A 
HETATM    4  C3  UNL     1     -15.926 -43.535  26.188  1.00  0.00     0.031 A 
HETATM    5  S1  UNL     1     -14.732 -44.394  25.351  1.00  0.00    -0.070 SA
HETATM    6  C10 UNL     1     -13.838 -45.032  26.685  1.00  0.00     0.091 A 
HETATM    7  N2  UNL     1     -12.753 -45.860  26.755  1.00  0.00    -0.346 N 
ATOM      8  H2  UNL     1     -12.295 -46.177  25.901  1.00  0.00     0.167 HD
HETATM    9  C11 UNL     1     -12.289 -46.258  27.967  1.00  0.00     0.182 A 
HETATM   10  N3  UNL     1     -12.962 -45.789  29.010  1.00  0.00    -0.338 N 
ATOM     11  H3  UNL     1     -12.617 -46.088  29.922  1.00  0.00     0.168 HD
HETATM   12  C12 UNL     1     -14.027 -44.983  29.038  1.00  0.00     0.122 A 
HETATM   13  N4  UNL     1     -14.696 -44.710  30.044  1.00  0.00    -0.327 N 
ATOM     14  H4  UNL     1     -15.442 -44.071  29.770  1.00  0.00     0.169 HD
HETATM   15  C26 UNL     1     -14.523 -44.544  27.750  1.00  0.00     0.064 A 
ENDROOT
BRANCH   4  16
HETATM   16  C4  UNL     1     -16.965 -42.627  25.567  1.00  0.00    -0.061 C 
HETATM   17  C5  UNL     1     -16.627 -42.342  24.138  1.00  0.00     0.036 C 
HETATM   18  C6  UNL     1     -17.796 -42.138  23.248  1.00  0.00     0.004 C 
HETATM   19  C7  UNL     1     -18.961 -42.962  23.673  1.00  0.00     0.001 C 
HETATM   20  C8  UNL     1     -19.428 -42.703  25.074  1.00  0.00     0.004 C 
HETATM   21  C9  UNL     1     -18.316 -42.712  26.076  1.00  0.00     0.036 C 
ENDBRANCH   4  16
BRANCH  13  22
HETATM   22  C13 UNL     1     -14.805 -44.952  31.396  1.00  0.00     0.117 A 
HETATM   23  N5  UNL     1     -15.162 -46.287  31.658  1.00  0.00    -0.352 N 
HETATM   24  C14 UNL     1     -15.304 -46.763  32.881  1.00  0.00     0.090 A 
ATOM     25  H5  UNL     1     -15.318 -46.914  30.869  1.00  0.00     0.166 HD
HETATM   26  C15 UNL     1     -15.101 -45.936  33.974  1.00  0.00     0.018 A 
HETATM   27  C16 UNL     1     -14.753 -44.627  33.717  1.00  0.00     0.017 A 
HETATM   28  C17 UNL     1     -14.599 -44.121  32.435  1.00  0.00     0.018 A 
BRANCH  28  29
HETATM   29  C18 UNL     1     -14.311 -42.679  32.225  1.00  0.00     0.074 C 
BRANCH  29  30
HETATM   30  N6  UNL     1     -12.940 -42.396  32.274  1.00  0.00    -0.287 NA
HETATM   31  C19 UNL     1     -12.422 -42.409  33.635  1.00  0.00     0.128 C 
HETATM   32  C20 UNL     1     -10.999 -42.628  33.404  1.00  0.00     0.209 C 
HETATM   33  C21 UNL     1      -9.899 -42.578  34.322  1.00  0.00     0.137 C 
HETATM   34  N8  UNL     1     -10.641 -41.646  32.357  1.00  0.00    -0.058 N 
HETATM   35  C22 UNL     1      -8.760 -43.095  33.452  1.00  0.00     0.224 C 
HETATM   36  O1  UNL     1      -7.649 -42.977  33.983  1.00  0.00    -0.273 OA
HETATM   37  N7  UNL     1      -8.773 -43.682  32.152  1.00  0.00    -0.323 N 
HETATM   38  C23 UNL     1      -9.641 -43.373  31.203  1.00  0.00     0.092 C 
ATOM     39  H7  UNL     1      -8.067 -44.387  31.941  1.00  0.00     0.169 HD
HETATM   40  S2  UNL     1      -9.413 -44.274  29.654  1.00  0.00    -0.035 SA
HETATM   41  C24 UNL     1     -10.768 -42.418  31.134  1.00  0.00     0.257 C 
HETATM   42  C25 UNL     1     -12.161 -43.059  31.290  1.00  0.00     0.135 C 
ATOM     43  H82 UNL     1     -11.185 -40.783  32.376  1.00  0.00     0.278 HD
ATOM     44  H81 UNL     1      -9.734 -41.196  32.486  1.00  0.00     0.278 HD
ENDBRANCH  29  30
ENDBRANCH  28  29
ENDBRANCH  13  22
TORSDOF 4
ENDMDL
