MODEL 1
REMARK VINA RESULT: -13.125006352      0.000      0.000
REMARK  5 active torsions:
REMARK  status: ('A' for Active; 'I' for Inactive)
REMARK    1  A    between atoms: N2_5  and  C4_6 
REMARK    2  A    between atoms: C7_9  and  N3_10 
REMARK    3  A    between atoms: N3_10  and  C8_12 
REMARK    4  A    between atoms: C11_18  and  C12_19 
REMARK    5  A    between atoms: N8_33  and  C21_34 
ROOT
HETATM    1  C4  UNL     1     -13.507 -44.475  26.722  1.00  0.00     0.030 A 
HETATM    2  C5  UNL     1     -13.838 -45.280  25.613  1.00  0.00     0.031 A 
HETATM    3  C6  UNL     1     -14.503 -44.762  24.533  1.00  0.00     0.032 A 
HETATM    4  C7  UNL     1     -14.896 -43.450  24.440  1.00  0.00     0.033 A 
HETATM    5  C17 UNL     1     -14.569 -42.647  25.538  1.00  0.00     0.032 A 
HETATM    6  C18 UNL     1     -13.897 -43.161  26.632  1.00  0.00     0.031 A 
ENDROOT
BRANCH   1   7
HETATM    7  N2  UNL     1     -12.829 -45.047  27.819  1.00  0.00    -0.378 N 
HETATM    8  C3  UNL     1     -11.515 -44.485  28.119  1.00  0.00     0.144 C 
HETATM    9  C2  UNL     1     -10.895 -45.148  29.313  1.00  0.00     0.162 C 
HETATM   10  N1  UNL     1     -11.530 -44.908  30.558  1.00  0.00    -0.314 N 
HETATM   11  C1  UNL     1     -10.900 -45.589  31.665  1.00  0.00     0.171 C 
HETATM   12  N8  UNL     1     -12.899 -44.939  30.596  1.00  0.00    -0.125 N 
HETATM   13  C20 UNL     1     -13.951 -45.662  29.897  1.00  0.00     0.187 C 
HETATM   14  C19 UNL     1     -13.477 -46.110  28.524  1.00  0.00     0.145 C 
BRANCH  12  15
HETATM   15  C21 UNL     1     -13.440 -44.037  31.586  1.00  0.00     0.700 A 
HETATM   16  N9  UNL     1     -14.663 -43.495  31.524  1.00  0.00    -0.188 N 
HETATM   17  C22 UNL     1     -14.858 -42.710  32.604  1.00  0.00     0.076 A 
ATOM     18  H9  UNL     1     -15.340 -43.652  30.777  1.00  0.00     0.184 HD
HETATM   19  C23 UNL     1     -15.901 -41.930  33.043  1.00  0.00     0.032 A 
HETATM   20  C27 UNL     1     -13.716 -42.764  33.365  1.00  0.00     0.076 A 
HETATM   21  C24 UNL     1     -15.819 -41.221  34.207  1.00  0.00     0.002 A 
HETATM   22  C25 UNL     1     -14.663 -41.291  34.957  1.00  0.00     0.002 A 
HETATM   23  C26 UNL     1     -13.622 -42.061  34.530  1.00  0.00     0.032 A 
HETATM   24  N10 UNL     1     -12.863 -43.589  32.711  1.00  0.00    -0.188 N 
ATOM     25  H10 UNL     1     -11.924 -43.832  33.026  1.00  0.00     0.184 HD
ENDBRANCH  12  15
ENDBRANCH   1   7
BRANCH   4  26
HETATM   26  N3  UNL     1     -15.581 -42.909  23.350  1.00  0.00    -0.342 N 
ATOM     27  H3  UNL     1     -15.071 -42.940  22.467  1.00  0.00     0.167 HD
BRANCH  26  28
HETATM   28  C8  UNL     1     -16.735 -42.386  23.280  1.00  0.00     0.122 A 
HETATM   29  C9  UNL     1     -17.723 -42.657  24.194  1.00  0.00     0.069 A 
HETATM   30  C10 UNL     1     -18.990 -42.064  24.092  1.00  0.00     0.139 A 
HETATM   31  N4  UNL     1     -19.250 -41.217  23.088  1.00  0.00    -0.096 N 
HETATM   32  N5  UNL     1     -20.319 -40.513  22.728  1.00  0.00    -0.263 N 
HETATM   33  C16 UNL     1     -18.291 -40.949  22.194  1.00  0.00     0.706 A 
HETATM   34  C11 UNL     1     -20.045 -39.814  21.629  1.00  0.00     0.153 A 
ATOM     35  H5  UNL     1     -21.213 -40.509  23.219  1.00  0.00     0.190 HD
HETATM   36  N6  UNL     1     -18.806 -40.076  21.297  1.00  0.00    -0.172 N 
ATOM     37  H6  UNL     1     -18.311 -39.687  20.495  1.00  0.00     0.186 HD
HETATM   38  N7  UNL     1     -17.059 -41.529  22.296  1.00  0.00    -0.175 N 
ATOM     39  H7  UNL     1     -16.353 -41.302  21.595  1.00  0.00     0.186 HD
BRANCH  34  40
HETATM   40  C12 UNL     1     -20.959 -38.914  20.910  1.00  0.00     0.050 A 
HETATM   41  C13 UNL     1     -20.776 -38.335  19.678  1.00  0.00     0.023 A 
HETATM   42  C14 UNL     1     -21.756 -37.547  19.217  1.00  0.00     0.009 A 
HETATM   43  C15 UNL     1     -22.860 -37.383  20.008  1.00  0.00     0.050 A 
HETATM   44  S1  UNL     1     -22.497 -38.335  21.374  1.00  0.00    -0.098 SA
ENDBRANCH  34  40
ENDBRANCH  26  28
ENDBRANCH   4  26
TORSDOF 5
ENDMDL
MODEL 2
REMARK VINA RESULT: -12.986484530      0.709      1.038
REMARK  5 active torsions:
REMARK  status: ('A' for Active; 'I' for Inactive)
REMARK    1  A    between atoms: N2_5  and  C4_6 
REMARK    2  A    between atoms: C7_9  and  N3_10 
REMARK    3  A    between atoms: N3_10  and  C8_12 
REMARK    4  A    between atoms: C11_18  and  C12_19 
REMARK    5  A    between atoms: N8_33  and  C21_34 
ROOT
HETATM    1  C4  UNL     1     -13.023 -44.503  27.159  1.00  0.00     0.030 A 
HETATM    2  C5  UNL     1     -13.390 -43.168  26.894  1.00  0.00     0.031 A 
HETATM    3  C6  UNL     1     -14.156 -42.846  25.804  1.00  0.00     0.032 A 
HETATM    4  C7  UNL     1     -14.620 -43.770  24.900  1.00  0.00     0.033 A 
HETATM    5  C17 UNL     1     -14.259 -45.096  25.161  1.00  0.00     0.032 A 
HETATM    6  C18 UNL     1     -13.487 -45.430  26.258  1.00  0.00     0.031 A 
ENDROOT
BRANCH   1   7
HETATM    7  N2  UNL     1     -12.225 -44.793  28.286  1.00  0.00    -0.378 N 
HETATM    8  C3  UNL     1     -11.088 -43.903  28.506  1.00  0.00     0.144 C 
HETATM    9  C2  UNL     1     -10.324 -44.285  29.739  1.00  0.00     0.162 C 
HETATM   10  N1  UNL     1     -10.997 -44.097  30.973  1.00  0.00    -0.314 N 
HETATM   11  C1  UNL     1     -10.218 -44.502  32.120  1.00  0.00     0.171 C 
HETATM   12  N8  UNL     1     -12.317 -44.457  31.044  1.00  0.00    -0.125 N 
HETATM   13  C20 UNL     1     -13.161 -45.474  30.434  1.00  0.00     0.187 C 
HETATM   14  C19 UNL     1     -12.592 -45.914  29.095  1.00  0.00     0.145 C 
BRANCH  12  15
HETATM   15  C21 UNL     1     -13.061 -43.629  31.964  1.00  0.00     0.700 A 
HETATM   16  N9  UNL     1     -14.310 -43.196  31.748  1.00  0.00    -0.188 N 
HETATM   17  C22 UNL     1     -14.713 -42.456  32.803  1.00  0.00     0.076 A 
ATOM     18  H9  UNL     1     -14.868 -43.395  30.918  1.00  0.00     0.184 HD
HETATM   19  C23 UNL     1     -15.871 -41.781  33.110  1.00  0.00     0.032 A 
HETATM   20  C27 UNL     1     -13.679 -42.425  33.706  1.00  0.00     0.076 A 
HETATM   21  C24 UNL     1     -16.004 -41.095  34.282  1.00  0.00     0.002 A 
HETATM   22  C25 UNL     1     -14.954 -41.078  35.176  1.00  0.00     0.002 A 
HETATM   23  C26 UNL     1     -13.800 -41.743  34.880  1.00  0.00     0.032 A 
HETATM   24  N10 UNL     1     -12.677 -43.157  33.160  1.00  0.00    -0.188 N 
ATOM     25  H10 UNL     1     -11.769 -43.323  33.593  1.00  0.00     0.184 HD
ENDBRANCH  12  15
ENDBRANCH   1   7
BRANCH   4  26
HETATM   26  N3  UNL     1     -15.395 -43.457  23.782  1.00  0.00    -0.342 N 
ATOM     27  H3  UNL     1     -15.000 -43.757  22.891  1.00  0.00     0.167 HD
BRANCH  26  28
HETATM   28  C8  UNL     1     -16.510 -42.858  23.694  1.00  0.00     0.122 A 
HETATM   29  C9  UNL     1     -17.465 -42.934  24.679  1.00  0.00     0.069 A 
HETATM   30  C10 UNL     1     -18.690 -42.261  24.555  1.00  0.00     0.139 A 
HETATM   31  N4  UNL     1     -18.942 -41.531  23.462  1.00  0.00    -0.096 N 
HETATM   32  N5  UNL     1     -19.975 -40.797  23.060  1.00  0.00    -0.263 N 
HETATM   33  C16 UNL     1     -18.015 -41.453  22.499  1.00  0.00     0.706 A 
HETATM   34  C11 UNL     1     -19.711 -40.266  21.869  1.00  0.00     0.153 A 
ATOM     35  H5  UNL     1     -20.839 -40.661  23.585  1.00  0.00     0.190 HD
HETATM   36  N6  UNL     1     -18.513 -40.663  21.520  1.00  0.00    -0.172 N 
ATOM     37  H6  UNL     1     -18.035 -40.418  20.653  1.00  0.00     0.186 HD
HETATM   38  N7  UNL     1     -16.824 -42.110  22.623  1.00  0.00    -0.175 N 
ATOM     39  H7  UNL     1     -16.142 -42.030  21.868  1.00  0.00     0.186 HD
BRANCH  34  40
HETATM   40  C12 UNL     1     -20.595 -39.396  21.079  1.00  0.00     0.050 A 
HETATM   41  C13 UNL     1     -20.400 -38.933  19.800  1.00  0.00     0.023 A 
HETATM   42  C14 UNL     1     -21.353 -38.150  19.278  1.00  0.00     0.009 A 
HETATM   43  C15 UNL     1     -22.442 -37.874  20.058  1.00  0.00     0.050 A 
HETATM   44  S1  UNL     1     -22.104 -38.717  21.499  1.00  0.00    -0.098 SA
ENDBRANCH  34  40
ENDBRANCH  26  28
ENDBRANCH   4  26
TORSDOF 5
ENDMDL
MODEL 3
REMARK VINA RESULT: -12.383058443      2.539      3.208
REMARK  5 active torsions:
REMARK  status: ('A' for Active; 'I' for Inactive)
REMARK    1  A    between atoms: N2_5  and  C4_6 
REMARK    2  A    between atoms: C7_9  and  N3_10 
REMARK    3  A    between atoms: N3_10  and  C8_12 
REMARK    4  A    between atoms: C11_18  and  C12_19 
REMARK    5  A    between atoms: N8_33  and  C21_34 
ROOT
HETATM    1  C4  UNL     1     -12.529 -44.410  27.678  1.00  0.00     0.030 A 
HETATM    2  C5  UNL     1     -12.803 -43.122  27.178  1.00  0.00     0.031 A 
HETATM    3  C6  UNL     1     -13.575 -42.945  26.058  1.00  0.00     0.032 A 
HETATM    4  C7  UNL     1     -14.131 -43.979  25.347  1.00  0.00     0.033 A 
HETATM    5  C17 UNL     1     -13.861 -45.259  25.842  1.00  0.00     0.032 A 
HETATM    6  C18 UNL     1     -13.085 -45.447  26.970  1.00  0.00     0.031 A 
ENDROOT
BRANCH   1   7
HETATM    7  N2  UNL     1     -11.723 -44.552  28.828  1.00  0.00    -0.378 N 
HETATM    8  C3  UNL     1     -10.694 -43.532  29.012  1.00  0.00     0.144 C 
HETATM    9  C2  UNL     1      -9.913 -43.763  30.272  1.00  0.00     0.162 C 
HETATM   10  N1  UNL     1     -10.622 -43.585  31.486  1.00  0.00    -0.314 N 
HETATM   11  C1  UNL     1      -9.824 -43.842  32.662  1.00  0.00     0.171 C 
HETATM   12  N8  UNL     1     -11.896 -44.083  31.562  1.00  0.00    -0.125 N 
HETATM   13  C20 UNL     1     -12.614 -45.218  30.999  1.00  0.00     0.187 C 
HETATM   14  C19 UNL     1     -11.979 -45.662  29.692  1.00  0.00     0.145 C 
BRANCH  12  15
HETATM   15  C21 UNL     1     -12.742 -43.295  32.429  1.00  0.00     0.700 A 
HETATM   16  N9  UNL     1     -14.014 -42.979  32.156  1.00  0.00    -0.188 N 
HETATM   17  C22 UNL     1     -14.517 -42.244  33.171  1.00  0.00     0.076 A 
ATOM     18  H9  UNL     1     -14.522 -43.250  31.314  1.00  0.00     0.184 HD
HETATM   19  C23 UNL     1     -15.739 -41.662  33.416  1.00  0.00     0.032 A 
HETATM   20  C27 UNL     1     -13.524 -42.097  34.107  1.00  0.00     0.076 A 
HETATM   21  C24 UNL     1     -15.973 -40.955  34.559  1.00  0.00     0.002 A 
HETATM   22  C25 UNL     1     -14.961 -40.821  35.487  1.00  0.00     0.002 A 
HETATM   23  C26 UNL     1     -13.746 -41.393  35.253  1.00  0.00     0.032 A 
HETATM   24  N10 UNL     1     -12.444 -42.756  33.620  1.00  0.00    -0.188 N 
ATOM     25  H10 UNL     1     -11.541 -42.830  34.089  1.00  0.00     0.184 HD
ENDBRANCH  12  15
ENDBRANCH   1   7
BRANCH   4  26
HETATM   26  N3  UNL     1     -14.911 -43.815  24.201  1.00  0.00    -0.342 N 
ATOM     27  H3  UNL     1     -14.515 -44.219  23.352  1.00  0.00     0.167 HD
BRANCH  26  28
HETATM   28  C8  UNL     1     -16.034 -43.245  24.044  1.00  0.00     0.122 A 
HETATM   29  C9  UNL     1     -16.388 -42.627  22.870  1.00  0.00     0.069 A 
HETATM   30  C10 UNL     1     -17.636 -42.005  22.725  1.00  0.00     0.139 A 
HETATM   31  N4  UNL     1     -18.505 -42.008  23.743  1.00  0.00    -0.096 N 
HETATM   32  N5  UNL     1     -19.730 -41.520  23.913  1.00  0.00    -0.263 N 
HETATM   33  C16 UNL     1     -18.166 -42.609  24.890  1.00  0.00     0.706 A 
HETATM   34  C11 UNL     1     -20.160 -41.805  25.140  1.00  0.00     0.153 A 
ATOM     35  H5  UNL     1     -20.261 -41.006  23.210  1.00  0.00     0.190 HD
HETATM   36  N6  UNL     1     -19.207 -42.470  25.743  1.00  0.00    -0.172 N 
ATOM     37  H6  UNL     1     -19.244 -42.826  26.698  1.00  0.00     0.186 HD
HETATM   38  N7  UNL     1     -16.949 -43.213  25.028  1.00  0.00    -0.175 N 
ATOM     39  H7  UNL     1     -16.724 -43.660  25.917  1.00  0.00     0.186 HD
BRANCH  34  40
HETATM   40  C12 UNL     1     -21.459 -41.439  25.723  1.00  0.00     0.050 A 
HETATM   41  C13 UNL     1     -21.847 -41.523  27.038  1.00  0.00     0.023 A 
HETATM   42  C14 UNL     1     -23.090 -41.124  27.339  1.00  0.00     0.009 A 
HETATM   43  C15 UNL     1     -23.872 -40.666  26.315  1.00  0.00     0.050 A 
HETATM   44  S1  UNL     1     -22.849 -40.805  24.960  1.00  0.00    -0.098 SA
ENDBRANCH  34  40
ENDBRANCH  26  28
ENDBRANCH   4  26
TORSDOF 5
ENDMDL
MODEL 4
REMARK VINA RESULT: -12.304654892      4.440     12.396
REMARK  5 active torsions:
REMARK  status: ('A' for Active; 'I' for Inactive)
REMARK    1  A    between atoms: N2_5  and  C4_6 
REMARK    2  A    between atoms: C7_9  and  N3_10 
REMARK    3  A    between atoms: N3_10  and  C8_12 
REMARK    4  A    between atoms: C11_18  and  C12_19 
REMARK    5  A    between atoms: N8_33  and  C21_34 
ROOT
HETATM    1  C4  UNL     1     -18.519 -42.824  25.350  1.00  0.00     0.030 A 
HETATM    2  C5  UNL     1     -17.899 -43.041  26.597  1.00  0.00     0.031 A 
HETATM    3  C6  UNL     1     -16.536 -43.138  26.703  1.00  0.00     0.032 A 
HETATM    4  C7  UNL     1     -15.680 -43.037  25.635  1.00  0.00     0.033 A 
HETATM    5  C17 UNL     1     -16.293 -42.821  24.396  1.00  0.00     0.032 A 
HETATM    6  C18 UNL     1     -17.667 -42.721  24.278  1.00  0.00     0.031 A 
ENDROOT
BRANCH   1   7
HETATM    7  N2  UNL     1     -19.926 -42.740  25.280  1.00  0.00    -0.378 N 
HETATM    8  C3  UNL     1     -20.538 -41.668  26.061  1.00  0.00     0.144 C 
HETATM    9  C2  UNL     1     -22.030 -41.654  25.897  1.00  0.00     0.162 C 
HETATM   10  N1  UNL     1     -22.512 -41.297  24.612  1.00  0.00    -0.314 N 
HETATM   11  C1  UNL     1     -23.952 -41.321  24.512  1.00  0.00     0.171 C 
HETATM   12  N8  UNL     1     -21.871 -41.819  23.520  1.00  0.00    -0.125 N 
HETATM   13  C20 UNL     1     -21.172 -43.057  23.206  1.00  0.00     0.187 C 
HETATM   14  C19 UNL     1     -20.614 -43.695  24.468  1.00  0.00     0.145 C 
BRANCH  12  15
HETATM   15  C21 UNL     1     -21.905 -40.925  22.385  1.00  0.00     0.700 A 
HETATM   16  N9  UNL     1     -21.169 -39.812  22.281  1.00  0.00    -0.188 N 
HETATM   17  C22 UNL     1     -21.432 -39.213  21.100  1.00  0.00     0.076 A 
ATOM     18  H9  UNL     1     -20.513 -39.470  22.984  1.00  0.00     0.184 HD
HETATM   19  C23 UNL     1     -20.977 -38.071  20.484  1.00  0.00     0.032 A 
HETATM   20  C27 UNL     1     -22.365 -39.980  20.447  1.00  0.00     0.076 A 
HETATM   21  C24 UNL     1     -21.431 -37.697  19.253  1.00  0.00     0.002 A 
HETATM   22  C25 UNL     1     -22.368 -38.483  18.614  1.00  0.00     0.002 A 
HETATM   23  C26 UNL     1     -22.826 -39.617  19.216  1.00  0.00     0.032 A 
HETATM   24  N10 UNL     1     -22.635 -41.027  21.265  1.00  0.00    -0.188 N 
ATOM     25  H10 UNL     1     -23.294 -41.778  21.059  1.00  0.00     0.184 HD
ENDBRANCH  12  15
ENDBRANCH   1   7
BRANCH   4  26
HETATM   26  N3  UNL     1     -14.291 -43.141  25.727  1.00  0.00    -0.342 N 
ATOM     27  H3  UNL     1     -13.774 -42.511  25.114  1.00  0.00     0.167 HD
BRANCH  26  28
HETATM   28  C8  UNL     1     -13.568 -43.893  26.449  1.00  0.00     0.122 A 
HETATM   29  C9  UNL     1     -13.699 -45.260  26.450  1.00  0.00     0.069 A 
HETATM   30  C10 UNL     1     -12.885 -46.067  27.258  1.00  0.00     0.139 A 
HETATM   31  N4  UNL     1     -11.961 -45.504  28.046  1.00  0.00    -0.096 N 
HETATM   32  N5  UNL     1     -11.062 -45.982  28.901  1.00  0.00    -0.263 N 
HETATM   33  C16 UNL     1     -11.828 -44.172  28.050  1.00  0.00     0.706 A 
HETATM   34  C11 UNL     1     -10.374 -44.976  29.436  1.00  0.00     0.153 A 
ATOM     35  H5  UNL     1     -10.921 -46.969  29.115  1.00  0.00     0.190 HD
HETATM   36  N6  UNL     1     -10.838 -43.866  28.919  1.00  0.00    -0.172 N 
ATOM     37  H6  UNL     1     -10.507 -42.926  29.137  1.00  0.00     0.186 HD
HETATM   38  N7  UNL     1     -12.623 -43.390  27.262  1.00  0.00    -0.175 N 
ATOM     39  H7  UNL     1     -12.494 -42.378  27.291  1.00  0.00     0.186 HD
BRANCH  34  40
HETATM   40  C12 UNL     1      -9.294 -45.080  30.429  1.00  0.00     0.050 A 
HETATM   41  C13 UNL     1      -8.668 -46.218  30.877  1.00  0.00     0.023 A 
HETATM   42  C14 UNL     1      -7.699 -46.066  31.790  1.00  0.00     0.009 A 
HETATM   43  C15 UNL     1      -7.412 -44.794  32.203  1.00  0.00     0.050 A 
HETATM   44  S1  UNL     1      -8.503 -43.845  31.303  1.00  0.00    -0.098 SA
ENDBRANCH  34  40
ENDBRANCH  26  28
ENDBRANCH   4  26
TORSDOF 5
ENDMDL
MODEL 5
REMARK VINA RESULT: -12.297206503      1.629      2.596
REMARK  5 active torsions:
REMARK  status: ('A' for Active; 'I' for Inactive)
REMARK    1  A    between atoms: N2_5  and  C4_6 
REMARK    2  A    between atoms: C7_9  and  N3_10 
REMARK    3  A    between atoms: N3_10  and  C8_12 
REMARK    4  A    between atoms: C11_18  and  C12_19 
REMARK    5  A    between atoms: N8_33  and  C21_34 
ROOT
HETATM    1  C4  UNL     1     -14.892 -43.604  25.806  1.00  0.00     0.030 A 
HETATM    2  C5  UNL     1     -14.948 -43.571  24.398  1.00  0.00     0.031 A 
HETATM    3  C6  UNL     1     -16.100 -43.221  23.742  1.00  0.00     0.032 A 
HETATM    4  C7  UNL     1     -17.267 -42.883  24.381  1.00  0.00     0.033 A 
HETATM    5  C17 UNL     1     -17.214 -42.914  25.778  1.00  0.00     0.032 A 
HETATM    6  C18 UNL     1     -16.057 -43.265  26.449  1.00  0.00     0.031 A 
ENDROOT
BRANCH   1   7
HETATM    7  N2  UNL     1     -13.691 -43.979  26.444  1.00  0.00    -0.378 N 
HETATM    8  C3  UNL     1     -12.830 -42.880  26.873  1.00  0.00     0.144 C 
HETATM    9  C2  UNL     1     -11.595 -43.387  27.559  1.00  0.00     0.162 C 
HETATM   10  N1  UNL     1     -11.794 -44.017  28.813  1.00  0.00    -0.314 N 
HETATM   11  C1  UNL     1     -10.573 -44.502  29.413  1.00  0.00     0.171 C 
HETATM   12  N8  UNL     1     -12.852 -44.879  28.936  1.00  0.00    -0.125 N 
HETATM   13  C20 UNL     1     -13.561 -45.801  28.061  1.00  0.00     0.187 C 
HETATM   14  C19 UNL     1     -13.428 -45.375  26.609  1.00  0.00     0.145 C 
BRANCH  12  15
HETATM   15  C21 UNL     1     -13.397 -44.889  30.274  1.00  0.00     0.700 A 
HETATM   16  N9  UNL     1     -13.480 -43.811  31.063  1.00  0.00    -0.188 N 
HETATM   17  C22 UNL     1     -14.043 -44.161  32.239  1.00  0.00     0.076 A 
ATOM     18  H9  UNL     1     -13.167 -42.872  30.813  1.00  0.00     0.184 HD
HETATM   19  C23 UNL     1     -14.361 -43.476  33.388  1.00  0.00     0.032 A 
HETATM   20  C27 UNL     1     -14.319 -45.504  32.181  1.00  0.00     0.076 A 
HETATM   21  C24 UNL     1     -14.939 -44.103  34.453  1.00  0.00     0.002 A 
HETATM   22  C25 UNL     1     -15.210 -45.454  34.373  1.00  0.00     0.002 A 
HETATM   23  C26 UNL     1     -14.897 -46.143  33.238  1.00  0.00     0.032 A 
HETATM   24  N10 UNL     1     -13.909 -45.923  30.958  1.00  0.00    -0.188 N 
ATOM     25  H10 UNL     1     -13.980 -46.880  30.612  1.00  0.00     0.184 HD
ENDBRANCH  12  15
ENDBRANCH   1   7
BRANCH   4  26
HETATM   26  N3  UNL     1     -18.449 -42.532  23.726  1.00  0.00    -0.342 N 
ATOM     27  H3  UNL     1     -19.280 -43.026  24.051  1.00  0.00     0.167 HD
BRANCH  26  28
HETATM   28  C8  UNL     1     -18.657 -41.698  22.792  1.00  0.00     0.122 A 
HETATM   29  C9  UNL     1     -17.643 -40.981  22.207  1.00  0.00     0.069 A 
HETATM   30  C10 UNL     1     -17.902 -40.066  21.176  1.00  0.00     0.139 A 
HETATM   31  N4  UNL     1     -19.157 -39.882  20.748  1.00  0.00    -0.096 N 
HETATM   32  N5  UNL     1     -19.712 -39.113  19.817  1.00  0.00    -0.263 N 
HETATM   33  C16 UNL     1     -20.150 -40.579  21.314  1.00  0.00     0.706 A 
HETATM   34  C11 UNL     1     -21.027 -39.315  19.792  1.00  0.00     0.153 A 
ATOM     35  H5  UNL     1     -19.206 -38.465  19.212  1.00  0.00     0.190 HD
HETATM   36  N6  UNL     1     -21.301 -40.211  20.706  1.00  0.00    -0.172 N 
ATOM     37  H6  UNL     1     -22.230 -40.572  20.924  1.00  0.00     0.186 HD
HETATM   38  N7  UNL     1     -19.894 -41.468  22.319  1.00  0.00    -0.175 N 
ATOM     39  H7  UNL     1     -20.675 -41.981  22.728  1.00  0.00     0.186 HD
BRANCH  34  40
HETATM   40  C12 UNL     1     -22.001 -38.656  18.910  1.00  0.00     0.050 A 
HETATM   41  C13 UNL     1     -21.977 -37.364  18.443  1.00  0.00     0.023 A 
HETATM   42  C14 UNL     1     -22.979 -36.982  17.640  1.00  0.00     0.009 A 
HETATM   43  C15 UNL     1     -23.945 -37.906  17.351  1.00  0.00     0.050 A 
HETATM   44  S1  UNL     1     -23.425 -39.284  18.208  1.00  0.00    -0.098 SA
ENDBRANCH  34  40
ENDBRANCH  26  28
ENDBRANCH   4  26
TORSDOF 5
ENDMDL
