MODEL 1
REMARK VINA RESULT: -8.282926213      0.000      0.000
REMARK  12 active torsions:
REMARK  status: ('A' for Active; 'I' for Inactive)
REMARK    1  A    between atoms: C3_3  and  C5_5 
REMARK    2  A    between atoms: C6_6  and  C7_7 
REMARK    3  A    between atoms: C8_9  and  O2_10 
REMARK    4  A    between atoms: C9_12  and  C10_13 
REMARK    5  A    between atoms: C10_13  and  C11_14 
REMARK    6  A    between atoms: C10_13  and  C15_18 
REMARK    7  A    between atoms: C11_14  and  C12_15 
REMARK    8  A    between atoms: C15_18  and  C16_19 
REMARK    9  A    between atoms: C17_20  and  O3_21 
REMARK   10  A    between atoms: C20_25  and  O4_26 
REMARK   11  A    between atoms: C21_28  and  O5_30 
REMARK   12  A    between atoms: C23_32  and  O6_33 
ROOT
HETATM    1  C10 UNL     1     -20.435  26.435 -15.311  1.00  0.00    -0.043 C 
ENDROOT
BRANCH   1   2
HETATM    2  C9  UNL     1     -19.781  27.707 -15.578  1.00  0.00     0.064 A 
HETATM    3  C8  UNL     1     -19.337  28.186 -16.822  1.00  0.00     0.197 A 
HETATM    4  O1  UNL     1     -18.874  29.360 -16.718  1.00  0.00    -0.284 OA
HETATM    5  C7  UNL     1     -18.940  29.815 -15.457  1.00  0.00     0.112 A 
HETATM    6  C23 UNL     1     -19.507  28.800 -14.713  1.00  0.00     0.115 A 
BRANCH   3   7
HETATM    7  O2  UNL     1     -19.410  27.445 -17.994  1.00  0.00    -0.340 OA
ATOM      8  H2  UNL     1     -19.775  27.746 -18.818  1.00  0.00     0.220 HD
ENDBRANCH   3   7
BRANCH   5   9
HETATM    9  C6  UNL     1     -18.453  31.130 -15.170  1.00  0.00     0.041 C 
HETATM   10  C5  UNL     1     -18.189  32.080 -16.012  1.00  0.00     0.009 C 
BRANCH  10  11
HETATM   11  C3  UNL     1     -17.690  33.400 -15.582  1.00  0.00    -0.066 C 
HETATM   12  C2  UNL     1     -17.891  34.446 -16.348  1.00  0.00    -0.024 C 
HETATM   13  C1  UNL     1     -17.438  35.823 -16.019  1.00  0.00     0.036 C 
HETATM   14  C4  UNL     1     -16.976  33.511 -14.294  1.00  0.00     0.048 C 
ENDBRANCH  10  11
ENDBRANCH   5   9
BRANCH   6  15
HETATM   15  O6  UNL     1     -19.762  28.836 -13.393  1.00  0.00    -0.357 OA
ATOM     16  H6  UNL     1     -20.621  28.889 -12.992  1.00  0.00     0.217 HD
ENDBRANCH   6  15
ENDBRANCH   1   2
BRANCH   1  17
HETATM   17  C11 UNL     1     -19.651  25.497 -14.462  1.00  0.00     0.043 C 
BRANCH  17  18
HETATM   18  C12 UNL     1     -19.267  24.187 -15.020  1.00  0.00    -0.019 C 
HETATM   19  C13 UNL     1     -19.260  24.204 -16.560  1.00  0.00     0.010 C 
HETATM   20  C14 UNL     1     -19.693  22.899 -14.476  1.00  0.00     0.010 C 
ENDBRANCH  17  18
ENDBRANCH   1  17
BRANCH   1  21
HETATM   21  C15 UNL     1     -21.890  26.386 -15.132  1.00  0.00    -0.008 C 
BRANCH  21  22
HETATM   22  C16 UNL     1     -22.626  25.576 -14.188  1.00  0.00     0.074 C 
HETATM   23  C17 UNL     1     -23.413  26.317 -13.161  1.00  0.00     0.129 C 
HETATM   24  C18 UNL     1     -24.087  25.366 -12.169  1.00  0.00     0.035 C 
HETATM   25  C19 UNL     1     -24.883  24.291 -12.825  1.00  0.00     0.037 C 
HETATM   26  C20 UNL     1     -24.041  23.608 -13.871  1.00  0.00     0.152 C 
HETATM   27  C21 UNL     1     -23.646  24.656 -14.885  1.00  0.00     0.089 C 
HETATM   28  C22 UNL     1     -23.054  23.947 -16.066  1.00  0.00     0.049 C 
BRANCH  23  29
HETATM   29  O3  UNL     1     -24.475  27.063 -13.733  1.00  0.00    -0.395 OA
ATOM     30  H3  UNL     1     -25.315  26.848 -13.345  1.00  0.00     0.210 HD
ENDBRANCH  23  29
BRANCH  26  31
HETATM   31  O4  UNL     1     -22.910  23.073 -13.254  1.00  0.00    -0.393 OA
ATOM     32  H4  UNL     1     -23.142  22.238 -12.867  1.00  0.00     0.210 HD
ENDBRANCH  26  31
BRANCH  27  33
HETATM   33  O5  UNL     1     -24.770  25.330 -15.284  1.00  0.00    -0.387 OA
ATOM     34  H5  UNL     1     -25.014  25.129 -16.180  1.00  0.00     0.210 HD
ENDBRANCH  27  33
ENDBRANCH  21  22
ENDBRANCH   1  21
TORSDOF 12
ENDMDL
MODEL 2
REMARK VINA RESULT: -7.932315047      0.990      1.353
REMARK  12 active torsions:
REMARK  status: ('A' for Active; 'I' for Inactive)
REMARK    1  A    between atoms: C3_3  and  C5_5 
REMARK    2  A    between atoms: C6_6  and  C7_7 
REMARK    3  A    between atoms: C8_9  and  O2_10 
REMARK    4  A    between atoms: C9_12  and  C10_13 
REMARK    5  A    between atoms: C10_13  and  C11_14 
REMARK    6  A    between atoms: C10_13  and  C15_18 
REMARK    7  A    between atoms: C11_14  and  C12_15 
REMARK    8  A    between atoms: C15_18  and  C16_19 
REMARK    9  A    between atoms: C17_20  and  O3_21 
REMARK   10  A    between atoms: C20_25  and  O4_26 
REMARK   11  A    between atoms: C21_28  and  O5_30 
REMARK   12  A    between atoms: C23_32  and  O6_33 
ROOT
HETATM    1  C10 UNL     1     -19.947  26.477 -14.924  1.00  0.00    -0.043 C 
ENDROOT
BRANCH   1   2
HETATM    2  C9  UNL     1     -19.316  27.726 -15.320  1.00  0.00     0.064 A 
HETATM    3  C8  UNL     1     -19.083  28.180 -16.629  1.00  0.00     0.197 A 
HETATM    4  O1  UNL     1     -18.578  29.341 -16.625  1.00  0.00    -0.284 OA
HETATM    5  C7  UNL     1     -18.410  29.810 -15.379  1.00  0.00     0.112 A 
HETATM    6  C23 UNL     1     -18.865  28.819 -14.532  1.00  0.00     0.115 A 
BRANCH   3   7
HETATM    7  O2  UNL     1     -19.379  27.430 -17.760  1.00  0.00    -0.340 OA
ATOM      8  H2  UNL     1     -19.403  26.481 -17.805  1.00  0.00     0.220 HD
ENDBRANCH   3   7
BRANCH   5   9
HETATM    9  C6  UNL     1     -17.846  31.113 -15.201  1.00  0.00     0.041 C 
HETATM   10  C5  UNL     1     -18.295  32.242 -15.654  1.00  0.00     0.009 C 
BRANCH  10  11
HETATM   11  C3  UNL     1     -17.613  33.524 -15.396  1.00  0.00    -0.066 C 
HETATM   12  C2  UNL     1     -17.758  34.514 -16.246  1.00  0.00    -0.024 C 
HETATM   13  C1  UNL     1     -17.123  35.849 -16.090  1.00  0.00     0.036 C 
HETATM   14  C4  UNL     1     -16.784  33.663 -14.182  1.00  0.00     0.048 C 
ENDBRANCH  10  11
ENDBRANCH   5   9
BRANCH   6  15
HETATM   15  O6  UNL     1     -18.885  28.876 -13.189  1.00  0.00    -0.357 OA
ATOM     16  H6  UNL     1     -19.605  28.611 -12.630  1.00  0.00     0.217 HD
ENDBRANCH   6  15
ENDBRANCH   1   2
BRANCH   1  17
HETATM   17  C11 UNL     1     -19.002  25.403 -14.516  1.00  0.00     0.043 C 
BRANCH  17  18
HETATM   18  C12 UNL     1     -19.125  24.073 -15.142  1.00  0.00    -0.019 C 
HETATM   19  C13 UNL     1     -19.571  24.175 -16.612  1.00  0.00     0.010 C 
HETATM   20  C14 UNL     1     -19.666  22.891 -14.474  1.00  0.00     0.010 C 
ENDBRANCH  17  18
ENDBRANCH   1  17
BRANCH   1  21
HETATM   21  C15 UNL     1     -21.227  26.501 -14.207  1.00  0.00    -0.008 C 
BRANCH  21  22
HETATM   22  C16 UNL     1     -22.276  25.509 -14.263  1.00  0.00     0.074 C 
HETATM   23  C17 UNL     1     -22.493  24.711 -13.022  1.00  0.00     0.129 C 
HETATM   24  C18 UNL     1     -23.570  23.641 -13.217  1.00  0.00     0.035 C 
HETATM   25  C19 UNL     1     -24.843  24.177 -13.775  1.00  0.00     0.037 C 
HETATM   26  C20 UNL     1     -24.549  24.998 -15.004  1.00  0.00     0.152 C 
HETATM   27  C21 UNL     1     -23.648  26.134 -14.580  1.00  0.00     0.089 C 
HETATM   28  C22 UNL     1     -23.577  27.108 -15.718  1.00  0.00     0.049 C 
BRANCH  23  29
HETATM   29  O3  UNL     1     -22.958  25.508 -11.945  1.00  0.00    -0.395 OA
ATOM     30  H3  UNL     1     -22.902  25.056 -11.113  1.00  0.00     0.210 HD
ENDBRANCH  23  29
BRANCH  26  31
HETATM   31  O4  UNL     1     -23.907  24.186 -15.939  1.00  0.00    -0.393 OA
ATOM     32  H4  UNL     1     -24.154  24.472 -16.810  1.00  0.00     0.210 HD
ENDBRANCH  26  31
BRANCH  27  33
HETATM   33  O5  UNL     1     -24.202  26.755 -13.492  1.00  0.00    -0.387 OA
ATOM     34  H5  UNL     1     -24.923  27.326 -13.730  1.00  0.00     0.210 HD
ENDBRANCH  27  33
ENDBRANCH  21  22
ENDBRANCH   1  21
TORSDOF 12
ENDMDL
MODEL 3
REMARK VINA RESULT: -7.890543166      1.423      2.244
REMARK  12 active torsions:
REMARK  status: ('A' for Active; 'I' for Inactive)
REMARK    1  A    between atoms: C3_3  and  C5_5 
REMARK    2  A    between atoms: C6_6  and  C7_7 
REMARK    3  A    between atoms: C8_9  and  O2_10 
REMARK    4  A    between atoms: C9_12  and  C10_13 
REMARK    5  A    between atoms: C10_13  and  C11_14 
REMARK    6  A    between atoms: C10_13  and  C15_18 
REMARK    7  A    between atoms: C11_14  and  C12_15 
REMARK    8  A    between atoms: C15_18  and  C16_19 
REMARK    9  A    between atoms: C17_20  and  O3_21 
REMARK   10  A    between atoms: C20_25  and  O4_26 
REMARK   11  A    between atoms: C21_28  and  O5_30 
REMARK   12  A    between atoms: C23_32  and  O6_33 
ROOT
HETATM    1  C10 UNL     1     -20.287  27.511 -15.544  1.00  0.00    -0.043 C 
ENDROOT
BRANCH   1   2
HETATM    2  C9  UNL     1     -19.566  28.767 -15.411  1.00  0.00     0.064 A 
HETATM    3  C8  UNL     1     -18.645  29.112 -14.409  1.00  0.00     0.197 A 
HETATM    4  O1  UNL     1     -18.146  30.256 -14.625  1.00  0.00    -0.284 OA
HETATM    5  C7  UNL     1     -18.632  30.812 -15.745  1.00  0.00     0.112 A 
HETATM    6  C23 UNL     1     -19.529  29.901 -16.267  1.00  0.00     0.115 A 
BRANCH   3   7
HETATM    7  O2  UNL     1     -18.343  28.287 -13.334  1.00  0.00    -0.340 OA
ATOM      8  H2  UNL     1     -18.974  27.902 -12.736  1.00  0.00     0.220 HD
ENDBRANCH   3   7
BRANCH   5   9
HETATM    9  C6  UNL     1     -18.168  32.110 -16.131  1.00  0.00     0.041 C 
HETATM   10  C5  UNL     1     -18.208  33.205 -15.438  1.00  0.00     0.009 C 
BRANCH  10  11
HETATM   11  C3  UNL     1     -17.692  34.486 -15.957  1.00  0.00    -0.066 C 
HETATM   12  C2  UNL     1     -18.458  35.227 -16.722  1.00  0.00    -0.024 C 
HETATM   13  C1  UNL     1     -18.049  36.535 -17.300  1.00  0.00     0.036 C 
HETATM   14  C4  UNL     1     -16.322  34.905 -15.597  1.00  0.00     0.048 C 
ENDBRANCH  10  11
ENDBRANCH   5   9
BRANCH   6  15
HETATM   15  O6  UNL     1     -20.244  30.054 -17.394  1.00  0.00    -0.357 OA
ATOM     16  H6  UNL     1     -20.089  30.704 -18.070  1.00  0.00     0.217 HD
ENDBRANCH   6  15
ENDBRANCH   1   2
BRANCH   1  17
HETATM   17  C11 UNL     1     -19.499  26.399 -16.140  1.00  0.00     0.043 C 
BRANCH  17  18
HETATM   18  C12 UNL     1     -18.642  25.584 -15.258  1.00  0.00    -0.019 C 
HETATM   19  C13 UNL     1     -17.151  25.755 -15.598  1.00  0.00     0.010 C 
HETATM   20  C14 UNL     1     -18.963  24.229 -14.814  1.00  0.00     0.010 C 
ENDBRANCH  17  18
ENDBRANCH   1  17
BRANCH   1  21
HETATM   21  C15 UNL     1     -21.264  27.119 -14.522  1.00  0.00    -0.008 C 
BRANCH  21  22
HETATM   22  C16 UNL     1     -22.174  25.997 -14.569  1.00  0.00     0.074 C 
HETATM   23  C17 UNL     1     -22.209  25.127 -13.358  1.00  0.00     0.129 C 
HETATM   24  C18 UNL     1     -23.144  23.930 -13.546  1.00  0.00     0.035 C 
HETATM   25  C19 UNL     1     -24.507  24.310 -14.010  1.00  0.00     0.037 C 
HETATM   26  C20 UNL     1     -24.398  25.213 -15.212  1.00  0.00     0.152 C 
HETATM   27  C21 UNL     1     -23.633  26.443 -14.783  1.00  0.00     0.089 C 
HETATM   28  C22 UNL     1     -23.759  27.462 -15.875  1.00  0.00     0.049 C 
BRANCH  23  29
HETATM   29  O3  UNL     1     -22.712  25.810 -12.221  1.00  0.00    -0.395 OA
ATOM     30  H3  UNL     1     -23.621  25.599 -12.049  1.00  0.00     0.210 HD
ENDBRANCH  23  29
BRANCH  26  31
HETATM   31  O4  UNL     1     -23.710  24.533 -16.218  1.00  0.00    -0.393 OA
ATOM     32  H4  UNL     1     -24.336  24.038 -16.732  1.00  0.00     0.210 HD
ENDBRANCH  26  31
BRANCH  27  33
HETATM   33  O5  UNL     1     -24.199  26.939 -13.639  1.00  0.00    -0.387 OA
ATOM     34  H5  UNL     1     -23.609  27.509 -13.161  1.00  0.00     0.210 HD
ENDBRANCH  27  33
ENDBRANCH  21  22
ENDBRANCH   1  21
TORSDOF 12
ENDMDL
MODEL 4
REMARK VINA RESULT: -7.882177635      1.311      1.668
REMARK  12 active torsions:
REMARK  status: ('A' for Active; 'I' for Inactive)
REMARK    1  A    between atoms: C3_3  and  C5_5 
REMARK    2  A    between atoms: C6_6  and  C7_7 
REMARK    3  A    between atoms: C8_9  and  O2_10 
REMARK    4  A    between atoms: C9_12  and  C10_13 
REMARK    5  A    between atoms: C10_13  and  C11_14 
REMARK    6  A    between atoms: C10_13  and  C15_18 
REMARK    7  A    between atoms: C11_14  and  C12_15 
REMARK    8  A    between atoms: C15_18  and  C16_19 
REMARK    9  A    between atoms: C17_20  and  O3_21 
REMARK   10  A    between atoms: C20_25  and  O4_26 
REMARK   11  A    between atoms: C21_28  and  O5_30 
REMARK   12  A    between atoms: C23_32  and  O6_33 
ROOT
HETATM    1  C10 UNL     1     -20.573  27.156 -15.887  1.00  0.00    -0.043 C 
ENDROOT
BRANCH   1   2
HETATM    2  C9  UNL     1     -20.007  28.486 -16.049  1.00  0.00     0.064 A 
HETATM    3  C8  UNL     1     -20.222  29.373 -17.117  1.00  0.00     0.197 A 
HETATM    4  O1  UNL     1     -19.634  30.477 -16.916  1.00  0.00    -0.284 OA
HETATM    5  C7  UNL     1     -18.978  30.490 -15.746  1.00  0.00     0.112 A 
HETATM    6  C23 UNL     1     -19.191  29.252 -15.173  1.00  0.00     0.115 A 
BRANCH   3   7
HETATM    7  O2  UNL     1     -20.984  29.053 -18.232  1.00  0.00    -0.340 OA
ATOM      8  H2  UNL     1     -21.687  28.414 -18.258  1.00  0.00     0.220 HD
ENDBRANCH   3   7
BRANCH   5   9
HETATM    9  C6  UNL     1     -18.258  31.668 -15.369  1.00  0.00     0.041 C 
HETATM   10  C5  UNL     1     -18.252  32.819 -15.966  1.00  0.00     0.009 C 
BRANCH  10  11
HETATM   11  C3  UNL     1     -17.461  33.962 -15.470  1.00  0.00    -0.066 C 
HETATM   12  C2  UNL     1     -17.411  35.066 -16.177  1.00  0.00    -0.024 C 
HETATM   13  C1  UNL     1     -16.651  36.280 -15.779  1.00  0.00     0.036 C 
HETATM   14  C4  UNL     1     -16.745  33.833 -14.185  1.00  0.00     0.048 C 
ENDBRANCH  10  11
ENDBRANCH   5   9
BRANCH   6  15
HETATM   15  O6  UNL     1     -18.714  28.838 -13.986  1.00  0.00    -0.357 OA
ATOM     16  H6  UNL     1     -19.227  28.685 -13.201  1.00  0.00     0.217 HD
ENDBRANCH   6  15
ENDBRANCH   1   2
BRANCH   1  17
HETATM   17  C11 UNL     1     -19.675  26.042 -16.293  1.00  0.00     0.043 C 
BRANCH  17  18
HETATM   18  C12 UNL     1     -18.739  25.485 -15.298  1.00  0.00    -0.019 C 
HETATM   19  C13 UNL     1     -17.276  25.813 -15.646  1.00  0.00     0.010 C 
HETATM   20  C14 UNL     1     -18.884  24.174 -14.668  1.00  0.00     0.010 C 
ENDBRANCH  17  18
ENDBRANCH   1  17
BRANCH   1  21
HETATM   21  C15 UNL     1     -21.459  26.874 -14.752  1.00  0.00    -0.008 C 
BRANCH  21  22
HETATM   22  C16 UNL     1     -22.350  25.746 -14.600  1.00  0.00     0.074 C 
HETATM   23  C17 UNL     1     -22.221  24.974 -13.331  1.00  0.00     0.129 C 
HETATM   24  C18 UNL     1     -23.153  23.759 -13.309  1.00  0.00     0.035 C 
HETATM   25  C19 UNL     1     -24.569  24.093 -13.628  1.00  0.00     0.037 C 
HETATM   26  C20 UNL     1     -24.623  24.899 -14.900  1.00  0.00     0.152 C 
HETATM   27  C21 UNL     1     -23.831  26.164 -14.665  1.00  0.00     0.089 C 
HETATM   28  C22 UNL     1     -24.107  27.094 -15.808  1.00  0.00     0.049 C 
BRANCH  23  29
HETATM   29  O3  UNL     1     -22.592  25.740 -12.196  1.00  0.00    -0.395 OA
ATOM     30  H3  UNL     1     -22.454  25.269 -11.384  1.00  0.00     0.210 HD
ENDBRANCH  23  29
BRANCH  26  31
HETATM   31  O4  UNL     1     -24.053  24.148 -15.928  1.00  0.00    -0.393 OA
ATOM     32  H4  UNL     1     -24.133  24.634 -16.740  1.00  0.00     0.210 HD
ENDBRANCH  26  31
BRANCH  27  33
HETATM   33  O5  UNL     1     -24.260  26.744 -13.501  1.00  0.00    -0.387 OA
ATOM     34  H5  UNL     1     -25.162  27.039 -13.555  1.00  0.00     0.210 HD
ENDBRANCH  27  33
ENDBRANCH  21  22
ENDBRANCH   1  21
TORSDOF 12
ENDMDL
MODEL 5
REMARK VINA RESULT: -7.851220221      0.645      1.658
REMARK  12 active torsions:
REMARK  status: ('A' for Active; 'I' for Inactive)
REMARK    1  A    between atoms: C3_3  and  C5_5 
REMARK    2  A    between atoms: C6_6  and  C7_7 
REMARK    3  A    between atoms: C8_9  and  O2_10 
REMARK    4  A    between atoms: C9_12  and  C10_13 
REMARK    5  A    between atoms: C10_13  and  C11_14 
REMARK    6  A    between atoms: C10_13  and  C15_18 
REMARK    7  A    between atoms: C11_14  and  C12_15 
REMARK    8  A    between atoms: C15_18  and  C16_19 
REMARK    9  A    between atoms: C17_20  and  O3_21 
REMARK   10  A    between atoms: C20_25  and  O4_26 
REMARK   11  A    between atoms: C21_28  and  O5_30 
REMARK   12  A    between atoms: C23_32  and  O6_33 
ROOT
HETATM    1  C10 UNL     1     -20.487  26.535 -15.638  1.00  0.00    -0.043 C 
ENDROOT
BRANCH   1   2
HETATM    2  C9  UNL     1     -20.009  27.878 -15.346  1.00  0.00     0.064 A 
HETATM    3  C8  UNL     1     -19.937  28.495 -14.086  1.00  0.00     0.197 A 
HETATM    4  O1  UNL     1     -19.409  29.643 -14.172  1.00  0.00    -0.284 OA
HETATM    5  C7  UNL     1     -19.065  29.944 -15.434  1.00  0.00     0.112 A 
HETATM    6  C23 UNL     1     -19.429  28.854 -16.200  1.00  0.00     0.115 A 
BRANCH   3   7
HETATM    7  O2  UNL     1     -20.394  27.900 -12.918  1.00  0.00    -0.340 OA
ATOM      8  H2  UNL     1     -20.590  26.977 -12.806  1.00  0.00     0.220 HD
ENDBRANCH   3   7
BRANCH   5   9
HETATM    9  C6  UNL     1     -18.456  31.210 -15.702  1.00  0.00     0.041 C 
HETATM   10  C5  UNL     1     -18.572  32.307 -15.021  1.00  0.00     0.009 C 
BRANCH  10  11
HETATM   11  C3  UNL     1     -17.884  33.554 -15.408  1.00  0.00    -0.066 C 
HETATM   12  C2  UNL     1     -18.304  34.223 -16.456  1.00  0.00    -0.024 C 
HETATM   13  C1  UNL     1     -17.693  35.489 -16.939  1.00  0.00     0.036 C 
HETATM   14  C4  UNL     1     -16.737  34.020 -14.602  1.00  0.00     0.048 C 
ENDBRANCH  10  11
ENDBRANCH   5   9
BRANCH   6  15
HETATM   15  O6  UNL     1     -19.260  28.730 -17.528  1.00  0.00    -0.357 OA
ATOM     16  H6  UNL     1     -19.901  28.949 -18.194  1.00  0.00     0.217 HD
ENDBRANCH   6  15
ENDBRANCH   1   2
BRANCH   1  17
HETATM   17  C11 UNL     1     -19.573  25.441 -15.213  1.00  0.00     0.043 C 
BRANCH  17  18
HETATM   18  C12 UNL     1     -19.744  24.102 -15.807  1.00  0.00    -0.019 C 
HETATM   19  C13 UNL     1     -19.601  22.989 -14.753  1.00  0.00     0.010 C 
HETATM   20  C14 UNL     1     -19.225  23.705 -17.115  1.00  0.00     0.010 C 
ENDBRANCH  17  18
ENDBRANCH   1  17
BRANCH   1  21
HETATM   21  C15 UNL     1     -21.921  26.235 -15.546  1.00  0.00    -0.008 C 
BRANCH  21  22
HETATM   22  C16 UNL     1     -22.593  25.503 -14.498  1.00  0.00     0.074 C 
HETATM   23  C17 UNL     1     -23.255  26.324 -13.444  1.00  0.00     0.129 C 
HETATM   24  C18 UNL     1     -23.866  25.451 -12.345  1.00  0.00     0.035 C 
HETATM   25  C19 UNL     1     -24.756  24.377 -12.868  1.00  0.00     0.037 C 
HETATM   26  C20 UNL     1     -24.039  23.610 -13.949  1.00  0.00     0.152 C 
HETATM   27  C21 UNL     1     -23.704  24.590 -15.049  1.00  0.00     0.089 C 
HETATM   28  C22 UNL     1     -23.250  23.801 -16.240  1.00  0.00     0.049 C 
BRANCH  23  29
HETATM   29  O3  UNL     1     -24.340  27.081 -13.955  1.00  0.00    -0.395 OA
ATOM     30  H3  UNL     1     -25.115  27.010 -13.413  1.00  0.00     0.210 HD
ENDBRANCH  23  29
BRANCH  26  31
HETATM   31  O4  UNL     1     -22.875  23.062 -13.410  1.00  0.00    -0.393 OA
ATOM     32  H4  UNL     1     -22.479  22.492 -14.058  1.00  0.00     0.210 HD
ENDBRANCH  26  31
BRANCH  27  33
HETATM   33  O5  UNL     1     -24.836  25.287 -15.379  1.00  0.00    -0.387 OA
ATOM     34  H5  UNL     1     -25.188  25.028 -16.223  1.00  0.00     0.210 HD
ENDBRANCH  27  33
ENDBRANCH  21  22
ENDBRANCH   1  21
TORSDOF 12
ENDMDL
