MODEL 1
REMARK VINA RESULT: -7.404325552      0.000      0.000
REMARK  11 active torsions:
REMARK  status: ('A' for Active; 'I' for Inactive)
REMARK    1  A    between atoms: C2_2  and  C3_3 
REMARK    2  A    between atoms: C9_12  and  C10_13 
REMARK    3  A    between atoms: C10_13  and  C11_14 
REMARK    4  A    between atoms: C11_14  and  O1_15 
REMARK    5  A    between atoms: C11_14  and  C12_17 
REMARK    6  A    between atoms: C12_17  and  C13_18 
REMARK    7  A    between atoms: C13_18  and  C15_20 
REMARK    8  A    between atoms: C16_21  and  O2_22 
REMARK    9  A    between atoms: C17_25  and  O4_26 
REMARK   10  A    between atoms: C18_28  and  C19_29 
REMARK   11  A    between atoms: C19_29  and  C20_30 
ROOT
HETATM    1  C11 UNL     1     -20.458  24.984 -17.443  1.00  0.00     0.119 C 
ENDROOT
BRANCH   1   2
HETATM    2  C10 UNL     1     -20.417  26.452 -17.646  1.00  0.00     0.036 C 
BRANCH   2   3
HETATM    3  C9  UNL     1     -19.434  27.170 -16.750  1.00  0.00    -0.009 C 
HETATM    4  C8  UNL     1     -18.899  26.254 -15.665  1.00  0.00     0.039 C 
HETATM    5  C7  UNL     1     -18.414  27.228 -14.592  1.00  0.00     0.198 C 
HETATM    6  C3  UNL     1     -19.385  28.354 -14.634  1.00  0.00     0.005 C 
HETATM    7  N1  UNL     1     -17.070  27.624 -14.963  1.00  0.00    -0.067 N 
HETATM    8  C4  UNL     1     -18.702  29.681 -14.430  1.00  0.00    -0.017 C 
HETATM    9  C23 UNL     1     -20.077  28.299 -15.957  1.00  0.00     0.020 C 
HETATM   10  C5  UNL     1     -17.419  29.810 -14.155  1.00  0.00    -0.003 C 
HETATM   11  C6  UNL     1     -16.560  28.600 -14.032  1.00  0.00     0.260 C 
ATOM     12  H12 UNL     1     -17.024  27.956 -15.927  1.00  0.00     0.277 HD
ATOM     13  H11 UNL     1     -16.448  26.821 -15.051  1.00  0.00     0.277 HD
BRANCH   6  14
HETATM   14  C2  UNL     1     -20.410  28.265 -13.505  1.00  0.00     0.011 C 
HETATM   15  C1  UNL     1     -19.828  27.620 -12.280  1.00  0.00     0.006 C 
ENDBRANCH   6  14
ENDBRANCH   2   3
ENDBRANCH   1   2
BRANCH   1  16
HETATM   16  O1  UNL     1     -19.728  24.210 -18.320  1.00  0.00    -0.396 OA
ATOM     17  H1  UNL     1     -18.922  23.829 -17.991  1.00  0.00     0.210 HD
ENDBRANCH   1  16
BRANCH   1  18
HETATM   18  C12 UNL     1     -21.826  24.443 -17.100  1.00  0.00     0.041 C 
BRANCH  18  19
HETATM   19  C13 UNL     1     -22.855  25.426 -16.810  1.00  0.00     0.022 C 
HETATM   20  C14 UNL     1     -24.221  25.075 -17.441  1.00  0.00     0.015 C 
BRANCH  19  21
HETATM   21  C15 UNL     1     -23.171  25.796 -15.435  1.00  0.00     0.015 A 
HETATM   22  C16 UNL     1     -23.890  27.003 -15.199  1.00  0.00     0.193 A 
HETATM   23  O3  UNL     1     -24.102  27.103 -13.925  1.00  0.00    -0.264 OA
HETATM   24  C17 UNL     1     -23.595  26.085 -13.295  1.00  0.00     0.192 A 
HETATM   25  C18 UNL     1     -22.982  25.211 -14.221  1.00  0.00     0.012 A 
BRANCH  22  26
HETATM   26  O2  UNL     1     -24.311  27.936 -16.132  1.00  0.00    -0.340 OA
ATOM     27  H2  UNL     1     -25.201  28.212 -16.319  1.00  0.00     0.220 HD
ENDBRANCH  22  26
BRANCH  24  28
HETATM   28  O4  UNL     1     -23.615  25.827 -11.913  1.00  0.00    -0.340 OA
ATOM     29  H4  UNL     1     -23.818  25.008 -11.474  1.00  0.00     0.220 HD
ENDBRANCH  24  28
BRANCH  25  30
HETATM   30  C19 UNL     1     -22.273  23.985 -13.863  1.00  0.00     0.048 C 
BRANCH  30  31
HETATM   31  C20 UNL     1     -20.804  24.137 -13.555  1.00  0.00    -0.018 C 
HETATM   32  C21 UNL     1     -20.013  22.970 -14.163  1.00  0.00     0.010 C 
HETATM   33  C22 UNL     1     -20.544  24.028 -12.059  1.00  0.00     0.010 C 
ENDBRANCH  30  31
ENDBRANCH  25  30
ENDBRANCH  19  21
ENDBRANCH  18  19
ENDBRANCH   1  18
TORSDOF 11
ENDMDL
MODEL 2
REMARK VINA RESULT: -7.214990129      2.642      6.737
REMARK  11 active torsions:
REMARK  status: ('A' for Active; 'I' for Inactive)
REMARK    1  A    between atoms: C2_2  and  C3_3 
REMARK    2  A    between atoms: C9_12  and  C10_13 
REMARK    3  A    between atoms: C10_13  and  C11_14 
REMARK    4  A    between atoms: C11_14  and  O1_15 
REMARK    5  A    between atoms: C11_14  and  C12_17 
REMARK    6  A    between atoms: C12_17  and  C13_18 
REMARK    7  A    between atoms: C13_18  and  C15_20 
REMARK    8  A    between atoms: C16_21  and  O2_22 
REMARK    9  A    between atoms: C17_25  and  O4_26 
REMARK   10  A    between atoms: C18_28  and  C19_29 
REMARK   11  A    between atoms: C19_29  and  C20_30 
ROOT
HETATM    1  C11 UNL     1     -21.057  25.573 -12.491  1.00  0.00     0.119 C 
ENDROOT
BRANCH   1   2
HETATM    2  C10 UNL     1     -22.526  25.392 -12.415  1.00  0.00     0.036 C 
BRANCH   2   3
HETATM    3  C9  UNL     1     -23.087  24.463 -13.468  1.00  0.00    -0.009 C 
HETATM    4  C8  UNL     1     -21.989  23.657 -14.140  1.00  0.00     0.039 C 
HETATM    5  C7  UNL     1     -22.622  23.243 -15.468  1.00  0.00     0.198 C 
HETATM    6  C3  UNL     1     -23.469  24.400 -15.863  1.00  0.00     0.005 C 
HETATM    7  N1  UNL     1     -23.389  22.041 -15.209  1.00  0.00    -0.067 N 
HETATM    8  C4  UNL     1     -24.759  23.950 -16.495  1.00  0.00    -0.017 C 
HETATM    9  C23 UNL     1     -23.722  25.210 -14.633  1.00  0.00     0.020 C 
HETATM   10  C5  UNL     1     -25.051  22.690 -16.748  1.00  0.00    -0.003 C 
HETATM   11  C6  UNL     1     -24.076  21.618 -16.403  1.00  0.00     0.260 C 
ATOM     12  H12 UNL     1     -24.029  22.160 -14.423  1.00  0.00     0.277 HD
ATOM     13  H11 UNL     1     -22.810  21.297 -14.820  1.00  0.00     0.277 HD
BRANCH   6  14
HETATM   14  C2  UNL     1     -22.794  25.264 -16.926  1.00  0.00     0.011 C 
HETATM   15  C1  UNL     1     -23.607  26.485 -17.245  1.00  0.00     0.006 C 
ENDBRANCH   6  14
ENDBRANCH   2   3
ENDBRANCH   1   2
BRANCH   1  16
HETATM   16  O1  UNL     1     -20.324  25.211 -11.380  1.00  0.00    -0.396 OA
ATOM     17  H1  UNL     1     -20.095  25.903 -10.771  1.00  0.00     0.210 HD
ENDBRANCH   1  16
BRANCH   1  18
HETATM   18  C12 UNL     1     -20.624  26.862 -13.150  1.00  0.00     0.041 C 
BRANCH  18  19
HETATM   19  C13 UNL     1     -20.253  26.776 -14.551  1.00  0.00     0.022 C 
HETATM   20  C14 UNL     1     -20.752  27.979 -15.383  1.00  0.00     0.015 C 
BRANCH  19  21
HETATM   21  C15 UNL     1     -18.860  26.610 -14.949  1.00  0.00     0.015 A 
HETATM   22  C16 UNL     1     -18.531  25.589 -15.887  1.00  0.00     0.193 A 
HETATM   23  O3  UNL     1     -17.261  25.657 -16.128  1.00  0.00    -0.264 OA
HETATM   24  C17 UNL     1     -16.716  26.619 -15.446  1.00  0.00     0.192 A 
HETATM   25  C18 UNL     1     -17.701  27.267 -14.667  1.00  0.00     0.012 A 
BRANCH  22  26
HETATM   26  O2  UNL     1     -19.383  24.663 -16.465  1.00  0.00    -0.340 OA
ATOM     27  H2  UNL     1     -19.242  23.729 -16.572  1.00  0.00     0.220 HD
ENDBRANCH  22  26
BRANCH  24  28
HETATM   28  O4  UNL     1     -15.366  27.013 -15.433  1.00  0.00    -0.340 OA
ATOM     29  H4  UNL     1     -14.596  26.461 -15.349  1.00  0.00     0.220 HD
ENDBRANCH  24  28
BRANCH  25  30
HETATM   30  C19 UNL     1     -17.440  28.368 -13.744  1.00  0.00     0.048 C 
BRANCH  30  31
HETATM   31  C20 UNL     1     -16.987  29.663 -14.371  1.00  0.00    -0.018 C 
HETATM   32  C21 UNL     1     -16.602  30.673 -13.280  1.00  0.00     0.010 C 
HETATM   33  C22 UNL     1     -18.130  30.336 -15.119  1.00  0.00     0.010 C 
ENDBRANCH  30  31
ENDBRANCH  25  30
ENDBRANCH  19  21
ENDBRANCH  18  19
ENDBRANCH   1  18
TORSDOF 11
ENDMDL
MODEL 3
REMARK VINA RESULT: -7.150039104      1.323      3.002
REMARK  11 active torsions:
REMARK  status: ('A' for Active; 'I' for Inactive)
REMARK    1  A    between atoms: C2_2  and  C3_3 
REMARK    2  A    between atoms: C9_12  and  C10_13 
REMARK    3  A    between atoms: C10_13  and  C11_14 
REMARK    4  A    between atoms: C11_14  and  O1_15 
REMARK    5  A    between atoms: C11_14  and  C12_17 
REMARK    6  A    between atoms: C12_17  and  C13_18 
REMARK    7  A    between atoms: C13_18  and  C15_20 
REMARK    8  A    between atoms: C16_21  and  O2_22 
REMARK    9  A    between atoms: C17_25  and  O4_26 
REMARK   10  A    between atoms: C18_28  and  C19_29 
REMARK   11  A    between atoms: C19_29  and  C20_30 
ROOT
HETATM    1  C11 UNL     1     -19.629  23.866 -16.440  1.00  0.00     0.119 C 
ENDROOT
BRANCH   1   2
HETATM    2  C10 UNL     1     -20.004  25.181 -17.011  1.00  0.00     0.036 C 
BRANCH   2   3
HETATM    3  C9  UNL     1     -19.258  26.349 -16.407  1.00  0.00    -0.009 C 
HETATM    4  C8  UNL     1     -18.521  25.945 -15.143  1.00  0.00     0.039 C 
HETATM    5  C7  UNL     1     -18.326  27.273 -14.412  1.00  0.00     0.198 C 
HETATM    6  C3  UNL     1     -19.556  28.055 -14.708  1.00  0.00     0.005 C 
HETATM    7  N1  UNL     1     -17.125  27.876 -14.955  1.00  0.00    -0.067 N 
HETATM    8  C4  UNL     1     -19.246  29.513 -14.919  1.00  0.00    -0.017 C 
HETATM    9  C23 UNL     1     -20.186  27.454 -15.922  1.00  0.00     0.020 C 
HETATM   10  C5  UNL     1     -18.046  30.037 -14.766  1.00  0.00    -0.003 C 
HETATM   11  C6  UNL     1     -16.904  29.172 -14.363  1.00  0.00     0.260 C 
ATOM     12  H12 UNL     1     -17.151  27.923 -15.975  1.00  0.00     0.277 HD
ATOM     13  H11 UNL     1     -16.314  27.267 -14.853  1.00  0.00     0.277 HD
BRANCH   6  14
HETATM   14  C2  UNL     1     -20.541  28.030 -13.542  1.00  0.00     0.011 C 
HETATM   15  C1  UNL     1     -19.839  27.833 -12.229  1.00  0.00     0.006 C 
ENDBRANCH   6  14
ENDBRANCH   2   3
ENDBRANCH   1   2
BRANCH   1  16
HETATM   16  O1  UNL     1     -19.110  22.931 -17.311  1.00  0.00    -0.396 OA
ATOM     17  H1  UNL     1     -18.513  23.248 -17.978  1.00  0.00     0.210 HD
ENDBRANCH   1  16
BRANCH   1  18
HETATM   18  C12 UNL     1     -20.615  23.322 -15.432  1.00  0.00     0.041 C 
BRANCH  18  19
HETATM   19  C13 UNL     1     -22.013  23.638 -15.664  1.00  0.00     0.022 C 
HETATM   20  C14 UNL     1     -22.933  22.399 -15.580  1.00  0.00     0.015 C 
BRANCH  19  21
HETATM   21  C15 UNL     1     -22.694  24.653 -14.868  1.00  0.00     0.015 A 
HETATM   22  C16 UNL     1     -22.445  24.706 -13.466  1.00  0.00     0.193 A 
HETATM   23  O3  UNL     1     -23.108  25.704 -12.977  1.00  0.00    -0.264 OA
HETATM   24  C17 UNL     1     -23.772  26.316 -13.912  1.00  0.00     0.192 A 
HETATM   25  C18 UNL     1     -23.541  25.679 -15.152  1.00  0.00     0.012 A 
BRANCH  22  26
HETATM   26  O2  UNL     1     -21.643  23.863 -12.715  1.00  0.00    -0.340 OA
ATOM     27  H2  UNL     1     -21.870  23.407 -11.912  1.00  0.00     0.220 HD
ENDBRANCH  22  26
BRANCH  24  28
HETATM   28  O4  UNL     1     -24.607  27.440 -13.786  1.00  0.00    -0.340 OA
ATOM     29  H4  UNL     1     -25.556  27.473 -13.835  1.00  0.00     0.220 HD
ENDBRANCH  24  28
BRANCH  25  30
HETATM   30  C19 UNL     1     -24.160  26.072 -16.416  1.00  0.00     0.048 C 
BRANCH  30  31
HETATM   31  C20 UNL     1     -23.319  26.935 -17.323  1.00  0.00    -0.018 C 
HETATM   32  C21 UNL     1     -23.773  28.400 -17.230  1.00  0.00     0.010 C 
HETATM   33  C22 UNL     1     -23.536  26.567 -18.784  1.00  0.00     0.010 C 
ENDBRANCH  30  31
ENDBRANCH  25  30
ENDBRANCH  19  21
ENDBRANCH  18  19
ENDBRANCH   1  18
TORSDOF 11
ENDMDL
MODEL 4
REMARK VINA RESULT: -7.012291417      2.754      6.989
REMARK  11 active torsions:
REMARK  status: ('A' for Active; 'I' for Inactive)
REMARK    1  A    between atoms: C2_2  and  C3_3 
REMARK    2  A    between atoms: C9_12  and  C10_13 
REMARK    3  A    between atoms: C10_13  and  C11_14 
REMARK    4  A    between atoms: C11_14  and  O1_15 
REMARK    5  A    between atoms: C11_14  and  C12_17 
REMARK    6  A    between atoms: C12_17  and  C13_18 
REMARK    7  A    between atoms: C13_18  and  C15_20 
REMARK    8  A    between atoms: C16_21  and  O2_22 
REMARK    9  A    between atoms: C17_25  and  O4_26 
REMARK   10  A    between atoms: C18_28  and  C19_29 
REMARK   11  A    between atoms: C19_29  and  C20_30 
ROOT
HETATM    1  C11 UNL     1     -20.117  26.588 -12.613  1.00  0.00     0.119 C 
ENDROOT
BRANCH   1   2
HETATM    2  C10 UNL     1     -20.900  25.356 -12.355  1.00  0.00     0.036 C 
BRANCH   2   3
HETATM    3  C9  UNL     1     -21.907  25.030 -13.435  1.00  0.00    -0.009 C 
HETATM    4  C8  UNL     1     -23.228  25.738 -13.197  1.00  0.00     0.039 C 
HETATM    5  C7  UNL     1     -24.225  24.898 -13.993  1.00  0.00     0.198 C 
HETATM    6  C3  UNL     1     -23.741  23.498 -13.851  1.00  0.00     0.005 C 
HETATM    7  N1  UNL     1     -24.179  25.378 -15.360  1.00  0.00    -0.067 N 
HETATM    8  C4  UNL     1     -23.913  22.722 -15.130  1.00  0.00    -0.017 C 
HETATM    9  C23 UNL     1     -22.305  23.560 -13.444  1.00  0.00     0.020 C 
HETATM   10  C5  UNL     1     -24.504  23.202 -16.205  1.00  0.00    -0.003 C 
HETATM   11  C6  UNL     1     -25.047  24.589 -16.198  1.00  0.00     0.260 C 
ATOM     12  H12 UNL     1     -23.225  25.406 -15.721  1.00  0.00     0.277 HD
ATOM     13  H11 UNL     1     -24.393  26.373 -15.420  1.00  0.00     0.277 HD
BRANCH   6  14
HETATM   14  C2  UNL     1     -24.545  22.720 -12.811  1.00  0.00     0.011 C 
HETATM   15  C1  UNL     1     -25.393  23.633 -11.972  1.00  0.00     0.006 C 
ENDBRANCH   6  14
ENDBRANCH   2   3
ENDBRANCH   1   2
BRANCH   1  16
HETATM   16  O1  UNL     1     -19.929  27.444 -11.548  1.00  0.00    -0.396 OA
ATOM     17  H1  UNL     1     -20.709  27.800 -11.139  1.00  0.00     0.210 HD
ENDBRANCH   1  16
BRANCH   1  18
HETATM   18  C12 UNL     1     -20.436  27.262 -13.927  1.00  0.00     0.041 C 
BRANCH  18  19
HETATM   19  C13 UNL     1     -19.647  26.847 -15.073  1.00  0.00     0.022 C 
HETATM   20  C14 UNL     1     -20.009  27.615 -16.364  1.00  0.00     0.015 C 
BRANCH  19  21
HETATM   21  C15 UNL     1     -18.190  26.871 -15.029  1.00  0.00     0.015 A 
HETATM   22  C16 UNL     1     -17.467  25.827 -15.675  1.00  0.00     0.193 A 
HETATM   23  O3  UNL     1     -16.203  26.077 -15.552  1.00  0.00    -0.264 OA
HETATM   24  C17 UNL     1     -16.016  27.179 -14.890  1.00  0.00     0.192 A 
HETATM   25  C18 UNL     1     -17.264  27.733 -14.528  1.00  0.00     0.012 A 
BRANCH  22  26
HETATM   26  O2  UNL     1     -17.981  24.720 -16.330  1.00  0.00    -0.340 OA
ATOM     27  H2  UNL     1     -18.894  24.499 -16.471  1.00  0.00     0.220 HD
ENDBRANCH  22  26
BRANCH  24  28
HETATM   28  O4  UNL     1     -14.794  27.788 -14.551  1.00  0.00    -0.340 OA
ATOM     29  H4  UNL     1     -14.649  28.671 -14.230  1.00  0.00     0.220 HD
ENDBRANCH  24  28
BRANCH  25  30
HETATM   30  C19 UNL     1     -17.435  28.951 -13.739  1.00  0.00     0.048 C 
BRANCH  30  31
HETATM   31  C20 UNL     1     -17.187  30.249 -14.465  1.00  0.00    -0.018 C 
HETATM   32  C21 UNL     1     -16.746  31.335 -13.473  1.00  0.00     0.010 C 
HETATM   33  C22 UNL     1     -18.475  30.793 -15.069  1.00  0.00     0.010 C 
ENDBRANCH  30  31
ENDBRANCH  25  30
ENDBRANCH  19  21
ENDBRANCH  18  19
ENDBRANCH   1  18
TORSDOF 11
ENDMDL
MODEL 5
REMARK VINA RESULT: -6.977355998      2.188      4.318
REMARK  11 active torsions:
REMARK  status: ('A' for Active; 'I' for Inactive)
REMARK    1  A    between atoms: C2_2  and  C3_3 
REMARK    2  A    between atoms: C9_12  and  C10_13 
REMARK    3  A    between atoms: C10_13  and  C11_14 
REMARK    4  A    between atoms: C11_14  and  O1_15 
REMARK    5  A    between atoms: C11_14  and  C12_17 
REMARK    6  A    between atoms: C12_17  and  C13_18 
REMARK    7  A    between atoms: C13_18  and  C15_20 
REMARK    8  A    between atoms: C16_21  and  O2_22 
REMARK    9  A    between atoms: C17_25  and  O4_26 
REMARK   10  A    between atoms: C18_28  and  C19_29 
REMARK   11  A    between atoms: C19_29  and  C20_30 
ROOT
HETATM    1  C11 UNL     1     -20.412  23.376 -13.756  1.00  0.00     0.119 C 
ENDROOT
BRANCH   1   2
HETATM    2  C10 UNL     1     -19.995  24.672 -13.170  1.00  0.00     0.036 C 
BRANCH   2   3
HETATM    3  C9  UNL     1     -19.925  25.805 -14.169  1.00  0.00    -0.009 C 
HETATM    4  C8  UNL     1     -18.605  25.805 -14.918  1.00  0.00     0.039 C 
HETATM    5  C7  UNL     1     -18.486  27.245 -15.419  1.00  0.00     0.198 C 
HETATM    6  C3  UNL     1     -19.081  28.073 -14.336  1.00  0.00     0.005 C 
HETATM    7  N1  UNL     1     -19.227  27.317 -16.662  1.00  0.00    -0.067 N 
HETATM    8  C4  UNL     1     -19.875  29.224 -14.895  1.00  0.00    -0.017 C 
HETATM    9  C23 UNL     1     -19.941  27.176 -13.507  1.00  0.00     0.020 C 
HETATM   10  C5  UNL     1     -19.948  29.508 -16.180  1.00  0.00    -0.003 C 
HETATM   11  C6  UNL     1     -19.221  28.667 -17.170  1.00  0.00     0.260 C 
ATOM     12  H12 UNL     1     -20.175  26.952 -16.562  1.00  0.00     0.277 HD
ATOM     13  H11 UNL     1     -18.880  26.650 -17.351  1.00  0.00     0.277 HD
BRANCH   6  14
HETATM   14  C2  UNL     1     -18.011  28.724 -13.463  1.00  0.00     0.011 C 
HETATM   15  C1  UNL     1     -16.734  28.942 -14.223  1.00  0.00     0.006 C 
ENDBRANCH   6  14
ENDBRANCH   2   3
ENDBRANCH   1   2
BRANCH   1  16
HETATM   16  O1  UNL     1     -19.431  22.617 -14.359  1.00  0.00    -0.396 OA
ATOM     17  H1  UNL     1     -19.038  22.969 -15.148  1.00  0.00     0.210 HD
ENDBRANCH   1  16
BRANCH   1  18
HETATM   18  C12 UNL     1     -21.728  23.426 -14.499  1.00  0.00     0.041 C 
BRANCH  18  19
HETATM   19  C13 UNL     1     -21.697  23.022 -15.893  1.00  0.00     0.022 C 
HETATM   20  C14 UNL     1     -23.057  22.488 -16.397  1.00  0.00     0.015 C 
BRANCH  19  21
HETATM   21  C15 UNL     1     -21.260  23.947 -16.932  1.00  0.00     0.015 A 
HETATM   22  C16 UNL     1     -20.045  23.675 -17.625  1.00  0.00     0.193 A 
HETATM   23  O3  UNL     1     -19.883  24.590 -18.527  1.00  0.00    -0.264 OA
HETATM   24  C17 UNL     1     -20.866  25.439 -18.500  1.00  0.00     0.192 A 
HETATM   25  C18 UNL     1     -21.783  25.073 -17.490  1.00  0.00     0.012 A 
BRANCH  22  26
HETATM   26  O2  UNL     1     -19.161  22.632 -17.408  1.00  0.00    -0.340 OA
ATOM     27  H2  UNL     1     -18.241  22.687 -17.178  1.00  0.00     0.220 HD
ENDBRANCH  22  26
BRANCH  24  28
HETATM   28  O4  UNL     1     -21.056  26.568 -19.317  1.00  0.00    -0.340 OA
ATOM     29  H4  UNL     1     -21.484  27.387 -19.093  1.00  0.00     0.220 HD
ENDBRANCH  24  28
BRANCH  25  30
HETATM   30  C19 UNL     1     -22.988  25.825 -17.148  1.00  0.00     0.048 C 
BRANCH  30  31
HETATM   31  C20 UNL     1     -22.783  27.039 -16.276  1.00  0.00    -0.018 C 
HETATM   32  C21 UNL     1     -23.481  26.843 -14.922  1.00  0.00     0.010 C 
HETATM   33  C22 UNL     1     -23.463  28.263 -16.875  1.00  0.00     0.010 C 
ENDBRANCH  30  31
ENDBRANCH  25  30
ENDBRANCH  19  21
ENDBRANCH  18  19
ENDBRANCH   1  18
TORSDOF 11
ENDMDL
