MODEL 1
REMARK VINA RESULT: -5.854105583      0.000      0.000
REMARK  5 active torsions:
REMARK  status: ('A' for Active; 'I' for Inactive)
REMARK    1  A    between atoms: C2_2  and  N1_4 
REMARK    2  A    between atoms: N1_4  and  C4_6 
REMARK    3  A    between atoms: C4_6  and  N2_8 
REMARK    4  A    between atoms: N2_8  and  O1_10 
REMARK    5  A    between atoms: O1_10  and  C5_11 
ROOT
HETATM    1  C5  UNL     1       4.465   4.457  22.543  1.00  0.00     0.191 C 
HETATM    2  C6  UNL     1       2.999   4.271  22.803  1.00  0.00     0.038 C 
HETATM    3  C7  UNL     1       2.357   3.799  21.521  1.00  0.00     0.003 C 
HETATM    4  C8  UNL     1       2.543   4.832  20.461  1.00  0.00     0.004 C 
HETATM    5  C9  UNL     1       3.392   5.994  20.868  1.00  0.00     0.045 C 
HETATM    6  C10 UNL     1       4.659   5.606  21.575  1.00  0.00     0.107 C 
HETATM    7  N3  UNL     1       5.736   5.339  20.732  1.00  0.00    -0.381 N 
ATOM      8  H3  UNL     1       5.783   4.479  20.184  1.00  0.00     0.160 HD
HETATM    9  C11 UNL     1       6.730   6.281  20.671  1.00  0.00     0.067 C 
HETATM   10  C12 UNL     1       6.809   7.198  21.819  1.00  0.00     0.120 C 
HETATM   11  S2  UNL     1       5.168   7.047  22.582  1.00  0.00    -0.130 SA
ENDROOT
BRANCH   1  12
HETATM   12  O1  UNL     1       5.108   4.675  23.757  1.00  0.00    -0.269 OA
BRANCH  12  13
HETATM   13  N2  UNL     1       5.790   3.579  24.168  1.00  0.00    -0.241 N 
ATOM     14  H2  UNL     1       5.415   2.657  23.941  1.00  0.00     0.197 HD
BRANCH  13  15
HETATM   15  C4  UNL     1       7.001   3.656  24.897  1.00  0.00     0.192 C 
HETATM   16  S1  UNL     1       8.123   4.735  24.421  1.00  0.00    -0.039 SA
BRANCH  15  17
HETATM   17  N1  UNL     1       7.214   2.818  25.999  1.00  0.00    -0.362 N 
ATOM     18  H1  UNL     1       6.539   2.072  26.169  1.00  0.00     0.162 HD
BRANCH  17  19
HETATM   19  C2  UNL     1       8.328   2.942  26.908  1.00  0.00     0.076 C 
HETATM   20  C1  UNL     1       7.814   2.961  28.317  1.00  0.00     0.032 C 
HETATM   21  C3  UNL     1       9.382   1.891  26.686  1.00  0.00     0.032 C 
ENDBRANCH  17  19
ENDBRANCH  15  17
ENDBRANCH  13  15
ENDBRANCH  12  13
ENDBRANCH   1  12
TORSDOF 5
ENDMDL
MODEL 2
REMARK VINA RESULT: -5.814458954      1.732      2.162
REMARK  5 active torsions:
REMARK  status: ('A' for Active; 'I' for Inactive)
REMARK    1  A    between atoms: C2_2  and  N1_4 
REMARK    2  A    between atoms: N1_4  and  C4_6 
REMARK    3  A    between atoms: C4_6  and  N2_8 
REMARK    4  A    between atoms: N2_8  and  O1_10 
REMARK    5  A    between atoms: O1_10  and  C5_11 
ROOT
HETATM    1  C5  UNL     1       4.258   4.590  22.359  1.00  0.00     0.191 C 
HETATM    2  C6  UNL     1       2.771   4.495  22.535  1.00  0.00     0.038 C 
HETATM    3  C7  UNL     1       2.174   4.066  21.217  1.00  0.00     0.003 C 
HETATM    4  C8  UNL     1       2.485   5.088  20.174  1.00  0.00     0.004 C 
HETATM    5  C9  UNL     1       3.380   6.193  20.634  1.00  0.00     0.045 C 
HETATM    6  C10 UNL     1       4.578   5.725  21.410  1.00  0.00     0.107 C 
HETATM    7  N3  UNL     1       5.683   5.392  20.627  1.00  0.00    -0.381 N 
ATOM      8  H3  UNL     1       5.706   4.533  20.079  1.00  0.00     0.160 HD
HETATM    9  C11 UNL     1       6.735   6.270  20.627  1.00  0.00     0.067 C 
HETATM   10  C12 UNL     1       6.806   7.179  21.782  1.00  0.00     0.120 C 
HETATM   11  S2  UNL     1       5.118   7.130  22.451  1.00  0.00    -0.130 SA
ENDROOT
BRANCH   1  12
HETATM   12  O1  UNL     1       4.844   4.765  23.609  1.00  0.00    -0.269 OA
BRANCH  12  13
HETATM   13  N2  UNL     1       5.577   3.686  23.975  1.00  0.00    -0.241 N 
ATOM     14  H2  UNL     1       5.160   2.759  23.884  1.00  0.00     0.197 HD
BRANCH  13  15
HETATM   15  C4  UNL     1       6.896   3.789  24.479  1.00  0.00     0.192 C 
HETATM   16  S1  UNL     1       7.234   3.087  25.908  1.00  0.00    -0.039 SA
BRANCH  15  17
HETATM   17  N1  UNL     1       7.874   4.481  23.755  1.00  0.00    -0.362 N 
ATOM     18  H1  UNL     1       7.698   4.662  22.766  1.00  0.00     0.162 HD
BRANCH  17  19
HETATM   19  C2  UNL     1       9.115   4.955  24.317  1.00  0.00     0.076 C 
HETATM   20  C1  UNL     1      10.241   4.616  23.386  1.00  0.00     0.032 C 
HETATM   21  C3  UNL     1       9.074   6.416  24.673  1.00  0.00     0.032 C 
ENDBRANCH  17  19
ENDBRANCH  15  17
ENDBRANCH  13  15
ENDBRANCH  12  13
ENDBRANCH   1  12
TORSDOF 5
ENDMDL
MODEL 3
REMARK VINA RESULT: -5.746230768      2.508      6.430
REMARK  5 active torsions:
REMARK  status: ('A' for Active; 'I' for Inactive)
REMARK    1  A    between atoms: C2_2  and  N1_4 
REMARK    2  A    between atoms: N1_4  and  C4_6 
REMARK    3  A    between atoms: C4_6  and  N2_8 
REMARK    4  A    between atoms: N2_8  and  O1_10 
REMARK    5  A    between atoms: O1_10  and  C5_11 
ROOT
HETATM    1  C5  UNL     1       8.239   4.301  25.352  1.00  0.00     0.191 C 
HETATM    2  C6  UNL     1       8.171   3.012  26.117  1.00  0.00     0.038 C 
HETATM    3  C7  UNL     1       8.619   3.288  27.532  1.00  0.00     0.003 C 
HETATM    4  C8  UNL     1      10.027   3.783  27.521  1.00  0.00     0.004 C 
HETATM    5  C9  UNL     1      10.600   3.995  26.156  1.00  0.00     0.045 C 
HETATM    6  C10 UNL     1       9.685   4.727  25.217  1.00  0.00     0.107 C 
HETATM    7  N3  UNL     1       9.779   6.117  25.281  1.00  0.00    -0.381 N 
ATOM      8  H3  UNL     1       9.388   6.641  26.064  1.00  0.00     0.160 HD
HETATM    9  C11 UNL     1      10.418   6.748  24.246  1.00  0.00     0.067 C 
HETATM   10  C12 UNL     1      10.495   5.989  22.988  1.00  0.00     0.120 C 
HETATM   11  S2  UNL     1      10.198   4.277  23.519  1.00  0.00    -0.130 SA
ENDROOT
BRANCH   1  12
HETATM   12  O1  UNL     1       7.624   4.119  24.117  1.00  0.00    -0.269 OA
BRANCH  12  13
HETATM   13  N2  UNL     1       6.626   5.014  23.917  1.00  0.00    -0.241 N 
ATOM     14  H2  UNL     1       6.847   6.009  23.956  1.00  0.00     0.197 HD
BRANCH  13  15
HETATM   15  C4  UNL     1       5.290   4.626  23.655  1.00  0.00     0.192 C 
HETATM   16  S1  UNL     1       4.513   3.727  24.767  1.00  0.00    -0.039 SA
BRANCH  15  17
HETATM   17  N1  UNL     1       4.665   5.014  22.463  1.00  0.00    -0.362 N 
ATOM     18  H1  UNL     1       5.251   5.151  21.639  1.00  0.00     0.162 HD
BRANCH  17  19
HETATM   19  C2  UNL     1       3.246   5.233  22.326  1.00  0.00     0.076 C 
HETATM   20  C1  UNL     1       3.006   6.639  21.862  1.00  0.00     0.032 C 
HETATM   21  C3  UNL     1       2.579   4.209  21.449  1.00  0.00     0.032 C 
ENDBRANCH  17  19
ENDBRANCH  15  17
ENDBRANCH  13  15
ENDBRANCH  12  13
ENDBRANCH   1  12
TORSDOF 5
ENDMDL
MODEL 4
REMARK VINA RESULT: -5.717162060      3.129      4.412
REMARK  5 active torsions:
REMARK  status: ('A' for Active; 'I' for Inactive)
REMARK    1  A    between atoms: C2_2  and  N1_4 
REMARK    2  A    between atoms: N1_4  and  C4_6 
REMARK    3  A    between atoms: C4_6  and  N2_8 
REMARK    4  A    between atoms: N2_8  and  O1_10 
REMARK    5  A    between atoms: O1_10  and  C5_11 
ROOT
HETATM    1  C5  UNL     1       5.548   5.516  22.357  1.00  0.00     0.191 C 
HETATM    2  C6  UNL     1       5.893   5.309  23.802  1.00  0.00     0.038 C 
HETATM    3  C7  UNL     1       5.747   3.837  24.107  1.00  0.00     0.003 C 
HETATM    4  C8  UNL     1       4.335   3.417  23.871  1.00  0.00     0.004 C 
HETATM    5  C9  UNL     1       3.458   4.483  23.296  1.00  0.00     0.045 C 
HETATM    6  C10 UNL     1       4.076   5.229  22.148  1.00  0.00     0.107 C 
HETATM    7  N3  UNL     1       3.880   4.639  20.900  1.00  0.00    -0.381 N 
ATOM      8  H3  UNL     1       4.387   3.799  20.623  1.00  0.00     0.160 HD
HETATM    9  C11 UNL     1       2.976   5.238  20.062  1.00  0.00     0.067 C 
HETATM   10  C12 UNL     1       2.688   6.653  20.342  1.00  0.00     0.120 C 
HETATM   11  S2  UNL     1       3.241   6.855  22.060  1.00  0.00    -0.130 SA
ENDROOT
BRANCH   1  12
HETATM   12  O1  UNL     1       5.887   6.817  22.000  1.00  0.00    -0.269 OA
BRANCH  12  13
HETATM   13  N2  UNL     1       6.813   6.842  21.011  1.00  0.00    -0.241 N 
ATOM     14  H2  UNL     1       6.566   6.452  20.101  1.00  0.00     0.197 HD
BRANCH  13  15
HETATM   15  C4  UNL     1       8.109   7.384  21.186  1.00  0.00     0.192 C 
HETATM   16  S1  UNL     1       8.619   8.521  20.139  1.00  0.00    -0.039 SA
BRANCH  15  17
HETATM   17  N1  UNL     1       8.921   6.943  22.238  1.00  0.00    -0.362 N 
ATOM     18  H1  UNL     1       9.202   5.962  22.246  1.00  0.00     0.162 HD
BRANCH  17  19
HETATM   19  C2  UNL     1       9.387   7.787  23.312  1.00  0.00     0.076 C 
HETATM   20  C1  UNL     1       9.149   7.095  24.622  1.00  0.00     0.032 C 
HETATM   21  C3  UNL     1      10.816   8.222  23.134  1.00  0.00     0.032 C 
ENDBRANCH  17  19
ENDBRANCH  15  17
ENDBRANCH  13  15
ENDBRANCH  12  13
ENDBRANCH   1  12
TORSDOF 5
ENDMDL
MODEL 5
REMARK VINA RESULT: -5.688669625      2.234      6.355
REMARK  5 active torsions:
REMARK  status: ('A' for Active; 'I' for Inactive)
REMARK    1  A    between atoms: C2_2  and  N1_4 
REMARK    2  A    between atoms: N1_4  and  C4_6 
REMARK    3  A    between atoms: C4_6  and  N2_8 
REMARK    4  A    between atoms: N2_8  and  O1_10 
REMARK    5  A    between atoms: O1_10  and  C5_11 
ROOT
HETATM    1  C5  UNL     1       7.905   4.286  25.327  1.00  0.00     0.191 C 
HETATM    2  C6  UNL     1       7.779   2.962  26.020  1.00  0.00     0.038 C 
HETATM    3  C7  UNL     1       8.251   3.137  27.443  1.00  0.00     0.003 C 
HETATM    4  C8  UNL     1       9.682   3.563  27.445  1.00  0.00     0.004 C 
HETATM    5  C9  UNL     1      10.254   3.821  26.088  1.00  0.00     0.045 C 
HETATM    6  C10 UNL     1       9.370   4.648  25.200  1.00  0.00     0.107 C 
HETATM    7  N3  UNL     1       9.533   6.025  25.338  1.00  0.00    -0.381 N 
ATOM      8  H3  UNL     1       9.175   6.524  26.152  1.00  0.00     0.160 HD
HETATM    9  C11 UNL     1      10.195   6.680  24.332  1.00  0.00     0.067 C 
HETATM   10  C12 UNL     1      10.224   5.988  23.034  1.00  0.00     0.120 C 
HETATM   11  S2  UNL     1       9.846   4.267  23.474  1.00  0.00    -0.130 SA
ENDROOT
BRANCH   1  12
HETATM   12  O1  UNL     1       7.273   4.203  24.090  1.00  0.00    -0.269 OA
BRANCH  12  13
HETATM   13  N2  UNL     1       6.070   4.827  24.098  1.00  0.00    -0.241 N 
ATOM     14  H2  UNL     1       5.524   4.824  24.959  1.00  0.00     0.197 HD
BRANCH  13  15
HETATM   15  C4  UNL     1       5.539   5.485  22.962  1.00  0.00     0.192 C 
HETATM   16  S1  UNL     1       6.570   6.241  21.955  1.00  0.00    -0.039 SA
BRANCH  15  17
HETATM   17  N1  UNL     1       4.159   5.478  22.726  1.00  0.00    -0.362 N 
ATOM     18  H1  UNL     1       3.542   5.760  23.488  1.00  0.00     0.162 HD
BRANCH  17  19
HETATM   19  C2  UNL     1       3.553   5.098  21.472  1.00  0.00     0.076 C 
HETATM   20  C1  UNL     1       2.573   3.989  21.715  1.00  0.00     0.032 C 
HETATM   21  C3  UNL     1       2.946   6.263  20.740  1.00  0.00     0.032 C 
ENDBRANCH  17  19
ENDBRANCH  15  17
ENDBRANCH  13  15
ENDBRANCH  12  13
ENDBRANCH   1  12
TORSDOF 5
ENDMDL
