MODEL 1
REMARK VINA RESULT: -6.515900169      0.000      0.000
REMARK  7 active torsions:
REMARK  status: ('A' for Active; 'I' for Inactive)
REMARK    1  A    between atoms: C5_5  and  O1_6 
REMARK    2  A    between atoms: C7_9  and  O2_10 
REMARK    3  A    between atoms: C8_12  and  C9_13 
REMARK    4  A    between atoms: C10_14  and  C11_15 
REMARK    5  A    between atoms: C11_15  and  C13_17 
REMARK    6  A    between atoms: C11_15  and  C14_19 
REMARK    7  A    between atoms: C14_19  and  O4_20 
ROOT
HETATM    1  C1  UNL     1       3.719   3.705  23.191  1.00  0.00     0.043 C 
HETATM    2  C2  UNL     1       4.803   4.716  23.084  1.00  0.00    -0.087 C 
HETATM    3  C3  UNL     1       5.867   4.683  23.836  1.00  0.00    -0.017 C 
HETATM    4  C4  UNL     1       6.987   5.632  23.802  1.00  0.00     0.042 C 
HETATM    5  C5  UNL     1       8.261   4.839  23.711  1.00  0.00     0.128 C 
HETATM    6  C6  UNL     1       9.503   5.667  23.694  1.00  0.00     0.065 C 
HETATM    7  C7  UNL     1       9.338   7.047  23.175  1.00  0.00     0.128 C 
HETATM    8  C8  UNL     1       8.139   7.353  22.382  1.00  0.00     0.041 C 
HETATM    9  C15 UNL     1       6.861   6.704  22.750  1.00  0.00     0.006 C 
HETATM   10  C16 UNL     1       6.099   6.097  21.594  1.00  0.00     0.010 C 
HETATM   11  C17 UNL     1       4.672   5.797  22.089  1.00  0.00     0.034 C 
ENDROOT
BRANCH   8  12
HETATM   12  C9  UNL     1       8.349   7.207  20.919  1.00  0.00    -0.022 C 
HETATM   13  C10 UNL     1       8.667   8.201  20.094  1.00  0.00    -0.012 C 
BRANCH  13  14
HETATM   14  C11 UNL     1       8.863   7.994  18.632  1.00  0.00     0.048 C 
HETATM   15  C12 UNL     1      10.265   7.472  18.403  1.00  0.00     0.029 C 
BRANCH  14  16
HETATM   16  C13 UNL     1       8.708   9.271  17.887  1.00  0.00     0.246 C 
HETATM   17  O3  UNL     1       8.112  10.229  18.307  1.00  0.00    -0.306 OA
ENDBRANCH  14  16
BRANCH  14  18
HETATM   18  C14 UNL     1       7.891   7.001  18.070  1.00  0.00     0.184 C 
BRANCH  18  19
HETATM   19  O4  UNL     1       7.090   7.690  17.142  1.00  0.00    -0.399 OA
ATOM     20  H4  UNL     1       6.393   7.099  16.884  1.00  0.00     0.209 HD
ENDBRANCH  18  19
ENDBRANCH  14  18
ENDBRANCH  13  14
ENDBRANCH   8  12
BRANCH   7  21
HETATM   21  O2  UNL     1       9.406   7.917  24.302  1.00  0.00    -0.395 OA
ATOM     22  H2  UNL     1      10.004   8.617  24.069  1.00  0.00     0.210 HD
ENDBRANCH   7  21
BRANCH   5  23
HETATM   23  O1  UNL     1       8.195   3.962  22.605  1.00  0.00    -0.395 OA
ATOM     24  H1  UNL     1       9.046   3.911  22.188  1.00  0.00     0.210 HD
ENDBRANCH   5  23
TORSDOF 7
ENDMDL
MODEL 2
REMARK VINA RESULT: -6.436756964      0.718      1.347
REMARK  7 active torsions:
REMARK  status: ('A' for Active; 'I' for Inactive)
REMARK    1  A    between atoms: C5_5  and  O1_6 
REMARK    2  A    between atoms: C7_9  and  O2_10 
REMARK    3  A    between atoms: C8_12  and  C9_13 
REMARK    4  A    between atoms: C10_14  and  C11_15 
REMARK    5  A    between atoms: C11_15  and  C13_17 
REMARK    6  A    between atoms: C11_15  and  C14_19 
REMARK    7  A    between atoms: C14_19  and  O4_20 
ROOT
HETATM    1  C1  UNL     1       3.714   3.688  23.270  1.00  0.00     0.043 C 
HETATM    2  C2  UNL     1       4.801   4.694  23.148  1.00  0.00    -0.087 C 
HETATM    3  C3  UNL     1       5.879   4.651  23.880  1.00  0.00    -0.017 C 
HETATM    4  C4  UNL     1       7.003   5.595  23.831  1.00  0.00     0.042 C 
HETATM    5  C5  UNL     1       8.270   4.795  23.711  1.00  0.00     0.128 C 
HETATM    6  C6  UNL     1       9.517   5.618  23.675  1.00  0.00     0.065 C 
HETATM    7  C7  UNL     1       9.348   7.002  23.168  1.00  0.00     0.128 C 
HETATM    8  C8  UNL     1       8.137   7.318  22.400  1.00  0.00     0.041 C 
HETATM    9  C15 UNL     1       6.862   6.674  22.789  1.00  0.00     0.006 C 
HETATM   10  C16 UNL     1       6.076   6.078  21.642  1.00  0.00     0.010 C 
HETATM   11  C17 UNL     1       4.657   5.782  22.163  1.00  0.00     0.034 C 
ENDROOT
BRANCH   8  12
HETATM   12  C9  UNL     1       8.318   7.181  20.932  1.00  0.00    -0.022 C 
HETATM   13  C10 UNL     1       8.723   8.155  20.123  1.00  0.00    -0.012 C 
BRANCH  13  14
HETATM   14  C11 UNL     1       8.886   7.957  18.654  1.00  0.00     0.048 C 
HETATM   15  C12 UNL     1       8.726   9.296  17.968  1.00  0.00     0.029 C 
BRANCH  14  16
HETATM   16  C13 UNL     1       7.853   7.029  18.124  1.00  0.00     0.246 C 
HETATM   17  O3  UNL     1       7.038   7.331  17.290  1.00  0.00    -0.306 OA
ENDBRANCH  14  16
BRANCH  14  18
HETATM   18  C14 UNL     1      10.236   7.405  18.309  1.00  0.00     0.184 C 
BRANCH  18  19
HETATM   19  O4  UNL     1      10.088   6.671  17.119  1.00  0.00    -0.399 OA
ATOM     20  H4  UNL     1      10.578   7.131  16.447  1.00  0.00     0.209 HD
ENDBRANCH  18  19
ENDBRANCH  14  18
ENDBRANCH  13  14
ENDBRANCH   8  12
BRANCH   7  21
HETATM   21  O2  UNL     1       9.442   7.864  24.299  1.00  0.00    -0.395 OA
ATOM     22  H2  UNL     1      10.210   7.592  24.786  1.00  0.00     0.210 HD
ENDBRANCH   7  21
BRANCH   5  23
HETATM   23  O1  UNL     1       8.179   3.926  22.601  1.00  0.00    -0.395 OA
ATOM     24  H1  UNL     1       7.548   3.240  22.785  1.00  0.00     0.210 HD
ENDBRANCH   5  23
TORSDOF 7
ENDMDL
MODEL 3
REMARK VINA RESULT: -6.255694922      0.890      1.491
REMARK  7 active torsions:
REMARK  status: ('A' for Active; 'I' for Inactive)
REMARK    1  A    between atoms: C5_5  and  O1_6 
REMARK    2  A    between atoms: C7_9  and  O2_10 
REMARK    3  A    between atoms: C8_12  and  C9_13 
REMARK    4  A    between atoms: C10_14  and  C11_15 
REMARK    5  A    between atoms: C11_15  and  C13_17 
REMARK    6  A    between atoms: C11_15  and  C14_19 
REMARK    7  A    between atoms: C14_19  and  O4_20 
ROOT
HETATM    1  C1  UNL     1       3.708   3.744  23.116  1.00  0.00     0.043 C 
HETATM    2  C2  UNL     1       4.806   4.741  23.031  1.00  0.00    -0.087 C 
HETATM    3  C3  UNL     1       5.868   4.678  23.784  1.00  0.00    -0.017 C 
HETATM    4  C4  UNL     1       7.001   5.612  23.772  1.00  0.00     0.042 C 
HETATM    5  C5  UNL     1       8.264   4.803  23.667  1.00  0.00     0.128 C 
HETATM    6  C6  UNL     1       9.517   5.615  23.668  1.00  0.00     0.065 C 
HETATM    7  C7  UNL     1       9.372   7.008  23.178  1.00  0.00     0.128 C 
HETATM    8  C8  UNL     1       8.179   7.346  22.390  1.00  0.00     0.041 C 
HETATM    9  C15 UNL     1       6.891   6.707  22.743  1.00  0.00     0.006 C 
HETATM   10  C16 UNL     1       6.124   6.135  21.572  1.00  0.00     0.010 C 
HETATM   11  C17 UNL     1       4.692   5.844  22.059  1.00  0.00     0.034 C 
ENDROOT
BRANCH   8  12
HETATM   12  C9  UNL     1       8.389   7.227  20.924  1.00  0.00    -0.022 C 
HETATM   13  C10 UNL     1       8.666   8.243  20.112  1.00  0.00    -0.012 C 
BRANCH  13  14
HETATM   14  C11 UNL     1       8.866   8.063  18.646  1.00  0.00     0.048 C 
HETATM   15  C12 UNL     1       7.924   6.982  18.161  1.00  0.00     0.029 C 
BRANCH  14  16
HETATM   16  C13 UNL     1      10.261   7.642  18.346  1.00  0.00     0.246 C 
HETATM   17  O3  UNL     1      10.570   6.948  17.413  1.00  0.00    -0.306 OA
ENDBRANCH  14  16
BRANCH  14  18
HETATM   18  C14 UNL     1       8.579   9.320  17.882  1.00  0.00     0.184 C 
BRANCH  18  19
HETATM   19  O4  UNL     1       9.816   9.828  17.448  1.00  0.00    -0.399 OA
ATOM     20  H4  UNL     1       9.682  10.175  16.573  1.00  0.00     0.209 HD
ENDBRANCH  18  19
ENDBRANCH  14  18
ENDBRANCH  13  14
ENDBRANCH   8  12
BRANCH   7  21
HETATM   21  O2  UNL     1       9.449   7.853  24.323  1.00  0.00    -0.395 OA
ATOM     22  H2  UNL     1       9.580   8.736  24.000  1.00  0.00     0.210 HD
ENDBRANCH   7  21
BRANCH   5  23
HETATM   23  O1  UNL     1       8.187   3.951  22.543  1.00  0.00    -0.395 OA
ATOM     24  H1  UNL     1       8.212   3.045  22.828  1.00  0.00     0.210 HD
ENDBRANCH   5  23
TORSDOF 7
ENDMDL
MODEL 4
REMARK VINA RESULT: -6.097296646      1.282      1.573
REMARK  7 active torsions:
REMARK  status: ('A' for Active; 'I' for Inactive)
REMARK    1  A    between atoms: C5_5  and  O1_6 
REMARK    2  A    between atoms: C7_9  and  O2_10 
REMARK    3  A    between atoms: C8_12  and  C9_13 
REMARK    4  A    between atoms: C10_14  and  C11_15 
REMARK    5  A    between atoms: C11_15  and  C13_17 
REMARK    6  A    between atoms: C11_15  and  C14_19 
REMARK    7  A    between atoms: C14_19  and  O4_20 
ROOT
HETATM    1  C1  UNL     1       5.458   4.264  24.351  1.00  0.00     0.043 C 
HETATM    2  C2  UNL     1       6.271   5.333  23.715  1.00  0.00    -0.087 C 
HETATM    3  C3  UNL     1       7.452   5.668  24.154  1.00  0.00    -0.017 C 
HETATM    4  C4  UNL     1       8.327   6.706  23.594  1.00  0.00     0.042 C 
HETATM    5  C5  UNL     1       9.688   6.099  23.389  1.00  0.00     0.128 C 
HETATM    6  C6  UNL     1      10.708   7.044  22.844  1.00  0.00     0.065 C 
HETATM    7  C7  UNL     1      10.166   8.172  22.048  1.00  0.00     0.128 C 
HETATM    8  C8  UNL     1       8.793   8.065  21.535  1.00  0.00     0.041 C 
HETATM    9  C15 UNL     1       7.775   7.390  22.370  1.00  0.00     0.006 C 
HETATM   10  C16 UNL     1       6.929   6.370  21.641  1.00  0.00     0.010 C 
HETATM   11  C17 UNL     1       5.725   6.042  22.543  1.00  0.00     0.034 C 
ENDROOT
BRANCH   8  12
HETATM   12  C9  UNL     1       8.722   7.520  20.154  1.00  0.00    -0.022 C 
HETATM   13  C10 UNL     1       8.707   8.256  19.047  1.00  0.00    -0.012 C 
BRANCH  13  14
HETATM   14  C11 UNL     1       8.633   7.652  17.687  1.00  0.00     0.048 C 
HETATM   15  C12 UNL     1       9.984   7.059  17.349  1.00  0.00     0.029 C 
BRANCH  14  16
HETATM   16  C13 UNL     1       8.301   8.680  16.665  1.00  0.00     0.246 C 
HETATM   17  O3  UNL     1       7.258   9.280  16.627  1.00  0.00    -0.306 OA
ENDBRANCH  14  16
BRANCH  14  18
HETATM   18  C14 UNL     1       7.605   6.564  17.612  1.00  0.00     0.184 C 
BRANCH  18  19
HETATM   19  O4  UNL     1       7.286   6.393  16.253  1.00  0.00    -0.399 OA
ATOM     20  H4  UNL     1       7.953   5.828  15.880  1.00  0.00     0.209 HD
ENDBRANCH  18  19
ENDBRANCH  14  18
ENDBRANCH  13  14
ENDBRANCH   8  12
BRANCH   7  21
HETATM   21  O2  UNL     1      10.288   9.339  22.857  1.00  0.00    -0.395 OA
ATOM     22  H2  UNL     1       9.423   9.727  22.907  1.00  0.00     0.210 HD
ENDBRANCH   7  21
BRANCH   5  23
HETATM   23  O1  UNL     1       9.572   4.933  22.600  1.00  0.00    -0.395 OA
ATOM     24  H1  UNL     1       8.677   4.618  22.627  1.00  0.00     0.210 HD
ENDBRANCH   5  23
TORSDOF 7
ENDMDL
MODEL 5
REMARK VINA RESULT: -6.088424767      2.788      4.789
REMARK  7 active torsions:
REMARK  status: ('A' for Active; 'I' for Inactive)
REMARK    1  A    between atoms: C5_5  and  O1_6 
REMARK    2  A    between atoms: C7_9  and  O2_10 
REMARK    3  A    between atoms: C8_12  and  C9_13 
REMARK    4  A    between atoms: C10_14  and  C11_15 
REMARK    5  A    between atoms: C11_15  and  C13_17 
REMARK    6  A    between atoms: C11_15  and  C14_19 
REMARK    7  A    between atoms: C14_19  and  O4_20 
ROOT
HETATM    1  C1  UNL     1      10.577   1.716  26.582  1.00  0.00     0.043 C 
HETATM    2  C2  UNL     1      10.069   3.015  26.070  1.00  0.00    -0.087 C 
HETATM    3  C3  UNL     1      10.784   3.795  25.309  1.00  0.00    -0.017 C 
HETATM    4  C4  UNL     1      10.369   5.090  24.754  1.00  0.00     0.042 C 
HETATM    5  C5  UNL     1      10.654   5.072  23.278  1.00  0.00     0.128 C 
HETATM    6  C6  UNL     1      10.309   6.340  22.568  1.00  0.00     0.065 C 
HETATM    7  C7  UNL     1       9.244   7.153  23.206  1.00  0.00     0.128 C 
HETATM    8  C8  UNL     1       8.372   6.505  24.195  1.00  0.00     0.041 C 
HETATM    9  C15 UNL     1       8.957   5.488  25.097  1.00  0.00     0.006 C 
HETATM   10  C16 UNL     1       8.157   4.210  25.218  1.00  0.00     0.010 C 
HETATM   11  C17 UNL     1       8.704   3.439  26.433  1.00  0.00     0.034 C 
ENDROOT
BRANCH   8  12
HETATM   12  C9  UNL     1       7.118   5.966  23.609  1.00  0.00    -0.022 C 
HETATM   13  C10 UNL     1       6.374   6.589  22.700  1.00  0.00    -0.012 C 
BRANCH  13  14
HETATM   14  C11 UNL     1       5.122   5.997  22.150  1.00  0.00     0.048 C 
HETATM   15  C12 UNL     1       4.831   4.711  22.892  1.00  0.00     0.029 C 
BRANCH  14  16
HETATM   16  C13 UNL     1       5.272   5.684  20.704  1.00  0.00     0.246 C 
HETATM   17  O3  UNL     1       4.812   6.357  19.817  1.00  0.00    -0.306 OA
ENDBRANCH  14  16
BRANCH  14  18
HETATM   18  C14 UNL     1       3.949   6.915  22.314  1.00  0.00     0.184 C 
BRANCH  18  19
HETATM   19  O4  UNL     1       2.806   6.195  21.922  1.00  0.00    -0.399 OA
ATOM     20  H4  UNL     1       2.337   6.738  21.299  1.00  0.00     0.209 HD
ENDBRANCH  18  19
ENDBRANCH  14  18
ENDBRANCH  13  14
ENDBRANCH   8  12
BRANCH   7  21
HETATM   21  O2  UNL     1       9.890   8.279  23.795  1.00  0.00    -0.395 OA
ATOM     22  H2  UNL     1      10.658   8.459  23.267  1.00  0.00     0.210 HD
ENDBRANCH   7  21
BRANCH   5  23
HETATM   23  O1  UNL     1      10.031   3.949  22.690  1.00  0.00    -0.395 OA
ATOM     24  H1  UNL     1      10.690   3.383  22.306  1.00  0.00     0.210 HD
ENDBRANCH   5  23
TORSDOF 7
ENDMDL
