MODEL 1
REMARK VINA RESULT: -6.213402943      0.000      0.000
REMARK  6 active torsions:
REMARK  status: ('A' for Active; 'I' for Inactive)
REMARK    1  A    between atoms: C2_2  and  C4_4 
REMARK    2  A    between atoms: C11_11  and  C12_12 
REMARK    3  A    between atoms: C12_12  and  N1_13 
REMARK    4  A    between atoms: C12_12  and  C13_17 
REMARK    5  A    between atoms: C13_17  and  O1_18 
REMARK    6  A    between atoms: C17_24  and  O3_25 
ROOT
HETATM    1  C4  UNL     1       5.598   5.985  22.616  1.00  0.00     0.018 C 
HETATM    2  C5  UNL     1       6.219   4.712  23.143  1.00  0.00     0.008 C 
HETATM    3  C6  UNL     1       7.314   5.176  24.079  1.00  0.00     0.006 C 
HETATM    4  C7  UNL     1       8.369   5.856  23.251  1.00  0.00     0.002 C 
HETATM    5  C8  UNL     1       9.414   6.338  24.268  1.00  0.00     0.011 C 
HETATM    6  C9  UNL     1       9.140   7.710  24.776  1.00  0.00     0.015 C 
HETATM    7  C10 UNL     1      10.714   6.295  23.611  1.00  0.00     0.012 C 
HETATM    8  C11 UNL     1      11.034   6.398  22.350  1.00  0.00     0.076 C 
HETATM    9  O2  UNL     1      10.119   6.582  21.333  1.00  0.00    -0.348 OA
HETATM   10  C14 UNL     1       8.877   7.186  21.252  1.00  0.00     0.131 C 
HETATM   11  C15 UNL     1       9.119   8.691  21.052  1.00  0.00     0.040 C 
HETATM   12  C16 UNL     1       7.913   6.935  22.363  1.00  0.00     0.049 C 
HETATM   13  C17 UNL     1       6.552   6.769  21.758  1.00  0.00     0.129 C 
ENDROOT
BRANCH   8  14
HETATM   14  C12 UNL     1      12.470   6.317  21.944  1.00  0.00     0.262 C 
BRANCH  14  15
HETATM   15  N1  UNL     1      12.620   5.795  20.623  1.00  0.00    -0.067 N 
ATOM     16  H13 UNL     1      12.411   4.797  20.592  1.00  0.00     0.275 HD
ATOM     17  H12 UNL     1      11.881   6.132  20.006  1.00  0.00     0.275 HD
ATOM     18  H11 UNL     1      13.543   5.994  20.239  1.00  0.00     0.275 HD
ENDBRANCH  14  15
BRANCH  14  19
HETATM   19  C13 UNL     1      13.053   7.704  21.993  1.00  0.00     0.203 C 
BRANCH  19  20
HETATM   20  O1  UNL     1      12.599   8.450  20.896  1.00  0.00    -0.398 OA
ATOM     21  H1  UNL     1      12.634   9.377  21.099  1.00  0.00     0.209 HD
ENDBRANCH  19  20
ENDBRANCH  14  19
ENDBRANCH   8  14
BRANCH  13  22
HETATM   22  O3  UNL     1       6.577   6.135  20.511  1.00  0.00    -0.395 OA
ATOM     23  H3  UNL     1       7.477   6.170  20.209  1.00  0.00     0.210 HD
ENDBRANCH  13  22
BRANCH   1  24
HETATM   24  C2  UNL     1       4.272   5.810  21.972  1.00  0.00    -0.016 C 
HETATM   25  C1  UNL     1       3.336   6.976  22.322  1.00  0.00     0.010 C 
HETATM   26  C3  UNL     1       3.536   4.565  22.345  1.00  0.00     0.010 C 
ENDBRANCH   1  24
TORSDOF 6
ENDMDL
MODEL 2
REMARK VINA RESULT: -5.857194354      2.642      6.333
REMARK  6 active torsions:
REMARK  status: ('A' for Active; 'I' for Inactive)
REMARK    1  A    between atoms: C2_2  and  C4_4 
REMARK    2  A    between atoms: C11_11  and  C12_12 
REMARK    3  A    between atoms: C12_12  and  N1_13 
REMARK    4  A    between atoms: C12_12  and  C13_17 
REMARK    5  A    between atoms: C13_17  and  O1_18 
REMARK    6  A    between atoms: C17_24  and  O3_25 
ROOT
HETATM    1  C4  UNL     1      10.061   7.218  22.738  1.00  0.00     0.018 C 
HETATM    2  C5  UNL     1       9.398   7.665  24.020  1.00  0.00     0.008 C 
HETATM    3  C6  UNL     1       8.509   6.507  24.418  1.00  0.00     0.006 C 
HETATM    4  C7  UNL     1       7.419   6.389  23.390  1.00  0.00     0.002 C 
HETATM    5  C8  UNL     1       6.594   5.172  23.834  1.00  0.00     0.011 C 
HETATM    6  C9  UNL     1       7.081   3.894  23.245  1.00  0.00     0.015 C 
HETATM    7  C10 UNL     1       5.212   5.413  23.437  1.00  0.00     0.012 C 
HETATM    8  C11 UNL     1       4.719   6.132  22.465  1.00  0.00     0.076 C 
HETATM    9  O2  UNL     1       5.486   6.848  21.568  1.00  0.00    -0.348 OA
HETATM   10  C14 UNL     1       6.757   6.690  21.047  1.00  0.00     0.131 C 
HETATM   11  C15 UNL     1       6.645   5.703  19.874  1.00  0.00     0.040 C 
HETATM   12  C16 UNL     1       7.846   6.294  21.986  1.00  0.00     0.049 C 
HETATM   13  C17 UNL     1       9.076   7.064  21.612  1.00  0.00     0.129 C 
ENDROOT
BRANCH   8  14
HETATM   14  C12 UNL     1       3.238   6.208  22.281  1.00  0.00     0.262 C 
BRANCH  14  15
HETATM   15  N1  UNL     1       2.888   6.731  21.000  1.00  0.00    -0.067 N 
ATOM     16  H13 UNL     1       3.226   7.687  20.884  1.00  0.00     0.275 HD
ATOM     17  H12 UNL     1       3.424   6.282  20.257  1.00  0.00     0.275 HD
ATOM     18  H11 UNL     1       1.886   6.668  20.825  1.00  0.00     0.275 HD
ENDBRANCH  14  15
BRANCH  14  19
HETATM   19  C13 UNL     1       2.675   4.818  22.415  1.00  0.00     0.203 C 
BRANCH  19  20
HETATM   20  O1  UNL     1       2.577   4.220  21.150  1.00  0.00    -0.398 OA
ATOM     21  H1  UNL     1       1.956   3.503  21.179  1.00  0.00     0.209 HD
ENDBRANCH  19  20
ENDBRANCH  14  19
ENDBRANCH   8  14
BRANCH  13  22
HETATM   22  O3  UNL     1       8.799   8.354  21.148  1.00  0.00    -0.395 OA
ATOM     23  H3  UNL     1       9.175   8.955  21.779  1.00  0.00     0.210 HD
ENDBRANCH  13  22
BRANCH   1  24
HETATM   24  C2  UNL     1      11.251   8.014  22.342  1.00  0.00    -0.016 C 
HETATM   25  C1  UNL     1      11.857   7.478  21.036  1.00  0.00     0.010 C 
HETATM   26  C3  UNL     1      12.366   8.038  23.334  1.00  0.00     0.010 C 
ENDBRANCH   1  24
TORSDOF 6
ENDMDL
MODEL 3
REMARK VINA RESULT: -5.843577858      1.154      1.250
REMARK  6 active torsions:
REMARK  status: ('A' for Active; 'I' for Inactive)
REMARK    1  A    between atoms: C2_2  and  C4_4 
REMARK    2  A    between atoms: C11_11  and  C12_12 
REMARK    3  A    between atoms: C12_12  and  N1_13 
REMARK    4  A    between atoms: C12_12  and  C13_17 
REMARK    5  A    between atoms: C13_17  and  O1_18 
REMARK    6  A    between atoms: C17_24  and  O3_25 
ROOT
HETATM    1  C4  UNL     1       5.575   6.073  22.556  1.00  0.00     0.018 C 
HETATM    2  C5  UNL     1       6.136   4.779  23.100  1.00  0.00     0.008 C 
HETATM    3  C6  UNL     1       7.210   5.206  24.076  1.00  0.00     0.006 C 
HETATM    4  C7  UNL     1       8.315   5.855  23.290  1.00  0.00     0.002 C 
HETATM    5  C8  UNL     1       9.337   6.301  24.346  1.00  0.00     0.011 C 
HETATM    6  C9  UNL     1       9.089   7.679  24.849  1.00  0.00     0.015 C 
HETATM    7  C10 UNL     1      10.658   6.219  23.737  1.00  0.00     0.012 C 
HETATM    8  C11 UNL     1      11.027   6.315  22.488  1.00  0.00     0.076 C 
HETATM    9  O2  UNL     1      10.156   6.531  21.440  1.00  0.00    -0.348 OA
HETATM   10  C14 UNL     1       8.937   7.174  21.316  1.00  0.00     0.131 C 
HETATM   11  C15 UNL     1       9.233   8.671  21.130  1.00  0.00     0.040 C 
HETATM   12  C16 UNL     1       7.926   6.950  22.390  1.00  0.00     0.049 C 
HETATM   13  C17 UNL     1       6.583   6.828  21.735  1.00  0.00     0.129 C 
ENDROOT
BRANCH   8  14
HETATM   14  C12 UNL     1      12.474   6.190  22.134  1.00  0.00     0.262 C 
BRANCH  14  15
HETATM   15  N1  UNL     1      13.025   7.435  21.705  1.00  0.00    -0.067 N 
ATOM     16  H13 UNL     1      12.511   8.224  22.097  1.00  0.00     0.275 HD
ATOM     17  H12 UNL     1      13.934   7.606  22.136  1.00  0.00     0.275 HD
ATOM     18  H11 UNL     1      13.079   7.495  20.688  1.00  0.00     0.275 HD
ENDBRANCH  14  15
BRANCH  14  19
HETATM   19  C13 UNL     1      13.218   5.718  23.354  1.00  0.00     0.203 C 
BRANCH  19  20
HETATM   20  O1  UNL     1      13.678   4.408  23.155  1.00  0.00    -0.398 OA
ATOM     21  H1  UNL     1      13.437   3.865  23.896  1.00  0.00     0.209 HD
ENDBRANCH  19  20
ENDBRANCH  14  19
ENDBRANCH   8  14
BRANCH  13  22
HETATM   22  O3  UNL     1       6.634   6.197  20.488  1.00  0.00    -0.395 OA
ATOM     23  H3  UNL     1       6.661   6.888  19.837  1.00  0.00     0.210 HD
ENDBRANCH  13  22
BRANCH   1  24
HETATM   24  C2  UNL     1       4.268   5.941  21.863  1.00  0.00    -0.016 C 
HETATM   25  C1  UNL     1       3.300   7.048  22.307  1.00  0.00     0.010 C 
HETATM   26  C3  UNL     1       3.549   4.651  22.087  1.00  0.00     0.010 C 
ENDBRANCH   1  24
TORSDOF 6
ENDMDL
MODEL 4
REMARK VINA RESULT: -5.638405065      5.274      6.568
REMARK  6 active torsions:
REMARK  status: ('A' for Active; 'I' for Inactive)
REMARK    1  A    between atoms: C2_2  and  C4_4 
REMARK    2  A    between atoms: C11_11  and  C12_12 
REMARK    3  A    between atoms: C12_12  and  N1_13 
REMARK    4  A    between atoms: C12_12  and  C13_17 
REMARK    5  A    between atoms: C13_17  and  O1_18 
REMARK    6  A    between atoms: C17_24  and  O3_25 
ROOT
HETATM    1  C4  UNL     1       9.579   4.891  25.000  1.00  0.00     0.018 C 
HETATM    2  C5  UNL     1       8.711   3.800  25.583  1.00  0.00     0.008 C 
HETATM    3  C6  UNL     1       9.538   3.208  26.703  1.00  0.00     0.006 C 
HETATM    4  C7  UNL     1      10.726   2.525  26.086  1.00  0.00     0.002 C 
HETATM    5  C8  UNL     1      11.535   1.995  27.279  1.00  0.00     0.011 C 
HETATM    6  C9  UNL     1      12.543   2.970  27.776  1.00  0.00     0.015 C 
HETATM    7  C10 UNL     1      12.194   0.768  26.849  1.00  0.00     0.012 C 
HETATM    8  C11 UNL     1      12.575   0.377  25.663  1.00  0.00     0.076 C 
HETATM    9  O2  UNL     1      12.408   1.122  24.513  1.00  0.00    -0.348 OA
HETATM   10  C14 UNL     1      12.347   2.478  24.244  1.00  0.00     0.131 C 
HETATM   11  C15 UNL     1      13.795   2.982  24.134  1.00  0.00     0.040 C 
HETATM   12  C16 UNL     1      11.544   3.331  25.168  1.00  0.00     0.049 C 
HETATM   13  C17 UNL     1      10.813   4.342  24.338  1.00  0.00     0.129 C 
ENDROOT
BRANCH   8  14
HETATM   14  C12 UNL     1      13.237  -0.953  25.501  1.00  0.00     0.262 C 
BRANCH  14  15
HETATM   15  N1  UNL     1      12.329  -2.030  25.732  1.00  0.00    -0.067 N 
ATOM     16  H13 UNL     1      12.310  -2.675  24.942  1.00  0.00     0.275 HD
ATOM     17  H12 UNL     1      12.681  -2.665  26.448  1.00  0.00     0.275 HD
ATOM     18  H11 UNL     1      11.393  -1.694  25.960  1.00  0.00     0.275 HD
ENDBRANCH  14  15
BRANCH  14  19
HETATM   19  C13 UNL     1      13.765  -1.048  24.094  1.00  0.00     0.203 C 
BRANCH  19  20
HETATM   20  O1  UNL     1      12.701  -1.219  23.198  1.00  0.00    -0.398 OA
ATOM     21  H1  UNL     1      12.545  -2.145  23.054  1.00  0.00     0.209 HD
ENDBRANCH  19  20
ENDBRANCH  14  19
ENDBRANCH   8  14
BRANCH  13  22
HETATM   22  O3  UNL     1      10.410   3.845  23.095  1.00  0.00    -0.395 OA
ATOM     23  H3  UNL     1      10.191   4.600  22.561  1.00  0.00     0.210 HD
ENDBRANCH  13  22
BRANCH   1  24
HETATM   24  C2  UNL     1       8.861   5.863  24.136  1.00  0.00    -0.016 C 
HETATM   25  C1  UNL     1       9.148   7.305  24.581  1.00  0.00     0.010 C 
HETATM   26  C3  UNL     1       7.374   5.727  24.115  1.00  0.00     0.010 C 
ENDBRANCH   1  24
TORSDOF 6
ENDMDL
MODEL 5
REMARK VINA RESULT: -5.439688646      4.272      6.673
REMARK  6 active torsions:
REMARK  status: ('A' for Active; 'I' for Inactive)
REMARK    1  A    between atoms: C2_2  and  C4_4 
REMARK    2  A    between atoms: C11_11  and  C12_12 
REMARK    3  A    between atoms: C12_12  and  N1_13 
REMARK    4  A    between atoms: C12_12  and  C13_17 
REMARK    5  A    between atoms: C13_17  and  O1_18 
REMARK    6  A    between atoms: C17_24  and  O3_25 
ROOT
HETATM    1  C4  UNL     1       7.467   4.135  25.085  1.00  0.00     0.018 C 
HETATM    2  C5  UNL     1       8.255   4.634  23.896  1.00  0.00     0.008 C 
HETATM    3  C6  UNL     1       7.520   5.875  23.440  1.00  0.00     0.006 C 
HETATM    4  C7  UNL     1       6.178   5.448  22.914  1.00  0.00     0.002 C 
HETATM    5  C8  UNL     1       5.478   6.756  22.519  1.00  0.00     0.011 C 
HETATM    6  C9  UNL     1       4.687   7.350  23.631  1.00  0.00     0.015 C 
HETATM    7  C10 UNL     1       4.610   6.462  21.386  1.00  0.00     0.012 C 
HETATM    8  C11 UNL     1       4.020   5.352  21.032  1.00  0.00     0.076 C 
HETATM    9  O2  UNL     1       4.125   4.165  21.728  1.00  0.00    -0.348 OA
HETATM   10  C14 UNL     1       4.327   3.843  23.058  1.00  0.00     0.131 C 
HETATM   11  C15 UNL     1       2.957   3.912  23.753  1.00  0.00     0.040 C 
HETATM   12  C16 UNL     1       5.355   4.620  23.809  1.00  0.00     0.049 C 
HETATM   13  C17 UNL     1       6.092   3.665  24.698  1.00  0.00     0.129 C 
ENDROOT
BRANCH   8  14
HETATM   14  C12 UNL     1       3.172   5.328  19.801  1.00  0.00     0.262 C 
BRANCH  14  15
HETATM   15  N1  UNL     1       2.138   4.347  19.889  1.00  0.00    -0.067 N 
ATOM     16  H13 UNL     1       2.472   3.495  20.342  1.00  0.00     0.275 HD
ATOM     17  H12 UNL     1       1.425   4.618  20.567  1.00  0.00     0.275 HD
ATOM     18  H11 UNL     1       1.727   4.146  18.978  1.00  0.00     0.275 HD
ENDBRANCH  14  15
BRANCH  14  19
HETATM   19  C13 UNL     1       2.546   6.687  19.634  1.00  0.00     0.203 C 
BRANCH  19  20
HETATM   20  O1  UNL     1       2.900   7.224  18.388  1.00  0.00    -0.398 OA
ATOM     21  H1  UNL     1       2.266   7.882  18.128  1.00  0.00     0.209 HD
ENDBRANCH  19  20
ENDBRANCH  14  19
ENDBRANCH   8  14
BRANCH  13  22
HETATM   22  O3  UNL     1       6.250   2.396  24.131  1.00  0.00    -0.395 OA
ATOM     23  H3  UNL     1       5.617   1.830  24.554  1.00  0.00     0.210 HD
ENDBRANCH  13  22
BRANCH   1  24
HETATM   24  C2  UNL     1       8.181   3.149  25.936  1.00  0.00    -0.016 C 
HETATM   25  C1  UNL     1       7.361   2.814  27.190  1.00  0.00     0.010 C 
HETATM   26  C3  UNL     1       9.525   3.579  26.425  1.00  0.00     0.010 C 
ENDBRANCH   1  24
TORSDOF 6
ENDMDL
