MODEL 1
REMARK VINA RESULT: -5.683659675      0.000      0.000
REMARK  5 active torsions:
REMARK  status: ('A' for Active; 'I' for Inactive)
REMARK    1  A    between atoms: N2_10  and  C7_11 
REMARK    2  A    between atoms: C9_14  and  N3_15 
REMARK    3  A    between atoms: N3_15  and  C10_17 
REMARK    4  A    between atoms: C10_17  and  C11_18 
REMARK    5  A    between atoms: C11_18  and  O1_19 
ROOT
HETATM    1  C1  UNL     1       3.085   6.934  21.876  1.00  0.00     0.054 C 
HETATM    2  C2  UNL     1       3.653   5.550  21.814  1.00  0.00     0.174 C 
HETATM    3  C3  UNL     1       2.915   4.697  20.797  1.00  0.00     0.054 C 
HETATM    4  N1  UNL     1       3.498   4.935  23.103  1.00  0.00    -0.034 N 
ATOM      5  H11 UNL     1       2.799   4.192  23.105  1.00  0.00     0.281 HD
ATOM      6  H12 UNL     1       3.047   5.548  23.782  1.00  0.00     0.281 HD
HETATM    7  C4  UNL     1       4.799   4.480  23.536  1.00  0.00     0.200 C 
HETATM    8  C5  UNL     1       4.840   2.977  23.407  1.00  0.00     0.071 C 
HETATM    9  C6  UNL     1       4.936   4.905  25.003  1.00  0.00     0.071 C 
HETATM   10  N2  UNL     1       5.756   5.156  22.724  1.00  0.00    -0.290 N 
HETATM   11  C12 UNL     1       5.110   5.578  21.538  1.00  0.00     0.119 C 
HETATM   12  S2  UNL     1       5.823   6.006  20.151  1.00  0.00    -0.062 SA
ENDROOT
BRANCH  10  13
HETATM   13  C7  UNL     1       7.157   5.364  23.081  1.00  0.00     0.119 A 
HETATM   14  C8  UNL     1       8.026   4.302  23.024  1.00  0.00     0.102 A 
HETATM   15  S1  UNL     1       9.498   5.012  23.514  1.00  0.00    -0.062 SA
HETATM   16  C9  UNL     1       8.936   6.602  23.763  1.00  0.00     0.146 A 
HETATM   17  N4  UNL     1       7.646   6.517  23.459  1.00  0.00    -0.322 N 
ATOM     18  H4  UNL     1       7.045   7.339  23.519  1.00  0.00     0.169 HD
BRANCH  16  19
HETATM   19  N3  UNL     1       9.630   7.644  24.160  1.00  0.00    -0.368 N 
ATOM     20  H3  UNL     1       9.715   7.885  25.148  1.00  0.00     0.161 HD
BRANCH  19  21
HETATM   21  C10 UNL     1      10.266   8.430  23.134  1.00  0.00     0.147 C 
BRANCH  21  22
HETATM   22  C11 UNL     1      11.637   7.907  22.779  1.00  0.00     0.183 C 
BRANCH  22  23
HETATM   23  O1  UNL     1      12.643   8.786  23.155  1.00  0.00    -0.399 OA
ATOM     24  H1  UNL     1      13.508   8.432  22.983  1.00  0.00     0.209 HD
ENDBRANCH  22  23
ENDBRANCH  21  22
ENDBRANCH  19  21
ENDBRANCH  16  19
ENDBRANCH  10  13
TORSDOF 5
ENDMDL
MODEL 2
REMARK VINA RESULT: -5.551930689      3.185      6.337
REMARK  5 active torsions:
REMARK  status: ('A' for Active; 'I' for Inactive)
REMARK    1  A    between atoms: N2_10  and  C7_11 
REMARK    2  A    between atoms: C9_14  and  N3_15 
REMARK    3  A    between atoms: N3_15  and  C10_17 
REMARK    4  A    between atoms: C10_17  and  C11_18 
REMARK    5  A    between atoms: C11_18  and  O1_19 
ROOT
HETATM    1  C1  UNL     1      11.337   6.592  21.032  1.00  0.00     0.054 C 
HETATM    2  C2  UNL     1      10.419   7.147  22.078  1.00  0.00     0.174 C 
HETATM    3  C3  UNL     1      11.070   8.297  22.827  1.00  0.00     0.054 C 
HETATM    4  N1  UNL     1      10.130   6.108  23.027  1.00  0.00    -0.034 N 
ATOM      5  H11 UNL     1      10.571   6.266  23.933  1.00  0.00     0.281 HD
ATOM      6  H12 UNL     1      10.592   5.227  22.803  1.00  0.00     0.281 HD
HETATM    7  C4  UNL     1       8.694   5.980  23.118  1.00  0.00     0.200 C 
HETATM    8  C5  UNL     1       8.249   6.579  24.430  1.00  0.00     0.071 C 
HETATM    9  C6  UNL     1       8.394   4.476  23.076  1.00  0.00     0.071 C 
HETATM   10  N2  UNL     1       8.155   6.633  21.972  1.00  0.00    -0.290 N 
HETATM   11  C12 UNL     1       9.118   7.551  21.493  1.00  0.00     0.119 C 
HETATM   12  S2  UNL     1       8.851   8.799  20.500  1.00  0.00    -0.062 SA
ENDROOT
BRANCH  10  13
HETATM   13  C7  UNL     1       6.830   6.378  21.410  1.00  0.00     0.119 A 
HETATM   14  C8  UNL     1       6.724   5.976  20.102  1.00  0.00     0.102 A 
HETATM   15  S1  UNL     1       5.038   5.809  19.909  1.00  0.00    -0.062 SA
HETATM   16  C9  UNL     1       4.562   6.255  21.485  1.00  0.00     0.146 A 
HETATM   17  N4  UNL     1       5.717   6.511  22.087  1.00  0.00    -0.322 N 
ATOM     18  H4  UNL     1       5.738   6.807  23.062  1.00  0.00     0.169 HD
BRANCH  16  19
HETATM   19  N3  UNL     1       3.341   6.322  21.964  1.00  0.00    -0.368 N 
ATOM     20  H3  UNL     1       2.966   7.189  22.350  1.00  0.00     0.161 HD
BRANCH  19  21
HETATM   21  C10 UNL     1       2.559   5.113  21.919  1.00  0.00     0.147 C 
BRANCH  21  22
HETATM   22  C11 UNL     1       3.267   3.949  22.569  1.00  0.00     0.183 C 
BRANCH  22  23
HETATM   23  O1  UNL     1       2.639   3.546  23.740  1.00  0.00    -0.399 OA
ATOM     24  H1  UNL     1       3.238   3.531  24.477  1.00  0.00     0.209 HD
ENDBRANCH  22  23
ENDBRANCH  21  22
ENDBRANCH  19  21
ENDBRANCH  16  19
ENDBRANCH  10  13
TORSDOF 5
ENDMDL
MODEL 3
REMARK VINA RESULT: -5.501051867      3.275      5.561
REMARK  5 active torsions:
REMARK  status: ('A' for Active; 'I' for Inactive)
REMARK    1  A    between atoms: N2_10  and  C7_11 
REMARK    2  A    between atoms: C9_14  and  N3_15 
REMARK    3  A    between atoms: N3_15  and  C10_17 
REMARK    4  A    between atoms: C10_17  and  C11_18 
REMARK    5  A    between atoms: C11_18  and  O1_19 
ROOT
HETATM    1  C1  UNL     1       8.753   4.377  22.851  1.00  0.00     0.054 C 
HETATM    2  C2  UNL     1       7.749   5.338  23.410  1.00  0.00     0.174 C 
HETATM    3  C3  UNL     1       8.365   6.216  24.485  1.00  0.00     0.054 C 
HETATM    4  N1  UNL     1       6.683   4.585  24.012  1.00  0.00    -0.034 N 
ATOM      5  H11 UNL     1       6.681   4.647  25.030  1.00  0.00     0.281 HD
ATOM      6  H12 UNL     1       6.820   3.576  23.938  1.00  0.00     0.281 HD
HETATM    7  C4  UNL     1       5.441   5.026  23.421  1.00  0.00     0.200 C 
HETATM    8  C5  UNL     1       4.710   5.872  24.436  1.00  0.00     0.071 C 
HETATM    9  C6  UNL     1       4.645   3.756  23.096  1.00  0.00     0.071 C 
HETATM   10  N2  UNL     1       5.785   5.724  22.227  1.00  0.00    -0.290 N 
HETATM   11  C12 UNL     1       7.129   6.152  22.338  1.00  0.00     0.119 C 
HETATM   12  S2  UNL     1       7.848   7.308  21.463  1.00  0.00    -0.062 SA
ENDROOT
BRANCH  10  13
HETATM   13  C7  UNL     1       4.884   5.945  21.098  1.00  0.00     0.119 A 
HETATM   14  C8  UNL     1       3.581   6.302  21.343  1.00  0.00     0.102 A 
HETATM   15  S1  UNL     1       2.942   6.443  19.768  1.00  0.00    -0.062 SA
HETATM   16  C9  UNL     1       4.350   6.044  18.892  1.00  0.00     0.146 A 
HETATM   17  N4  UNL     1       5.245   5.822  19.847  1.00  0.00    -0.322 N 
ATOM     18  H4  UNL     1       6.201   5.559  19.608  1.00  0.00     0.169 HD
BRANCH  16  19
HETATM   19  N3  UNL     1       4.491   5.979  17.588  1.00  0.00    -0.368 N 
ATOM     20  H3  UNL     1       3.750   6.280  16.955  1.00  0.00     0.161 HD
BRANCH  19  21
HETATM   21  C10 UNL     1       5.742   5.463  17.095  1.00  0.00     0.147 C 
BRANCH  21  22
HETATM   22  C11 UNL     1       6.809   6.528  17.015  1.00  0.00     0.183 C 
BRANCH  22  23
HETATM   23  O1  UNL     1       6.384   7.637  16.295  1.00  0.00    -0.399 OA
ATOM     24  H1  UNL     1       6.350   8.419  16.834  1.00  0.00     0.209 HD
ENDBRANCH  22  23
ENDBRANCH  21  22
ENDBRANCH  19  21
ENDBRANCH  16  19
ENDBRANCH  10  13
TORSDOF 5
ENDMDL
MODEL 4
REMARK VINA RESULT: -5.459691897      2.356      2.611
REMARK  5 active torsions:
REMARK  status: ('A' for Active; 'I' for Inactive)
REMARK    1  A    between atoms: N2_10  and  C7_11 
REMARK    2  A    between atoms: C9_14  and  N3_15 
REMARK    3  A    between atoms: N3_15  and  C10_17 
REMARK    4  A    between atoms: C10_17  and  C11_18 
REMARK    5  A    between atoms: C11_18  and  O1_19 
ROOT
HETATM    1  C1  UNL     1       2.976   6.930  21.571  1.00  0.00     0.054 C 
HETATM    2  C2  UNL     1       3.527   5.537  21.611  1.00  0.00     0.174 C 
HETATM    3  C3  UNL     1       2.758   4.614  20.682  1.00  0.00     0.054 C 
HETATM    4  N1  UNL     1       3.391   5.032  22.949  1.00  0.00    -0.034 N 
ATOM      5  H11 UNL     1       2.684   4.302  23.026  1.00  0.00     0.281 HD
ATOM      6  H12 UNL     1       2.961   5.705  23.585  1.00  0.00     0.281 HD
HETATM    7  C4  UNL     1       4.696   4.597  23.393  1.00  0.00     0.200 C 
HETATM    8  C5  UNL     1       4.717   3.088  23.387  1.00  0.00     0.071 C 
HETATM    9  C6  UNL     1       4.867   5.139  24.817  1.00  0.00     0.071 C 
HETATM   10  N2  UNL     1       5.643   5.192  22.510  1.00  0.00    -0.290 N 
HETATM   11  C12 UNL     1       4.978   5.524  21.307  1.00  0.00     0.119 C 
HETATM   12  S2  UNL     1       5.668   5.827  19.875  1.00  0.00    -0.062 SA
ENDROOT
BRANCH  10  13
HETATM   13  C7  UNL     1       7.054   5.410  22.821  1.00  0.00     0.119 A 
HETATM   14  C8  UNL     1       7.584   6.669  22.679  1.00  0.00     0.102 A 
HETATM   15  S1  UNL     1       9.208   6.433  23.145  1.00  0.00    -0.062 SA
HETATM   16  C9  UNL     1       9.127   4.765  23.491  1.00  0.00     0.146 A 
HETATM   17  N4  UNL     1       7.860   4.465  23.235  1.00  0.00    -0.322 N 
ATOM     18  H4  UNL     1       7.518   3.512  23.358  1.00  0.00     0.169 HD
BRANCH  16  19
HETATM   19  N3  UNL     1      10.098   3.986  23.910  1.00  0.00    -0.368 N 
ATOM     20  H3  UNL     1      10.017   3.446  24.771  1.00  0.00     0.161 HD
BRANCH  19  21
HETATM   21  C10 UNL     1      11.284   3.931  23.093  1.00  0.00     0.147 C 
BRANCH  21  22
HETATM   22  C11 UNL     1      12.214   2.816  23.508  1.00  0.00     0.183 C 
BRANCH  22  23
HETATM   23  O1  UNL     1      12.033   1.674  22.741  1.00  0.00    -0.399 OA
ATOM     24  H1  UNL     1      12.764   1.072  22.821  1.00  0.00     0.209 HD
ENDBRANCH  22  23
ENDBRANCH  21  22
ENDBRANCH  19  21
ENDBRANCH  16  19
ENDBRANCH  10  13
TORSDOF 5
ENDMDL
MODEL 5
REMARK VINA RESULT: -5.430006271      3.564      5.114
REMARK  5 active torsions:
REMARK  status: ('A' for Active; 'I' for Inactive)
REMARK    1  A    between atoms: N2_10  and  C7_11 
REMARK    2  A    between atoms: C9_14  and  N3_15 
REMARK    3  A    between atoms: N3_15  and  C10_17 
REMARK    4  A    between atoms: C10_17  and  C11_18 
REMARK    5  A    between atoms: C11_18  and  O1_19 
ROOT
HETATM    1  C1  UNL     1       5.334   2.805  23.558  1.00  0.00     0.054 C 
HETATM    2  C2  UNL     1       5.108   4.274  23.747  1.00  0.00     0.174 C 
HETATM    3  C3  UNL     1       4.801   4.601  25.198  1.00  0.00     0.054 C 
HETATM    4  N1  UNL     1       3.975   4.667  22.956  1.00  0.00    -0.034 N 
ATOM      5  H11 UNL     1       3.159   4.898  23.521  1.00  0.00     0.281 HD
ATOM      6  H12 UNL     1       3.566   3.890  22.437  1.00  0.00     0.281 HD
HETATM    7  C4  UNL     1       4.390   5.755  22.100  1.00  0.00     0.200 C 
HETATM    8  C5  UNL     1       3.793   7.032  22.639  1.00  0.00     0.071 C 
HETATM    9  C6  UNL     1       3.834   5.440  20.706  1.00  0.00     0.071 C 
HETATM   10  N2  UNL     1       5.815   5.742  22.089  1.00  0.00    -0.290 N 
HETATM   11  C12 UNL     1       6.259   5.064  23.248  1.00  0.00     0.119 C 
HETATM   12  S2  UNL     1       7.737   5.138  23.901  1.00  0.00    -0.062 SA
ENDROOT
BRANCH  10  13
HETATM   13  C7  UNL     1       6.648   6.336  21.046  1.00  0.00     0.119 A 
HETATM   14  C8  UNL     1       7.453   7.403  21.360  1.00  0.00     0.102 A 
HETATM   15  S1  UNL     1       8.209   7.739  19.868  1.00  0.00    -0.062 SA
HETATM   16  C9  UNL     1       7.469   6.518  18.935  1.00  0.00     0.146 A 
HETATM   17  N4  UNL     1       6.676   5.909  19.809  1.00  0.00    -0.322 N 
ATOM     18  H4  UNL     1       6.098   5.120  19.522  1.00  0.00     0.169 HD
BRANCH  16  19
HETATM   19  N3  UNL     1       7.653   6.261  17.660  1.00  0.00    -0.368 N 
ATOM     20  H3  UNL     1       8.504   5.811  17.323  1.00  0.00     0.161 HD
BRANCH  19  21
HETATM   21  C10 UNL     1       6.595   6.646  16.761  1.00  0.00     0.147 C 
BRANCH  21  22
HETATM   22  C11 UNL     1       5.530   5.582  16.642  1.00  0.00     0.183 C 
BRANCH  22  23
HETATM   23  O1  UNL     1       4.408   5.881  17.403  1.00  0.00    -0.399 OA
ATOM     24  H1  UNL     1       3.812   5.144  17.464  1.00  0.00     0.209 HD
ENDBRANCH  22  23
ENDBRANCH  21  22
ENDBRANCH  19  21
ENDBRANCH  16  19
ENDBRANCH  10  13
TORSDOF 5
ENDMDL
