MODEL 1
REMARK VINA RESULT: -4.494918398      0.000      0.000
REMARK  8 active torsions:
REMARK  status: ('A' for Active; 'I' for Inactive)
REMARK    1  A    between atoms: O1_2  and  C2_3 
REMARK    2  A    between atoms: C2_3  and  C3_4 
REMARK    3  A    between atoms: C2_3  and  N5_27 
REMARK    4  A    between atoms: C6_9  and  N2_10 
REMARK    5  A    between atoms: N2_10  and  C7_12 
REMARK    6  A    between atoms: C7_12  and  C8_13 
REMARK    7  A    between atoms: C7_12  and  C10_17 
REMARK    8  A    between atoms: C8_13  and  O2_15 
ROOT
HETATM    1  C3  UNL     1     -12.436   3.951   7.312  1.00  0.00     0.142 A 
HETATM    2  N1  UNL     1     -11.432   4.855   7.378  1.00  0.00    -0.340 N 
ATOM      3  H1  UNL     1     -10.701   4.852   8.089  1.00  0.00     0.167 HD
HETATM    4  C4  UNL     1     -11.520   5.755   6.391  1.00  0.00     0.065 A 
HETATM    5  C5  UNL     1     -10.779   6.856   6.003  1.00  0.00     0.080 A 
HETATM    6  C6  UNL     1     -11.112   7.626   4.908  1.00  0.00     0.103 A 
HETATM    7  N3  UNL     1     -12.204   7.267   4.211  1.00  0.00    -0.350 N 
ATOM      8  H3  UNL     1     -12.480   7.814   3.395  1.00  0.00     0.166 HD
HETATM    9  C14 UNL     1     -12.949   6.183   4.577  1.00  0.00     0.121 A 
HETATM   10  C15 UNL     1     -12.631   5.403   5.667  1.00  0.00     0.076 A 
HETATM   11  N4  UNL     1     -13.161   4.307   6.253  1.00  0.00    -0.339 N 
ATOM     12  H4  UNL     1     -13.998   3.822   5.931  1.00  0.00     0.167 HD
ENDROOT
BRANCH   6  13
HETATM   13  N2  UNL     1     -10.374   8.617   4.629  1.00  0.00    -0.368 N 
ATOM     14  H2  UNL     1     -10.280   8.863   3.644  1.00  0.00     0.161 HD
BRANCH  13  15
HETATM   15  C7  UNL     1      -9.648   9.433   5.589  1.00  0.00     0.118 C 
BRANCH  15  16
HETATM   16  C8  UNL     1      -8.245   9.548   5.091  1.00  0.00     0.137 C 
HETATM   17  C9  UNL     1      -7.772   8.374   4.276  1.00  0.00     0.041 C 
BRANCH  16  18
HETATM   18  O2  UNL     1      -7.342   9.908   6.094  1.00  0.00    -0.394 OA
ATOM     19  H2  UNL     1      -6.460  10.042   5.766  1.00  0.00     0.210 HD
ENDBRANCH  16  18
ENDBRANCH  15  16
BRANCH  15  20
HETATM   20  C10 UNL     1     -10.380  10.737   5.682  1.00  0.00    -0.029 C 
HETATM   21  C11 UNL     1     -11.814  10.624   5.211  1.00  0.00     0.016 C 
HETATM   22  C12 UNL     1     -10.449  11.134   7.164  1.00  0.00     0.016 C 
HETATM   23  C13 UNL     1      -9.744  11.874   4.962  1.00  0.00     0.016 C 
ENDBRANCH  15  20
ENDBRANCH  13  15
ENDBRANCH   6  13
BRANCH   1  24
HETATM   24  C2  UNL     1     -12.670   2.800   8.206  1.00  0.00     0.426 C 
BRANCH  24  25
HETATM   25  O1  UNL     1     -12.990   1.651   7.494  1.00  0.00    -0.357 OA
HETATM   26  C1  UNL     1     -12.644   0.486   8.166  1.00  0.00     0.204 C 
ENDBRANCH  24  25
BRANCH  24  27
HETATM   27  N5  UNL     1     -13.558   3.097   9.263  1.00  0.00     0.116 N 
HETATM   28  C16 UNL     1     -14.287   4.335   9.126  1.00  0.00     0.313 C 
HETATM   29  C17 UNL     1     -13.012   2.972  10.576  1.00  0.00     0.313 C 
ENDBRANCH  24  27
ENDBRANCH   1  24
TORSDOF 8
ENDMDL
MODEL 2
REMARK VINA RESULT: -3.374979869      8.675      9.974
REMARK  8 active torsions:
REMARK  status: ('A' for Active; 'I' for Inactive)
REMARK    1  A    between atoms: O1_2  and  C2_3 
REMARK    2  A    between atoms: C2_3  and  C3_4 
REMARK    3  A    between atoms: C2_3  and  N5_27 
REMARK    4  A    between atoms: C6_9  and  N2_10 
REMARK    5  A    between atoms: N2_10  and  C7_12 
REMARK    6  A    between atoms: C7_12  and  C8_13 
REMARK    7  A    between atoms: C7_12  and  C10_17 
REMARK    8  A    between atoms: C8_13  and  O2_15 
ROOT
HETATM    1  C3  UNL     1      -5.964   5.479  15.221  1.00  0.00     0.142 A 
HETATM    2  N1  UNL     1      -6.511   6.532  14.570  1.00  0.00    -0.340 N 
ATOM      3  H1  UNL     1      -7.505   6.624  14.359  1.00  0.00     0.167 HD
HETATM    4  C4  UNL     1      -5.582   7.437  14.240  1.00  0.00     0.065 A 
HETATM    5  C5  UNL     1      -5.594   8.657  13.589  1.00  0.00     0.080 A 
HETATM    6  C6  UNL     1      -4.449   9.398  13.381  1.00  0.00     0.103 A 
HETATM    7  N3  UNL     1      -3.294   8.890  13.841  1.00  0.00    -0.350 N 
ATOM      8  H3  UNL     1      -2.427   9.411  13.705  1.00  0.00     0.166 HD
HETATM    9  C14 UNL     1      -3.260   7.687  14.487  1.00  0.00     0.121 A 
HETATM   10  C15 UNL     1      -4.393   6.934  14.703  1.00  0.00     0.076 A 
HETATM   11  N4  UNL     1      -4.661   5.747  15.291  1.00  0.00    -0.339 N 
ATOM     12  H4  UNL     1      -3.965   5.142  15.726  1.00  0.00     0.167 HD
ENDROOT
BRANCH   6  13
HETATM   13  N2  UNL     1      -4.558  10.505  12.774  1.00  0.00    -0.368 N 
ATOM     14  H2  UNL     1      -4.031  11.293  13.148  1.00  0.00     0.161 HD
BRANCH  13  15
HETATM   15  C7  UNL     1      -5.368  10.750  11.592  1.00  0.00     0.118 C 
BRANCH  15  16
HETATM   16  C8  UNL     1      -5.906  12.138  11.711  1.00  0.00     0.137 C 
HETATM   17  C9  UNL     1      -6.940  12.317  12.790  1.00  0.00     0.041 C 
BRANCH  16  18
HETATM   18  O2  UNL     1      -6.307  12.672  10.484  1.00  0.00    -0.394 OA
ATOM     19  H2  UNL     1      -7.065  13.239  10.559  1.00  0.00     0.210 HD
ENDBRANCH  16  18
ENDBRANCH  15  16
BRANCH  15  20
HETATM   20  C10 UNL     1      -4.475  10.532  10.408  1.00  0.00    -0.029 C 
HETATM   21  C11 UNL     1      -3.125  11.195  10.579  1.00  0.00     0.016 C 
HETATM   22  C12 UNL     1      -4.199   9.026  10.297  1.00  0.00     0.016 C 
HETATM   23  C13 UNL     1      -5.040  10.963   9.100  1.00  0.00     0.016 C 
ENDBRANCH  15  20
ENDBRANCH  13  15
ENDBRANCH   6  13
BRANCH   1  24
HETATM   24  C2  UNL     1      -6.661   4.294  15.761  1.00  0.00     0.426 C 
BRANCH  24  25
HETATM   25  O1  UNL     1      -7.036   4.477  17.085  1.00  0.00    -0.357 OA
HETATM   26  C1  UNL     1      -8.148   5.298  17.222  1.00  0.00     0.204 C 
ENDBRANCH  24  25
BRANCH  24  27
HETATM   27  N5  UNL     1      -5.968   3.089  15.511  1.00  0.00     0.116 N 
HETATM   28  C16 UNL     1      -6.017   2.621  14.148  1.00  0.00     0.313 C 
HETATM   29  C17 UNL     1      -6.241   2.026  16.423  1.00  0.00     0.313 C 
ENDBRANCH  24  27
ENDBRANCH   1  24
TORSDOF 8
ENDMDL
MODEL 3
REMARK VINA RESULT: -3.216635777      1.669      2.733
REMARK  8 active torsions:
REMARK  status: ('A' for Active; 'I' for Inactive)
REMARK    1  A    between atoms: O1_2  and  C2_3 
REMARK    2  A    between atoms: C2_3  and  C3_4 
REMARK    3  A    between atoms: C2_3  and  N5_27 
REMARK    4  A    between atoms: C6_9  and  N2_10 
REMARK    5  A    between atoms: N2_10  and  C7_12 
REMARK    6  A    between atoms: C7_12  and  C8_13 
REMARK    7  A    between atoms: C7_12  and  C10_17 
REMARK    8  A    between atoms: C8_13  and  O2_15 
ROOT
HETATM    1  C3  UNL     1     -12.989   4.178   6.419  1.00  0.00     0.142 A 
HETATM    2  N1  UNL     1     -13.469   5.283   5.804  1.00  0.00    -0.340 N 
ATOM      3  H1  UNL     1     -14.413   5.367   5.426  1.00  0.00     0.167 HD
HETATM    4  C4  UNL     1     -12.548   6.253   5.755  1.00  0.00     0.065 A 
HETATM    5  C5  UNL     1     -12.511   7.543   5.257  1.00  0.00     0.080 A 
HETATM    6  C6  UNL     1     -11.390   8.342   5.349  1.00  0.00     0.103 A 
HETATM    7  N3  UNL     1     -10.309   7.820   5.951  1.00  0.00    -0.350 N 
ATOM      8  H3  UNL     1      -9.462   8.383   6.037  1.00  0.00     0.166 HD
HETATM    9  C14 UNL     1     -10.324   6.549   6.451  1.00  0.00     0.121 A 
HETATM   10  C15 UNL     1     -11.435   5.737   6.368  1.00  0.00     0.076 A 
HETATM   11  N4  UNL     1     -11.737   4.479   6.757  1.00  0.00    -0.339 N 
ATOM     12  H4  UNL     1     -11.097   3.849   7.241  1.00  0.00     0.167 HD
ENDROOT
BRANCH   6  13
HETATM   13  N2  UNL     1     -11.450   9.510   4.863  1.00  0.00    -0.368 N 
ATOM     14  H2  UNL     1     -11.960   9.623   3.987  1.00  0.00     0.161 HD
BRANCH  13  15
HETATM   15  C7  UNL     1     -10.857  10.704   5.444  1.00  0.00     0.118 C 
BRANCH  15  16
HETATM   16  C8  UNL     1      -9.722  11.102   4.559  1.00  0.00     0.137 C 
HETATM   17  C9  UNL     1      -8.765   9.987   4.229  1.00  0.00     0.041 C 
BRANCH  16  18
HETATM   18  O2  UNL     1      -9.073  12.259   4.997  1.00  0.00    -0.394 OA
ATOM     19  H2  UNL     1      -8.868  12.857   4.288  1.00  0.00     0.210 HD
ENDBRANCH  16  18
ENDBRANCH  15  16
BRANCH  15  20
HETATM   20  C10 UNL     1     -11.952  11.723   5.541  1.00  0.00    -0.029 C 
HETATM   21  C11 UNL     1     -11.937  12.456   6.865  1.00  0.00     0.016 C 
HETATM   22  C12 UNL     1     -11.703  12.786   4.461  1.00  0.00     0.016 C 
HETATM   23  C13 UNL     1     -13.327  11.198   5.318  1.00  0.00     0.016 C 
ENDBRANCH  15  20
ENDBRANCH  13  15
ENDBRANCH   6  13
BRANCH   1  24
HETATM   24  C2  UNL     1     -13.704   2.913   6.683  1.00  0.00     0.426 C 
BRANCH  24  25
HETATM   25  O1  UNL     1     -13.666   2.571   8.029  1.00  0.00    -0.357 OA
HETATM   26  C1  UNL     1     -14.478   3.379   8.814  1.00  0.00     0.204 C 
ENDBRANCH  24  25
BRANCH  24  27
HETATM   27  N5  UNL     1     -13.324   1.874   5.806  1.00  0.00     0.116 N 
HETATM   28  C16 UNL     1     -13.414   2.190   4.401  1.00  0.00     0.313 C 
HETATM   29  C17 UNL     1     -13.905   0.599   6.077  1.00  0.00     0.313 C 
ENDBRANCH  24  27
ENDBRANCH   1  24
TORSDOF 8
ENDMDL
MODEL 4
REMARK VINA RESULT: -3.034815361      1.490      2.269
REMARK  8 active torsions:
REMARK  status: ('A' for Active; 'I' for Inactive)
REMARK    1  A    between atoms: O1_2  and  C2_3 
REMARK    2  A    between atoms: C2_3  and  C3_4 
REMARK    3  A    between atoms: C2_3  and  N5_27 
REMARK    4  A    between atoms: C6_9  and  N2_10 
REMARK    5  A    between atoms: N2_10  and  C7_12 
REMARK    6  A    between atoms: C7_12  and  C8_13 
REMARK    7  A    between atoms: C7_12  and  C10_17 
REMARK    8  A    between atoms: C8_13  and  O2_15 
ROOT
HETATM    1  C3  UNL     1     -12.832   4.050   7.010  1.00  0.00     0.142 A 
HETATM    2  N1  UNL     1     -13.433   5.154   6.511  1.00  0.00    -0.340 N 
ATOM      3  H1  UNL     1     -14.440   5.257   6.391  1.00  0.00     0.167 HD
HETATM    4  C4  UNL     1     -12.536   6.096   6.194  1.00  0.00     0.065 A 
HETATM    5  C5  UNL     1     -12.603   7.373   5.667  1.00  0.00     0.080 A 
HETATM    6  C6  UNL     1     -11.481   8.142   5.439  1.00  0.00     0.103 A 
HETATM    7  N3  UNL     1     -10.290   7.603   5.751  1.00  0.00    -0.350 N 
ATOM      8  H3  UNL     1      -9.439   8.143   5.596  1.00  0.00     0.166 HD
HETATM    9  C14 UNL     1     -10.201   6.344   6.274  1.00  0.00     0.121 A 
HETATM   10  C15 UNL     1     -11.312   5.562   6.508  1.00  0.00     0.076 A 
HETATM   11  N4  UNL     1     -11.528   4.322   6.999  1.00  0.00    -0.339 N 
ATOM     12  H4  UNL     1     -10.798   3.685   7.315  1.00  0.00     0.167 HD
ENDROOT
BRANCH   6  13
HETATM   13  N2  UNL     1     -11.641   9.301   4.952  1.00  0.00    -0.368 N 
ATOM     14  H2  UNL     1     -11.821   9.363   3.951  1.00  0.00     0.161 HD
BRANCH  13  15
HETATM   15  C7  UNL     1     -11.591  10.549   5.696  1.00  0.00     0.118 C 
BRANCH  15  16
HETATM   16  C8  UNL     1     -10.199  11.075   5.573  1.00  0.00     0.137 C 
HETATM   17  C9  UNL     1      -9.544  10.806   4.244  1.00  0.00     0.041 C 
BRANCH  16  18
HETATM   18  O2  UNL     1      -9.389  10.724   6.656  1.00  0.00    -0.394 OA
ATOM     19  H2  UNL     1      -9.355   9.786   6.802  1.00  0.00     0.210 HD
ENDBRANCH  16  18
ENDBRANCH  15  16
BRANCH  15  20
HETATM   20  C10 UNL     1     -12.644  11.440   5.109  1.00  0.00    -0.029 C 
HETATM   21  C11 UNL     1     -12.055  12.507   4.211  1.00  0.00     0.016 C 
HETATM   22  C12 UNL     1     -13.544  10.578   4.212  1.00  0.00     0.016 C 
HETATM   23  C13 UNL     1     -13.534  12.106   6.098  1.00  0.00     0.016 C 
ENDBRANCH  15  20
ENDBRANCH  13  15
ENDBRANCH   6  13
BRANCH   1  24
HETATM   24  C2  UNL     1     -13.479   2.812   7.488  1.00  0.00     0.426 C 
BRANCH  24  25
HETATM   25  O1  UNL     1     -14.376   2.306   6.556  1.00  0.00    -0.357 OA
HETATM   26  C1  UNL     1     -13.994   1.066   6.058  1.00  0.00     0.204 C 
ENDBRANCH  24  25
BRANCH  24  27
HETATM   27  N5  UNL     1     -14.004   2.936   8.794  1.00  0.00     0.116 N 
HETATM   28  C16 UNL     1     -13.242   3.775   9.686  1.00  0.00     0.313 C 
HETATM   29  C17 UNL     1     -14.361   1.709   9.430  1.00  0.00     0.313 C 
ENDBRANCH  24  27
ENDBRANCH   1  24
TORSDOF 8
ENDMDL
MODEL 5
REMARK VINA RESULT: -2.888605576      1.510      7.913
REMARK  8 active torsions:
REMARK  status: ('A' for Active; 'I' for Inactive)
REMARK    1  A    between atoms: O1_2  and  C2_3 
REMARK    2  A    between atoms: C2_3  and  C3_4 
REMARK    3  A    between atoms: C2_3  and  N5_27 
REMARK    4  A    between atoms: C6_9  and  N2_10 
REMARK    5  A    between atoms: N2_10  and  C7_12 
REMARK    6  A    between atoms: C7_12  and  C8_13 
REMARK    7  A    between atoms: C7_12  and  C10_17 
REMARK    8  A    between atoms: C8_13  and  O2_15 
ROOT
HETATM    1  C3  UNL     1     -10.851   7.796   5.815  1.00  0.00     0.142 A 
HETATM    2  N1  UNL     1     -10.744   6.754   6.672  1.00  0.00    -0.340 N 
ATOM      3  H1  UNL     1     -10.046   6.688   7.413  1.00  0.00     0.167 HD
HETATM    4  C4  UNL     1     -11.671   5.822   6.422  1.00  0.00     0.065 A 
HETATM    5  C5  UNL     1     -12.001   4.598   6.977  1.00  0.00     0.080 A 
HETATM    6  C6  UNL     1     -13.040   3.825   6.502  1.00  0.00     0.103 A 
HETATM    7  N3  UNL     1     -13.741   4.305   5.461  1.00  0.00    -0.350 N 
ATOM      8  H3  UNL     1     -14.516   3.759   5.084  1.00  0.00     0.166 HD
HETATM    9  C14 UNL     1     -13.432   5.511   4.899  1.00  0.00     0.121 A 
HETATM   10  C15 UNL     1     -12.398   6.296   5.360  1.00  0.00     0.076 A 
HETATM   11  N4  UNL     1     -11.873   7.493   5.018  1.00  0.00    -0.339 N 
ATOM     12  H4  UNL     1     -12.212   8.081   4.257  1.00  0.00     0.167 HD
ENDROOT
BRANCH   6  13
HETATM   13  N2  UNL     1     -13.268   2.718   7.074  1.00  0.00    -0.368 N 
ATOM     14  H2  UNL     1     -13.798   2.023   6.548  1.00  0.00     0.161 HD
BRANCH  13  15
HETATM   15  C7  UNL     1     -12.842   2.350   8.415  1.00  0.00     0.118 C 
BRANCH  15  16
HETATM   16  C8  UNL     1     -13.612   3.204   9.368  1.00  0.00     0.137 C 
HETATM   17  C9  UNL     1     -12.770   4.154  10.177  1.00  0.00     0.041 C 
BRANCH  16  18
HETATM   18  O2  UNL     1     -14.506   2.472  10.152  1.00  0.00    -0.394 OA
ATOM     19  H2  UNL     1     -15.080   1.916   9.636  1.00  0.00     0.210 HD
ENDBRANCH  16  18
ENDBRANCH  15  16
BRANCH  15  20
HETATM   20  C10 UNL     1     -13.097   0.880   8.557  1.00  0.00    -0.029 C 
HETATM   21  C11 UNL     1     -14.123   0.377   7.564  1.00  0.00     0.016 C 
HETATM   22  C12 UNL     1     -11.791   0.141   8.231  1.00  0.00     0.016 C 
HETATM   23  C13 UNL     1     -13.513   0.438   9.916  1.00  0.00     0.016 C 
ENDBRANCH  15  20
ENDBRANCH  13  15
ENDBRANCH   6  13
BRANCH   1  24
HETATM   24  C2  UNL     1     -10.027   9.021   5.782  1.00  0.00     0.426 C 
BRANCH  24  25
HETATM   25  O1  UNL     1     -10.707  10.084   5.201  1.00  0.00    -0.357 OA
HETATM   26  C1  UNL     1     -11.109  11.037   6.128  1.00  0.00     0.204 C 
ENDBRANCH  24  25
BRANCH  24  27
HETATM   27  N5  UNL     1      -8.734   8.800   5.258  1.00  0.00     0.116 N 
HETATM   28  C16 UNL     1      -8.002   9.990   4.900  1.00  0.00     0.313 C 
HETATM   29  C17 UNL     1      -8.652   7.822   4.222  1.00  0.00     0.313 C 
ENDBRANCH  24  27
ENDBRANCH   1  24
TORSDOF 8
ENDMDL
