MODEL 1
REMARK VINA RESULT: -8.509590470      0.000      0.000
REMARK  7 active torsions:
REMARK  status: ('A' for Active; 'I' for Inactive)
REMARK    1  A    between atoms: C3_3  and  C5_5 
REMARK    2  A    between atoms: C5_5  and  N1_6 
REMARK    3  A    between atoms: N1_6  and  C7_8 
REMARK    4  A    between atoms: C8_11  and  N3_12 
REMARK    5  A    between atoms: N3_12  and  C9_14 
REMARK    6  A    between atoms: C9_14  and  C10_15 
REMARK    7  A    between atoms: C10_15  and  O1_16 
ROOT
HETATM    1  C1  UNL     1      -5.837   2.767  15.456  1.00  0.00     0.012 C 
HETATM    2  C2  UNL     1      -6.039   3.953  15.571  1.00  0.00    -0.111 C 
HETATM    3  C3  UNL     1      -6.301   5.372  15.736  1.00  0.00     0.078 C 
HETATM    4  C4  UNL     1      -7.719   5.565  16.301  1.00  0.00     0.025 C 
ENDROOT
BRANCH   3   5
HETATM    5  C5  UNL     1      -6.240   6.185  14.507  1.00  0.00     0.140 C 
BRANCH   5   6
HETATM    6  N1  UNL     1      -5.581   7.467  14.590  1.00  0.00    -0.369 N 
HETATM    7  C6  UNL     1      -4.133   7.501  14.523  1.00  0.00     0.151 C 
BRANCH   6   8
HETATM    8  C7  UNL     1      -6.235   8.678  14.836  1.00  0.00     0.134 A 
HETATM    9  N2  UNL     1      -6.983   8.779  15.988  1.00  0.00    -0.176 N 
HETATM   10  C8  UNL     1      -7.720   9.858  16.304  1.00  0.00     0.681 A 
ATOM     11  H2  UNL     1      -6.977   7.992  16.636  1.00  0.00     0.186 HD
HETATM   12  N4  UNL     1      -7.765  10.916  15.494  1.00  0.00    -0.169 N 
HETATM   13  C11 UNL     1      -7.052  10.880  14.351  1.00  0.00     0.179 A 
ATOM     14  H4  UNL     1      -8.326  11.733  15.734  1.00  0.00     0.186 HD
HETATM   15  O2  UNL     1      -6.935  11.778  13.414  1.00  0.00    -0.275 OA
HETATM   16  C18 UNL     1      -6.280   9.747  14.023  1.00  0.00     0.075 A 
HETATM   17  C12 UNL     1      -6.139  11.363  12.465  1.00  0.00     0.162 A 
HETATM   18  N5  UNL     1      -5.592  11.730  11.280  1.00  0.00    -0.339 N 
HETATM   19  C17 UNL     1      -5.702  10.078  12.817  1.00  0.00     0.041 A 
HETATM   20  C13 UNL     1      -4.822  10.718  10.877  1.00  0.00     0.014 A 
ATOM     21  H5  UNL     1      -5.741  12.612  10.790  1.00  0.00     0.168 HD
HETATM   22  C14 UNL     1      -4.015  10.664   9.628  1.00  0.00     0.068 C 
HETATM   23  C15 UNL     1      -4.870   9.672  11.818  1.00  0.00    -0.024 A 
HETATM   24  C16 UNL     1      -4.117   8.443  11.682  1.00  0.00     0.051 C 
BRANCH  10  25
HETATM   25  N3  UNL     1      -8.384   9.872  17.400  1.00  0.00    -0.224 N 
ATOM     26  H3  UNL     1      -8.577   8.963  17.820  1.00  0.00     0.177 HD
BRANCH  25  27
HETATM   27  C9  UNL     1      -8.880  10.999  18.095  1.00  0.00     0.164 C 
BRANCH  27  28
HETATM   28  C10 UNL     1      -7.793  12.092  18.039  1.00  0.00     0.184 C 
BRANCH  28  29
HETATM   29  O1  UNL     1      -8.286  13.137  17.298  1.00  0.00    -0.399 OA
ATOM     30  H1  UNL     1      -7.865  13.933  17.601  1.00  0.00     0.209 HD
ENDBRANCH  28  29
ENDBRANCH  27  28
ENDBRANCH  25  27
ENDBRANCH  10  25
ENDBRANCH   6   8
ENDBRANCH   5   6
ENDBRANCH   3   5
TORSDOF 7
ENDMDL
MODEL 2
REMARK VINA RESULT: -8.291772122      2.903      5.437
REMARK  7 active torsions:
REMARK  status: ('A' for Active; 'I' for Inactive)
REMARK    1  A    between atoms: C3_3  and  C5_5 
REMARK    2  A    between atoms: C5_5  and  N1_6 
REMARK    3  A    between atoms: N1_6  and  C7_8 
REMARK    4  A    between atoms: C8_11  and  N3_12 
REMARK    5  A    between atoms: N3_12  and  C9_14 
REMARK    6  A    between atoms: C9_14  and  C10_15 
REMARK    7  A    between atoms: C10_15  and  O1_16 
ROOT
HETATM    1  C1  UNL     1      -0.528   9.122  15.092  1.00  0.00     0.012 C 
HETATM    2  C2  UNL     1      -1.532   8.473  14.915  1.00  0.00    -0.111 C 
HETATM    3  C3  UNL     1      -2.729   7.672  14.729  1.00  0.00     0.078 C 
HETATM    4  C4  UNL     1      -2.424   6.209  15.094  1.00  0.00     0.025 C 
ENDROOT
BRANCH   3   5
HETATM    5  C5  UNL     1      -3.278   7.643  13.360  1.00  0.00     0.140 C 
BRANCH   5   6
HETATM    6  N1  UNL     1      -4.714   7.635  13.220  1.00  0.00    -0.369 N 
HETATM    7  C6  UNL     1      -5.282   8.019  11.941  1.00  0.00     0.151 C 
BRANCH   6   8
HETATM    8  C7  UNL     1      -5.610   7.382  14.264  1.00  0.00     0.134 A 
HETATM    9  N2  UNL     1      -5.683   6.095  14.745  1.00  0.00    -0.176 N 
HETATM   10  C8  UNL     1      -6.554   5.703  15.692  1.00  0.00     0.681 A 
ATOM     11  H2  UNL     1      -5.041   5.400  14.363  1.00  0.00     0.186 HD
HETATM   12  N4  UNL     1      -7.416   6.567  16.226  1.00  0.00    -0.169 N 
HETATM   13  C11 UNL     1      -7.394   7.845  15.798  1.00  0.00     0.179 A 
ATOM     14  H4  UNL     1      -8.078   6.269  16.943  1.00  0.00     0.186 HD
HETATM   15  O2  UNL     1      -8.123   8.860  16.166  1.00  0.00    -0.275 OA
HETATM   16  C18 UNL     1      -6.478   8.253  14.806  1.00  0.00     0.075 A 
HETATM   17  C12 UNL     1      -7.786   9.940  15.514  1.00  0.00     0.162 A 
HETATM   18  N5  UNL     1      -8.079  11.258  15.384  1.00  0.00    -0.339 N 
HETATM   19  C17 UNL     1      -6.743   9.594  14.643  1.00  0.00     0.041 A 
HETATM   20  C13 UNL     1      -7.252  11.752  14.463  1.00  0.00     0.014 A 
ATOM     21  H5  UNL     1      -8.796  11.773  15.895  1.00  0.00     0.168 HD
HETATM   22  C14 UNL     1      -7.199  13.161  13.987  1.00  0.00     0.068 C 
HETATM   23  C15 UNL     1      -6.405  10.736  13.981  1.00  0.00    -0.024 A 
HETATM   24  C16 UNL     1      -5.372  10.963  12.992  1.00  0.00     0.051 C 
BRANCH  10  25
HETATM   25  N3  UNL     1      -6.553   4.485  16.088  1.00  0.00    -0.224 N 
ATOM     26  H3  UNL     1      -7.379   4.179  16.603  1.00  0.00     0.177 HD
BRANCH  25  27
HETATM   27  C9  UNL     1      -5.542   3.514  15.899  1.00  0.00     0.164 C 
BRANCH  27  28
HETATM   28  C10 UNL     1      -6.242   2.157  15.676  1.00  0.00     0.184 C 
BRANCH  28  29
HETATM   29  O1  UNL     1      -5.861   1.315  16.690  1.00  0.00    -0.399 OA
ATOM     30  H1  UNL     1      -6.584   0.725  16.866  1.00  0.00     0.209 HD
ENDBRANCH  28  29
ENDBRANCH  27  28
ENDBRANCH  25  27
ENDBRANCH  10  25
ENDBRANCH   6   8
ENDBRANCH   5   6
ENDBRANCH   3   5
TORSDOF 7
ENDMDL
MODEL 3
REMARK VINA RESULT: -8.151484357      2.331      5.997
REMARK  7 active torsions:
REMARK  status: ('A' for Active; 'I' for Inactive)
REMARK    1  A    between atoms: C3_3  and  C5_5 
REMARK    2  A    between atoms: C5_5  and  N1_6 
REMARK    3  A    between atoms: N1_6  and  C7_8 
REMARK    4  A    between atoms: C8_11  and  N3_12 
REMARK    5  A    between atoms: N3_12  and  C9_14 
REMARK    6  A    between atoms: C9_14  and  C10_15 
REMARK    7  A    between atoms: C10_15  and  O1_16 
ROOT
HETATM    1  C1  UNL     1      -1.492   5.701  15.834  1.00  0.00     0.012 C 
HETATM    2  C2  UNL     1      -2.132   6.389  15.072  1.00  0.00    -0.111 C 
HETATM    3  C3  UNL     1      -2.872   7.227  14.146  1.00  0.00     0.078 C 
HETATM    4  C4  UNL     1      -2.101   8.541  13.923  1.00  0.00     0.025 C 
ENDROOT
BRANCH   3   5
HETATM    5  C5  UNL     1      -4.227   7.619  14.574  1.00  0.00     0.140 C 
BRANCH   5   6
HETATM    6  N1  UNL     1      -5.203   7.873  13.541  1.00  0.00    -0.369 N 
HETATM    7  C6  UNL     1      -6.147   6.822  13.214  1.00  0.00     0.151 C 
BRANCH   6   8
HETATM    8  C7  UNL     1      -5.240   9.029  12.754  1.00  0.00     0.134 A 
HETATM    9  N2  UNL     1      -4.527   9.023  11.577  1.00  0.00    -0.176 N 
HETATM   10  C8  UNL     1      -4.416  10.092  10.768  1.00  0.00     0.681 A 
ATOM     11  H2  UNL     1      -4.055   8.161  11.303  1.00  0.00     0.186 HD
HETATM   12  N4  UNL     1      -5.011  11.245  11.076  1.00  0.00    -0.169 N 
HETATM   13  C11 UNL     1      -5.727  11.314  12.216  1.00  0.00     0.179 A 
ATOM     14  H4  UNL     1      -4.926  12.056  10.464  1.00  0.00     0.186 HD
HETATM   15  O2  UNL     1      -6.392  12.313  12.722  1.00  0.00    -0.275 OA
HETATM   16  C18 UNL     1      -5.841  10.191  13.061  1.00  0.00     0.075 A 
HETATM   17  C12 UNL     1      -6.963  11.974  13.847  1.00  0.00     0.162 A 
HETATM   18  N5  UNL     1      -7.749  12.450  14.844  1.00  0.00    -0.339 N 
HETATM   19  C17 UNL     1      -6.637  10.633  14.094  1.00  0.00     0.041 A 
HETATM   20  C13 UNL     1      -7.930  11.451  15.708  1.00  0.00     0.014 A 
ATOM     21  H5  UNL     1      -8.129  13.394  14.919  1.00  0.00     0.168 HD
HETATM   22  C14 UNL     1      -8.729  11.500  16.963  1.00  0.00     0.068 C 
HETATM   23  C15 UNL     1      -7.248  10.301  15.265  1.00  0.00    -0.024 A 
HETATM   24  C16 UNL     1      -7.275   9.038  15.971  1.00  0.00     0.051 C 
BRANCH  10  25
HETATM   25  N3  UNL     1      -3.737  10.001   9.686  1.00  0.00    -0.224 N 
ATOM     26  H3  UNL     1      -2.726   9.912   9.797  1.00  0.00     0.177 HD
BRANCH  25  27
HETATM   27  C9  UNL     1      -4.220  10.010   8.358  1.00  0.00     0.164 C 
BRANCH  27  28
HETATM   28  C10 UNL     1      -4.047   8.584   7.794  1.00  0.00     0.184 C 
BRANCH  28  29
HETATM   29  O1  UNL     1      -4.356   8.619   6.458  1.00  0.00    -0.399 OA
ATOM     30  H1  UNL     1      -3.627   8.241   5.980  1.00  0.00     0.209 HD
ENDBRANCH  28  29
ENDBRANCH  27  28
ENDBRANCH  25  27
ENDBRANCH  10  25
ENDBRANCH   6   8
ENDBRANCH   5   6
ENDBRANCH   3   5
TORSDOF 7
ENDMDL
MODEL 4
REMARK VINA RESULT: -8.073453058      2.161      5.762
REMARK  7 active torsions:
REMARK  status: ('A' for Active; 'I' for Inactive)
REMARK    1  A    between atoms: C3_3  and  C5_5 
REMARK    2  A    between atoms: C5_5  and  N1_6 
REMARK    3  A    between atoms: N1_6  and  C7_8 
REMARK    4  A    between atoms: C8_11  and  N3_12 
REMARK    5  A    between atoms: N3_12  and  C9_14 
REMARK    6  A    between atoms: C9_14  and  C10_15 
REMARK    7  A    between atoms: C10_15  and  O1_16 
ROOT
HETATM    1  C1  UNL     1      -1.753   5.980  15.648  1.00  0.00     0.012 C 
HETATM    2  C2  UNL     1      -2.443   6.630  14.897  1.00  0.00    -0.111 C 
HETATM    3  C3  UNL     1      -3.243   7.423  13.981  1.00  0.00     0.078 C 
HETATM    4  C4  UNL     1      -2.511   8.742  13.678  1.00  0.00     0.025 C 
ENDROOT
BRANCH   3   5
HETATM    5  C5  UNL     1      -4.584   7.804  14.462  1.00  0.00     0.140 C 
BRANCH   5   6
HETATM    6  N1  UNL     1      -5.578   8.135  13.469  1.00  0.00    -0.369 N 
HETATM    7  C6  UNL     1      -6.310   7.051  12.842  1.00  0.00     0.151 C 
BRANCH   6   8
HETATM    8  C7  UNL     1      -5.816   9.426  12.987  1.00  0.00     0.134 A 
HETATM    9  N2  UNL     1      -5.296   9.755  11.757  1.00  0.00    -0.176 N 
HETATM   10  C8  UNL     1      -5.387  10.982  11.214  1.00  0.00     0.681 A 
ATOM     11  H2  UNL     1      -4.814   9.029  11.227  1.00  0.00     0.186 HD
HETATM   12  N4  UNL     1      -6.005  11.970  11.861  1.00  0.00    -0.169 N 
HETATM   13  C11 UNL     1      -6.539  11.711  13.071  1.00  0.00     0.179 A 
ATOM     14  H4  UNL     1      -6.072  12.901  11.450  1.00  0.00     0.186 HD
HETATM   15  O2  UNL     1      -7.185  12.499  13.883  1.00  0.00    -0.275 OA
HETATM   16  C18 UNL     1      -6.441  10.422  13.636  1.00  0.00     0.075 A 
HETATM   17  C12 UNL     1      -7.549  11.861  14.963  1.00  0.00     0.162 A 
HETATM   18  N5  UNL     1      -8.203  12.021  16.141  1.00  0.00    -0.339 N 
HETATM   19  C17 UNL     1      -7.097  10.540  14.842  1.00  0.00     0.041 A 
HETATM   20  C13 UNL     1      -8.178  10.842  16.762  1.00  0.00     0.014 A 
ATOM     21  H5  UNL     1      -8.631  12.880  16.485  1.00  0.00     0.168 HD
HETATM   22  C14 UNL     1      -8.774  10.528  18.090  1.00  0.00     0.068 C 
HETATM   23  C15 UNL     1      -7.494   9.896  15.975  1.00  0.00    -0.024 A 
HETATM   24  C16 UNL     1      -7.324   8.511  16.361  1.00  0.00     0.051 C 
BRANCH  10  25
HETATM   25  N3  UNL     1      -4.878  11.204  10.060  1.00  0.00    -0.224 N 
ATOM     26  H3  UNL     1      -5.384  11.860   9.465  1.00  0.00     0.177 HD
BRANCH  25  27
HETATM   27  C9  UNL     1      -3.700  10.647   9.512  1.00  0.00     0.164 C 
BRANCH  27  28
HETATM   28  C10 UNL     1      -4.126   9.507   8.563  1.00  0.00     0.184 C 
BRANCH  28  29
HETATM   29  O1  UNL     1      -3.992   8.322   9.242  1.00  0.00    -0.399 OA
ATOM     30  H1  UNL     1      -3.249   7.858   8.875  1.00  0.00     0.209 HD
ENDBRANCH  28  29
ENDBRANCH  27  28
ENDBRANCH  25  27
ENDBRANCH  10  25
ENDBRANCH   6   8
ENDBRANCH   5   6
ENDBRANCH   3   5
TORSDOF 7
ENDMDL
MODEL 5
REMARK VINA RESULT: -8.027327178      2.840      5.358
REMARK  7 active torsions:
REMARK  status: ('A' for Active; 'I' for Inactive)
REMARK    1  A    between atoms: C3_3  and  C5_5 
REMARK    2  A    between atoms: C5_5  and  N1_6 
REMARK    3  A    between atoms: N1_6  and  C7_8 
REMARK    4  A    between atoms: C8_11  and  N3_12 
REMARK    5  A    between atoms: N3_12  and  C9_14 
REMARK    6  A    between atoms: C9_14  and  C10_15 
REMARK    7  A    between atoms: C10_15  and  O1_16 
ROOT
HETATM    1  C1  UNL     1      -2.718   6.094  15.800  1.00  0.00     0.012 C 
HETATM    2  C2  UNL     1      -2.662   6.756  14.789  1.00  0.00    -0.111 C 
HETATM    3  C3  UNL     1      -2.562   7.549  13.577  1.00  0.00     0.078 C 
HETATM    4  C4  UNL     1      -1.303   8.431  13.649  1.00  0.00     0.025 C 
ENDROOT
BRANCH   3   5
HETATM    5  C5  UNL     1      -3.686   8.467  13.314  1.00  0.00     0.140 C 
BRANCH   5   6
HETATM    6  N1  UNL     1      -5.002   7.888  13.191  1.00  0.00    -0.369 N 
HETATM    7  C6  UNL     1      -5.557   7.719  11.862  1.00  0.00     0.151 C 
BRANCH   6   8
HETATM    8  C7  UNL     1      -5.831   7.571  14.272  1.00  0.00     0.134 A 
HETATM    9  N2  UNL     1      -5.880   6.256  14.675  1.00  0.00    -0.176 N 
HETATM   10  C8  UNL     1      -6.691   5.806  15.649  1.00  0.00     0.681 A 
ATOM     11  H2  UNL     1      -5.268   5.586  14.210  1.00  0.00     0.186 HD
HETATM   12  N4  UNL     1      -7.513   6.636  16.291  1.00  0.00    -0.169 N 
HETATM   13  C11 UNL     1      -7.511   7.938  15.944  1.00  0.00     0.179 A 
ATOM     14  H4  UNL     1      -8.130   6.294  17.028  1.00  0.00     0.186 HD
HETATM   15  O2  UNL     1      -8.210   8.929  16.420  1.00  0.00    -0.275 OA
HETATM   16  C18 UNL     1      -6.658   8.407  14.922  1.00  0.00     0.075 A 
HETATM   17  C12 UNL     1      -7.909  10.048  15.817  1.00  0.00     0.162 A 
HETATM   18  N5  UNL     1      -8.203  11.371  15.790  1.00  0.00    -0.339 N 
HETATM   19  C17 UNL     1      -6.926   9.756  14.861  1.00  0.00     0.041 A 
HETATM   20  C13 UNL     1      -7.434  11.922  14.851  1.00  0.00     0.014 A 
ATOM     21  H5  UNL     1      -8.884  11.854  16.377  1.00  0.00     0.168 HD
HETATM   22  C14 UNL     1      -7.403  13.358  14.462  1.00  0.00     0.068 C 
HETATM   23  C15 UNL     1      -6.624  10.937  14.253  1.00  0.00    -0.024 A 
HETATM   24  C16 UNL     1      -5.656  11.224  13.216  1.00  0.00     0.051 C 
BRANCH  10  25
HETATM   25  N3  UNL     1      -6.671   4.565  15.967  1.00  0.00    -0.224 N 
ATOM     26  H3  UNL     1      -7.477   4.223  16.491  1.00  0.00     0.177 HD
BRANCH  25  27
HETATM   27  C9  UNL     1      -5.666   3.614  15.679  1.00  0.00     0.164 C 
BRANCH  27  28
HETATM   28  C10 UNL     1      -6.313   2.217  15.769  1.00  0.00     0.184 C 
BRANCH  28  29
HETATM   29  O1  UNL     1      -5.560   1.458  16.629  1.00  0.00    -0.399 OA
ATOM     30  H1  UNL     1      -4.698   1.350  16.244  1.00  0.00     0.209 HD
ENDBRANCH  28  29
ENDBRANCH  27  28
ENDBRANCH  25  27
ENDBRANCH  10  25
ENDBRANCH   6   8
ENDBRANCH   5   6
ENDBRANCH   3   5
TORSDOF 7
ENDMDL
