MODEL 1
REMARK VINA RESULT: -4.364481374      0.000      0.000
REMARK  6 active torsions:
REMARK  status: ('A' for Active; 'I' for Inactive)
REMARK    1  A    between atoms: C2_2  and  N1_3 
REMARK    2  A    between atoms: C2_2  and  C15_24 
REMARK    3  A    between atoms: N1_3  and  C3_6 
REMARK    4  A    between atoms: C5_8  and  C6_9 
REMARK    5  A    between atoms: C7_14  and  C8_15 
REMARK    6  A    between atoms: C15_24  and  C16_25 
ROOT
HETATM    1  C16 UNL     1     -11.351  12.200   7.060  1.00  0.00     0.138 C 
HETATM    2  C17 UNL     1     -12.425  13.208   7.249  1.00  0.00     0.060 C 
HETATM    3  N5  UNL     1     -13.279  13.988   7.382  1.00  0.00    -0.197 NA
ENDROOT
BRANCH   1   4
HETATM    4  C15 UNL     1     -11.301  11.790   5.607  1.00  0.00     0.047 A 
HETATM    5  C18 UNL     1      -9.944  11.674   4.992  1.00  0.00     0.246 A 
HETATM    6  N6  UNL     1     -10.161  12.880   4.230  1.00  0.00    -0.073 N 
HETATM    7  C19 UNL     1     -11.504  13.034   4.749  1.00  0.00     0.246 A 
ATOM      8  H62 UNL     1      -9.501  13.652   4.327  1.00  0.00     0.277 HD
ATOM      9  H61 UNL     1     -10.019  12.860   3.220  1.00  0.00     0.277 HD
BRANCH   4  10
HETATM   10  C2  UNL     1     -12.312  10.750   5.278  1.00  0.00     0.195 C 
HETATM   11  C1  UNL     1     -13.466  11.227   4.438  1.00  0.00     0.041 C 
BRANCH  10  12
HETATM   12  N1  UNL     1     -11.781   9.505   4.777  1.00  0.00    -0.066 N 
ATOM     13  H12 UNL     1     -12.044   9.368   3.802  1.00  0.00     0.278 HD
ATOM     14  H11 UNL     1     -10.768   9.560   4.675  1.00  0.00     0.278 HD
BRANCH  12  15
HETATM   15  C3  UNL     1     -12.148   8.369   5.564  1.00  0.00     0.188 A 
HETATM   16  C4  UNL     1     -11.096   7.311   5.727  1.00  0.00     0.045 A 
HETATM   17  C5  UNL     1     -11.942   6.384   4.861  1.00  0.00     0.059 A 
HETATM   18  C14 UNL     1     -13.036   7.416   4.823  1.00  0.00     0.045 A 
BRANCH  17  19
HETATM   19  C6  UNL     1     -12.307   5.115   5.546  1.00  0.00     0.101 A 
HETATM   20  N2  UNL     1     -12.670   3.986   4.914  1.00  0.00    -0.287 N 
HETATM   21  N3  UNL     1     -12.955   3.037   5.779  1.00  0.00    -0.284 N 
ATOM     22  H2  UNL     1     -12.719   3.879   3.900  1.00  0.00     0.188 HD
HETATM   23  C7  UNL     1     -12.782   3.529   7.003  1.00  0.00     0.127 A 
ATOM     24  H3  UNL     1     -13.256   2.089   5.552  1.00  0.00     0.188 HD
HETATM   25  N4  UNL     1     -12.382   4.814   6.852  1.00  0.00    -0.329 N 
ATOM     26  H4  UNL     1     -12.168   5.455   7.615  1.00  0.00     0.168 HD
BRANCH  23  27
HETATM   27  C8  UNL     1     -12.978   2.882   8.297  1.00  0.00    -0.016 C 
HETATM   28  C9  UNL     1     -13.505   3.509   9.337  1.00  0.00    -0.016 C 
HETATM   29  C10 UNL     1     -13.731   2.927  10.665  1.00  0.00     0.028 C 
HETATM   30  C11 UNL     1     -13.721   1.438  10.697  1.00  0.00     0.004 C 
HETATM   31  C12 UNL     1     -13.762   0.863   9.310  1.00  0.00     0.005 C 
HETATM   32  C13 UNL     1     -12.585   1.458   8.532  1.00  0.00     0.042 C 
ENDBRANCH  23  27
ENDBRANCH  17  19
ENDBRANCH  12  15
ENDBRANCH  10  12
ENDBRANCH   4  10
ENDBRANCH   1   4
TORSDOF 6
ENDMDL
MODEL 2
REMARK VINA RESULT: -4.121851800      2.030      8.877
REMARK  6 active torsions:
REMARK  status: ('A' for Active; 'I' for Inactive)
REMARK    1  A    between atoms: C2_2  and  N1_3 
REMARK    2  A    between atoms: C2_2  and  C15_24 
REMARK    3  A    between atoms: N1_3  and  C3_6 
REMARK    4  A    between atoms: C5_8  and  C6_9 
REMARK    5  A    between atoms: C7_14  and  C8_15 
REMARK    6  A    between atoms: C15_24  and  C16_25 
ROOT
HETATM    1  C16 UNL     1     -11.493   4.351   7.132  1.00  0.00     0.138 C 
HETATM    2  C17 UNL     1     -11.500   5.346   8.234  1.00  0.00     0.060 C 
HETATM    3  N5  UNL     1     -11.524   6.118   9.105  1.00  0.00    -0.197 NA
ENDROOT
BRANCH   1   4
HETATM    4  C15 UNL     1     -12.904   4.155   6.628  1.00  0.00     0.047 A 
HETATM    5  C18 UNL     1     -13.931   3.778   7.647  1.00  0.00     0.246 A 
HETATM    6  N6  UNL     1     -13.985   2.432   7.130  1.00  0.00    -0.073 N 
HETATM    7  C19 UNL     1     -13.028   2.734   6.086  1.00  0.00     0.246 A 
ATOM      8  H62 UNL     1     -13.800   1.652   7.760  1.00  0.00     0.277 HD
ATOM      9  H61 UNL     1     -14.889   2.036   6.873  1.00  0.00     0.277 HD
BRANCH   4  10
HETATM   10  C2  UNL     1     -13.278   5.152   5.590  1.00  0.00     0.195 C 
HETATM   11  C1  UNL     1     -14.412   6.067   5.966  1.00  0.00     0.041 C 
BRANCH  10  12
HETATM   12  N1  UNL     1     -12.179   5.890   5.015  1.00  0.00    -0.066 N 
ATOM     13  H12 UNL     1     -11.288   5.459   5.259  1.00  0.00     0.278 HD
ATOM     14  H11 UNL     1     -12.155   5.769   4.003  1.00  0.00     0.278 HD
BRANCH  12  15
HETATM   15  C3  UNL     1     -12.181   7.277   5.359  1.00  0.00     0.188 A 
HETATM   16  C4  UNL     1     -12.264   8.242   4.212  1.00  0.00     0.045 A 
HETATM   17  C5  UNL     1     -10.829   8.662   4.504  1.00  0.00     0.059 A 
HETATM   18  C14 UNL     1     -10.818   7.783   5.725  1.00  0.00     0.045 A 
BRANCH  17  19
HETATM   19  C6  UNL     1     -10.690  10.117   4.784  1.00  0.00     0.101 A 
HETATM   20  N2  UNL     1      -9.575  10.832   4.559  1.00  0.00    -0.287 N 
HETATM   21  N3  UNL     1      -9.743  12.086   4.923  1.00  0.00    -0.284 N 
ATOM     22  H2  UNL     1      -8.715  10.455   4.160  1.00  0.00     0.188 HD
HETATM   23  C7  UNL     1     -10.979  12.215   5.396  1.00  0.00     0.127 A 
ATOM     24  H3  UNL     1      -9.047  12.828   4.854  1.00  0.00     0.188 HD
HETATM   25  N4  UNL     1     -11.559  10.995   5.308  1.00  0.00    -0.329 N 
ATOM     26  H4  UNL     1     -12.513  10.777   5.595  1.00  0.00     0.168 HD
BRANCH  23  27
HETATM   27  C8  UNL     1     -11.645  13.399   5.934  1.00  0.00    -0.016 C 
HETATM   28  C9  UNL     1     -11.594  14.579   5.336  1.00  0.00    -0.016 C 
HETATM   29  C10 UNL     1     -12.234  15.810   5.814  1.00  0.00     0.028 C 
HETATM   30  C11 UNL     1     -13.316  15.596   6.815  1.00  0.00     0.004 C 
HETATM   31  C12 UNL     1     -13.700  14.146   6.900  1.00  0.00     0.005 C 
HETATM   32  C13 UNL     1     -12.427  13.352   7.207  1.00  0.00     0.042 C 
ENDBRANCH  23  27
ENDBRANCH  17  19
ENDBRANCH  12  15
ENDBRANCH  10  12
ENDBRANCH   4  10
ENDBRANCH   1   4
TORSDOF 6
ENDMDL
MODEL 3
REMARK VINA RESULT: -4.084098450      1.647      8.832
REMARK  6 active torsions:
REMARK  status: ('A' for Active; 'I' for Inactive)
REMARK    1  A    between atoms: C2_2  and  N1_3 
REMARK    2  A    between atoms: C2_2  and  C15_24 
REMARK    3  A    between atoms: N1_3  and  C3_6 
REMARK    4  A    between atoms: C5_8  and  C6_9 
REMARK    5  A    between atoms: C7_14  and  C8_15 
REMARK    6  A    between atoms: C15_24  and  C16_25 
ROOT
HETATM    1  C16 UNL     1     -12.802   2.737   9.007  1.00  0.00     0.138 C 
HETATM    2  C17 UNL     1     -13.073   1.634   8.051  1.00  0.00     0.060 C 
HETATM    3  N5  UNL     1     -13.279   0.781   7.286  1.00  0.00    -0.197 NA
ENDROOT
BRANCH   1   4
HETATM    4  C15 UNL     1     -13.130   4.058   8.350  1.00  0.00     0.047 A 
HETATM    5  C18 UNL     1     -12.582   5.284   9.005  1.00  0.00     0.246 A 
HETATM    6  N6  UNL     1     -13.896   5.648   9.478  1.00  0.00    -0.073 N 
HETATM    7  C19 UNL     1     -14.507   4.505   8.831  1.00  0.00     0.246 A 
ATOM      8  H62 UNL     1     -14.042   5.787  10.478  1.00  0.00     0.277 HD
ATOM      9  H61 UNL     1     -14.254   6.581   9.275  1.00  0.00     0.277 HD
BRANCH   4  10
HETATM   10  C2  UNL     1     -13.089   3.977   6.866  1.00  0.00     0.195 C 
HETATM   11  C1  UNL     1     -14.360   4.383   6.171  1.00  0.00     0.041 C 
BRANCH  10  12
HETATM   12  N1  UNL     1     -11.937   4.583   6.243  1.00  0.00    -0.066 N 
ATOM     13  H12 UNL     1     -11.075   4.182   6.613  1.00  0.00     0.278 HD
ATOM     14  H11 UNL     1     -11.858   4.289   5.269  1.00  0.00     0.278 HD
BRANCH  12  15
HETATM   15  C3  UNL     1     -11.916   6.008   6.344  1.00  0.00     0.188 A 
HETATM   16  C4  UNL     1     -12.412   6.762   5.145  1.00  0.00     0.045 A 
HETATM   17  C5  UNL     1     -10.986   7.238   4.894  1.00  0.00     0.059 A 
HETATM   18  C14 UNL     1     -10.541   6.580   6.172  1.00  0.00     0.045 A 
BRANCH  17  19
HETATM   19  C6  UNL     1     -10.856   8.720   4.880  1.00  0.00     0.101 A 
HETATM   20  N2  UNL     1      -9.869   9.391   4.264  1.00  0.00    -0.287 N 
HETATM   21  N3  UNL     1     -10.005  10.688   4.441  1.00  0.00    -0.284 N 
ATOM     22  H2  UNL     1      -9.116   8.956   3.731  1.00  0.00     0.188 HD
HETATM   23  C7  UNL     1     -11.092  10.891   5.181  1.00  0.00     0.127 A 
ATOM     24  H3  UNL     1      -9.386  11.411   4.075  1.00  0.00     0.188 HD
HETATM   25  N4  UNL     1     -11.613   9.671   5.449  1.00  0.00    -0.329 N 
ATOM     26  H4  UNL     1     -12.455   9.500   6.000  1.00  0.00     0.168 HD
BRANCH  23  27
HETATM   27  C8  UNL     1     -11.664  12.146   5.660  1.00  0.00    -0.016 C 
HETATM   28  C9  UNL     1     -11.911  12.376   6.941  1.00  0.00    -0.016 C 
HETATM   29  C10 UNL     1     -12.483  13.608   7.496  1.00  0.00     0.028 C 
HETATM   30  C11 UNL     1     -12.403  14.789   6.592  1.00  0.00     0.004 C 
HETATM   31  C12 UNL     1     -11.499  14.520   5.424  1.00  0.00     0.005 C 
HETATM   32  C13 UNL     1     -12.015  13.259   4.725  1.00  0.00     0.042 C 
ENDBRANCH  23  27
ENDBRANCH  17  19
ENDBRANCH  12  15
ENDBRANCH  10  12
ENDBRANCH   4  10
ENDBRANCH   1   4
TORSDOF 6
ENDMDL
MODEL 4
REMARK VINA RESULT: -3.710201293      1.748      2.565
REMARK  6 active torsions:
REMARK  status: ('A' for Active; 'I' for Inactive)
REMARK    1  A    between atoms: C2_2  and  N1_3 
REMARK    2  A    between atoms: C2_2  and  C15_24 
REMARK    3  A    between atoms: N1_3  and  C3_6 
REMARK    4  A    between atoms: C5_8  and  C6_9 
REMARK    5  A    between atoms: C7_14  and  C8_15 
REMARK    6  A    between atoms: C15_24  and  C16_25 
ROOT
HETATM    1  C16 UNL     1     -11.739  11.923   6.829  1.00  0.00     0.138 C 
HETATM    2  C17 UNL     1     -12.095  13.306   6.422  1.00  0.00     0.060 C 
HETATM    3  N5  UNL     1     -12.379  14.383   6.084  1.00  0.00    -0.197 NA
ENDROOT
BRANCH   1   4
HETATM    4  C15 UNL     1     -11.026  11.236   5.687  1.00  0.00     0.047 A 
HETATM    5  C18 UNL     1      -9.575  10.939   5.887  1.00  0.00     0.246 A 
HETATM    6  N6  UNL     1      -9.210  11.983   4.959  1.00  0.00    -0.073 N 
HETATM    7  C19 UNL     1     -10.596  12.297   4.680  1.00  0.00     0.246 A 
ATOM      8  H62 UNL     1      -8.587  12.727   5.272  1.00  0.00     0.277 HD
ATOM      9  H61 UNL     1      -8.587  11.760   4.184  1.00  0.00     0.277 HD
BRANCH   4  10
HETATM   10  C2  UNL     1     -11.871  10.200   5.036  1.00  0.00     0.195 C 
HETATM   11  C1  UNL     1     -13.093  10.726   4.332  1.00  0.00     0.041 C 
BRANCH  10  12
HETATM   12  N1  UNL     1     -11.164   9.249   4.213  1.00  0.00    -0.066 N 
ATOM     13  H12 UNL     1     -11.213   9.515   3.230  1.00  0.00     0.278 HD
ATOM     14  H11 UNL     1     -10.157   9.325   4.359  1.00  0.00     0.278 HD
BRANCH  12  15
HETATM   15  C3  UNL     1     -11.600   7.900   4.394  1.00  0.00     0.188 A 
HETATM   16  C4  UNL     1     -12.654   7.681   5.440  1.00  0.00     0.045 A 
HETATM   17  C5  UNL     1     -11.616   6.953   6.286  1.00  0.00     0.059 A 
HETATM   18  C14 UNL     1     -10.618   7.073   5.166  1.00  0.00     0.045 A 
BRANCH  17  19
HETATM   19  C6  UNL     1     -12.008   5.558   6.621  1.00  0.00     0.101 A 
HETATM   20  N2  UNL     1     -11.829   4.985   7.824  1.00  0.00    -0.287 N 
HETATM   21  N3  UNL     1     -12.255   3.740   7.816  1.00  0.00    -0.284 N 
ATOM     22  H2  UNL     1     -11.420   5.452   8.633  1.00  0.00     0.188 HD
HETATM   23  C7  UNL     1     -12.724   3.472   6.601  1.00  0.00     0.127 A 
ATOM     24  H3  UNL     1     -12.229   3.093   8.604  1.00  0.00     0.188 HD
HETATM   25  N4  UNL     1     -12.569   4.599   5.867  1.00  0.00    -0.329 N 
ATOM     26  H4  UNL     1     -12.838   4.705   4.889  1.00  0.00     0.168 HD
BRANCH  23  27
HETATM   27  C8  UNL     1     -13.294   2.232   6.082  1.00  0.00    -0.016 C 
HETATM   28  C9  UNL     1     -13.212   1.888   4.806  1.00  0.00    -0.016 C 
HETATM   29  C10 UNL     1     -13.759   0.663   4.211  1.00  0.00     0.028 C 
HETATM   30  C11 UNL     1     -14.071  -0.414   5.192  1.00  0.00     0.004 C 
HETATM   31  C12 UNL     1     -13.490  -0.106   6.542  1.00  0.00     0.005 C 
HETATM   32  C13 UNL     1     -14.018   1.268   6.966  1.00  0.00     0.042 C 
ENDBRANCH  23  27
ENDBRANCH  17  19
ENDBRANCH  12  15
ENDBRANCH  10  12
ENDBRANCH   4  10
ENDBRANCH   1   4
TORSDOF 6
ENDMDL
MODEL 5
REMARK VINA RESULT: -3.468312955      2.005      9.237
REMARK  6 active torsions:
REMARK  status: ('A' for Active; 'I' for Inactive)
REMARK    1  A    between atoms: C2_2  and  N1_3 
REMARK    2  A    between atoms: C2_2  and  C15_24 
REMARK    3  A    between atoms: N1_3  and  C3_6 
REMARK    4  A    between atoms: C5_8  and  C6_9 
REMARK    5  A    between atoms: C7_14  and  C8_15 
REMARK    6  A    between atoms: C15_24  and  C16_25 
ROOT
HETATM    1  C16 UNL     1     -14.493   4.716   6.830  1.00  0.00     0.138 C 
HETATM    2  C17 UNL     1     -14.433   4.898   8.303  1.00  0.00     0.060 C 
HETATM    3  N5  UNL     1     -14.366   5.048   9.455  1.00  0.00    -0.197 NA
ENDROOT
BRANCH   1   4
HETATM    4  C15 UNL     1     -13.142   4.263   6.328  1.00  0.00     0.047 A 
HETATM    5  C18 UNL     1     -13.109   3.637   4.972  1.00  0.00     0.246 A 
HETATM    6  N6  UNL     1     -12.885   2.335   5.552  1.00  0.00    -0.073 N 
HETATM    7  C19 UNL     1     -12.859   2.875   6.895  1.00  0.00     0.246 A 
ATOM      8  H62 UNL     1     -13.533   1.578   5.335  1.00  0.00     0.277 HD
ATOM      9  H61 UNL     1     -12.095   1.778   5.227  1.00  0.00     0.277 HD
BRANCH   4  10
HETATM   10  C2  UNL     1     -12.057   5.213   6.690  1.00  0.00     0.195 C 
HETATM   11  C1  UNL     1     -10.916   4.612   7.465  1.00  0.00     0.041 C 
BRANCH  10  12
HETATM   12  N1  UNL     1     -11.576   6.045   5.613  1.00  0.00    -0.066 N 
ATOM     13  H12 UNL     1     -10.622   5.788   5.358  1.00  0.00     0.278 HD
ATOM     14  H11 UNL     1     -12.052   5.816   4.740  1.00  0.00     0.278 HD
BRANCH  12  15
HETATM   15  C3  UNL     1     -11.667   7.445   5.886  1.00  0.00     0.188 A 
HETATM   16  C4  UNL     1     -12.145   8.309   4.756  1.00  0.00     0.045 A 
HETATM   17  C5  UNL     1     -10.745   8.905   4.663  1.00  0.00     0.059 A 
HETATM   18  C14 UNL     1     -10.330   8.123   5.880  1.00  0.00     0.045 A 
BRANCH  17  19
HETATM   19  C6  UNL     1     -10.725  10.382   4.837  1.00  0.00     0.101 A 
HETATM   20  N2  UNL     1      -9.611  11.134   4.834  1.00  0.00    -0.287 N 
HETATM   21  N3  UNL     1      -9.903  12.402   5.031  1.00  0.00    -0.284 N 
ATOM     22  H2  UNL     1      -8.668  10.771   4.698  1.00  0.00     0.188 HD
HETATM   23  C7  UNL     1     -11.223  12.505   5.167  1.00  0.00     0.127 A 
ATOM     24  H3  UNL     1      -9.235  13.171   5.072  1.00  0.00     0.188 HD
HETATM   25  N4  UNL     1     -11.725  11.254   5.046  1.00  0.00    -0.329 N 
ATOM     26  H4  UNL     1     -12.713  11.010   5.104  1.00  0.00     0.168 HD
BRANCH  23  27
HETATM   27  C8  UNL     1     -12.037  13.692   5.412  1.00  0.00    -0.016 C 
HETATM   28  C9  UNL     1     -12.387  14.078   6.629  1.00  0.00    -0.016 C 
HETATM   29  C10 UNL     1     -13.202  15.254   6.954  1.00  0.00     0.028 C 
HETATM   30  C11 UNL     1     -13.292  16.264   5.863  1.00  0.00     0.004 C 
HETATM   31  C12 UNL     1     -12.295  15.982   4.775  1.00  0.00     0.005 C 
HETATM   32  C13 UNL     1     -12.537  14.548   4.293  1.00  0.00     0.042 C 
ENDBRANCH  23  27
ENDBRANCH  17  19
ENDBRANCH  12  15
ENDBRANCH  10  12
ENDBRANCH   4  10
ENDBRANCH   1   4
TORSDOF 6
ENDMDL
