MODEL 1
REMARK VINA RESULT: -5.575754690      0.000      0.000
REMARK  8 active torsions:
REMARK  status: ('A' for Active; 'I' for Inactive)
REMARK    1  A    between atoms: C2_2  and  C4_4 
REMARK    2  A    between atoms: C5_5  and  C6_6 
REMARK    3  A    between atoms: C7_7  and  C8_8 
REMARK    4  A    between atoms: C9_9  and  C10_10 
REMARK    5  A    between atoms: C10_10  and  O1_11 
REMARK    6  A    between atoms: C10_10  and  C11_13 
REMARK    7  A    between atoms: C16_20  and  O4_21 
REMARK    8  A    between atoms: C19_25  and  O5_26 
ROOT
HETATM    1  C8  UNL     1      -5.114   7.848  13.823  1.00  0.00     0.051 A 
HETATM    2  C9  UNL     1      -3.668   8.210  14.228  1.00  0.00     0.046 A 
HETATM    3  C12 UNL     1      -3.710   9.359  13.359  1.00  0.00    -0.004 A 
HETATM    4  C13 UNL     1      -3.540  10.609  14.220  1.00  0.00     0.019 C 
HETATM    5  C14 UNL     1      -2.988   9.629  12.106  1.00  0.00     0.015 C 
HETATM    6  C15 UNL     1      -3.820  10.539  11.225  1.00  0.00     0.033 C 
HETATM    7  C16 UNL     1      -5.172  10.924  11.607  1.00  0.00     0.124 C 
HETATM    8  C17 UNL     1      -5.908  10.091  12.663  1.00  0.00     0.046 C 
HETATM    9  C18 UNL     1      -6.444  10.929  13.735  1.00  0.00     0.016 C 
HETATM   10  C19 UNL     1      -5.055   8.942  12.911  1.00  0.00     0.078 A 
ENDROOT
BRANCH   1  11
HETATM   11  C7  UNL     1      -6.067   7.769  14.907  1.00  0.00    -0.019 C 
HETATM   12  C6  UNL     1      -6.516   6.664  15.425  1.00  0.00    -0.004 C 
BRANCH  12  13
HETATM   13  C5  UNL     1      -6.116   5.349  14.974  1.00  0.00    -0.004 C 
HETATM   14  C4  UNL     1      -6.097   4.305  15.802  1.00  0.00    -0.023 C 
BRANCH  14  15
HETATM   15  C2  UNL     1      -5.685   2.977  15.317  1.00  0.00    -0.000 C 
HETATM   16  C1  UNL     1      -6.250   2.702  13.938  1.00  0.00     0.013 C 
HETATM   17  C3  UNL     1      -6.151   1.865  16.232  1.00  0.00     0.013 C 
ENDBRANCH  14  15
ENDBRANCH  12  13
ENDBRANCH   1  11
BRANCH   2  18
HETATM   18  C10 UNL     1      -2.688   7.179  14.282  1.00  0.00     0.224 C 
BRANCH  18  19
HETATM   19  O1  UNL     1      -1.961   7.017  13.214  1.00  0.00    -0.384 OA
ATOM     20  H1  UNL     1      -1.559   7.799  12.856  1.00  0.00     0.210 HD
ENDBRANCH  18  19
BRANCH  18  21
HETATM   21  C11 UNL     1      -2.383   6.284  15.340  1.00  0.00     0.203 C 
HETATM   22  O2  UNL     1      -3.112   5.827  16.243  1.00  0.00    -0.646 OA
HETATM   23  O3  UNL     1      -1.044   5.785  15.457  1.00  0.00    -0.646 OA
ENDBRANCH  18  21
ENDBRANCH   2  18
BRANCH  10  24
HETATM   24  O5  UNL     1      -4.948   8.334  11.596  1.00  0.00    -0.388 OA
ATOM     25  H5  UNL     1      -4.339   8.884  11.117  1.00  0.00     0.210 HD
ENDBRANCH  10  24
BRANCH   7  26
HETATM   26  O4  UNL     1      -5.945  10.989  10.410  1.00  0.00    -0.395 OA
ATOM     27  H4  UNL     1      -6.859  10.994  10.666  1.00  0.00     0.210 HD
ENDBRANCH   7  26
TORSDOF 8
ENDMDL
MODEL 2
REMARK VINA RESULT: -4.905200510      2.906      5.247
REMARK  8 active torsions:
REMARK  status: ('A' for Active; 'I' for Inactive)
REMARK    1  A    between atoms: C2_2  and  C4_4 
REMARK    2  A    between atoms: C5_5  and  C6_6 
REMARK    3  A    between atoms: C7_7  and  C8_8 
REMARK    4  A    between atoms: C9_9  and  C10_10 
REMARK    5  A    between atoms: C10_10  and  O1_11 
REMARK    6  A    between atoms: C10_10  and  C11_13 
REMARK    7  A    between atoms: C16_20  and  O4_21 
REMARK    8  A    between atoms: C19_25  and  O5_26 
ROOT
HETATM    1  C8  UNL     1      -5.906  10.113  14.558  1.00  0.00     0.051 A 
HETATM    2  C9  UNL     1      -7.159   9.237  14.782  1.00  0.00     0.046 A 
HETATM    3  C12 UNL     1      -7.854  10.370  15.339  1.00  0.00    -0.004 A 
HETATM    4  C13 UNL     1      -9.059  10.668  14.449  1.00  0.00     0.019 C 
HETATM    5  C14 UNL     1      -8.296  10.628  16.719  1.00  0.00     0.015 C 
HETATM    6  C15 UNL     1      -8.313  12.121  16.976  1.00  0.00     0.033 C 
HETATM    7  C16 UNL     1      -7.823  13.061  15.977  1.00  0.00     0.124 C 
HETATM    8  C17 UNL     1      -6.910  12.544  14.858  1.00  0.00     0.046 C 
HETATM    9  C18 UNL     1      -7.396  12.944  13.538  1.00  0.00     0.016 C 
HETATM   10  C19 UNL     1      -6.616  11.165  15.207  1.00  0.00     0.078 A 
ENDROOT
BRANCH   1  11
HETATM   11  C7  UNL     1      -5.437  10.197  13.194  1.00  0.00    -0.019 C 
HETATM   12  C6  UNL     1      -4.280   9.772  12.777  1.00  0.00    -0.004 C 
BRANCH  12  13
HETATM   13  C5  UNL     1      -3.298   9.152  13.639  1.00  0.00    -0.004 C 
HETATM   14  C4  UNL     1      -2.791   7.950  13.367  1.00  0.00    -0.023 C 
BRANCH  14  15
HETATM   15  C2  UNL     1      -1.792   7.342  14.262  1.00  0.00    -0.000 C 
HETATM   16  C1  UNL     1      -2.453   6.418  15.265  1.00  0.00     0.013 C 
HETATM   17  C3  UNL     1      -1.015   8.380  15.041  1.00  0.00     0.013 C 
ENDBRANCH  14  15
ENDBRANCH  12  13
ENDBRANCH   1  11
BRANCH   2  18
HETATM   18  C10 UNL     1      -7.000   7.936  15.339  1.00  0.00     0.224 C 
BRANCH  18  19
HETATM   19  O1  UNL     1      -7.618   7.709  16.462  1.00  0.00    -0.384 OA
ATOM     20  H1  UNL     1      -7.378   6.913  16.921  1.00  0.00     0.210 HD
ENDBRANCH  18  19
BRANCH  18  21
HETATM   21  C11 UNL     1      -6.254   6.834  14.847  1.00  0.00     0.203 C 
HETATM   22  O2  UNL     1      -5.896   6.559  13.684  1.00  0.00    -0.646 OA
HETATM   23  O3  UNL     1      -5.808   5.835  15.773  1.00  0.00    -0.646 OA
ENDBRANCH  18  21
ENDBRANCH   2  18
BRANCH  10  24
HETATM   24  O5  UNL     1      -5.994  11.292  16.514  1.00  0.00    -0.388 OA
ATOM     25  H5  UNL     1      -6.494  11.964  16.962  1.00  0.00     0.210 HD
ENDBRANCH  10  24
BRANCH   7  26
HETATM   26  O4  UNL     1      -7.179  14.124  16.679  1.00  0.00    -0.395 OA
ATOM     27  H4  UNL     1      -6.441  14.402  16.151  1.00  0.00     0.210 HD
ENDBRANCH   7  26
TORSDOF 8
ENDMDL
MODEL 3
REMARK VINA RESULT: -4.699597290      2.431      6.428
REMARK  8 active torsions:
REMARK  status: ('A' for Active; 'I' for Inactive)
REMARK    1  A    between atoms: C2_2  and  C4_4 
REMARK    2  A    between atoms: C5_5  and  C6_6 
REMARK    3  A    between atoms: C7_7  and  C8_8 
REMARK    4  A    between atoms: C9_9  and  C10_10 
REMARK    5  A    between atoms: C10_10  and  O1_11 
REMARK    6  A    between atoms: C10_10  and  C11_13 
REMARK    7  A    between atoms: C16_20  and  O4_21 
REMARK    8  A    between atoms: C19_25  and  O5_26 
ROOT
HETATM    1  C8  UNL     1      -5.950   9.595  14.422  1.00  0.00     0.051 A 
HETATM    2  C9  UNL     1      -5.961   9.871  12.901  1.00  0.00     0.046 A 
HETATM    3  C12 UNL     1      -4.811   9.018  12.736  1.00  0.00    -0.004 A 
HETATM    4  C13 UNL     1      -5.213   7.851  11.837  1.00  0.00     0.019 C 
HETATM    5  C14 UNL     1      -3.426   9.353  12.368  1.00  0.00     0.015 C 
HETATM    6  C15 UNL     1      -2.477   8.347  12.987  1.00  0.00     0.033 C 
HETATM    7  C16 UNL     1      -2.963   7.318  13.897  1.00  0.00     0.124 C 
HETATM    8  C17 UNL     1      -4.334   7.502  14.559  1.00  0.00     0.046 C 
HETATM    9  C18 UNL     1      -5.184   6.326  14.377  1.00  0.00     0.016 C 
HETATM   10  C19 UNL     1      -4.757   8.845  14.202  1.00  0.00     0.078 A 
ENDROOT
BRANCH   1  11
HETATM   11  C7  UNL     1      -7.160   9.019  14.963  1.00  0.00    -0.019 C 
HETATM   12  C6  UNL     1      -7.857   9.530  15.934  1.00  0.00    -0.004 C 
BRANCH  12  13
HETATM   13  C5  UNL     1      -7.505  10.759  16.611  1.00  0.00    -0.004 C 
HETATM   14  C4  UNL     1      -8.024  11.930  16.244  1.00  0.00    -0.023 C 
BRANCH  14  15
HETATM   15  C2  UNL     1      -7.648  13.167  16.950  1.00  0.00    -0.000 C 
HETATM   16  C1  UNL     1      -8.493  13.361  18.194  1.00  0.00     0.013 C 
HETATM   17  C3  UNL     1      -7.822  14.395  16.083  1.00  0.00     0.013 C 
ENDBRANCH  14  15
ENDBRANCH  12  13
ENDBRANCH   1  11
BRANCH   2  18
HETATM   18  C10 UNL     1      -6.144  11.207  12.444  1.00  0.00     0.224 C 
BRANCH  18  19
HETATM   19  O1  UNL     1      -6.689  12.036  13.288  1.00  0.00    -0.384 OA
ATOM     20  H1  UNL     1      -7.601  11.880  13.502  1.00  0.00     0.210 HD
ENDBRANCH  18  19
BRANCH  18  21
HETATM   21  C11 UNL     1      -5.821  11.778  11.187  1.00  0.00     0.203 C 
HETATM   22  O2  UNL     1      -5.399  11.241  10.143  1.00  0.00    -0.646 OA
HETATM   23  O3  UNL     1      -5.975  13.192  11.011  1.00  0.00    -0.646 OA
ENDBRANCH  18  21
ENDBRANCH   2  18
BRANCH  10  24
HETATM   24  O5  UNL     1      -3.687   9.670  14.737  1.00  0.00    -0.388 OA
ATOM     25  H5  UNL     1      -2.999   9.059  14.975  1.00  0.00     0.210 HD
ENDBRANCH  10  24
BRANCH   7  26
HETATM   26  O4  UNL     1      -1.960   7.131  14.895  1.00  0.00    -0.395 OA
ATOM     27  H4  UNL     1      -1.585   6.269  14.758  1.00  0.00     0.210 HD
ENDBRANCH   7  26
TORSDOF 8
ENDMDL
MODEL 4
REMARK VINA RESULT: -4.244590442      2.431      6.268
REMARK  8 active torsions:
REMARK  status: ('A' for Active; 'I' for Inactive)
REMARK    1  A    between atoms: C2_2  and  C4_4 
REMARK    2  A    between atoms: C5_5  and  C6_6 
REMARK    3  A    between atoms: C7_7  and  C8_8 
REMARK    4  A    between atoms: C9_9  and  C10_10 
REMARK    5  A    between atoms: C10_10  and  O1_11 
REMARK    6  A    between atoms: C10_10  and  C11_13 
REMARK    7  A    between atoms: C16_20  and  O4_21 
REMARK    8  A    between atoms: C19_25  and  O5_26 
ROOT
HETATM    1  C8  UNL     1      -5.879   9.782  13.849  1.00  0.00     0.051 A 
HETATM    2  C9  UNL     1      -5.572   9.848  12.337  1.00  0.00     0.046 A 
HETATM    3  C12 UNL     1      -4.486   8.918  12.514  1.00  0.00    -0.004 A 
HETATM    4  C13 UNL     1      -4.801   7.663  11.702  1.00  0.00     0.019 C 
HETATM    5  C14 UNL     1      -3.033   9.121  12.397  1.00  0.00     0.015 C 
HETATM    6  C15 UNL     1      -2.309   8.156  13.315  1.00  0.00     0.033 C 
HETATM    7  C16 UNL     1      -3.045   7.290  14.226  1.00  0.00     0.124 C 
HETATM    8  C17 UNL     1      -4.499   7.640  14.568  1.00  0.00     0.046 C 
HETATM    9  C18 UNL     1      -5.391   6.500  14.362  1.00  0.00     0.016 C 
HETATM   10  C19 UNL     1      -4.733   8.943  13.971  1.00  0.00     0.078 A 
ENDROOT
BRANCH   1  11
HETATM   11  C7  UNL     1      -7.215   9.354  14.199  1.00  0.00    -0.019 C 
HETATM   12  C6  UNL     1      -7.933   9.864  15.156  1.00  0.00    -0.004 C 
BRANCH  12  13
HETATM   13  C5  UNL     1      -7.479  10.941  16.009  1.00  0.00    -0.004 C 
HETATM   14  C4  UNL     1      -8.315  11.584  16.824  1.00  0.00    -0.023 C 
BRANCH  14  15
HETATM   15  C2  UNL     1      -7.828  12.677  17.681  1.00  0.00    -0.000 C 
HETATM   16  C1  UNL     1      -8.000  14.021  17.000  1.00  0.00     0.013 C 
HETATM   17  C3  UNL     1      -6.362  12.524  18.025  1.00  0.00     0.013 C 
ENDBRANCH  14  15
ENDBRANCH  12  13
ENDBRANCH   1  11
BRANCH   2  18
HETATM   18  C10 UNL     1      -5.553  11.117  11.692  1.00  0.00     0.224 C 
BRANCH  18  19
HETATM   19  O1  UNL     1      -4.649  11.282  10.769  1.00  0.00    -0.384 OA
ATOM     20  H1  UNL     1      -4.918  11.090   9.878  1.00  0.00     0.210 HD
ENDBRANCH  18  19
BRANCH  18  21
HETATM   21  C11 UNL     1      -6.381  12.248  11.911  1.00  0.00     0.203 C 
HETATM   22  O2  UNL     1      -7.341  12.404  12.692  1.00  0.00    -0.646 OA
HETATM   23  O3  UNL     1      -6.138  13.439  11.149  1.00  0.00    -0.646 OA
ENDBRANCH  18  21
ENDBRANCH   2  18
BRANCH  10  24
HETATM   24  O5  UNL     1      -3.722   9.772  14.607  1.00  0.00    -0.388 OA
ATOM     25  H5  UNL     1      -2.907   9.542  14.176  1.00  0.00     0.210 HD
ENDBRANCH  10  24
BRANCH   7  26
HETATM   26  O4  UNL     1      -2.274   7.185  15.422  1.00  0.00    -0.395 OA
ATOM     27  H4  UNL     1      -2.813   6.739  16.064  1.00  0.00     0.210 HD
ENDBRANCH   7  26
TORSDOF 8
ENDMDL
MODEL 5
REMARK VINA RESULT: -4.107372583      1.510      2.344
REMARK  8 active torsions:
REMARK  status: ('A' for Active; 'I' for Inactive)
REMARK    1  A    between atoms: C2_2  and  C4_4 
REMARK    2  A    between atoms: C5_5  and  C6_6 
REMARK    3  A    between atoms: C7_7  and  C8_8 
REMARK    4  A    between atoms: C9_9  and  C10_10 
REMARK    5  A    between atoms: C10_10  and  O1_11 
REMARK    6  A    between atoms: C10_10  and  C11_13 
REMARK    7  A    between atoms: C16_20  and  O4_21 
REMARK    8  A    between atoms: C19_25  and  O5_26 
ROOT
HETATM    1  C8  UNL     1      -5.470   9.381  13.337  1.00  0.00     0.051 A 
HETATM    2  C9  UNL     1      -3.930   9.362  13.453  1.00  0.00     0.046 A 
HETATM    3  C12 UNL     1      -3.821   9.993  12.162  1.00  0.00    -0.004 A 
HETATM    4  C13 UNL     1      -3.138  11.345  12.353  1.00  0.00     0.019 C 
HETATM    5  C14 UNL     1      -3.318   9.462  10.885  1.00  0.00     0.015 C 
HETATM    6  C15 UNL     1      -4.021  10.154   9.734  1.00  0.00     0.033 C 
HETATM    7  C16 UNL     1      -5.105  11.097   9.974  1.00  0.00     0.124 C 
HETATM    8  C17 UNL     1      -5.819  11.074  11.332  1.00  0.00     0.046 C 
HETATM    9  C18 UNL     1      -5.872  12.405  11.935  1.00  0.00     0.016 C 
HETATM   10  C19 UNL     1      -5.291   9.913  12.026  1.00  0.00     0.078 A 
ENDROOT
BRANCH   1  11
HETATM   11  C7  UNL     1      -6.169  10.083  14.389  1.00  0.00    -0.019 C 
HETATM   12  C6  UNL     1      -7.030   9.543  15.200  1.00  0.00    -0.004 C 
BRANCH  12  13
HETATM   13  C5  UNL     1      -7.408   8.147  15.151  1.00  0.00    -0.004 C 
HETATM   14  C4  UNL     1      -6.680   7.207  15.753  1.00  0.00    -0.023 C 
BRANCH  14  15
HETATM   15  C2  UNL     1      -7.087   5.793  15.688  1.00  0.00    -0.000 C 
HETATM   16  C1  UNL     1      -7.987   5.432  16.853  1.00  0.00     0.013 C 
HETATM   17  C3  UNL     1      -5.900   4.855  15.720  1.00  0.00     0.013 C 
ENDBRANCH  14  15
ENDBRANCH  12  13
ENDBRANCH   1  11
BRANCH   2  18
HETATM   18  C10 UNL     1      -3.288   8.178  13.915  1.00  0.00     0.224 C 
BRANCH  18  19
HETATM   19  O1  UNL     1      -4.065   7.170  14.191  1.00  0.00    -0.384 OA
ATOM     20  H1  UNL     1      -3.708   6.511  14.774  1.00  0.00     0.210 HD
ENDBRANCH  18  19
BRANCH  18  21
HETATM   21  C11 UNL     1      -1.908   7.928  14.126  1.00  0.00     0.203 C 
HETATM   22  O2  UNL     1      -1.028   8.649  14.640  1.00  0.00    -0.646 OA
HETATM   23  O3  UNL     1      -1.362   6.670  13.709  1.00  0.00    -0.646 OA
ENDBRANCH  18  21
ENDBRANCH   2  18
BRANCH  10  24
HETATM   24  O5  UNL     1      -5.623   8.823  11.125  1.00  0.00    -0.388 OA
ATOM     25  H5  UNL     1      -4.818   8.631  10.660  1.00  0.00     0.210 HD
ENDBRANCH  10  24
BRANCH   7  26
HETATM   26  O4  UNL     1      -6.053  10.923   8.922  1.00  0.00    -0.395 OA
ATOM     27  H4  UNL     1      -5.798  11.505   8.216  1.00  0.00     0.210 HD
ENDBRANCH   7  26
TORSDOF 8
ENDMDL
