MODEL 1
REMARK VINA RESULT: -6.050769157      0.000      0.000
REMARK  7 active torsions:
REMARK  status: ('A' for Active; 'I' for Inactive)
REMARK    1  A    between atoms: C2_2  and  C3_3 
REMARK    2  A    between atoms: C3_3  and  N1_4 
REMARK       I    between atoms: N1_4  and  C4_6 
REMARK    3  A    between atoms: C4_6  and  C5_8 
REMARK    4  A    between atoms: N2_10  and  O2_12 
REMARK    5  A    between atoms: O2_12  and  C7_13 
REMARK    6  A    between atoms: C9_15  and  O3_16 
REMARK    7  A    between atoms: C17_25  and  O4_26 
ROOT
HETATM    1  C7  UNL     1      -5.883   8.736  13.952  1.00  0.00     0.157 C 
HETATM    2  C8  UNL     1      -6.101   9.801  14.966  1.00  0.00     0.071 C 
HETATM    3  C9  UNL     1      -7.469  10.379  15.039  1.00  0.00     0.149 C 
HETATM    4  C10 UNL     1      -7.333  11.871  15.068  1.00  0.00    -0.061 C 
HETATM    5  C11 UNL     1      -7.856  12.571  16.066  1.00  0.00     0.017 C 
HETATM    6  C12 UNL     1      -6.597  12.576  13.952  1.00  0.00     0.040 C 
HETATM    7  C13 UNL     1      -7.235  12.301  12.623  1.00  0.00     0.032 C 
HETATM    8  C14 UNL     1      -6.341  12.133  11.487  1.00  0.00    -0.021 C 
HETATM    9  C15 UNL     1      -5.392  11.260  11.251  1.00  0.00    -0.059 C 
HETATM   10  C16 UNL     1      -4.628  11.365   9.930  1.00  0.00     0.046 C 
HETATM   11  C17 UNL     1      -4.938  10.149  12.118  1.00  0.00     0.149 C 
HETATM   12  C18 UNL     1      -6.014   9.175  12.510  1.00  0.00     0.071 C 
ENDROOT
BRANCH   1  13
HETATM   13  O2  UNL     1      -6.659   7.580  14.172  1.00  0.00    -0.275 OA
BRANCH  13  14
HETATM   14  N2  UNL     1      -6.087   6.427  14.567  1.00  0.00    -0.265 N 
HETATM   15  C5  UNL     1      -6.496   5.626  15.453  1.00  0.00     0.095 C 
HETATM   16  C6  UNL     1      -7.735   5.899  16.195  1.00  0.00     0.076 C 
ATOM     17  H2  UNL     1      -5.220   6.170  14.095  1.00  0.00     0.194 HD
BRANCH  15  18
HETATM   18  C4  UNL     1      -5.743   4.421  15.749  1.00  0.00     0.265 C 
HETATM   19  N1  UNL     1      -6.393   3.174  15.761  1.00  0.00    -0.352 N 
ATOM     20  H1  UNL     1      -7.392   3.132  15.564  1.00  0.00     0.163 HD
HETATM   21  O1  UNL     1      -4.489   4.476  16.000  1.00  0.00    -0.266 OA
BRANCH  19  22
HETATM   22  C3  UNL     1      -5.685   1.966  16.043  1.00  0.00     0.149 C 
BRANCH  22  23
HETATM   23  C2  UNL     1      -6.617   0.913  16.461  1.00  0.00    -0.018 C 
HETATM   24  C1  UNL     1      -6.356   0.209  17.554  1.00  0.00     0.008 C 
ENDBRANCH  22  23
ENDBRANCH  19  22
ENDBRANCH  15  18
ENDBRANCH  13  14
ENDBRANCH   1  13
BRANCH   3  25
HETATM   25  O3  UNL     1      -8.121   9.985  16.221  1.00  0.00    -0.391 OA
ATOM     26  H3  UNL     1      -8.193  10.711  16.829  1.00  0.00     0.210 HD
ENDBRANCH   3  25
BRANCH  11  27
HETATM   27  O4  UNL     1      -3.849   9.452  11.515  1.00  0.00    -0.391 OA
ATOM     28  H4  UNL     1      -4.144   8.635  11.132  1.00  0.00     0.210 HD
ENDBRANCH  11  27
TORSDOF 7
ENDMDL
MODEL 2
REMARK VINA RESULT: -5.461526270      1.251      1.585
REMARK  7 active torsions:
REMARK  status: ('A' for Active; 'I' for Inactive)
REMARK    1  A    between atoms: C2_2  and  C3_3 
REMARK    2  A    between atoms: C3_3  and  N1_4 
REMARK       I    between atoms: N1_4  and  C4_6 
REMARK    3  A    between atoms: C4_6  and  C5_8 
REMARK    4  A    between atoms: N2_10  and  O2_12 
REMARK    5  A    between atoms: O2_12  and  C7_13 
REMARK    6  A    between atoms: C9_15  and  O3_16 
REMARK    7  A    between atoms: C17_25  and  O4_26 
ROOT
HETATM    1  C7  UNL     1      -5.675   8.532  13.342  1.00  0.00     0.157 C 
HETATM    2  C8  UNL     1      -5.903   8.929  14.757  1.00  0.00     0.071 C 
HETATM    3  C9  UNL     1      -7.319   9.062  15.188  1.00  0.00     0.149 C 
HETATM    4  C10 UNL     1      -7.452  10.360  15.927  1.00  0.00    -0.061 C 
HETATM    5  C11 UNL     1      -7.912  10.378  17.170  1.00  0.00     0.017 C 
HETATM    6  C12 UNL     1      -7.057  11.650  15.246  1.00  0.00     0.040 C 
HETATM    7  C13 UNL     1      -7.854  11.868  13.995  1.00  0.00     0.032 C 
HETATM    8  C14 UNL     1      -7.154  12.458  12.863  1.00  0.00    -0.021 C 
HETATM    9  C15 UNL     1      -6.119  12.046  12.173  1.00  0.00    -0.059 C 
HETATM   10  C16 UNL     1      -5.624  12.923  11.022  1.00  0.00     0.046 C 
HETATM   11  C17 UNL     1      -5.329  10.808  12.363  1.00  0.00     0.149 C 
HETATM   12  C18 UNL     1      -6.129   9.535  12.305  1.00  0.00     0.071 C 
ENDROOT
BRANCH   1  13
HETATM   13  O2  UNL     1      -6.180   7.255  13.026  1.00  0.00    -0.275 OA
BRANCH  13  14
HETATM   14  N2  UNL     1      -6.512   6.382  13.996  1.00  0.00    -0.265 N 
HETATM   15  C5  UNL     1      -5.752   5.862  14.859  1.00  0.00     0.095 C 
HETATM   16  C6  UNL     1      -4.319   6.187  14.889  1.00  0.00     0.076 C 
ATOM     17  H2  UNL     1      -7.493   6.109  14.039  1.00  0.00     0.194 HD
BRANCH  15  18
HETATM   18  C4  UNL     1      -6.289   4.932  15.837  1.00  0.00     0.265 C 
HETATM   19  N1  UNL     1      -6.113   3.549  15.658  1.00  0.00    -0.352 N 
ATOM     20  H1  UNL     1      -5.610   3.213  14.837  1.00  0.00     0.163 HD
HETATM   21  O1  UNL     1      -6.922   5.356  16.864  1.00  0.00    -0.266 OA
BRANCH  19  22
HETATM   22  C3  UNL     1      -6.621   2.604  16.601  1.00  0.00     0.149 C 
BRANCH  22  23
HETATM   23  C2  UNL     1      -6.243   1.240  16.212  1.00  0.00    -0.018 C 
HETATM   24  C1  UNL     1      -6.295   0.269  17.114  1.00  0.00     0.008 C 
ENDBRANCH  22  23
ENDBRANCH  19  22
ENDBRANCH  15  18
ENDBRANCH  13  14
ENDBRANCH   1  13
BRANCH   3  25
HETATM   25  O3  UNL     1      -7.677   8.028  16.073  1.00  0.00    -0.391 OA
ATOM     26  H3  UNL     1      -8.528   7.669  15.850  1.00  0.00     0.210 HD
ENDBRANCH   3  25
BRANCH  11  27
HETATM   27  O4  UNL     1      -4.253  10.748  11.429  1.00  0.00    -0.391 OA
ATOM     28  H4  UNL     1      -3.636  10.067  11.670  1.00  0.00     0.210 HD
ENDBRANCH  11  27
TORSDOF 7
ENDMDL
MODEL 3
REMARK VINA RESULT: -5.280177178      0.960      1.135
REMARK  7 active torsions:
REMARK  status: ('A' for Active; 'I' for Inactive)
REMARK    1  A    between atoms: C2_2  and  C3_3 
REMARK    2  A    between atoms: C3_3  and  N1_4 
REMARK       I    between atoms: N1_4  and  C4_6 
REMARK    3  A    between atoms: C4_6  and  C5_8 
REMARK    4  A    between atoms: N2_10  and  O2_12 
REMARK    5  A    between atoms: O2_12  and  C7_13 
REMARK    6  A    between atoms: C9_15  and  O3_16 
REMARK    7  A    between atoms: C17_25  and  O4_26 
ROOT
HETATM    1  C7  UNL     1      -6.385   9.017  15.084  1.00  0.00     0.157 C 
HETATM    2  C8  UNL     1      -6.591  10.143  16.033  1.00  0.00     0.071 C 
HETATM    3  C9  UNL     1      -7.953  10.737  16.072  1.00  0.00     0.149 C 
HETATM    4  C10 UNL     1      -7.804  12.227  16.011  1.00  0.00    -0.061 C 
HETATM    5  C11 UNL     1      -8.318  12.991  16.966  1.00  0.00     0.017 C 
HETATM    6  C12 UNL     1      -7.064  12.857  14.853  1.00  0.00     0.040 C 
HETATM    7  C13 UNL     1      -7.707  12.508  13.545  1.00  0.00     0.032 C 
HETATM    8  C14 UNL     1      -6.817  12.263  12.419  1.00  0.00    -0.021 C 
HETATM    9  C15 UNL     1      -5.877  11.369  12.235  1.00  0.00    -0.059 C 
HETATM   10  C16 UNL     1      -5.114  11.386  10.909  1.00  0.00     0.046 C 
HETATM   11  C17 UNL     1      -5.430  10.308  13.167  1.00  0.00     0.149 C 
HETATM   12  C18 UNL     1      -6.515   9.369  13.619  1.00  0.00     0.071 C 
ENDROOT
BRANCH   1  13
HETATM   13  O2  UNL     1      -7.171   7.884  15.376  1.00  0.00    -0.275 OA
BRANCH  13  14
HETATM   14  N2  UNL     1      -6.599   6.713  15.714  1.00  0.00    -0.265 N 
HETATM   15  C5  UNL     1      -6.379   5.717  14.970  1.00  0.00     0.095 C 
HETATM   16  C6  UNL     1      -6.757   5.746  13.550  1.00  0.00     0.076 C 
ATOM     17  H2  UNL     1      -6.309   6.618  16.687  1.00  0.00     0.194 HD
BRANCH  15  18
HETATM   18  C4  UNL     1      -5.747   4.527  15.512  1.00  0.00     0.265 C 
HETATM   19  N1  UNL     1      -6.339   3.268  15.312  1.00  0.00    -0.352 N 
ATOM     20  H1  UNL     1      -7.212   3.205  14.788  1.00  0.00     0.163 HD
HETATM   21  O1  UNL     1      -4.654   4.609  16.172  1.00  0.00    -0.266 OA
BRANCH  19  22
HETATM   22  C3  UNL     1      -5.744   2.074  15.825  1.00  0.00     0.149 C 
BRANCH  22  23
HETATM   23  C2  UNL     1      -6.737   1.285  16.563  1.00  0.00    -0.018 C 
HETATM   24  C1  UNL     1      -6.330   0.298  17.349  1.00  0.00     0.008 C 
ENDBRANCH  22  23
ENDBRANCH  19  22
ENDBRANCH  15  18
ENDBRANCH  13  14
ENDBRANCH   1  13
BRANCH   3  25
HETATM   25  O3  UNL     1      -8.607  10.422  17.278  1.00  0.00    -0.391 OA
ATOM     26  H3  UNL     1      -8.022  10.525  18.019  1.00  0.00     0.210 HD
ENDBRANCH   3  25
BRANCH  11  27
HETATM   27  O4  UNL     1      -4.349   9.566  12.605  1.00  0.00    -0.391 OA
ATOM     28  H4  UNL     1      -4.107   8.844  13.173  1.00  0.00     0.210 HD
ENDBRANCH  11  27
TORSDOF 7
ENDMDL
MODEL 4
REMARK VINA RESULT: -5.077723122      4.114      6.796
REMARK  7 active torsions:
REMARK  status: ('A' for Active; 'I' for Inactive)
REMARK    1  A    between atoms: C2_2  and  C3_3 
REMARK    2  A    between atoms: C3_3  and  N1_4 
REMARK       I    between atoms: N1_4  and  C4_6 
REMARK    3  A    between atoms: C4_6  and  C5_8 
REMARK    4  A    between atoms: N2_10  and  O2_12 
REMARK    5  A    between atoms: O2_12  and  C7_13 
REMARK    6  A    between atoms: C9_15  and  O3_16 
REMARK    7  A    between atoms: C17_25  and  O4_26 
ROOT
HETATM    1  C7  UNL     1      -4.631   8.409  13.083  1.00  0.00     0.157 C 
HETATM    2  C8  UNL     1      -5.107   9.289  11.983  1.00  0.00     0.071 C 
HETATM    3  C9  UNL     1      -4.638  10.700  12.012  1.00  0.00     0.149 C 
HETATM    4  C10 UNL     1      -5.829  11.582  11.789  1.00  0.00    -0.061 C 
HETATM    5  C11 UNL     1      -5.839  12.451  10.787  1.00  0.00     0.017 C 
HETATM    6  C12 UNL     1      -7.021  11.476  12.713  1.00  0.00     0.040 C 
HETATM    7  C13 UNL     1      -6.631  11.755  14.133  1.00  0.00     0.032 C 
HETATM    8  C14 UNL     1      -7.280  10.956  15.162  1.00  0.00    -0.021 C 
HETATM    9  C15 UNL     1      -7.286   9.664  15.382  1.00  0.00    -0.059 C 
HETATM   10  C16 UNL     1      -8.085   9.139  16.576  1.00  0.00     0.046 C 
HETATM   11  C17 UNL     1      -6.607   8.602  14.604  1.00  0.00     0.149 C 
HETATM   12  C18 UNL     1      -5.119   8.775  14.466  1.00  0.00     0.071 C 
ENDROOT
BRANCH   1  13
HETATM   13  O2  UNL     1      -3.233   8.234  13.099  1.00  0.00    -0.275 OA
BRANCH  13  14
HETATM   14  N2  UNL     1      -2.445   9.020  13.858  1.00  0.00    -0.265 N 
HETATM   15  C5  UNL     1      -1.592   8.661  14.715  1.00  0.00     0.095 C 
HETATM   16  C6  UNL     1      -1.358   7.236  14.987  1.00  0.00     0.076 C 
ATOM     17  H2  UNL     1      -2.551  10.026  13.723  1.00  0.00     0.194 HD
BRANCH  15  18
HETATM   18  C4  UNL     1      -0.828   9.658  15.445  1.00  0.00     0.265 C 
HETATM   19  N1  UNL     1       0.575   9.576  15.480  1.00  0.00    -0.352 N 
ATOM     20  H1  UNL     1       1.042   8.812  14.993  1.00  0.00     0.163 HD
HETATM   21  O1  UNL     1      -1.416  10.614  16.058  1.00  0.00    -0.266 OA
BRANCH  19  22
HETATM   22  C3  UNL     1       1.361  10.540  16.183  1.00  0.00     0.149 C 
BRANCH  22  23
HETATM   23  C2  UNL     1       2.437  11.047  15.323  1.00  0.00    -0.018 C 
HETATM   24  C1  UNL     1       3.580  11.434  15.872  1.00  0.00     0.008 C 
ENDBRANCH  22  23
ENDBRANCH  19  22
ENDBRANCH  15  18
ENDBRANCH  13  14
ENDBRANCH   1  13
BRANCH   3  25
HETATM   25  O3  UNL     1      -3.721  10.948  10.975  1.00  0.00    -0.391 OA
ATOM     26  H3  UNL     1      -3.075  11.593  11.238  1.00  0.00     0.210 HD
ENDBRANCH   3  25
BRANCH  11  27
HETATM   27  O4  UNL     1      -6.898   7.315  15.146  1.00  0.00    -0.391 OA
ATOM     28  H4  UNL     1      -7.634   6.920  14.696  1.00  0.00     0.210 HD
ENDBRANCH  11  27
TORSDOF 7
ENDMDL
MODEL 5
REMARK VINA RESULT: -4.956133819      1.936      2.960
REMARK  7 active torsions:
REMARK  status: ('A' for Active; 'I' for Inactive)
REMARK    1  A    between atoms: C2_2  and  C3_3 
REMARK    2  A    between atoms: C3_3  and  N1_4 
REMARK       I    between atoms: N1_4  and  C4_6 
REMARK    3  A    between atoms: C4_6  and  C5_8 
REMARK    4  A    between atoms: N2_10  and  O2_12 
REMARK    5  A    between atoms: O2_12  and  C7_13 
REMARK    6  A    between atoms: C9_15  and  O3_16 
REMARK    7  A    between atoms: C17_25  and  O4_26 
ROOT
HETATM    1  C7  UNL     1      -5.811   8.193  13.782  1.00  0.00     0.157 C 
HETATM    2  C8  UNL     1      -6.089   9.012  14.992  1.00  0.00     0.071 C 
HETATM    3  C9  UNL     1      -7.486   9.490  15.163  1.00  0.00     0.149 C 
HETATM    4  C10 UNL     1      -7.431  10.949  15.502  1.00  0.00    -0.061 C 
HETATM    5  C11 UNL     1      -7.994  11.399  16.615  1.00  0.00     0.017 C 
HETATM    6  C12 UNL     1      -6.730  11.908  14.567  1.00  0.00     0.040 C 
HETATM    7  C13 UNL     1      -7.348  11.881  13.200  1.00  0.00     0.032 C 
HETATM    8  C14 UNL     1      -6.442  11.999  12.067  1.00  0.00    -0.021 C 
HETATM    9  C15 UNL     1      -5.448  11.244  11.669  1.00  0.00    -0.059 C 
HETATM   10  C16 UNL     1      -4.686  11.660  10.409  1.00  0.00     0.046 C 
HETATM   11  C17 UNL     1      -4.937  10.002  12.294  1.00  0.00     0.149 C 
HETATM   12  C18 UNL     1      -5.961   8.913  12.461  1.00  0.00     0.071 C 
ENDROOT
BRANCH   1  13
HETATM   13  O2  UNL     1      -6.525   6.978  13.748  1.00  0.00    -0.275 OA
BRANCH  13  14
HETATM   14  N2  UNL     1      -7.164   6.519  14.841  1.00  0.00    -0.265 N 
HETATM   15  C5  UNL     1      -6.770   5.636  15.652  1.00  0.00     0.095 C 
HETATM   16  C6  UNL     1      -5.471   4.973  15.464  1.00  0.00     0.076 C 
ATOM     17  H2  UNL     1      -8.074   6.934  15.037  1.00  0.00     0.194 HD
BRANCH  15  18
HETATM   18  C4  UNL     1      -7.599   5.264  16.784  1.00  0.00     0.265 C 
HETATM   19  N1  UNL     1      -8.566   6.161  17.268  1.00  0.00    -0.352 N 
ATOM     20  H1  UNL     1      -8.673   7.070  16.817  1.00  0.00     0.163 HD
HETATM   21  O1  UNL     1      -7.461   4.125  17.351  1.00  0.00    -0.266 OA
BRANCH  19  22
HETATM   22  C3  UNL     1      -9.404   5.829  18.377  1.00  0.00     0.149 C 
BRANCH  22  23
HETATM   23  C2  UNL     1     -10.036   7.037  18.920  1.00  0.00    -0.018 C 
HETATM   24  C1  UNL     1     -11.111   6.920  19.688  1.00  0.00     0.008 C 
ENDBRANCH  22  23
ENDBRANCH  19  22
ENDBRANCH  15  18
ENDBRANCH  13  14
ENDBRANCH   1  13
BRANCH   3  25
HETATM   25  O3  UNL     1      -8.121   8.827  16.229  1.00  0.00    -0.391 OA
ATOM     26  H3  UNL     1      -8.256   7.909  16.026  1.00  0.00     0.210 HD
ENDBRANCH   3  25
BRANCH  11  27
HETATM   27  O4  UNL     1      -3.810   9.503  11.575  1.00  0.00    -0.391 OA
ATOM     28  H4  UNL     1      -3.426  10.185  11.038  1.00  0.00     0.210 HD
ENDBRANCH  11  27
TORSDOF 7
ENDMDL
