MODEL 1
REMARK VINA RESULT: -7.011335511      0.000      0.000
REMARK  7 active torsions:
REMARK  status: ('A' for Active; 'I' for Inactive)
REMARK    1  A    between atoms: C1_2  and  N1_3 
REMARK    2  A    between atoms: C1_2  and  N4_21 
REMARK    3  A    between atoms: N1_3  and  C2_5 
REMARK    4  A    between atoms: C2_5  and  C3_6 
REMARK    5  A    between atoms: C3_6  and  C4_7 
REMARK    6  A    between atoms: C6_12  and  C7_13 
REMARK    7  A    between atoms: N4_21  and  C11_23 
ROOT
HETATM    1  C4  UNL     1      -3.137   7.748  13.987  1.00  0.00    -0.023 A 
HETATM    2  C5  UNL     1      -1.831   8.033  14.255  1.00  0.00     0.077 A 
HETATM    3  S2  UNL     1      -1.438   6.933  15.521  1.00  0.00    -0.026 SA
HETATM    4  N2  UNL     1      -2.930   6.141  15.664  1.00  0.00    -0.327 N 
ATOM      5  H2  UNL     1      -3.184   5.382  16.297  1.00  0.00     0.174 HD
HETATM    6  C6  UNL     1      -3.687   6.739  14.761  1.00  0.00     0.053 A 
ENDROOT
BRANCH   1   7
HETATM    7  C3  UNL     1      -3.916   8.319  12.851  1.00  0.00     0.061 C 
BRANCH   7   8
HETATM    8  C2  UNL     1      -4.469   9.704  13.004  1.00  0.00     0.126 C 
BRANCH   8   9
HETATM    9  N1  UNL     1      -5.866   9.834  13.259  1.00  0.00    -0.367 N 
ATOM     10  H1  UNL     1      -6.466   9.033  13.059  1.00  0.00     0.161 HD
BRANCH   9  11
HETATM   11  C1  UNL     1      -6.467  11.000  13.768  1.00  0.00     0.167 C 
HETATM   12  S1  UNL     1      -6.841  12.217  12.728  1.00  0.00    -0.041 SA
BRANCH  11  13
HETATM   13  N4  UNL     1      -6.709  11.218  15.147  1.00  0.00    -0.363 N 
ATOM     14  H4  UNL     1      -6.035  10.821  15.802  1.00  0.00     0.162 HD
BRANCH  13  15
HETATM   15  C11 UNL     1      -7.807  11.940  15.707  1.00  0.00     0.083 C 
HETATM   16  C12 UNL     1      -7.483  12.745  16.927  1.00  0.00     0.025 C 
HETATM   17  C13 UNL     1      -7.056  11.605  17.889  1.00  0.00     0.002 C 
HETATM   18  C14 UNL     1      -8.188  10.600  17.649  1.00  0.00     0.002 C 
HETATM   19  C15 UNL     1      -8.793  10.920  16.324  1.00  0.00     0.025 C 
ENDBRANCH  13  15
ENDBRANCH  11  13
ENDBRANCH   9  11
ENDBRANCH   8   9
ENDBRANCH   7   8
ENDBRANCH   1   7
BRANCH   6  20
HETATM   20  C7  UNL     1      -5.214   6.466  14.728  1.00  0.00     0.197 C 
HETATM   21  C8  UNL     1      -5.468   5.246  15.574  1.00  0.00     0.270 C 
HETATM   22  N3  UNL     1      -6.797   5.202  16.107  1.00  0.00    -0.070 N 
HETATM   23  C9  UNL     1      -7.708   6.145  15.503  1.00  0.00     0.258 C 
ATOM     24  H32 UNL     1      -7.173   4.256  16.050  1.00  0.00     0.277 HD
ATOM     25  H31 UNL     1      -6.779   5.322  17.120  1.00  0.00     0.277 HD
HETATM   26  C10 UNL     1      -7.099   7.522  15.728  1.00  0.00     0.196 C 
HETATM   27  O1  UNL     1      -5.816   7.563  15.379  1.00  0.00    -0.376 OA
ENDBRANCH   6  20
TORSDOF 7
ENDMDL
MODEL 2
REMARK VINA RESULT: -6.820976872      0.731      1.178
REMARK  7 active torsions:
REMARK  status: ('A' for Active; 'I' for Inactive)
REMARK    1  A    between atoms: C1_2  and  N1_3 
REMARK    2  A    between atoms: C1_2  and  N4_21 
REMARK    3  A    between atoms: N1_3  and  C2_5 
REMARK    4  A    between atoms: C2_5  and  C3_6 
REMARK    5  A    between atoms: C3_6  and  C4_7 
REMARK    6  A    between atoms: C6_12  and  C7_13 
REMARK    7  A    between atoms: N4_21  and  C11_23 
ROOT
HETATM    1  C4  UNL     1      -3.607   8.014  13.626  1.00  0.00    -0.023 A 
HETATM    2  C5  UNL     1      -2.329   8.478  13.747  1.00  0.00     0.077 A 
HETATM    3  S2  UNL     1      -1.681   7.521  15.024  1.00  0.00    -0.026 SA
HETATM    4  N2  UNL     1      -3.037   6.559  15.357  1.00  0.00    -0.327 N 
ATOM      5  H2  UNL     1      -3.129   5.818  16.051  1.00  0.00     0.174 HD
HETATM    6  C6  UNL     1      -3.946   6.997  14.503  1.00  0.00     0.053 A 
ENDROOT
BRANCH   1   7
HETATM    7  C3  UNL     1      -4.555   8.407  12.545  1.00  0.00     0.061 C 
BRANCH   7   8
HETATM    8  C2  UNL     1      -5.165   9.775  12.608  1.00  0.00     0.126 C 
BRANCH   8   9
HETATM    9  N1  UNL     1      -5.587  10.252  13.884  1.00  0.00    -0.367 N 
ATOM     10  H1  UNL     1      -5.016  10.017  14.696  1.00  0.00     0.161 HD
BRANCH   9  11
HETATM   11  C1  UNL     1      -6.743  11.028  14.090  1.00  0.00     0.167 C 
HETATM   12  S1  UNL     1      -7.058  12.268  13.057  1.00  0.00    -0.041 SA
BRANCH  11  13
HETATM   13  N4  UNL     1      -7.623  10.846  15.185  1.00  0.00    -0.363 N 
ATOM     14  H4  UNL     1      -8.619  10.791  14.972  1.00  0.00     0.162 HD
BRANCH  13  15
HETATM   15  C11 UNL     1      -7.248  10.732  16.559  1.00  0.00     0.083 C 
HETATM   16  C12 UNL     1      -8.366  10.400  17.497  1.00  0.00     0.025 C 
HETATM   17  C13 UNL     1      -9.259  11.652  17.297  1.00  0.00     0.002 C 
HETATM   18  C14 UNL     1      -8.206  12.762  17.380  1.00  0.00     0.002 C 
HETATM   19  C15 UNL     1      -6.883  12.142  17.079  1.00  0.00     0.025 C 
ENDBRANCH  13  15
ENDBRANCH  11  13
ENDBRANCH   9  11
ENDBRANCH   8   9
ENDBRANCH   7   8
ENDBRANCH   1   7
BRANCH   6  20
HETATM   20  C7  UNL     1      -5.420   6.533  14.637  1.00  0.00     0.197 C 
HETATM   21  C8  UNL     1      -5.419   5.276  15.468  1.00  0.00     0.270 C 
HETATM   22  N3  UNL     1      -6.660   5.056  16.148  1.00  0.00    -0.070 N 
HETATM   23  C9  UNL     1      -7.746   5.885  15.683  1.00  0.00     0.258 C 
ATOM     24  H32 UNL     1      -6.920   4.070  16.106  1.00  0.00     0.277 HD
ATOM     25  H31 UNL     1      -6.538   5.160  17.156  1.00  0.00     0.277 HD
HETATM   26  C10 UNL     1      -7.290   7.324  15.879  1.00  0.00     0.196 C 
HETATM   27  O1  UNL     1      -6.072   7.534  15.387  1.00  0.00    -0.376 OA
ENDBRANCH   6  20
TORSDOF 7
ENDMDL
MODEL 3
REMARK VINA RESULT: -6.340992891      1.859      3.322
REMARK  7 active torsions:
REMARK  status: ('A' for Active; 'I' for Inactive)
REMARK    1  A    between atoms: C1_2  and  N1_3 
REMARK    2  A    between atoms: C1_2  and  N4_21 
REMARK    3  A    between atoms: N1_3  and  C2_5 
REMARK    4  A    between atoms: C2_5  and  C3_6 
REMARK    5  A    between atoms: C3_6  and  C4_7 
REMARK    6  A    between atoms: C6_12  and  C7_13 
REMARK    7  A    between atoms: N4_21  and  C11_23 
ROOT
HETATM    1  C4  UNL     1      -5.907   6.339  14.789  1.00  0.00    -0.023 A 
HETATM    2  C5  UNL     1      -6.815   5.322  14.732  1.00  0.00     0.077 A 
HETATM    3  S2  UNL     1      -5.981   4.007  15.469  1.00  0.00    -0.026 SA
HETATM    4  N2  UNL     1      -4.519   4.785  15.836  1.00  0.00    -0.327 N 
ATOM      5  H2  UNL     1      -3.698   4.397  16.299  1.00  0.00     0.174 HD
HETATM    6  C6  UNL     1      -4.697   6.012  15.379  1.00  0.00     0.053 A 
ENDROOT
BRANCH   1   7
HETATM    7  C3  UNL     1      -6.194   7.755  14.422  1.00  0.00     0.061 C 
BRANCH   7   8
HETATM    8  C2  UNL     1      -6.118   8.134  12.973  1.00  0.00     0.126 C 
BRANCH   8   9
HETATM    9  N1  UNL     1      -5.349   9.286  12.630  1.00  0.00    -0.367 N 
ATOM     10  H1  UNL     1      -4.435   9.142  12.201  1.00  0.00     0.161 HD
BRANCH   9  11
HETATM   11  C1  UNL     1      -5.776  10.609  12.849  1.00  0.00     0.167 C 
HETATM   12  S1  UNL     1      -5.752  11.666  11.589  1.00  0.00    -0.041 SA
BRANCH  11  13
HETATM   13  N4  UNL     1      -6.164  11.108  14.117  1.00  0.00    -0.363 N 
ATOM     14  H4  UNL     1      -5.464  11.079  14.858  1.00  0.00     0.162 HD
BRANCH  13  15
HETATM   15  C11 UNL     1      -7.443  11.646  14.456  1.00  0.00     0.083 C 
HETATM   16  C12 UNL     1      -7.435  12.655  15.562  1.00  0.00     0.025 C 
HETATM   17  C13 UNL     1      -6.912  11.769  16.722  1.00  0.00     0.002 C 
HETATM   18  C14 UNL     1      -7.784  10.523  16.538  1.00  0.00     0.002 C 
HETATM   19  C15 UNL     1      -8.275  10.530  15.129  1.00  0.00     0.025 C 
ENDBRANCH  13  15
ENDBRANCH  11  13
ENDBRANCH   9  11
ENDBRANCH   8   9
ENDBRANCH   7   8
ENDBRANCH   1   7
BRANCH   6  20
HETATM   20  C7  UNL     1      -3.497   6.992  15.307  1.00  0.00     0.197 C 
HETATM   21  C8  UNL     1      -2.309   6.288  15.909  1.00  0.00     0.270 C 
HETATM   22  N3  UNL     1      -1.058   6.785  15.418  1.00  0.00    -0.070 N 
HETATM   23  C9  UNL     1      -1.157   8.031  14.696  1.00  0.00     0.258 C 
ATOM     24  H32 UNL     1      -0.384   6.866  16.179  1.00  0.00     0.277 HD
ATOM     25  H31 UNL     1      -0.593   6.078  14.848  1.00  0.00     0.277 HD
HETATM   26  C10 UNL     1      -2.109   7.770  13.537  1.00  0.00     0.196 C 
HETATM   27  O1  UNL     1      -3.229   7.173  13.934  1.00  0.00    -0.376 OA
ENDBRANCH   6  20
TORSDOF 7
ENDMDL
MODEL 4
REMARK VINA RESULT: -6.296886941      2.002      6.041
REMARK  7 active torsions:
REMARK  status: ('A' for Active; 'I' for Inactive)
REMARK    1  A    between atoms: C1_2  and  N1_3 
REMARK    2  A    between atoms: C1_2  and  N4_21 
REMARK    3  A    between atoms: N1_3  and  C2_5 
REMARK    4  A    between atoms: C2_5  and  C3_6 
REMARK    5  A    between atoms: C3_6  and  C4_7 
REMARK    6  A    between atoms: C6_12  and  C7_13 
REMARK    7  A    between atoms: N4_21  and  C11_23 
ROOT
HETATM    1  C4  UNL     1      -5.602  10.894  12.497  1.00  0.00    -0.023 A 
HETATM    2  C5  UNL     1      -5.620  11.334  11.206  1.00  0.00     0.077 A 
HETATM    3  S2  UNL     1      -6.597  12.751  11.286  1.00  0.00    -0.026 SA
HETATM    4  N2  UNL     1      -6.941  12.749  12.947  1.00  0.00    -0.327 N 
ATOM      5  H2  UNL     1      -7.496  13.421  13.477  1.00  0.00     0.174 HD
HETATM    6  C6  UNL     1      -6.320  11.671  13.392  1.00  0.00     0.053 A 
ENDROOT
BRANCH   1   7
HETATM    7  C3  UNL     1      -4.756   9.774  13.001  1.00  0.00     0.061 C 
BRANCH   7   8
HETATM    8  C2  UNL     1      -5.132   8.377  12.606  1.00  0.00     0.126 C 
BRANCH   8   9
HETATM    9  N1  UNL     1      -5.863   7.597  13.551  1.00  0.00    -0.367 N 
ATOM     10  H1  UNL     1      -6.879   7.566  13.464  1.00  0.00     0.161 HD
BRANCH   9  11
HETATM   11  C1  UNL     1      -5.266   6.866  14.595  1.00  0.00     0.167 C 
HETATM   12  S1  UNL     1      -6.167   5.743  15.389  1.00  0.00    -0.041 SA
BRANCH  11  13
HETATM   13  N4  UNL     1      -3.944   7.090  15.052  1.00  0.00    -0.363 N 
ATOM     14  H4  UNL     1      -3.816   7.815  15.759  1.00  0.00     0.162 HD
BRANCH  13  15
HETATM   15  C11 UNL     1      -2.772   6.398  14.617  1.00  0.00     0.083 C 
HETATM   16  C12 UNL     1      -1.671   6.315  15.627  1.00  0.00     0.025 C 
HETATM   17  C13 UNL     1      -1.358   7.824  15.800  1.00  0.00     0.002 C 
HETATM   18  C14 UNL     1      -1.313   8.269  14.334  1.00  0.00     0.002 C 
HETATM   19  C15 UNL     1      -2.073   7.260  13.541  1.00  0.00     0.025 C 
ENDBRANCH  13  15
ENDBRANCH  11  13
ENDBRANCH   9  11
ENDBRANCH   8   9
ENDBRANCH   7   8
ENDBRANCH   1   7
BRANCH   6  20
HETATM   20  C7  UNL     1      -6.577  11.170  14.837  1.00  0.00     0.197 C 
HETATM   21  C8  UNL     1      -7.451  12.194  15.515  1.00  0.00     0.270 C 
HETATM   22  N3  UNL     1      -8.227  11.644  16.586  1.00  0.00    -0.070 N 
HETATM   23  C9  UNL     1      -7.813  10.326  17.002  1.00  0.00     0.258 C 
ATOM     24  H32 UNL     1      -8.238  12.282  17.382  1.00  0.00     0.277 HD
ATOM     25  H31 UNL     1      -9.218  11.647  16.346  1.00  0.00     0.277 HD
HETATM   26  C10 UNL     1      -7.923   9.441  15.768  1.00  0.00     0.196 C 
HETATM   27  O1  UNL     1      -7.336   9.989  14.707  1.00  0.00    -0.376 OA
ENDBRANCH   6  20
TORSDOF 7
ENDMDL
MODEL 5
REMARK VINA RESULT: -6.065044728      2.248      6.582
REMARK  7 active torsions:
REMARK  status: ('A' for Active; 'I' for Inactive)
REMARK    1  A    between atoms: C1_2  and  N1_3 
REMARK    2  A    between atoms: C1_2  and  N4_21 
REMARK    3  A    between atoms: N1_3  and  C2_5 
REMARK    4  A    between atoms: C2_5  and  C3_6 
REMARK    5  A    between atoms: C3_6  and  C4_7 
REMARK    6  A    between atoms: C6_12  and  C7_13 
REMARK    7  A    between atoms: N4_21  and  C11_23 
ROOT
HETATM    1  C4  UNL     1      -7.100  10.243  15.227  1.00  0.00    -0.023 A 
HETATM    2  C5  UNL     1      -7.301  10.585  16.532  1.00  0.00     0.077 A 
HETATM    3  S2  UNL     1      -7.476  12.297  16.471  1.00  0.00    -0.026 SA
HETATM    4  N2  UNL     1      -7.302  12.527  14.799  1.00  0.00    -0.327 N 
ATOM      5  H2  UNL     1      -7.343  13.401  14.275  1.00  0.00     0.174 HD
HETATM    6  C6  UNL     1      -7.104  11.305  14.337  1.00  0.00     0.053 A 
ENDROOT
BRANCH   1   7
HETATM    7  C3  UNL     1      -7.048   8.845  14.712  1.00  0.00     0.061 C 
BRANCH   7   8
HETATM    8  C2  UNL     1      -7.195   7.727  15.700  1.00  0.00     0.126 C 
BRANCH   8   9
HETATM    9  N1  UNL     1      -7.109   6.392  15.205  1.00  0.00    -0.367 N 
ATOM     10  H1  UNL     1      -7.969   5.943  14.887  1.00  0.00     0.161 HD
BRANCH   9  11
HETATM   11  C1  UNL     1      -5.912   5.657  15.128  1.00  0.00     0.167 C 
HETATM   12  S1  UNL     1      -5.887   4.122  15.716  1.00  0.00    -0.041 SA
BRANCH  11  13
HETATM   13  N4  UNL     1      -4.696   6.190  14.632  1.00  0.00    -0.363 N 
ATOM     14  H4  UNL     1      -4.418   5.908  13.692  1.00  0.00     0.162 HD
BRANCH  13  15
HETATM   15  C11 UNL     1      -3.823   7.084  15.324  1.00  0.00     0.083 C 
HETATM   16  C12 UNL     1      -3.410   8.296  14.549  1.00  0.00     0.025 C 
HETATM   17  C13 UNL     1      -2.650   7.614  13.381  1.00  0.00     0.002 C 
HETATM   18  C14 UNL     1      -1.793   6.607  14.156  1.00  0.00     0.002 C 
HETATM   19  C15 UNL     1      -2.448   6.394  15.479  1.00  0.00     0.025 C 
ENDBRANCH  13  15
ENDBRANCH  11  13
ENDBRANCH   9  11
ENDBRANCH   8   9
ENDBRANCH   7   8
ENDBRANCH   1   7
BRANCH   6  20
HETATM   20  C7  UNL     1      -6.663  11.098  12.864  1.00  0.00     0.197 C 
HETATM   21  C8  UNL     1      -6.713  12.444  12.189  1.00  0.00     0.270 C 
HETATM   22  N3  UNL     1      -5.828  12.539  11.067  1.00  0.00    -0.070 N 
HETATM   23  C9  UNL     1      -5.300  11.273  10.619  1.00  0.00     0.258 C 
ATOM     24  H32 UNL     1      -6.282  13.028  10.296  1.00  0.00     0.277 HD
ATOM     25  H31 UNL     1      -5.070  13.192  11.265  1.00  0.00     0.277 HD
HETATM   26  C10 UNL     1      -4.569  10.677  11.814  1.00  0.00     0.196 C 
HETATM   27  O1  UNL     1      -5.309  10.704  12.918  1.00  0.00    -0.376 OA
ENDBRANCH   6  20
TORSDOF 7
ENDMDL
