MODEL 1
REMARK VINA RESULT: -6.393007814      0.000      0.000
REMARK  10 active torsions:
REMARK  status: ('A' for Active; 'I' for Inactive)
REMARK    1  A    between atoms: C2_2  and  N1_3 
REMARK    2  A    between atoms: C3_4  and  O1_5 
REMARK    3  A    between atoms: C6_9  and  O2_10 
REMARK    4  A    between atoms: C8_13  and  O3_14 
REMARK    5  A    between atoms: C8_13  and  C9_16 
REMARK    6  A    between atoms: C9_16  and  N2_17 
REMARK    7  A    between atoms: N2_17  and  C10_18 
REMARK    8  A    between atoms: N2_17  and  C14_24 
REMARK    9  A    between atoms: C10_18  and  O4_19 
REMARK   10  A    between atoms: C10_18  and  C11_21 
ROOT
HETATM    1  N1  UNL     1      10.336   6.527  18.015  1.00  0.00    -0.283 N 
HETATM    2  C3  UNL     1      11.035   6.774  19.151  1.00  0.00     0.159 A 
HETATM    3  C4  UNL     1      10.183   6.594  20.246  1.00  0.00     0.026 A 
HETATM    4  C5  UNL     1       8.959   6.240  19.775  1.00  0.00     0.011 A 
HETATM    5  C6  UNL     1       9.093   6.206  18.385  1.00  0.00     0.155 A 
HETATM    6  C7  UNL     1       7.795   6.076  20.663  1.00  0.00     0.087 C 
HETATM    7  C8  UNL     1       8.090   5.833  22.089  1.00  0.00     0.096 C 
HETATM    8  C19 UNL     1       9.457   6.271  22.479  1.00  0.00     0.013 C 
HETATM    9  C20 UNL     1      10.418   6.612  21.680  1.00  0.00     0.015 C 
ENDROOT
BRANCH   7  10
HETATM   10  O3  UNL     1       7.205   6.657  22.815  1.00  0.00    -0.384 OA
ATOM     11  H3  UNL     1       7.665   6.900  23.610  1.00  0.00     0.211 HD
ENDBRANCH   7  10
BRANCH   7  12
HETATM   12  C9  UNL     1       8.013   4.412  22.565  1.00  0.00     0.167 C 
BRANCH  12  13
HETATM   13  N2  UNL     1       7.119   4.160  23.711  1.00  0.00    -0.357 N 
BRANCH  13  14
HETATM   14  C10 UNL     1       5.818   3.835  23.393  1.00  0.00     0.118 C 
BRANCH  14  15
HETATM   15  O4  UNL     1       5.730   2.720  22.647  1.00  0.00    -0.349 OA
ATOM     16  H4  UNL     1       6.081   2.836  21.772  1.00  0.00     0.219 HD
ENDBRANCH  14  15
BRANCH  14  17
HETATM   17  C11 UNL     1       4.478   4.348  23.620  1.00  0.00     0.060 A 
HETATM   18  C12 UNL     1       4.098   5.388  22.519  1.00  0.00     0.013 A 
HETATM   19  C13 UNL     1       3.250   4.246  22.867  1.00  0.00     0.013 A 
ENDBRANCH  14  17
ENDBRANCH  13  14
BRANCH  13  20
HETATM   20  C14 UNL     1       7.708   4.295  24.993  1.00  0.00     0.086 C 
HETATM   21  C15 UNL     1       7.002   3.673  26.151  1.00  0.00     0.025 C 
HETATM   22  C16 UNL     1       8.017   3.273  27.172  1.00  0.00     0.002 C 
HETATM   23  C17 UNL     1       9.332   3.742  26.671  1.00  0.00     0.002 C 
HETATM   24  C18 UNL     1       9.147   3.973  25.181  1.00  0.00     0.025 C 
ENDBRANCH  13  20
ENDBRANCH  12  13
ENDBRANCH   7  12
BRANCH   5  25
HETATM   25  O2  UNL     1       8.042   5.875  17.562  1.00  0.00    -0.345 OA
ATOM     26  H2  UNL     1       7.737   5.002  17.346  1.00  0.00     0.219 HD
ENDBRANCH   5  25
BRANCH   2  27
HETATM   27  O1  UNL     1      12.365   7.145  19.254  1.00  0.00    -0.345 OA
ATOM     28  H1  UNL     1      13.122   6.672  18.930  1.00  0.00     0.219 HD
ENDBRANCH   2  27
BRANCH   1  29
HETATM   29  C2  UNL     1      10.931   6.625  16.730  1.00  0.00     0.091 C 
HETATM   30  C1  UNL     1      10.622   7.510  15.820  1.00  0.00     0.030 C 
ENDBRANCH   1  29
TORSDOF 10
ENDMDL
MODEL 2
REMARK VINA RESULT: -6.386114022      2.205      7.823
REMARK  10 active torsions:
REMARK  status: ('A' for Active; 'I' for Inactive)
REMARK    1  A    between atoms: C2_2  and  N1_3 
REMARK    2  A    between atoms: C3_4  and  O1_5 
REMARK    3  A    between atoms: C6_9  and  O2_10 
REMARK    4  A    between atoms: C8_13  and  O3_14 
REMARK    5  A    between atoms: C8_13  and  C9_16 
REMARK    6  A    between atoms: C9_16  and  N2_17 
REMARK    7  A    between atoms: N2_17  and  C10_18 
REMARK    8  A    between atoms: N2_17  and  C14_24 
REMARK    9  A    between atoms: C10_18  and  O4_19 
REMARK   10  A    between atoms: C10_18  and  C11_21 
ROOT
HETATM    1  N1  UNL     1       6.353   5.120  23.238  1.00  0.00    -0.283 N 
HETATM    2  C3  UNL     1       7.688   4.905  23.133  1.00  0.00     0.159 A 
HETATM    3  C4  UNL     1       8.087   5.210  21.826  1.00  0.00     0.026 A 
HETATM    4  C5  UNL     1       6.989   5.608  21.132  1.00  0.00     0.011 A 
HETATM    5  C6  UNL     1       5.932   5.543  22.043  1.00  0.00     0.155 A 
HETATM    6  C7  UNL     1       7.039   5.902  19.690  1.00  0.00     0.087 C 
HETATM    7  C8  UNL     1       8.369   6.218  19.133  1.00  0.00     0.096 C 
HETATM    8  C19 UNL     1       9.485   5.722  19.982  1.00  0.00     0.013 C 
HETATM    9  C20 UNL     1       9.394   5.269  21.193  1.00  0.00     0.015 C 
ENDROOT
BRANCH   7  10
HETATM   10  O3  UNL     1       8.464   5.501  17.922  1.00  0.00    -0.384 OA
ATOM     11  H3  UNL     1       9.230   4.946  18.005  1.00  0.00     0.211 HD
ENDBRANCH   7  10
BRANCH   7  12
HETATM   12  C9  UNL     1       8.689   7.670  18.923  1.00  0.00     0.167 C 
BRANCH  12  13
HETATM   13  N2  UNL     1       8.874   8.097  17.523  1.00  0.00    -0.357 N 
BRANCH  13  14
HETATM   14  C10 UNL     1       7.762   8.637  16.912  1.00  0.00     0.118 C 
BRANCH  14  15
HETATM   15  O4  UNL     1       6.717   7.791  16.897  1.00  0.00    -0.349 OA
ATOM     16  H4  UNL     1       6.448   7.526  17.769  1.00  0.00     0.219 HD
ENDBRANCH  14  15
BRANCH  14  17
HETATM   17  C11 UNL     1       7.368   9.872  16.257  1.00  0.00     0.060 A 
HETATM   18  C12 UNL     1       7.834  11.105  17.094  1.00  0.00     0.013 A 
HETATM   19  C13 UNL     1       8.123  10.952  15.667  1.00  0.00     0.013 A 
ENDBRANCH  14  17
ENDBRANCH  13  14
BRANCH  13  20
HETATM   20  C14 UNL     1      10.166   7.887  16.981  1.00  0.00     0.086 C 
HETATM   21  C15 UNL     1      10.260   7.474  15.550  1.00  0.00     0.025 C 
HETATM   22  C16 UNL     1      11.541   7.997  14.984  1.00  0.00     0.002 C 
HETATM   23  C17 UNL     1      12.267   8.646  16.103  1.00  0.00     0.002 C 
HETATM   24  C18 UNL     1      11.221   8.918  17.171  1.00  0.00     0.025 C 
ENDBRANCH  13  20
ENDBRANCH  12  13
ENDBRANCH   7  12
BRANCH   5  25
HETATM   25  O2  UNL     1       4.648   5.884  21.689  1.00  0.00    -0.345 OA
ATOM     26  H2  UNL     1       4.139   6.617  22.018  1.00  0.00     0.219 HD
ENDBRANCH   5  25
BRANCH   2  27
HETATM   27  O1  UNL     1       8.548   4.458  24.122  1.00  0.00    -0.345 OA
ATOM     28  H1  UNL     1       8.967   3.608  24.180  1.00  0.00     0.219 HD
ENDBRANCH   2  27
BRANCH   1  29
HETATM   29  C2  UNL     1       5.650   4.902  24.451  1.00  0.00     0.091 C 
HETATM   30  C1  UNL     1       4.672   4.051  24.616  1.00  0.00     0.030 C 
ENDBRANCH   1  29
TORSDOF 10
ENDMDL
MODEL 3
REMARK VINA RESULT: -6.308096174      2.553      7.704
REMARK  10 active torsions:
REMARK  status: ('A' for Active; 'I' for Inactive)
REMARK    1  A    between atoms: C2_2  and  N1_3 
REMARK    2  A    between atoms: C3_4  and  O1_5 
REMARK    3  A    between atoms: C6_9  and  O2_10 
REMARK    4  A    between atoms: C8_13  and  O3_14 
REMARK    5  A    between atoms: C8_13  and  C9_16 
REMARK    6  A    between atoms: C9_16  and  N2_17 
REMARK    7  A    between atoms: N2_17  and  C10_18 
REMARK    8  A    between atoms: N2_17  and  C14_24 
REMARK    9  A    between atoms: C10_18  and  O4_19 
REMARK   10  A    between atoms: C10_18  and  C11_21 
ROOT
HETATM    1  N1  UNL     1       7.339   5.942  22.247  1.00  0.00    -0.283 N 
HETATM    2  C3  UNL     1       8.676   6.048  22.444  1.00  0.00     0.159 A 
HETATM    3  C4  UNL     1       9.305   6.138  21.197  1.00  0.00     0.026 A 
HETATM    4  C5  UNL     1       8.347   6.082  20.236  1.00  0.00     0.011 A 
HETATM    5  C6  UNL     1       7.138   5.963  20.926  1.00  0.00     0.155 A 
HETATM    6  C7  UNL     1       8.678   6.044  18.802  1.00  0.00     0.087 C 
HETATM    7  C8  UNL     1      10.013   6.547  18.426  1.00  0.00     0.096 C 
HETATM    8  C19 UNL     1      10.971   6.552  19.564  1.00  0.00     0.013 C 
HETATM    9  C20 UNL     1      10.687   6.378  20.816  1.00  0.00     0.015 C 
ENDROOT
BRANCH   7  10
HETATM   10  O3  UNL     1      10.531   5.622  17.496  1.00  0.00    -0.384 OA
ATOM     11  H3  UNL     1      11.476   5.667  17.578  1.00  0.00     0.211 HD
ENDBRANCH   7  10
BRANCH   7  12
HETATM   12  C9  UNL     1      10.084   7.946  17.885  1.00  0.00     0.167 C 
BRANCH  12  13
HETATM   13  N2  UNL     1       8.969   8.361  17.013  1.00  0.00    -0.357 N 
BRANCH  13  14
HETATM   14  C10 UNL     1       8.946   7.787  15.760  1.00  0.00     0.118 C 
BRANCH  14  15
HETATM   15  O4  UNL     1       7.870   7.002  15.570  1.00  0.00    -0.349 OA
ATOM     16  H4  UNL     1       7.729   6.790  14.655  1.00  0.00     0.219 HD
ENDBRANCH  14  15
BRANCH  14  17
HETATM   17  C11 UNL     1       9.753   7.766  14.553  1.00  0.00     0.060 A 
HETATM   18  C12 UNL     1       9.705   9.156  13.842  1.00  0.00     0.013 A 
HETATM   19  C13 UNL     1      10.956   8.466  14.167  1.00  0.00     0.013 A 
ENDBRANCH  14  17
ENDBRANCH  13  14
BRANCH  13  20
HETATM   20  C14 UNL     1       8.070   9.305  17.569  1.00  0.00     0.086 C 
HETATM   21  C15 UNL     1       8.316   9.758  18.969  1.00  0.00     0.025 C 
HETATM   22  C16 UNL     1       7.815  11.159  19.114  1.00  0.00     0.002 C 
HETATM   23  C17 UNL     1       7.180  11.519  17.823  1.00  0.00     0.002 C 
HETATM   24  C18 UNL     1       7.726  10.533  16.805  1.00  0.00     0.025 C 
ENDBRANCH  13  20
ENDBRANCH  12  13
ENDBRANCH   7  12
BRANCH   5  25
HETATM   25  O2  UNL     1       5.932   5.883  20.269  1.00  0.00    -0.345 OA
ATOM     26  H2  UNL     1       5.657   5.211  19.657  1.00  0.00     0.219 HD
ENDBRANCH   5  25
BRANCH   2  27
HETATM   27  O1  UNL     1       9.347   6.067  23.656  1.00  0.00    -0.345 OA
ATOM     28  H1  UNL     1      10.287   6.083  23.793  1.00  0.00     0.219 HD
ENDBRANCH   2  27
BRANCH   1  29
HETATM   29  C2  UNL     1       6.425   5.835  23.327  1.00  0.00     0.091 C 
HETATM   30  C1  UNL     1       5.859   4.730  23.733  1.00  0.00     0.030 C 
ENDBRANCH   1  29
TORSDOF 10
ENDMDL
MODEL 4
REMARK VINA RESULT: -6.277347244      1.797      2.375
REMARK  10 active torsions:
REMARK  status: ('A' for Active; 'I' for Inactive)
REMARK    1  A    between atoms: C2_2  and  N1_3 
REMARK    2  A    between atoms: C3_4  and  O1_5 
REMARK    3  A    between atoms: C6_9  and  O2_10 
REMARK    4  A    between atoms: C8_13  and  O3_14 
REMARK    5  A    between atoms: C8_13  and  C9_16 
REMARK    6  A    between atoms: C9_16  and  N2_17 
REMARK    7  A    between atoms: N2_17  and  C10_18 
REMARK    8  A    between atoms: N2_17  and  C14_24 
REMARK    9  A    between atoms: C10_18  and  O4_19 
REMARK   10  A    between atoms: C10_18  and  C11_21 
ROOT
HETATM    1  N1  UNL     1      11.327   8.473  20.916  1.00  0.00    -0.283 N 
HETATM    2  C3  UNL     1      10.553   8.727  22.000  1.00  0.00     0.159 A 
HETATM    3  C4  UNL     1       9.427   7.896  21.948  1.00  0.00     0.026 A 
HETATM    4  C5  UNL     1       9.515   7.137  20.825  1.00  0.00     0.011 A 
HETATM    5  C6  UNL     1      10.709   7.521  20.211  1.00  0.00     0.155 A 
HETATM    6  C7  UNL     1       8.435   6.225  20.410  1.00  0.00     0.087 C 
HETATM    7  C8  UNL     1       7.495   5.802  21.467  1.00  0.00     0.096 C 
HETATM    8  C19 UNL     1       7.489   6.720  22.637  1.00  0.00     0.013 C 
HETATM    9  C20 UNL     1       8.341   7.663  22.885  1.00  0.00     0.015 C 
ENDROOT
BRANCH   7  10
HETATM   10  O3  UNL     1       6.206   5.896  20.902  1.00  0.00    -0.384 OA
ATOM     11  H3  UNL     1       5.675   6.363  21.536  1.00  0.00     0.211 HD
ENDBRANCH   7  10
BRANCH   7  12
HETATM   12  C9  UNL     1       7.718   4.445  22.069  1.00  0.00     0.167 C 
BRANCH  12  13
HETATM   13  N2  UNL     1       7.006   4.171  23.331  1.00  0.00    -0.357 N 
BRANCH  13  14
HETATM   14  C10 UNL     1       5.713   3.709  23.199  1.00  0.00     0.118 C 
BRANCH  14  15
HETATM   15  O4  UNL     1       5.643   2.564  22.496  1.00  0.00    -0.349 OA
ATOM     16  H4  UNL     1       5.397   2.706  21.590  1.00  0.00     0.219 HD
ENDBRANCH  14  15
BRANCH  14  17
HETATM   17  C11 UNL     1       4.370   4.095  23.593  1.00  0.00     0.060 A 
HETATM   18  C12 UNL     1       3.936   5.397  22.848  1.00  0.00     0.013 A 
HETATM   19  C13 UNL     1       3.123   4.179  22.869  1.00  0.00     0.013 A 
ENDBRANCH  14  17
ENDBRANCH  13  14
BRANCH  13  20
HETATM   20  C14 UNL     1       7.734   4.429  24.519  1.00  0.00     0.086 C 
HETATM   21  C15 UNL     1       7.147   3.963  25.809  1.00  0.00     0.025 C 
HETATM   22  C16 UNL     1       8.261   3.646  26.754  1.00  0.00     0.002 C 
HETATM   23  C17 UNL     1       9.522   4.013  26.065  1.00  0.00     0.002 C 
HETATM   24  C18 UNL     1       9.179   4.084  24.586  1.00  0.00     0.025 C 
ENDBRANCH  13  20
ENDBRANCH  12  13
ENDBRANCH   7  12
BRANCH   5  25
HETATM   25  O2  UNL     1      11.136   6.951  19.034  1.00  0.00    -0.345 OA
ATOM     26  H2  UNL     1      12.001   7.016  18.647  1.00  0.00     0.219 HD
ENDBRANCH   5  25
BRANCH   2  27
HETATM   27  O1  UNL     1      10.795   9.643  23.009  1.00  0.00    -0.345 OA
ATOM     28  H1  UNL     1      11.169   9.471  23.866  1.00  0.00     0.219 HD
ENDBRANCH   2  27
BRANCH   1  29
HETATM   29  C2  UNL     1      12.547   9.159  20.686  1.00  0.00     0.091 C 
HETATM   30  C1  UNL     1      12.773   9.995  19.708  1.00  0.00     0.030 C 
ENDBRANCH   1  29
TORSDOF 10
ENDMDL
MODEL 5
REMARK VINA RESULT: -6.271794588      2.656      4.608
REMARK  10 active torsions:
REMARK  status: ('A' for Active; 'I' for Inactive)
REMARK    1  A    between atoms: C2_2  and  N1_3 
REMARK    2  A    between atoms: C3_4  and  O1_5 
REMARK    3  A    between atoms: C6_9  and  O2_10 
REMARK    4  A    between atoms: C8_13  and  O3_14 
REMARK    5  A    between atoms: C8_13  and  C9_16 
REMARK    6  A    between atoms: C9_16  and  N2_17 
REMARK    7  A    between atoms: N2_17  and  C10_18 
REMARK    8  A    between atoms: N2_17  and  C14_24 
REMARK    9  A    between atoms: C10_18  and  O4_19 
REMARK   10  A    between atoms: C10_18  and  C11_21 
ROOT
HETATM    1  N1  UNL     1       8.989   9.305  16.502  1.00  0.00    -0.283 N 
HETATM    2  C3  UNL     1       8.285   8.147  16.486  1.00  0.00     0.159 A 
HETATM    3  C4  UNL     1       8.479   7.490  17.706  1.00  0.00     0.026 A 
HETATM    4  C5  UNL     1       9.308   8.250  18.467  1.00  0.00     0.011 A 
HETATM    5  C6  UNL     1       9.602   9.371  17.688  1.00  0.00     0.155 A 
HETATM    6  C7  UNL     1       9.804   7.796  19.778  1.00  0.00     0.087 C 
HETATM    7  C8  UNL     1       9.015   6.742  20.446  1.00  0.00     0.096 C 
HETATM    8  C19 UNL     1       8.154   5.978  19.503  1.00  0.00     0.013 C 
HETATM    9  C20 UNL     1       7.889   6.288  18.273  1.00  0.00     0.015 C 
ENDROOT
BRANCH   7  10
HETATM   10  O3  UNL     1       9.951   5.813  20.945  1.00  0.00    -0.384 OA
ATOM     11  H3  UNL     1       9.873   5.845  21.891  1.00  0.00     0.211 HD
ENDBRANCH   7  10
BRANCH   7  12
HETATM   12  C9  UNL     1       8.069   7.184  21.525  1.00  0.00     0.167 C 
BRANCH  12  13
HETATM   13  N2  UNL     1       8.243   6.541  22.841  1.00  0.00    -0.357 N 
BRANCH  13  14
HETATM   14  C10 UNL     1       9.365   6.921  23.547  1.00  0.00     0.118 C 
BRANCH  14  15
HETATM   15  O4  UNL     1      10.059   5.871  24.020  1.00  0.00    -0.349 OA
ATOM     16  H4  UNL     1      10.981   5.909  23.793  1.00  0.00     0.219 HD
ENDBRANCH  14  15
BRANCH  14  17
HETATM   17  C11 UNL     1      10.040   8.142  23.950  1.00  0.00     0.060 A 
HETATM   18  C12 UNL     1      11.329   8.361  23.095  1.00  0.00     0.013 A 
HETATM   19  C13 UNL     1      10.300   9.389  23.269  1.00  0.00     0.013 A 
ENDBRANCH  14  17
ENDBRANCH  13  14
BRANCH  13  20
HETATM   20  C14 UNL     1       7.243   5.608  23.209  1.00  0.00     0.086 C 
HETATM   21  C15 UNL     1       5.827   6.076  23.223  1.00  0.00     0.025 C 
HETATM   22  C16 UNL     1       4.936   4.919  22.902  1.00  0.00     0.002 C 
HETATM   23  C17 UNL     1       5.812   3.728  22.787  1.00  0.00     0.002 C 
HETATM   24  C18 UNL     1       7.216   4.267  22.568  1.00  0.00     0.025 C 
ENDBRANCH  13  20
ENDBRANCH  12  13
ENDBRANCH   7  12
BRANCH   5  25
HETATM   25  O2  UNL     1      10.422  10.376  18.143  1.00  0.00    -0.345 OA
ATOM     26  H2  UNL     1      10.161  11.163  18.608  1.00  0.00     0.219 HD
ENDBRANCH   5  25
BRANCH   2  27
HETATM   27  O1  UNL     1       7.497   7.658  15.457  1.00  0.00    -0.345 OA
ATOM     28  H1  UNL     1       6.598   7.891  15.259  1.00  0.00     0.219 HD
ENDBRANCH   2  27
BRANCH   1  29
HETATM   29  C2  UNL     1       8.992  10.200  15.401  1.00  0.00     0.091 C 
HETATM   30  C1  UNL     1       8.029  11.030  15.098  1.00  0.00     0.030 C 
ENDBRANCH   1  29
TORSDOF 10
ENDMDL
