MODEL 1
REMARK VINA RESULT: -6.905293464      0.000      0.000
REMARK  7 active torsions:
REMARK  status: ('A' for Active; 'I' for Inactive)
REMARK    1  A    between atoms: C2_2  and  C3_3 
REMARK    2  A    between atoms: C3_3  and  C4_4 
REMARK    3  A    between atoms: C4_4  and  C5_5 
REMARK    4  A    between atoms: C5_5  and  O1_6 
REMARK    5  A    between atoms: C5_5  and  C6_8 
REMARK    6  A    between atoms: C15_18  and  C16_19 
REMARK    7  A    between atoms: C16_19  and  O3_20 
ROOT
HETATM    1  C6  UNL     1       6.440   5.346  22.983  1.00  0.00     0.052 C 
HETATM    2  C7  UNL     1       7.390   5.038  24.097  1.00  0.00     0.011 C 
HETATM    3  C8  UNL     1       8.645   5.908  23.866  1.00  0.00     0.013 C 
HETATM    4  C9  UNL     1       8.101   6.869  22.867  1.00  0.00     0.053 C 
HETATM    5  C10 UNL     1       9.024   7.769  22.197  1.00  0.00    -0.061 A 
HETATM    6  C11 UNL     1       9.702   8.897  22.000  1.00  0.00    -0.006 A 
HETATM    7  C12 UNL     1       9.832   7.713  21.075  1.00  0.00     0.024 A 
HETATM    8  C13 UNL     1      11.288   7.296  20.965  1.00  0.00     0.027 C 
HETATM    9  C14 UNL     1       9.209   8.042  19.727  1.00  0.00     0.147 C 
HETATM   10  O2  UNL     1      10.183   8.452  18.791  1.00  0.00    -0.376 OA
HETATM   11  C15 UNL     1       9.619   7.691  17.738  1.00  0.00     0.154 C 
HETATM   12  C17 UNL     1       8.977   6.860  18.852  1.00  0.00     0.074 C 
HETATM   13  C18 UNL     1       7.496   6.656  18.716  1.00  0.00     0.220 C 
HETATM   14  O4  UNL     1       7.066   5.827  19.721  1.00  0.00    -0.240 OA
HETATM   15  O5  UNL     1       6.801   6.460  20.856  1.00  0.00    -0.229 OA
HETATM   16  C19 UNL     1       7.426   5.897  21.929  1.00  0.00     0.106 C 
HETATM   17  C20 UNL     1       8.277   4.701  21.576  1.00  0.00     0.050 C 
ENDROOT
BRANCH   1  18
HETATM   18  C5  UNL     1       5.527   4.327  22.516  1.00  0.00     0.125 C 
BRANCH  18  19
HETATM   19  C4  UNL     1       4.085   4.637  22.825  1.00  0.00     0.032 C 
BRANCH  19  20
HETATM   20  C3  UNL     1       3.685   5.924  22.209  1.00  0.00     0.002 C 
BRANCH  20  21
HETATM   21  C2  UNL     1       2.347   5.810  21.523  1.00  0.00    -0.004 C 
HETATM   22  C1  UNL     1       2.583   6.226  20.071  1.00  0.00     0.005 C 
ENDBRANCH  20  21
ENDBRANCH  19  20
ENDBRANCH  18  19
BRANCH  18  23
HETATM   23  O1  UNL     1       5.750   3.039  23.020  1.00  0.00    -0.395 OA
ATOM     24  H1  UNL     1       6.287   2.602  22.370  1.00  0.00     0.210 HD
ENDBRANCH  18  23
ENDBRANCH   1  18
BRANCH  11  25
HETATM   25  C16 UNL     1      10.636   6.937  16.934  1.00  0.00     0.196 C 
BRANCH  25  26
HETATM   26  O3  UNL     1      10.342   6.912  15.588  1.00  0.00    -0.398 OA
ATOM     27  H3  UNL     1      11.118   6.920  15.041  1.00  0.00     0.209 HD
ENDBRANCH  25  26
ENDBRANCH  11  25
TORSDOF 7
ENDMDL
MODEL 2
REMARK VINA RESULT: -6.874379403      1.978      2.887
REMARK  7 active torsions:
REMARK  status: ('A' for Active; 'I' for Inactive)
REMARK    1  A    between atoms: C2_2  and  C3_3 
REMARK    2  A    between atoms: C3_3  and  C4_4 
REMARK    3  A    between atoms: C4_4  and  C5_5 
REMARK    4  A    between atoms: C5_5  and  O1_6 
REMARK    5  A    between atoms: C5_5  and  C6_8 
REMARK    6  A    between atoms: C15_18  and  C16_19 
REMARK    7  A    between atoms: C16_19  and  O3_20 
ROOT
HETATM    1  C6  UNL     1       7.953   6.561  21.998  1.00  0.00     0.052 C 
HETATM    2  C7  UNL     1       9.003   7.261  22.799  1.00  0.00     0.011 C 
HETATM    3  C8  UNL     1       9.460   8.480  21.968  1.00  0.00     0.013 C 
HETATM    4  C9  UNL     1       8.353   8.530  20.972  1.00  0.00     0.053 C 
HETATM    5  C10 UNL     1       8.484   9.425  19.835  1.00  0.00    -0.061 A 
HETATM    6  C11 UNL     1       8.331  10.553  19.146  1.00  0.00    -0.006 A 
HETATM    7  C12 UNL     1       9.049   9.357  18.573  1.00  0.00     0.024 A 
HETATM    8  C13 UNL     1      10.446   9.753  18.129  1.00  0.00     0.027 C 
HETATM    9  C14 UNL     1       8.221   8.749  17.451  1.00  0.00     0.147 C 
HETATM   10  O2  UNL     1       8.659   9.194  16.185  1.00  0.00    -0.376 OA
HETATM   11  C15 UNL     1       8.560   7.908  15.600  1.00  0.00     0.154 C 
HETATM   12  C17 UNL     1       8.656   7.387  17.037  1.00  0.00     0.074 C 
HETATM   13  C18 UNL     1       7.585   6.411  17.429  1.00  0.00     0.220 C 
HETATM   14  O4  UNL     1       7.838   5.957  18.699  1.00  0.00    -0.240 OA
HETATM   15  O5  UNL     1       7.362   6.749  19.651  1.00  0.00    -0.229 OA
HETATM   16  C19 UNL     1       8.303   7.072  20.583  1.00  0.00     0.106 C 
HETATM   17  C20 UNL     1       9.659   6.467  20.311  1.00  0.00     0.050 C 
ENDROOT
BRANCH   1  18
HETATM   18  C5  UNL     1       7.787   5.130  22.126  1.00  0.00     0.125 C 
BRANCH  18  19
HETATM   19  C4  UNL     1       6.369   4.721  22.423  1.00  0.00     0.032 C 
BRANCH  19  20
HETATM   20  C3  UNL     1       5.618   5.846  23.031  1.00  0.00     0.002 C 
BRANCH  20  21
HETATM   21  C2  UNL     1       5.517   5.690  24.527  1.00  0.00    -0.004 C 
HETATM   22  C1  UNL     1       5.169   4.223  24.775  1.00  0.00     0.005 C 
ENDBRANCH  20  21
ENDBRANCH  19  20
ENDBRANCH  18  19
BRANCH  18  23
HETATM   23  O1  UNL     1       8.569   4.517  23.114  1.00  0.00    -0.395 OA
ATOM     24  H1  UNL     1       9.423   4.388  22.719  1.00  0.00     0.210 HD
ENDBRANCH  18  23
ENDBRANCH   1  18
BRANCH  11  25
HETATM   25  C16 UNL     1       9.739   7.546  14.748  1.00  0.00     0.196 C 
BRANCH  25  26
HETATM   26  O3  UNL     1       9.509   7.745  13.404  1.00  0.00    -0.398 OA
ATOM     27  H3  UNL     1      10.167   8.295  12.995  1.00  0.00     0.209 HD
ENDBRANCH  25  26
ENDBRANCH  11  25
TORSDOF 7
ENDMDL
MODEL 3
REMARK VINA RESULT: -6.756443057      0.974      1.073
REMARK  7 active torsions:
REMARK  status: ('A' for Active; 'I' for Inactive)
REMARK    1  A    between atoms: C2_2  and  C3_3 
REMARK    2  A    between atoms: C3_3  and  C4_4 
REMARK    3  A    between atoms: C4_4  and  C5_5 
REMARK    4  A    between atoms: C5_5  and  O1_6 
REMARK    5  A    between atoms: C5_5  and  C6_8 
REMARK    6  A    between atoms: C15_18  and  C16_19 
REMARK    7  A    between atoms: C16_19  and  O3_20 
ROOT
HETATM    1  C6  UNL     1       5.463   5.321  23.309  1.00  0.00     0.052 C 
HETATM    2  C7  UNL     1       6.180   4.866  24.540  1.00  0.00     0.011 C 
HETATM    3  C8  UNL     1       7.577   5.523  24.512  1.00  0.00     0.013 C 
HETATM    4  C9  UNL     1       7.344   6.558  23.466  1.00  0.00     0.053 C 
HETATM    5  C10 UNL     1       8.486   7.297  22.956  1.00  0.00    -0.061 A 
HETATM    6  C11 UNL     1       9.356   8.301  22.884  1.00  0.00    -0.006 A 
HETATM    7  C12 UNL     1       9.430   7.111  21.961  1.00  0.00     0.024 A 
HETATM    8  C13 UNL     1      10.801   6.465  22.052  1.00  0.00     0.027 C 
HETATM    9  C14 UNL     1       9.069   7.535  20.545  1.00  0.00     0.147 C 
HETATM   10  O2  UNL     1      10.222   7.781  19.769  1.00  0.00    -0.376 OA
HETATM   11  C15 UNL     1       9.704   7.120  18.629  1.00  0.00     0.154 C 
HETATM   12  C17 UNL     1       8.783   6.404  19.620  1.00  0.00     0.074 C 
HETATM   13  C18 UNL     1       7.324   6.441  19.268  1.00  0.00     0.220 C 
HETATM   14  O4  UNL     1       6.625   5.692  20.182  1.00  0.00    -0.240 OA
HETATM   15  O5  UNL     1       6.302   6.361  21.281  1.00  0.00    -0.229 OA
HETATM   16  C19 UNL     1       6.667   5.706  22.420  1.00  0.00     0.106 C 
HETATM   17  C20 UNL     1       7.359   4.388  22.166  1.00  0.00     0.050 C 
ENDROOT
BRANCH   1  18
HETATM   18  C5  UNL     1       4.477   4.461  22.693  1.00  0.00     0.125 C 
BRANCH  18  19
HETATM   19  C4  UNL     1       3.085   5.035  22.729  1.00  0.00     0.032 C 
BRANCH  19  20
HETATM   20  C3  UNL     1       2.939   6.115  21.724  1.00  0.00     0.002 C 
BRANCH  20  21
HETATM   21  C2  UNL     1       2.132   5.653  20.538  1.00  0.00    -0.004 C 
HETATM   22  C1  UNL     1       2.626   6.475  19.348  1.00  0.00     0.005 C 
ENDBRANCH  20  21
ENDBRANCH  19  20
ENDBRANCH  18  19
BRANCH  18  23
HETATM   23  O1  UNL     1       4.368   3.177  23.241  1.00  0.00    -0.395 OA
ATOM     24  H1  UNL     1       4.404   2.582  22.502  1.00  0.00     0.210 HD
ENDBRANCH  18  23
ENDBRANCH   1  18
BRANCH  11  25
HETATM   25  C16 UNL     1      10.694   6.212  17.962  1.00  0.00     0.196 C 
BRANCH  25  26
HETATM   26  O3  UNL     1      10.636   6.275  16.587  1.00  0.00    -0.398 OA
ATOM     27  H3  UNL     1      11.463   6.530  16.195  1.00  0.00     0.209 HD
ENDBRANCH  25  26
ENDBRANCH  11  25
TORSDOF 7
ENDMDL
MODEL 4
REMARK VINA RESULT: -6.677120224      3.880      5.910
REMARK  7 active torsions:
REMARK  status: ('A' for Active; 'I' for Inactive)
REMARK    1  A    between atoms: C2_2  and  C3_3 
REMARK    2  A    between atoms: C3_3  and  C4_4 
REMARK    3  A    between atoms: C4_4  and  C5_5 
REMARK    4  A    between atoms: C5_5  and  O1_6 
REMARK    5  A    between atoms: C5_5  and  C6_8 
REMARK    6  A    between atoms: C15_18  and  C16_19 
REMARK    7  A    between atoms: C16_19  and  O3_20 
ROOT
HETATM    1  C6  UNL     1       5.768   4.210  22.524  1.00  0.00     0.052 C 
HETATM    2  C7  UNL     1       6.041   5.421  21.690  1.00  0.00     0.011 C 
HETATM    3  C8  UNL     1       7.533   5.770  21.884  1.00  0.00     0.013 C 
HETATM    4  C9  UNL     1       8.005   4.501  22.506  1.00  0.00     0.053 C 
HETATM    5  C10 UNL     1       9.348   4.459  23.059  1.00  0.00    -0.061 A 
HETATM    6  C11 UNL     1      10.659   4.231  23.064  1.00  0.00    -0.006 A 
HETATM    7  C12 UNL     1       9.937   4.776  24.270  1.00  0.00     0.024 A 
HETATM    8  C13 UNL     1      10.573   6.083  24.711  1.00  0.00     0.027 C 
HETATM    9  C14 UNL     1       9.914   3.729  25.373  1.00  0.00     0.147 C 
HETATM   10  O2  UNL     1      10.944   3.944  26.314  1.00  0.00    -0.376 OA
HETATM   11  C15 UNL     1      10.106   3.681  27.425  1.00  0.00     0.154 C 
HETATM   12  C17 UNL     1       8.954   4.019  26.474  1.00  0.00     0.074 C 
HETATM   13  C18 UNL     1       7.856   2.997  26.423  1.00  0.00     0.220 C 
HETATM   14  O4  UNL     1       6.853   3.460  25.610  1.00  0.00    -0.240 OA
HETATM   15  O5  UNL     1       7.050   3.204  24.323  1.00  0.00    -0.229 OA
HETATM   16  C19 UNL     1       6.925   4.315  23.543  1.00  0.00     0.106 C 
HETATM   17  C20 UNL     1       6.603   5.569  24.320  1.00  0.00     0.050 C 
ENDROOT
BRANCH   1  18
HETATM   18  C5  UNL     1       4.451   4.008  23.087  1.00  0.00     0.125 C 
BRANCH  18  19
HETATM   19  C4  UNL     1       3.623   5.265  23.123  1.00  0.00     0.032 C 
BRANCH  19  20
HETATM   20  C3  UNL     1       2.593   5.243  22.057  1.00  0.00     0.002 C 
BRANCH  20  21
HETATM   21  C2  UNL     1       2.660   6.484  21.205  1.00  0.00    -0.004 C 
HETATM   22  C1  UNL     1       2.351   6.032  19.779  1.00  0.00     0.005 C 
ENDBRANCH  20  21
ENDBRANCH  19  20
ENDBRANCH  18  19
BRANCH  18  23
HETATM   23  O1  UNL     1       4.424   3.503  24.393  1.00  0.00    -0.395 OA
ATOM     24  H1  UNL     1       3.508   3.497  24.644  1.00  0.00     0.210 HD
ENDBRANCH  18  23
ENDBRANCH   1  18
BRANCH  11  25
HETATM   25  C16 UNL     1      10.271   4.665  28.545  1.00  0.00     0.196 C 
BRANCH  25  26
HETATM   26  O3  UNL     1      11.568   5.108  28.681  1.00  0.00    -0.398 OA
ATOM     27  H3  UNL     1      11.946   4.888  29.524  1.00  0.00     0.209 HD
ENDBRANCH  25  26
ENDBRANCH  11  25
TORSDOF 7
ENDMDL
MODEL 5
REMARK VINA RESULT: -6.391410161      1.805      2.356
REMARK  7 active torsions:
REMARK  status: ('A' for Active; 'I' for Inactive)
REMARK    1  A    between atoms: C2_2  and  C3_3 
REMARK    2  A    between atoms: C3_3  and  C4_4 
REMARK    3  A    between atoms: C4_4  and  C5_5 
REMARK    4  A    between atoms: C5_5  and  O1_6 
REMARK    5  A    between atoms: C5_5  and  C6_8 
REMARK    6  A    between atoms: C15_18  and  C16_19 
REMARK    7  A    between atoms: C16_19  and  O3_20 
ROOT
HETATM    1  C6  UNL     1       7.036   6.789  22.296  1.00  0.00     0.052 C 
HETATM    2  C7  UNL     1       7.777   6.578  23.578  1.00  0.00     0.011 C 
HETATM    3  C8  UNL     1       9.224   7.064  23.343  1.00  0.00     0.013 C 
HETATM    4  C9  UNL     1       9.026   7.832  22.082  1.00  0.00     0.053 C 
HETATM    5  C10 UNL     1      10.198   8.306  21.368  1.00  0.00    -0.061 A 
HETATM    6  C11 UNL     1      11.150   9.170  21.021  1.00  0.00    -0.006 A 
HETATM    7  C12 UNL     1      11.065   7.790  20.419  1.00  0.00     0.024 A 
HETATM    8  C13 UNL     1      12.376   7.051  20.623  1.00  0.00     0.027 C 
HETATM    9  C14 UNL     1      10.664   7.890  18.955  1.00  0.00     0.147 C 
HETATM   10  O2  UNL     1      11.789   7.824  18.105  1.00  0.00    -0.376 OA
HETATM   11  C15 UNL     1      11.150   6.960  17.182  1.00  0.00     0.154 C 
HETATM   12  C17 UNL     1      10.226   6.603  18.349  1.00  0.00     0.074 C 
HETATM   13  C18 UNL     1       8.759   6.700  18.047  1.00  0.00     0.220 C 
HETATM   14  O4  UNL     1       8.049   6.270  19.139  1.00  0.00    -0.240 OA
HETATM   15  O5  UNL     1       7.849   7.215  20.049  1.00  0.00    -0.229 OA
HETATM   16  C19 UNL     1       8.218   6.823  21.301  1.00  0.00     0.106 C 
HETATM   17  C20 UNL     1       8.773   5.421  21.359  1.00  0.00     0.050 C 
ENDROOT
BRANCH   1  18
HETATM   18  C5  UNL     1       5.944   5.909  21.945  1.00  0.00     0.125 C 
BRANCH  18  19
HETATM   19  C4  UNL     1       6.151   4.492  22.412  1.00  0.00     0.032 C 
BRANCH  19  20
HETATM   20  C3  UNL     1       4.926   3.975  23.068  1.00  0.00     0.002 C 
BRANCH  20  21
HETATM   21  C2  UNL     1       4.824   4.457  24.492  1.00  0.00    -0.004 C 
HETATM   22  C1  UNL     1       6.096   3.979  25.191  1.00  0.00     0.005 C 
ENDBRANCH  20  21
ENDBRANCH  19  20
ENDBRANCH  18  19
BRANCH  18  23
HETATM   23  O1  UNL     1       5.660   5.816  20.577  1.00  0.00    -0.395 OA
ATOM     24  H1  UNL     1       6.399   6.218  20.136  1.00  0.00     0.210 HD
ENDBRANCH  18  23
ENDBRANCH   1  18
BRANCH  11  25
HETATM   25  C16 UNL     1      12.016   5.822  16.729  1.00  0.00     0.196 C 
BRANCH  25  26
HETATM   26  O3  UNL     1      13.241   6.238  16.255  1.00  0.00    -0.398 OA
ATOM     27  H3  UNL     1      13.780   6.638  16.928  1.00  0.00     0.209 HD
ENDBRANCH  25  26
ENDBRANCH  11  25
TORSDOF 7
ENDMDL
