MODEL 1
REMARK VINA RESULT: -6.540343255      0.000      0.000
REMARK  8 active torsions:
REMARK  status: ('A' for Active; 'I' for Inactive)
REMARK    1  A    between atoms: C2_2  and  O1_3 
REMARK    2  A    between atoms: C2_2  and  C3_5 
REMARK    3  A    between atoms: C3_5  and  C4_6 
REMARK    4  A    between atoms: C4_6  and  C5_7 
REMARK    5  A    between atoms: C4_6  and  O2_11 
REMARK    6  A    between atoms: O2_11  and  C6_12 
REMARK    7  A    between atoms: C11_18  and  C12_19 
REMARK    8  A    between atoms: C12_19  and  O4_20 
ROOT
HETATM    1  C6  UNL     1       6.537   5.561  22.845  1.00  0.00     0.266 C 
HETATM    2  O3  UNL     1       5.914   5.580  21.573  1.00  0.00    -0.354 OA
HETATM    3  C7  UNL     1       6.870   6.016  20.637  1.00  0.00     0.139 A 
HETATM    4  C8  UNL     1       8.219   5.557  20.812  1.00  0.00     0.027 A 
HETATM    5  C9  UNL     1       9.512   5.846  20.172  1.00  0.00     0.009 C 
HETATM    6  C10 UNL     1      10.603   5.619  21.162  1.00  0.00     0.013 C 
HETATM    7  C11 UNL     1      10.587   6.100  22.513  1.00  0.00    -0.011 C 
HETATM    8  C13 UNL     1       9.704   5.398  23.511  1.00  0.00     0.018 C 
HETATM    9  C14 UNL     1       8.791   6.546  23.595  1.00  0.00     0.005 C 
HETATM   10  C15 UNL     1       7.538   6.610  22.878  1.00  0.00     0.057 C 
HETATM   11  C16 UNL     1       7.781   6.778  21.411  1.00  0.00     0.001 A 
HETATM   12  C17 UNL     1       8.326   8.072  21.133  1.00  0.00     0.014 C 
HETATM   13  C18 UNL     1       9.559   8.324  21.935  1.00  0.00     0.011 C 
HETATM   14  C19 UNL     1       9.927   7.343  22.938  1.00  0.00    -0.030 C 
HETATM   15  C20 UNL     1      10.695   8.037  24.085  1.00  0.00     0.016 C 
ENDROOT
BRANCH   1  16
HETATM   16  O2  UNL     1       6.887   4.299  23.266  1.00  0.00    -0.350 OA
BRANCH  16  17
HETATM   17  C4  UNL     1       6.164   3.820  24.343  1.00  0.00     0.164 C 
BRANCH  17  18
HETATM   18  C3  UNL     1       6.777   4.092  25.675  1.00  0.00     0.068 C 
BRANCH  18  19
HETATM   19  C2  UNL     1       7.933   3.167  25.979  1.00  0.00     0.116 C 
HETATM   20  C1  UNL     1       8.608   3.593  27.275  1.00  0.00     0.039 C 
BRANCH  19  21
HETATM   21  O1  UNL     1       7.506   1.857  26.163  1.00  0.00    -0.396 OA
ATOM     22  H1  UNL     1       6.978   1.851  26.952  1.00  0.00     0.210 HD
ENDBRANCH  19  21
ENDBRANCH  18  19
ENDBRANCH  17  18
BRANCH  17  23
HETATM   23  C5  UNL     1       4.776   4.351  24.386  1.00  0.00     0.085 C 
HETATM   24  N1  UNL     1       3.897   3.929  23.560  1.00  0.00    -0.409 N 
ATOM     25  H12 UNL     1       4.165   3.223  22.874  1.00  0.00     0.155 HD
ATOM     26  H11 UNL     1       2.945   4.293  23.589  1.00  0.00     0.155 HD
ENDBRANCH  17  23
ENDBRANCH  16  17
ENDBRANCH   1  16
BRANCH   7  27
HETATM   27  C12 UNL     1      12.054   6.077  23.021  1.00  0.00     0.174 C 
BRANCH  27  28
HETATM   28  O4  UNL     1      12.830   5.239  22.258  1.00  0.00    -0.400 OA
ATOM     29  H4  UNL     1      13.247   5.711  21.546  1.00  0.00     0.209 HD
ENDBRANCH  27  28
ENDBRANCH   7  27
TORSDOF 8
ENDMDL
MODEL 2
REMARK VINA RESULT: -6.514454071      1.789      2.741
REMARK  8 active torsions:
REMARK  status: ('A' for Active; 'I' for Inactive)
REMARK    1  A    between atoms: C2_2  and  O1_3 
REMARK    2  A    between atoms: C2_2  and  C3_5 
REMARK    3  A    between atoms: C3_5  and  C4_6 
REMARK    4  A    between atoms: C4_6  and  C5_7 
REMARK    5  A    between atoms: C4_6  and  O2_11 
REMARK    6  A    between atoms: O2_11  and  C6_12 
REMARK    7  A    between atoms: C11_18  and  C12_19 
REMARK    8  A    between atoms: C12_19  and  O4_20 
ROOT
HETATM    1  C6  UNL     1       6.677   6.343  21.881  1.00  0.00     0.266 C 
HETATM    2  O3  UNL     1       6.462   5.967  20.532  1.00  0.00    -0.354 OA
HETATM    3  C7  UNL     1       7.677   6.137  19.844  1.00  0.00     0.139 A 
HETATM    4  C8  UNL     1       8.884   5.792  20.542  1.00  0.00     0.027 A 
HETATM    5  C9  UNL     1      10.324   5.919  20.267  1.00  0.00     0.009 C 
HETATM    6  C10 UNL     1      11.055   6.028  21.561  1.00  0.00     0.013 C 
HETATM    7  C11 UNL     1      10.668   6.886  22.644  1.00  0.00    -0.011 C 
HETATM    8  C13 UNL     1       9.488   6.481  23.488  1.00  0.00     0.018 C 
HETATM    9  C14 UNL     1       8.663   7.575  22.956  1.00  0.00     0.005 C 
HETATM   10  C15 UNL     1       7.685   7.386  21.909  1.00  0.00     0.057 C 
HETATM   11  C16 UNL     1       8.363   7.121  20.600  1.00  0.00     0.001 A 
HETATM   12  C17 UNL     1       9.043   8.292  20.137  1.00  0.00     0.014 C 
HETATM   13  C18 UNL     1       9.996   8.808  21.164  1.00  0.00     0.011 C 
HETATM   14  C19 UNL     1       9.989   8.177  22.471  1.00  0.00    -0.030 C 
HETATM   15  C20 UNL     1      10.422   9.201  23.543  1.00  0.00     0.016 C 
ENDROOT
BRANCH   1  16
HETATM   16  O2  UNL     1       6.810   5.272  22.734  1.00  0.00    -0.350 OA
BRANCH  16  17
HETATM   17  C4  UNL     1       5.738   5.065  23.583  1.00  0.00     0.164 C 
BRANCH  17  18
HETATM   18  C3  UNL     1       4.698   4.134  23.056  1.00  0.00     0.068 C 
BRANCH  18  19
HETATM   19  C2  UNL     1       3.313   4.738  23.085  1.00  0.00     0.116 C 
HETATM   20  C1  UNL     1       3.152   5.720  21.933  1.00  0.00     0.039 C 
BRANCH  19  21
HETATM   21  O1  UNL     1       2.328   3.770  22.926  1.00  0.00    -0.396 OA
ATOM     22  H1  UNL     1       1.529   4.132  23.290  1.00  0.00     0.210 HD
ENDBRANCH  19  21
ENDBRANCH  18  19
ENDBRANCH  17  18
BRANCH  17  23
HETATM   23  C5  UNL     1       6.150   4.547  24.915  1.00  0.00     0.085 C 
HETATM   24  N1  UNL     1       6.546   3.339  25.044  1.00  0.00    -0.409 N 
ATOM     25  H12 UNL     1       6.574   2.740  24.219  1.00  0.00     0.155 HD
ATOM     26  H11 UNL     1       6.830   2.985  25.957  1.00  0.00     0.155 HD
ENDBRANCH  17  23
ENDBRANCH  16  17
ENDBRANCH   1  16
BRANCH   7  27
HETATM   27  C12 UNL     1      11.914   7.058  23.554  1.00  0.00     0.174 C 
BRANCH  27  28
HETATM   28  O4  UNL     1      11.944   6.103  24.541  1.00  0.00    -0.400 OA
ATOM     29  H4  UNL     1      12.230   6.473  25.368  1.00  0.00     0.209 HD
ENDBRANCH  27  28
ENDBRANCH   7  27
TORSDOF 8
ENDMDL
MODEL 3
REMARK VINA RESULT: -6.358615803      3.511      6.420
REMARK  8 active torsions:
REMARK  status: ('A' for Active; 'I' for Inactive)
REMARK    1  A    between atoms: C2_2  and  O1_3 
REMARK    2  A    between atoms: C2_2  and  C3_5 
REMARK    3  A    between atoms: C3_5  and  C4_6 
REMARK    4  A    between atoms: C4_6  and  C5_7 
REMARK    5  A    between atoms: C4_6  and  O2_11 
REMARK    6  A    between atoms: O2_11  and  C6_12 
REMARK    7  A    between atoms: C11_18  and  C12_19 
REMARK    8  A    between atoms: C12_19  and  O4_20 
ROOT
HETATM    1  C6  UNL     1       8.135   6.614  19.176  1.00  0.00     0.266 C 
HETATM    2  O3  UNL     1       6.856   6.087  19.482  1.00  0.00    -0.354 OA
HETATM    3  C7  UNL     1       6.809   5.863  20.870  1.00  0.00     0.139 A 
HETATM    4  C8  UNL     1       7.450   6.831  21.715  1.00  0.00     0.027 A 
HETATM    5  C9  UNL     1       7.742   6.932  23.154  1.00  0.00     0.009 C 
HETATM    6  C10 UNL     1       8.963   7.767  23.341  1.00  0.00     0.013 C 
HETATM    7  C11 UNL     1      10.174   7.616  22.588  1.00  0.00    -0.011 C 
HETATM    8  C13 UNL     1      10.199   8.121  21.169  1.00  0.00     0.018 C 
HETATM    9  C14 UNL     1      10.254   6.756  20.626  1.00  0.00     0.005 C 
HETATM   10  C15 UNL     1       9.093   6.064  20.116  1.00  0.00     0.057 C 
HETATM   11  C16 UNL     1       8.169   5.694  21.234  1.00  0.00     0.001 A 
HETATM   12  C17 UNL     1       8.755   4.682  22.060  1.00  0.00     0.014 C 
HETATM   13  C18 UNL     1      10.097   5.100  22.560  1.00  0.00     0.011 C 
HETATM   14  C19 UNL     1      10.656   6.338  22.047  1.00  0.00    -0.030 C 
HETATM   15  C20 UNL     1      12.198   6.254  22.059  1.00  0.00     0.016 C 
ENDROOT
BRANCH   1  16
HETATM   16  O2  UNL     1       8.129   7.972  18.956  1.00  0.00    -0.350 OA
BRANCH  16  17
HETATM   17  C4  UNL     1       7.932   8.351  17.640  1.00  0.00     0.164 C 
BRANCH  17  18
HETATM   18  C3  UNL     1       8.400   9.728  17.312  1.00  0.00     0.068 C 
BRANCH  18  19
HETATM   19  C2  UNL     1       7.339  10.549  16.616  1.00  0.00     0.116 C 
HETATM   20  C1  UNL     1       7.695  10.717  15.146  1.00  0.00     0.039 C 
BRANCH  19  21
HETATM   21  O1  UNL     1       6.098   9.924  16.658  1.00  0.00    -0.396 OA
ATOM     22  H1  UNL     1       5.974   9.625  17.550  1.00  0.00     0.210 HD
ENDBRANCH  19  21
ENDBRANCH  18  19
ENDBRANCH  17  18
BRANCH  17  23
HETATM   23  C5  UNL     1       8.583   7.428  16.672  1.00  0.00     0.085 C 
HETATM   24  N1  UNL     1       7.938   6.998  15.656  1.00  0.00    -0.409 N 
ATOM     25  H12 UNL     1       6.973   7.300  15.523  1.00  0.00     0.155 HD
ATOM     26  H11 UNL     1       8.385   6.366  14.992  1.00  0.00     0.155 HD
ENDBRANCH  17  23
ENDBRANCH  16  17
ENDBRANCH   1  16
BRANCH   7  27
HETATM   27  C12 UNL     1      11.302   8.310  23.399  1.00  0.00     0.174 C 
BRANCH  27  28
HETATM   28  O4  UNL     1      11.244   9.675  23.261  1.00  0.00    -0.400 OA
ATOM     29  H4  UNL     1      10.982  10.091  24.074  1.00  0.00     0.209 HD
ENDBRANCH  27  28
ENDBRANCH   7  27
TORSDOF 8
ENDMDL
MODEL 4
REMARK VINA RESULT: -6.325620502      1.959      4.153
REMARK  8 active torsions:
REMARK  status: ('A' for Active; 'I' for Inactive)
REMARK    1  A    between atoms: C2_2  and  O1_3 
REMARK    2  A    between atoms: C2_2  and  C3_5 
REMARK    3  A    between atoms: C3_5  and  C4_6 
REMARK    4  A    between atoms: C4_6  and  C5_7 
REMARK    5  A    between atoms: C4_6  and  O2_11 
REMARK    6  A    between atoms: O2_11  and  C6_12 
REMARK    7  A    between atoms: C11_18  and  C12_19 
REMARK    8  A    between atoms: C12_19  and  O4_20 
ROOT
HETATM    1  C6  UNL     1       7.494   5.043  23.232  1.00  0.00     0.266 C 
HETATM    2  O3  UNL     1       8.414   4.595  24.212  1.00  0.00    -0.354 OA
HETATM    3  C7  UNL     1       9.669   5.151  23.903  1.00  0.00     0.139 A 
HETATM    4  C8  UNL     1       9.688   6.499  23.408  1.00  0.00     0.027 A 
HETATM    5  C9  UNL     1      10.719   7.398  22.866  1.00  0.00     0.009 C 
HETATM    6  C10 UNL     1      10.075   8.360  21.926  1.00  0.00     0.013 C 
HETATM    7  C11 UNL     1       9.134   7.994  20.907  1.00  0.00    -0.011 C 
HETATM    8  C13 UNL     1       7.728   7.652  21.324  1.00  0.00     0.018 C 
HETATM    9  C14 UNL     1       7.916   6.233  20.991  1.00  0.00     0.005 C 
HETATM   10  C15 UNL     1       8.209   5.224  21.983  1.00  0.00     0.057 C 
HETATM   11  C16 UNL     1       9.601   5.393  22.508  1.00  0.00     0.001 A 
HETATM   12  C17 UNL     1      10.564   5.076  21.497  1.00  0.00     0.014 C 
HETATM   13  C18 UNL     1      10.333   5.878  20.259  1.00  0.00     0.011 C 
HETATM   14  C19 UNL     1       9.143   6.706  20.200  1.00  0.00    -0.030 C 
HETATM   15  C20 UNL     1       8.687   6.854  18.732  1.00  0.00     0.016 C 
ENDROOT
BRANCH   1  16
HETATM   16  O2  UNL     1       6.671   6.053  23.675  1.00  0.00    -0.350 OA
BRANCH  16  17
HETATM   17  C4  UNL     1       5.342   5.700  23.824  1.00  0.00     0.164 C 
BRANCH  17  18
HETATM   18  C3  UNL     1       4.699   5.157  22.593  1.00  0.00     0.068 C 
BRANCH  18  19
HETATM   19  C2  UNL     1       3.207   5.394  22.566  1.00  0.00     0.116 C 
HETATM   20  C1  UNL     1       2.809   6.039  21.246  1.00  0.00     0.039 C 
BRANCH  19  21
HETATM   21  O1  UNL     1       2.497   4.203  22.658  1.00  0.00    -0.396 OA
ATOM     22  H1  UNL     1       2.535   3.933  23.568  1.00  0.00     0.210 HD
ENDBRANCH  19  21
ENDBRANCH  18  19
ENDBRANCH  17  18
BRANCH  17  23
HETATM   23  C5  UNL     1       5.130   4.699  24.903  1.00  0.00     0.085 C 
HETATM   24  N1  UNL     1       4.845   3.487  24.613  1.00  0.00    -0.409 N 
ATOM     25  H12 UNL     1       4.765   3.222  23.631  1.00  0.00     0.155 HD
ATOM     26  H11 UNL     1       4.700   2.801  25.353  1.00  0.00     0.155 HD
ENDBRANCH  17  23
ENDBRANCH  16  17
ENDBRANCH   1  16
BRANCH   7  27
HETATM   27  C12 UNL     1       9.096   9.162  19.884  1.00  0.00     0.174 C 
BRANCH  27  28
HETATM   28  O4  UNL     1       7.998   9.961  20.085  1.00  0.00    -0.400 OA
ATOM     29  H4  UNL     1       7.245   9.636  19.607  1.00  0.00     0.209 HD
ENDBRANCH  27  28
ENDBRANCH   7  27
TORSDOF 8
ENDMDL
MODEL 5
REMARK VINA RESULT: -6.286852499      1.643      2.450
REMARK  8 active torsions:
REMARK  status: ('A' for Active; 'I' for Inactive)
REMARK    1  A    between atoms: C2_2  and  O1_3 
REMARK    2  A    between atoms: C2_2  and  C3_5 
REMARK    3  A    between atoms: C3_5  and  C4_6 
REMARK    4  A    between atoms: C4_6  and  C5_7 
REMARK    5  A    between atoms: C4_6  and  O2_11 
REMARK    6  A    between atoms: O2_11  and  C6_12 
REMARK    7  A    between atoms: C11_18  and  C12_19 
REMARK    8  A    between atoms: C12_19  and  O4_20 
ROOT
HETATM    1  C6  UNL     1       7.316   6.967  22.377  1.00  0.00     0.266 C 
HETATM    2  O3  UNL     1       7.422   8.109  21.545  1.00  0.00    -0.354 OA
HETATM    3  C7  UNL     1       8.790   8.346  21.320  1.00  0.00     0.139 A 
HETATM    4  C8  UNL     1       9.636   7.199  21.142  1.00  0.00     0.027 A 
HETATM    5  C9  UNL     1      11.086   6.981  21.010  1.00  0.00     0.009 C 
HETATM    6  C10 UNL     1      11.418   5.621  21.522  1.00  0.00     0.013 C 
HETATM    7  C11 UNL     1      10.934   5.078  22.759  1.00  0.00    -0.011 C 
HETATM    8  C13 UNL     1       9.502   4.616  22.823  1.00  0.00     0.018 C 
HETATM    9  C14 UNL     1       9.127   5.723  23.714  1.00  0.00     0.005 C 
HETATM   10  C15 UNL     1       8.477   6.926  23.246  1.00  0.00     0.057 C 
HETATM   11  C16 UNL     1       9.427   7.756  22.441  1.00  0.00     0.001 A 
HETATM   12  C17 UNL     1      10.453   8.304  23.277  1.00  0.00     0.014 C 
HETATM   13  C18 UNL     1      11.158   7.232  24.041  1.00  0.00     0.011 C 
HETATM   14  C19 UNL     1      10.635   5.881  23.952  1.00  0.00    -0.030 C 
HETATM   15  C20 UNL     1      10.955   5.116  25.254  1.00  0.00     0.016 C 
ENDROOT
BRANCH   1  16
HETATM   16  O2  UNL     1       6.957   5.825  21.698  1.00  0.00    -0.350 OA
BRANCH  16  17
HETATM   17  C4  UNL     1       5.773   5.244  22.115  1.00  0.00     0.164 C 
BRANCH  17  18
HETATM   18  C3  UNL     1       5.540   5.295  23.587  1.00  0.00     0.068 C 
BRANCH  18  19
HETATM   19  C2  UNL     1       5.631   3.932  24.235  1.00  0.00     0.116 C 
HETATM   20  C1  UNL     1       6.498   4.009  25.483  1.00  0.00     0.039 C 
BRANCH  19  21
HETATM   21  O1  UNL     1       4.384   3.474  24.643  1.00  0.00    -0.396 OA
ATOM     22  H1  UNL     1       3.804   4.226  24.642  1.00  0.00     0.210 HD
ENDBRANCH  19  21
ENDBRANCH  18  19
ENDBRANCH  17  18
BRANCH  17  23
HETATM   23  C5  UNL     1       4.578   5.843  21.464  1.00  0.00     0.085 C 
HETATM   24  N1  UNL     1       3.452   5.858  22.070  1.00  0.00    -0.409 N 
ATOM     25  H12 UNL     1       3.391   5.453  23.003  1.00  0.00     0.155 HD
ATOM     26  H11 UNL     1       2.633   6.269  21.623  1.00  0.00     0.155 HD
ENDBRANCH  17  23
ENDBRANCH  16  17
ENDBRANCH   1  16
BRANCH   7  27
HETATM   27  C12 UNL     1      11.871   3.897  23.133  1.00  0.00     0.174 C 
BRANCH  27  28
HETATM   28  O4  UNL     1      11.808   2.898  22.194  1.00  0.00    -0.400 OA
ATOM     29  H4  UNL     1      12.178   3.181  21.366  1.00  0.00     0.209 HD
ENDBRANCH  27  28
ENDBRANCH   7  27
TORSDOF 8
ENDMDL
