MODEL 1
REMARK VINA RESULT: -5.990979381      0.000      0.000
REMARK  8 active torsions:
REMARK  status: ('A' for Active; 'I' for Inactive)
REMARK    1  A    between atoms: C2_2  and  C3_3 
REMARK    2  A    between atoms: C2_2  and  C4_6 
REMARK    3  A    between atoms: C3_3  and  O1_4 
REMARK    4  A    between atoms: C4_6  and  C6_8 
REMARK    5  A    between atoms: C11_13  and  O2_14 
REMARK    6  A    between atoms: C15_19  and  C16_20 
REMARK    7  A    between atoms: C19_23  and  O3_24 
REMARK    8  A    between atoms: C20_26  and  O4_27 
ROOT
HETATM    1  C6  UNL     1       8.812   6.747  21.765  1.00  0.00    -0.033 C 
HETATM    2  C7  UNL     1       9.155   5.322  21.900  1.00  0.00    -0.056 C 
HETATM    3  C8  UNL     1      10.522   4.897  21.402  1.00  0.00     0.048 C 
HETATM    4  C9  UNL     1       8.098   4.343  21.641  1.00  0.00     0.006 C 
HETATM    5  C10 UNL     1       7.088   3.919  22.415  1.00  0.00     0.014 C 
HETATM    6  C11 UNL     1       6.588   4.186  23.750  1.00  0.00     0.109 C 
HETATM    7  C12 UNL     1       7.136   5.407  24.446  1.00  0.00     0.082 C 
HETATM    8  C13 UNL     1       7.083   6.671  23.697  1.00  0.00    -0.044 C 
HETATM    9  C14 UNL     1       5.832   6.667  22.902  1.00  0.00     0.012 C 
HETATM   10  C15 UNL     1       4.940   5.687  22.861  1.00  0.00    -0.045 C 
HETATM   11  C19 UNL     1       5.076   4.430  23.641  1.00  0.00     0.186 C 
HETATM   12  C20 UNL     1       8.233   7.301  23.066  1.00  0.00     0.180 C 
ENDROOT
BRANCH   1  13
HETATM   13  C4  UNL     1       8.133   7.289  20.565  1.00  0.00     0.044 C 
HETATM   14  C5  UNL     1       8.378   8.806  20.424  1.00  0.00     0.019 C 
BRANCH  13  15
HETATM   15  C2  UNL     1       8.446   6.756  19.236  1.00  0.00    -0.058 C 
HETATM   16  C1  UNL     1       9.599   7.034  18.595  1.00  0.00     0.017 C 
BRANCH  15  17
HETATM   17  C3  UNL     1       7.465   6.042  18.391  1.00  0.00     0.198 C 
BRANCH  17  18
HETATM   18  O1  UNL     1       6.183   6.011  18.990  1.00  0.00    -0.397 OA
ATOM     19  H1  UNL     1       5.502   6.245  18.372  1.00  0.00     0.209 HD
ENDBRANCH  17  18
ENDBRANCH  15  17
ENDBRANCH  13  15
ENDBRANCH   1  13
BRANCH  12  20
HETATM   20  O4  UNL     1       9.303   7.562  23.918  1.00  0.00    -0.382 OA
HETATM   21  C21 UNL     1       9.999   8.705  23.672  1.00  0.00     0.202 C 
ENDBRANCH  12  20
BRANCH   6  22
HETATM   22  O2  UNL     1       6.796   3.110  24.636  1.00  0.00    -0.383 OA
ATOM     23  H2  UNL     1       7.691   2.792  24.624  1.00  0.00     0.211 HD
ENDBRANCH   6  22
BRANCH  10  24
HETATM   24  C16 UNL     1       3.711   5.814  22.009  1.00  0.00     0.009 C 
HETATM   25  C17 UNL     1       2.743   4.674  22.214  1.00  0.00     0.014 C 
HETATM   26  C18 UNL     1       3.010   7.106  22.305  1.00  0.00     0.014 C 
ENDBRANCH  10  24
BRANCH  11  27
HETATM   27  O3  UNL     1       4.625   4.614  24.958  1.00  0.00    -0.388 OA
ATOM     28  H3  UNL     1       4.754   5.535  25.147  1.00  0.00     0.210 HD
ENDBRANCH  11  27
TORSDOF 8
ENDMDL
MODEL 2
REMARK VINA RESULT: -5.971943120      1.909      4.514
REMARK  8 active torsions:
REMARK  status: ('A' for Active; 'I' for Inactive)
REMARK    1  A    between atoms: C2_2  and  C3_3 
REMARK    2  A    between atoms: C2_2  and  C4_6 
REMARK    3  A    between atoms: C3_3  and  O1_4 
REMARK    4  A    between atoms: C4_6  and  C6_8 
REMARK    5  A    between atoms: C11_13  and  O2_14 
REMARK    6  A    between atoms: C15_19  and  C16_20 
REMARK    7  A    between atoms: C19_23  and  O3_24 
REMARK    8  A    between atoms: C20_26  and  O4_27 
ROOT
HETATM    1  C6  UNL     1       9.667   7.012  20.854  1.00  0.00    -0.033 C 
HETATM    2  C7  UNL     1       8.500   7.887  21.056  1.00  0.00    -0.056 C 
HETATM    3  C8  UNL     1       8.605   9.300  20.517  1.00  0.00     0.048 C 
HETATM    4  C9  UNL     1       7.793   7.790  22.333  1.00  0.00     0.006 C 
HETATM    5  C10 UNL     1       6.888   6.900  22.768  1.00  0.00     0.014 C 
HETATM    6  C11 UNL     1       6.229   5.716  22.250  1.00  0.00     0.109 C 
HETATM    7  C12 UNL     1       6.810   5.113  20.995  1.00  0.00     0.082 C 
HETATM    8  C13 UNL     1       8.254   4.842  21.003  1.00  0.00    -0.044 C 
HETATM    9  C14 UNL     1       8.620   4.408  22.371  1.00  0.00     0.012 C 
HETATM   10  C15 UNL     1       7.794   4.308  23.403  1.00  0.00    -0.045 C 
HETATM   11  C19 UNL     1       6.343   4.616  23.315  1.00  0.00     0.186 C 
HETATM   12  C20 UNL     1       9.245   5.648  20.307  1.00  0.00     0.180 C 
ENDROOT
BRANCH   1  13
HETATM   13  C4  UNL     1      10.765   6.912  21.845  1.00  0.00     0.044 C 
HETATM   14  C5  UNL     1      11.831   5.892  21.393  1.00  0.00     0.019 C 
BRANCH  13  15
HETATM   15  C2  UNL     1      11.543   8.100  22.206  1.00  0.00    -0.058 C 
HETATM   16  C1  UNL     1      12.576   8.544  21.462  1.00  0.00     0.017 C 
BRANCH  15  17
HETATM   17  C3  UNL     1      11.412   8.799  23.502  1.00  0.00     0.198 C 
BRANCH  17  18
HETATM   18  O1  UNL     1      10.528   9.900  23.415  1.00  0.00    -0.397 OA
ATOM     19  H1  UNL     1      10.969  10.720  23.604  1.00  0.00     0.209 HD
ENDBRANCH  17  18
ENDBRANCH  15  17
ENDBRANCH  13  15
ENDBRANCH   1  13
BRANCH  12  20
HETATM   20  O4  UNL     1       9.027   5.800  18.940  1.00  0.00    -0.382 OA
HETATM   21  C21 UNL     1      10.103   6.189  18.203  1.00  0.00     0.202 C 
ENDBRANCH  12  20
BRANCH   6  22
HETATM   22  O2  UNL     1       4.862   5.927  21.981  1.00  0.00    -0.383 OA
ATOM     23  H2  UNL     1       4.545   5.403  21.255  1.00  0.00     0.211 HD
ENDBRANCH   6  22
BRANCH  10  24
HETATM   24  C16 UNL     1       8.299   3.854  24.741  1.00  0.00     0.009 C 
HETATM   25  C17 UNL     1       9.596   4.522  25.129  1.00  0.00     0.014 C 
HETATM   26  C18 UNL     1       7.274   4.133  25.800  1.00  0.00     0.014 C 
ENDBRANCH  10  24
BRANCH  11  27
HETATM   27  O3  UNL     1       5.634   3.518  22.804  1.00  0.00    -0.388 OA
ATOM     28  H3  UNL     1       5.152   3.158  23.539  1.00  0.00     0.210 HD
ENDBRANCH  11  27
TORSDOF 8
ENDMDL
MODEL 3
REMARK VINA RESULT: -5.942526891      2.773      5.372
REMARK  8 active torsions:
REMARK  status: ('A' for Active; 'I' for Inactive)
REMARK    1  A    between atoms: C2_2  and  C3_3 
REMARK    2  A    between atoms: C2_2  and  C4_6 
REMARK    3  A    between atoms: C3_3  and  O1_4 
REMARK    4  A    between atoms: C4_6  and  C6_8 
REMARK    5  A    between atoms: C11_13  and  O2_14 
REMARK    6  A    between atoms: C15_19  and  C16_20 
REMARK    7  A    between atoms: C19_23  and  O3_24 
REMARK    8  A    between atoms: C20_26  and  O4_27 
ROOT
HETATM    1  C6  UNL     1      10.475   5.041  24.037  1.00  0.00    -0.033 C 
HETATM    2  C7  UNL     1      10.577   6.453  23.631  1.00  0.00    -0.056 C 
HETATM    3  C8  UNL     1      11.864   7.174  23.980  1.00  0.00     0.048 C 
HETATM    4  C9  UNL     1       9.379   7.283  23.757  1.00  0.00     0.006 C 
HETATM    5  C10 UNL     1       8.300   7.391  22.967  1.00  0.00     0.014 C 
HETATM    6  C11 UNL     1       7.829   6.804  21.727  1.00  0.00     0.109 C 
HETATM    7  C12 UNL     1       8.559   5.577  21.239  1.00  0.00     0.082 C 
HETATM    8  C13 UNL     1       8.726   4.483  22.205  1.00  0.00    -0.044 C 
HETATM    9  C14 UNL     1       7.505   4.436  23.043  1.00  0.00     0.012 C 
HETATM   10  C15 UNL     1       6.465   5.253  22.948  1.00  0.00    -0.045 C 
HETATM   11  C19 UNL     1       6.380   6.348  21.948  1.00  0.00     0.186 C 
HETATM   12  C20 UNL     1       9.974   4.171  22.885  1.00  0.00     0.180 C 
ENDROOT
BRANCH   1  13
HETATM   13  C4  UNL     1       9.914   4.631  25.346  1.00  0.00     0.044 C 
HETATM   14  C5  UNL     1       9.425   3.168  25.307  1.00  0.00     0.019 C 
BRANCH  13  15
HETATM   15  C2  UNL     1      10.739   4.697  26.555  1.00  0.00    -0.058 C 
HETATM   16  C1  UNL     1      12.086   4.740  26.514  1.00  0.00     0.017 C 
BRANCH  15  17
HETATM   17  C3  UNL     1      10.201   4.519  27.920  1.00  0.00     0.198 C 
BRANCH  17  18
HETATM   18  O1  UNL     1      10.931   5.269  28.873  1.00  0.00    -0.397 OA
ATOM     19  H1  UNL     1      11.867   5.212  28.721  1.00  0.00     0.209 HD
ENDBRANCH  17  18
ENDBRANCH  15  17
ENDBRANCH  13  15
ENDBRANCH   1  13
BRANCH  12  20
HETATM   20  O4  UNL     1      11.058   3.929  22.046  1.00  0.00    -0.382 OA
HETATM   21  C21 UNL     1      12.059   3.167  22.566  1.00  0.00     0.202 C 
ENDBRANCH  12  20
BRANCH   6  22
HETATM   22  O2  UNL     1       7.843   7.716  20.652  1.00  0.00    -0.383 OA
ATOM     23  H2  UNL     1       7.287   8.471  20.804  1.00  0.00     0.211 HD
ENDBRANCH   6  22
BRANCH  10  24
HETATM   24  C16 UNL     1       5.287   5.094  23.864  1.00  0.00     0.009 C 
HETATM   25  C17 UNL     1       4.271   4.109  23.339  1.00  0.00     0.014 C 
HETATM   26  C18 UNL     1       5.746   4.642  25.219  1.00  0.00     0.014 C 
ENDBRANCH  10  24
BRANCH  11  27
HETATM   27  O3  UNL     1       5.944   5.854  20.708  1.00  0.00    -0.388 OA
ATOM     28  H3  UNL     1       5.442   6.557  20.314  1.00  0.00     0.210 HD
ENDBRANCH  11  27
TORSDOF 8
ENDMDL
MODEL 4
REMARK VINA RESULT: -5.685678283      2.249      4.870
REMARK  8 active torsions:
REMARK  status: ('A' for Active; 'I' for Inactive)
REMARK    1  A    between atoms: C2_2  and  C3_3 
REMARK    2  A    between atoms: C2_2  and  C4_6 
REMARK    3  A    between atoms: C3_3  and  O1_4 
REMARK    4  A    between atoms: C4_6  and  C6_8 
REMARK    5  A    between atoms: C11_13  and  O2_14 
REMARK    6  A    between atoms: C15_19  and  C16_20 
REMARK    7  A    between atoms: C19_23  and  O3_24 
REMARK    8  A    between atoms: C20_26  and  O4_27 
ROOT
HETATM    1  C6  UNL     1       9.119   7.681  19.517  1.00  0.00    -0.033 C 
HETATM    2  C7  UNL     1       8.421   8.531  20.496  1.00  0.00    -0.056 C 
HETATM    3  C8  UNL     1       8.273   9.998  20.144  1.00  0.00     0.048 C 
HETATM    4  C9  UNL     1       8.679   8.285  21.915  1.00  0.00     0.006 C 
HETATM    5  C10 UNL     1       8.188   7.353  22.746  1.00  0.00     0.014 C 
HETATM    6  C11 UNL     1       7.257   6.243  22.666  1.00  0.00     0.109 C 
HETATM    7  C12 UNL     1       6.858   5.793  21.283  1.00  0.00     0.082 C 
HETATM    8  C13 UNL     1       7.951   5.516  20.340  1.00  0.00    -0.044 C 
HETATM    9  C14 UNL     1       9.066   4.918  21.112  1.00  0.00     0.012 C 
HETATM   10  C15 UNL     1       9.077   4.699  22.420  1.00  0.00    -0.045 C 
HETATM   11  C19 UNL     1       7.931   5.023  23.308  1.00  0.00     0.186 C 
HETATM   12  C20 UNL     1       8.337   6.395  19.248  1.00  0.00     0.180 C 
ENDROOT
BRANCH   1  13
HETATM   13  C4  UNL     1      10.583   7.457  19.563  1.00  0.00     0.044 C 
HETATM   14  C5  UNL     1      11.031   6.483  18.453  1.00  0.00     0.019 C 
BRANCH  13  15
HETATM   15  C2  UNL     1      11.506   8.587  19.436  1.00  0.00    -0.058 C 
HETATM   16  C1  UNL     1      12.071   9.186  20.504  1.00  0.00     0.017 C 
BRANCH  15  17
HETATM   17  C3  UNL     1      11.749   9.305  18.166  1.00  0.00     0.198 C 
BRANCH  17  18
HETATM   18  O1  UNL     1      10.995  10.500  18.088  1.00  0.00    -0.397 OA
ATOM     19  H1  UNL     1      11.459  11.177  17.611  1.00  0.00     0.209 HD
ENDBRANCH  17  18
ENDBRANCH  15  17
ENDBRANCH  13  15
ENDBRANCH   1  13
BRANCH  12  20
HETATM   20  O4  UNL     1       7.315   6.712  18.357  1.00  0.00    -0.382 OA
HETATM   21  C21 UNL     1       7.703   7.052  17.097  1.00  0.00     0.202 C 
ENDBRANCH  12  20
BRANCH   6  22
HETATM   22  O2  UNL     1       6.052   6.492  23.354  1.00  0.00    -0.383 OA
ATOM     23  H2  UNL     1       5.887   5.861  24.045  1.00  0.00     0.211 HD
ENDBRANCH   6  22
BRANCH  10  24
HETATM   24  C16 UNL     1      10.278   4.085  23.078  1.00  0.00     0.009 C 
HETATM   25  C17 UNL     1      11.552   4.334  22.309  1.00  0.00     0.014 C 
HETATM   26  C18 UNL     1      10.436   4.625  24.468  1.00  0.00     0.014 C 
ENDBRANCH  10  24
BRANCH  11  27
HETATM   27  O3  UNL     1       6.973   3.997  23.273  1.00  0.00    -0.388 OA
ATOM     28  H3  UNL     1       6.804   3.772  24.179  1.00  0.00     0.210 HD
ENDBRANCH  11  27
TORSDOF 8
ENDMDL
MODEL 5
REMARK VINA RESULT: -5.630412009      2.189      5.686
REMARK  8 active torsions:
REMARK  status: ('A' for Active; 'I' for Inactive)
REMARK    1  A    between atoms: C2_2  and  C3_3 
REMARK    2  A    between atoms: C2_2  and  C4_6 
REMARK    3  A    between atoms: C3_3  and  O1_4 
REMARK    4  A    between atoms: C4_6  and  C6_8 
REMARK    5  A    between atoms: C11_13  and  O2_14 
REMARK    6  A    between atoms: C15_19  and  C16_20 
REMARK    7  A    between atoms: C19_23  and  O3_24 
REMARK    8  A    between atoms: C20_26  and  O4_27 
ROOT
HETATM    1  C6  UNL     1       9.951   6.443  22.743  1.00  0.00    -0.033 C 
HETATM    2  C7  UNL     1      10.478   5.434  21.809  1.00  0.00    -0.056 C 
HETATM    3  C8  UNL     1      11.346   4.342  22.401  1.00  0.00     0.048 C 
HETATM    4  C9  UNL     1      10.920   5.895  20.492  1.00  0.00     0.006 C 
HETATM    5  C10 UNL     1      10.220   6.192  19.387  1.00  0.00     0.014 C 
HETATM    6  C11 UNL     1       8.827   6.206  18.984  1.00  0.00     0.109 C 
HETATM    7  C12 UNL     1       7.803   6.097  20.087  1.00  0.00     0.082 C 
HETATM    8  C13 UNL     1       7.943   7.033  21.211  1.00  0.00    -0.044 C 
HETATM    9  C14 UNL     1       8.428   8.321  20.662  1.00  0.00     0.012 C 
HETATM   10  C15 UNL     1       8.706   8.569  19.389  1.00  0.00    -0.045 C 
HETATM   11  C19 UNL     1       8.550   7.558  18.311  1.00  0.00     0.186 C 
HETATM   12  C20 UNL     1       8.456   6.670  22.523  1.00  0.00     0.180 C 
ENDROOT
BRANCH   1  13
HETATM   13  C4  UNL     1      10.678   7.698  23.048  1.00  0.00     0.044 C 
HETATM   14  C5  UNL     1       9.829   8.629  23.939  1.00  0.00     0.019 C 
BRANCH  13  15
HETATM   15  C2  UNL     1      11.978   7.652  23.722  1.00  0.00    -0.058 C 
HETATM   16  C1  UNL     1      12.150   7.077  24.929  1.00  0.00     0.017 C 
BRANCH  15  17
HETATM   17  C3  UNL     1      13.166   8.396  23.254  1.00  0.00     0.198 C 
BRANCH  17  18
HETATM   18  O1  UNL     1      13.295   9.644  23.910  1.00  0.00    -0.397 OA
ATOM     19  H1  UNL     1      13.528  10.336  23.304  1.00  0.00     0.209 HD
ENDBRANCH  17  18
ENDBRANCH  15  17
ENDBRANCH  13  15
ENDBRANCH   1  13
BRANCH  12  20
HETATM   20  O4  UNL     1       7.781   5.626  23.151  1.00  0.00    -0.382 OA
HETATM   21  C21 UNL     1       6.652   5.967  23.830  1.00  0.00     0.202 C 
ENDBRANCH  12  20
BRANCH   6  22
HETATM   22  O2  UNL     1       8.515   5.185  18.064  1.00  0.00    -0.383 OA
ATOM     23  H2  UNL     1       7.657   4.806  18.212  1.00  0.00     0.211 HD
ENDBRANCH   6  22
BRANCH  10  24
HETATM   24  C16 UNL     1       9.192   9.924  18.967  1.00  0.00     0.009 C 
HETATM   25  C17 UNL     1      10.106   9.865  17.768  1.00  0.00     0.014 C 
HETATM   26  C18 UNL     1       8.027  10.812  18.647  1.00  0.00     0.014 C 
ENDBRANCH  10  24
BRANCH  11  27
HETATM   27  O3  UNL     1       7.216   7.500  17.877  1.00  0.00    -0.388 OA
ATOM     28  H3  UNL     1       7.257   7.452  16.929  1.00  0.00     0.210 HD
ENDBRANCH  11  27
TORSDOF 8
ENDMDL
