MODEL 1
REMARK VINA RESULT: -6.334832472      0.000      0.000
REMARK  9 active torsions:
REMARK  status: ('A' for Active; 'I' for Inactive)
REMARK    1  A    between atoms: C5_5  and  C6_6 
REMARK    2  A    between atoms: C6_6  and  O1_7 
REMARK    3  A    between atoms: O1_7  and  C7_8 
REMARK       I    between atoms: C7_8  and  N1_10 
REMARK    4  A    between atoms: N1_10  and  C8_12 
REMARK    5  A    between atoms: C8_12  and  C11_15 
REMARK    6  A    between atoms: C11_15  and  O3_16 
REMARK    7  A    between atoms: C13_19  and  N2_20 
REMARK       I    between atoms: N2_20  and  C14_22 
REMARK    8  A    between atoms: C14_22  and  O5_24 
REMARK    9  A    between atoms: O5_24  and  C15_25 
ROOT
HETATM    1  C1  UNL     1       8.661   7.759  23.244  1.00  0.00     0.011 C 
HETATM    2  C2  UNL     1       9.914   7.194  22.672  1.00  0.00    -0.002 C 
HETATM    3  C3  UNL     1      10.533   8.114  21.608  1.00  0.00     0.014 C 
HETATM    4  C4  UNL     1      11.106   6.809  21.036  1.00  0.00     0.019 C 
HETATM    5  C5  UNL     1       9.744   6.260  21.495  1.00  0.00    -0.012 C 
HETATM    6  C12 UNL     1       8.830   6.965  20.546  1.00  0.00     0.037 C 
HETATM    7  C13 UNL     1       9.338   8.408  20.756  1.00  0.00     0.092 C 
ENDROOT
BRANCH   5   8
HETATM    8  C6  UNL     1       9.635   4.839  21.737  1.00  0.00     0.190 C 
BRANCH   8   9
HETATM    9  O1  UNL     1       8.383   4.262  21.428  1.00  0.00    -0.303 OA
BRANCH   9  10
HETATM   10  C7  UNL     1       7.321   4.411  22.302  1.00  0.00     0.361 C 
HETATM   11  O2  UNL     1       7.489   3.997  23.486  1.00  0.00    -0.238 OA
HETATM   12  N1  UNL     1       6.083   5.006  21.895  1.00  0.00    -0.326 N 
ATOM     13  H1  UNL     1       5.967   5.335  20.937  1.00  0.00     0.165 HD
BRANCH  12  14
HETATM   14  C8  UNL     1       5.001   5.141  22.840  1.00  0.00     0.049 C 
HETATM   15  C9  UNL     1       5.450   5.790  24.128  1.00  0.00     0.040 C 
HETATM   16  C10 UNL     1       3.846   5.927  22.295  1.00  0.00     0.040 C 
BRANCH  14  17
HETATM   17  C11 UNL     1       4.486   3.747  23.196  1.00  0.00     0.194 C 
BRANCH  17  18
HETATM   18  O3  UNL     1       4.581   3.519  24.568  1.00  0.00    -0.398 OA
ATOM     19  H3  UNL     1       4.577   2.588  24.757  1.00  0.00     0.209 HD
ENDBRANCH  17  18
ENDBRANCH  14  17
ENDBRANCH  12  14
ENDBRANCH   9  10
ENDBRANCH   8   9
ENDBRANCH   5   8
BRANCH   7  20
HETATM   20  N2  UNL     1       9.634   9.050  19.526  1.00  0.00    -0.332 N 
HETATM   21  C14 UNL     1       8.733  10.006  18.991  1.00  0.00     0.361 C 
HETATM   22  O4  UNL     1       7.663  10.296  19.600  1.00  0.00    -0.238 OA
ATOM     23  H2  UNL     1      10.495   8.825  19.027  1.00  0.00     0.165 HD
BRANCH  21  24
HETATM   24  O5  UNL     1       8.970  10.658  17.805  1.00  0.00    -0.294 OA
BRANCH  24  25
HETATM   25  C15 UNL     1       8.876  10.078  16.534  1.00  0.00     0.061 C 
HETATM   26  C16 UNL     1       8.196   8.742  16.519  1.00  0.00     0.046 C 
HETATM   27  C17 UNL     1      10.270   9.982  15.922  1.00  0.00     0.046 C 
HETATM   28  C18 UNL     1       8.063  11.025  15.661  1.00  0.00     0.046 C 
ENDBRANCH  24  25
ENDBRANCH  21  24
ENDBRANCH   7  20
TORSDOF 9
ENDMDL
MODEL 2
REMARK VINA RESULT: -6.271023986      1.452      1.853
REMARK  9 active torsions:
REMARK  status: ('A' for Active; 'I' for Inactive)
REMARK    1  A    between atoms: C5_5  and  C6_6 
REMARK    2  A    between atoms: C6_6  and  O1_7 
REMARK    3  A    between atoms: O1_7  and  C7_8 
REMARK       I    between atoms: C7_8  and  N1_10 
REMARK    4  A    between atoms: N1_10  and  C8_12 
REMARK    5  A    between atoms: C8_12  and  C11_15 
REMARK    6  A    between atoms: C11_15  and  O3_16 
REMARK    7  A    between atoms: C13_19  and  N2_20 
REMARK       I    between atoms: N2_20  and  C14_22 
REMARK    8  A    between atoms: C14_22  and  O5_24 
REMARK    9  A    between atoms: O5_24  and  C15_25 
ROOT
HETATM    1  C1  UNL     1       7.955   7.977  21.505  1.00  0.00     0.011 C 
HETATM    2  C2  UNL     1       9.313   7.414  21.273  1.00  0.00    -0.002 C 
HETATM    3  C3  UNL     1       9.872   7.794  19.893  1.00  0.00     0.014 C 
HETATM    4  C4  UNL     1      10.663   6.483  20.025  1.00  0.00     0.019 C 
HETATM    5  C5  UNL     1       9.362   6.015  20.699  1.00  0.00    -0.012 C 
HETATM    6  C12 UNL     1       8.430   6.022  19.532  1.00  0.00     0.037 C 
HETATM    7  C13 UNL     1       8.712   7.448  19.012  1.00  0.00     0.092 C 
ENDROOT
BRANCH   5   8
HETATM    8  C6  UNL     1       9.437   4.889  21.603  1.00  0.00     0.190 C 
BRANCH   8   9
HETATM    9  O1  UNL     1       8.304   4.045  21.620  1.00  0.00    -0.303 OA
BRANCH   9  10
HETATM   10  C7  UNL     1       7.243   4.332  22.460  1.00  0.00     0.361 C 
HETATM   11  O2  UNL     1       7.404   4.093  23.692  1.00  0.00    -0.238 OA
HETATM   12  N1  UNL     1       6.013   4.876  21.967  1.00  0.00    -0.326 N 
ATOM     13  H1  UNL     1       5.902   5.063  20.970  1.00  0.00     0.165 HD
BRANCH  12  14
HETATM   14  C8  UNL     1       4.931   5.160  22.879  1.00  0.00     0.049 C 
HETATM   15  C9  UNL     1       5.415   5.839  24.139  1.00  0.00     0.040 C 
HETATM   16  C10 UNL     1       3.861   6.014  22.266  1.00  0.00     0.040 C 
BRANCH  14  17
HETATM   17  C11 UNL     1       4.287   3.841  23.299  1.00  0.00     0.194 C 
BRANCH  17  18
HETATM   18  O3  UNL     1       4.587   3.545  24.628  1.00  0.00    -0.398 OA
ATOM     19  H3  UNL     1       4.479   2.616  24.800  1.00  0.00     0.209 HD
ENDBRANCH  17  18
ENDBRANCH  14  17
ENDBRANCH  12  14
ENDBRANCH   9  10
ENDBRANCH   8   9
ENDBRANCH   5   8
BRANCH   7  20
HETATM   20  N2  UNL     1       9.003   7.457  17.623  1.00  0.00    -0.332 N 
HETATM   21  C14 UNL     1       8.174   8.183  16.730  1.00  0.00     0.361 C 
HETATM   22  O4  UNL     1       7.174   8.827  17.158  1.00  0.00    -0.238 OA
ATOM     23  H2  UNL     1       9.809   6.942  17.267  1.00  0.00     0.165 HD
BRANCH  21  24
HETATM   24  O5  UNL     1       8.410   8.227  15.377  1.00  0.00    -0.294 OA
BRANCH  24  25
HETATM   25  C15 UNL     1       9.027   9.288  14.701  1.00  0.00     0.061 C 
HETATM   26  C16 UNL     1       9.976  10.084  15.545  1.00  0.00     0.046 C 
HETATM   27  C17 UNL     1       7.954  10.189  14.098  1.00  0.00     0.046 C 
HETATM   28  C18 UNL     1       9.818   8.691  13.545  1.00  0.00     0.046 C 
ENDBRANCH  24  25
ENDBRANCH  21  24
ENDBRANCH   7  20
TORSDOF 9
ENDMDL
MODEL 3
REMARK VINA RESULT: -5.896799683      1.043      1.472
REMARK  9 active torsions:
REMARK  status: ('A' for Active; 'I' for Inactive)
REMARK    1  A    between atoms: C5_5  and  C6_6 
REMARK    2  A    between atoms: C6_6  and  O1_7 
REMARK    3  A    between atoms: O1_7  and  C7_8 
REMARK       I    between atoms: C7_8  and  N1_10 
REMARK    4  A    between atoms: N1_10  and  C8_12 
REMARK    5  A    between atoms: C8_12  and  C11_15 
REMARK    6  A    between atoms: C11_15  and  O3_16 
REMARK    7  A    between atoms: C13_19  and  N2_20 
REMARK       I    between atoms: N2_20  and  C14_22 
REMARK    8  A    between atoms: C14_22  and  O5_24 
REMARK    9  A    between atoms: O5_24  and  C15_25 
ROOT
HETATM    1  C1  UNL     1       8.900   7.892  23.095  1.00  0.00     0.011 C 
HETATM    2  C2  UNL     1      10.169   7.376  22.514  1.00  0.00    -0.002 C 
HETATM    3  C3  UNL     1      10.749   8.323  21.452  1.00  0.00     0.014 C 
HETATM    4  C4  UNL     1      11.366   7.042  20.870  1.00  0.00     0.019 C 
HETATM    5  C5  UNL     1      10.027   6.442  21.333  1.00  0.00    -0.012 C 
HETATM    6  C12 UNL     1       9.083   7.117  20.392  1.00  0.00     0.037 C 
HETATM    7  C13 UNL     1       9.539   8.577  20.607  1.00  0.00     0.092 C 
ENDROOT
BRANCH   5   8
HETATM    8  C6  UNL     1       9.972   5.017  21.569  1.00  0.00     0.190 C 
BRANCH   8   9
HETATM    9  O1  UNL     1       8.751   4.390  21.232  1.00  0.00    -0.303 OA
BRANCH   9  10
HETATM   10  C7  UNL     1       7.649   4.539  22.055  1.00  0.00     0.361 C 
HETATM   11  O2  UNL     1       6.593   4.990  21.524  1.00  0.00    -0.238 OA
HETATM   12  N1  UNL     1       7.691   4.198  23.445  1.00  0.00    -0.326 N 
ATOM     13  H1  UNL     1       8.551   3.834  23.855  1.00  0.00     0.165 HD
BRANCH  12  14
HETATM   14  C8  UNL     1       6.517   4.370  24.267  1.00  0.00     0.049 C 
HETATM   15  C9  UNL     1       6.718   3.828  25.664  1.00  0.00     0.040 C 
HETATM   16  C10 UNL     1       6.086   5.802  24.377  1.00  0.00     0.040 C 
BRANCH  14  17
HETATM   17  C11 UNL     1       5.364   3.585  23.644  1.00  0.00     0.194 C 
BRANCH  17  18
HETATM   18  O3  UNL     1       4.264   3.558  24.499  1.00  0.00    -0.398 OA
ATOM     19  H3  UNL     1       4.195   2.716  24.934  1.00  0.00     0.209 HD
ENDBRANCH  17  18
ENDBRANCH  14  17
ENDBRANCH  12  14
ENDBRANCH   9  10
ENDBRANCH   8   9
ENDBRANCH   5   8
BRANCH   7  20
HETATM   20  N2  UNL     1       9.805   9.235  19.379  1.00  0.00    -0.332 N 
HETATM   21  C14 UNL     1       8.820  10.075  18.797  1.00  0.00     0.361 C 
HETATM   22  O4  UNL     1       7.702  10.246  19.363  1.00  0.00    -0.238 OA
ATOM     23  H2  UNL     1      10.704   9.105  18.914  1.00  0.00     0.165 HD
BRANCH  21  24
HETATM   24  O5  UNL     1       9.025  10.736  17.610  1.00  0.00    -0.294 OA
BRANCH  24  25
HETATM   25  C15 UNL     1       8.870  10.173  16.337  1.00  0.00     0.061 C 
HETATM   26  C16 UNL     1       8.057  11.006  15.393  1.00  0.00     0.046 C 
HETATM   27  C17 UNL     1       8.275   8.776  16.476  1.00  0.00     0.046 C 
HETATM   28  C18 UNL     1      10.262  10.015  15.739  1.00  0.00     0.046 C 
ENDBRANCH  24  25
ENDBRANCH  21  24
ENDBRANCH   7  20
TORSDOF 9
ENDMDL
MODEL 4
REMARK VINA RESULT: -5.794096488      3.675      5.084
REMARK  9 active torsions:
REMARK  status: ('A' for Active; 'I' for Inactive)
REMARK    1  A    between atoms: C5_5  and  C6_6 
REMARK    2  A    between atoms: C6_6  and  O1_7 
REMARK    3  A    between atoms: O1_7  and  C7_8 
REMARK       I    between atoms: C7_8  and  N1_10 
REMARK    4  A    between atoms: N1_10  and  C8_12 
REMARK    5  A    between atoms: C8_12  and  C11_15 
REMARK    6  A    between atoms: C11_15  and  O3_16 
REMARK    7  A    between atoms: C13_19  and  N2_20 
REMARK       I    between atoms: N2_20  and  C14_22 
REMARK    8  A    between atoms: C14_22  and  O5_24 
REMARK    9  A    between atoms: O5_24  and  C15_25 
ROOT
HETATM    1  C1  UNL     1       4.239   5.738  22.304  1.00  0.00     0.011 C 
HETATM    2  C2  UNL     1       5.368   6.263  23.121  1.00  0.00    -0.002 C 
HETATM    3  C3  UNL     1       6.559   6.699  22.255  1.00  0.00     0.014 C 
HETATM    4  C4  UNL     1       7.390   6.365  23.503  1.00  0.00     0.019 C 
HETATM    5  C5  UNL     1       6.354   5.234  23.628  1.00  0.00    -0.012 C 
HETATM    6  C12 UNL     1       6.715   4.399  22.443  1.00  0.00     0.037 C 
HETATM    7  C13 UNL     1       6.716   5.505  21.365  1.00  0.00     0.092 C 
ENDROOT
BRANCH   5   8
HETATM    8  C6  UNL     1       6.149   4.649  24.933  1.00  0.00     0.190 C 
BRANCH   8   9
HETATM    9  O1  UNL     1       6.803   3.417  25.158  1.00  0.00    -0.303 OA
BRANCH   9  10
HETATM   10  C7  UNL     1       7.867   3.351  26.041  1.00  0.00     0.361 C 
HETATM   11  O2  UNL     1       8.908   4.002  25.734  1.00  0.00    -0.238 OA
HETATM   12  N1  UNL     1       7.802   2.586  27.250  1.00  0.00    -0.326 N 
ATOM     13  H1  UNL     1       6.953   2.070  27.481  1.00  0.00     0.165 HD
BRANCH  12  14
HETATM   14  C8  UNL     1       8.935   2.546  28.142  1.00  0.00     0.049 C 
HETATM   15  C9  UNL     1       9.370   3.929  28.569  1.00  0.00     0.040 C 
HETATM   16  C10 UNL     1       8.678   1.733  29.375  1.00  0.00     0.040 C 
BRANCH  14  17
HETATM   17  C11 UNL     1      10.114   1.912  27.406  1.00  0.00     0.194 C 
BRANCH  17  18
HETATM   18  O3  UNL     1       9.798   0.623  26.980  1.00  0.00    -0.398 OA
ATOM     19  H3  UNL     1       9.001   0.624  26.462  1.00  0.00     0.209 HD
ENDBRANCH  17  18
ENDBRANCH  14  17
ENDBRANCH  12  14
ENDBRANCH   9  10
ENDBRANCH   8   9
ENDBRANCH   5   8
BRANCH   7  20
HETATM   20  N2  UNL     1       7.908   5.495  20.596  1.00  0.00    -0.332 N 
HETATM   21  C14 UNL     1       7.874   5.879  19.231  1.00  0.00     0.361 C 
HETATM   22  O4  UNL     1       6.789   6.233  18.687  1.00  0.00    -0.238 OA
ATOM     23  H2  UNL     1       8.789   5.212  21.025  1.00  0.00     0.165 HD
BRANCH  21  24
HETATM   24  O5  UNL     1       8.998   5.888  18.441  1.00  0.00    -0.294 OA
BRANCH  24  25
HETATM   25  C15 UNL     1       9.752   7.026  18.126  1.00  0.00     0.061 C 
HETATM   26  C16 UNL     1       9.656   8.124  19.141  1.00  0.00     0.046 C 
HETATM   27  C17 UNL     1       9.347   7.529  16.745  1.00  0.00     0.046 C 
HETATM   28  C18 UNL     1      11.210   6.595  18.041  1.00  0.00     0.046 C 
ENDBRANCH  24  25
ENDBRANCH  21  24
ENDBRANCH   7  20
TORSDOF 9
ENDMDL
MODEL 5
REMARK VINA RESULT: -5.760948962      2.086      7.942
REMARK  9 active torsions:
REMARK  status: ('A' for Active; 'I' for Inactive)
REMARK    1  A    between atoms: C5_5  and  C6_6 
REMARK    2  A    between atoms: C6_6  and  O1_7 
REMARK    3  A    between atoms: O1_7  and  C7_8 
REMARK       I    between atoms: C7_8  and  N1_10 
REMARK    4  A    between atoms: N1_10  and  C8_12 
REMARK    5  A    between atoms: C8_12  and  C11_15 
REMARK    6  A    between atoms: C11_15  and  O3_16 
REMARK    7  A    between atoms: C13_19  and  N2_20 
REMARK       I    between atoms: N2_20  and  C14_22 
REMARK    8  A    between atoms: C14_22  and  O5_24 
REMARK    9  A    between atoms: O5_24  and  C15_25 
ROOT
HETATM    1  C1  UNL     1       8.797   6.633  17.958  1.00  0.00     0.011 C 
HETATM    2  C2  UNL     1       9.751   6.141  18.990  1.00  0.00    -0.002 C 
HETATM    3  C3  UNL     1       9.034   5.463  20.167  1.00  0.00     0.014 C 
HETATM    4  C4  UNL     1      10.264   5.910  20.972  1.00  0.00     0.019 C 
HETATM    5  C5  UNL     1      10.152   7.139  20.053  1.00  0.00    -0.012 C 
HETATM    6  C12 UNL     1       8.877   7.738  20.549  1.00  0.00     0.037 C 
HETATM    7  C13 UNL     1       7.983   6.481  20.484  1.00  0.00     0.092 C 
ENDROOT
BRANCH   5   8
HETATM    8  C6  UNL     1      11.338   7.941  19.850  1.00  0.00     0.190 C 
BRANCH   8   9
HETATM    9  O1  UNL     1      11.109   9.278  19.456  1.00  0.00    -0.303 OA
BRANCH   9  10
HETATM   10  C7  UNL     1      10.989   9.591  18.114  1.00  0.00     0.361 C 
HETATM   11  O2  UNL     1      10.304  10.614  17.821  1.00  0.00    -0.238 OA
HETATM   12  N1  UNL     1      11.609   8.800  17.094  1.00  0.00    -0.326 N 
ATOM     13  H1  UNL     1      12.159   7.980  17.349  1.00  0.00     0.165 HD
BRANCH  12  14
HETATM   14  C8  UNL     1      11.457   9.163  15.705  1.00  0.00     0.049 C 
HETATM   15  C9  UNL     1      12.066  10.512  15.402  1.00  0.00     0.040 C 
HETATM   16  C10 UNL     1      12.058   8.156  14.770  1.00  0.00     0.040 C 
BRANCH  14  17
HETATM   17  C11 UNL     1       9.967   9.261  15.385  1.00  0.00     0.194 C 
BRANCH  17  18
HETATM   18  O3  UNL     1       9.643  10.533  14.917  1.00  0.00    -0.398 OA
ATOM     19  H3  UNL     1       8.821  10.519  14.441  1.00  0.00     0.209 HD
ENDBRANCH  17  18
ENDBRANCH  14  17
ENDBRANCH  12  14
ENDBRANCH   9  10
ENDBRANCH   8   9
ENDBRANCH   5   8
BRANCH   7  20
HETATM   20  N2  UNL     1       7.294   6.257  21.704  1.00  0.00    -0.332 N 
HETATM   21  C14 UNL     1       5.915   5.924  21.689  1.00  0.00     0.361 C 
HETATM   22  O4  UNL     1       5.289   5.822  20.595  1.00  0.00    -0.238 OA
ATOM     23  H2  UNL     1       7.791   6.335  22.592  1.00  0.00     0.165 HD
BRANCH  21  24
HETATM   24  O5  UNL     1       5.200   5.696  22.840  1.00  0.00    -0.294 OA
BRANCH  24  25
HETATM   25  C15 UNL     1       4.893   4.432  23.360  1.00  0.00     0.061 C 
HETATM   26  C16 UNL     1       5.759   3.326  22.835  1.00  0.00     0.046 C 
HETATM   27  C17 UNL     1       3.420   4.130  23.109  1.00  0.00     0.046 C 
HETATM   28  C18 UNL     1       5.090   4.502  24.869  1.00  0.00     0.046 C 
ENDBRANCH  24  25
ENDBRANCH  21  24
ENDBRANCH   7  20
TORSDOF 9
ENDMDL
