MODEL 1
REMARK VINA RESULT: -7.382726122      0.000      0.000
REMARK  6 active torsions:
REMARK  status: ('A' for Active; 'I' for Inactive)
REMARK    1  A    between atoms: N1_1  and  C1_4 
REMARK    2  A    between atoms: C3_8  and  C4_9 
REMARK    3  A    between atoms: C4_9  and  C5_10 
REMARK    4  A    between atoms: C5_10  and  C6_11 
REMARK    5  A    between atoms: C11_19  and  N4_20 
REMARK    6  A    between atoms: C15_24  and  C16_25 
ROOT
HETATM    1  C1  UNL     1      11.416   8.796  22.734  1.00  0.00     0.116 A 
HETATM    2  C2  UNL     1      10.558   8.611  23.794  1.00  0.00     0.136 A 
HETATM    3  N2  UNL     1       9.320   8.166  23.589  1.00  0.00    -0.363 N 
ATOM      4  H2  UNL     1       8.678   8.026  24.370  1.00  0.00     0.165 HD
HETATM    5  C3  UNL     1       8.932   7.900  22.302  1.00  0.00     0.053 A 
HETATM    6  C11 UNL     1       9.765   8.072  21.244  1.00  0.00     0.128 A 
HETATM    7  N6  UNL     1      11.031   8.532  21.484  1.00  0.00    -0.326 N 
ATOM      8  H6  UNL     1      11.679   8.674  20.708  1.00  0.00     0.169 HD
ENDROOT
BRANCH   6   9
HETATM    9  N4  UNL     1       9.465   7.783  19.877  1.00  0.00    -0.355 N 
HETATM   10  C12 UNL     1       8.872   6.501  19.522  1.00  0.00     0.125 C 
HETATM   11  C13 UNL     1       8.342   6.691  18.111  1.00  0.00     0.022 C 
HETATM   12  C14 UNL     1       9.377   7.644  17.559  1.00  0.00     0.033 C 
HETATM   13  C15 UNL     1       9.611   8.574  18.680  1.00  0.00     0.136 C 
BRANCH  13  14
HETATM   14  C16 UNL     1       8.695   9.753  18.728  1.00  0.00     0.032 A 
HETATM   15  C17 UNL     1       8.214  10.288  19.882  1.00  0.00     0.027 A 
HETATM   16  C18 UNL     1       7.359  11.362  19.825  1.00  0.00     0.003 A 
HETATM   17  C19 UNL     1       7.000  11.884  18.608  1.00  0.00     0.017 A 
HETATM   18  C20 UNL     1       7.517  11.301  17.453  1.00  0.00     0.088 A 
HETATM   19  N5  UNL     1       8.349  10.256  17.532  1.00  0.00    -0.367 N 
ATOM     20  H5  UNL     1       8.722   9.839  16.679  1.00  0.00     0.165 HD
ENDBRANCH  13  14
ENDBRANCH   6   9
BRANCH   5  21
HETATM   21  C4  UNL     1       7.485   7.484  22.135  1.00  0.00     0.061 C 
BRANCH  21  22
HETATM   22  C5  UNL     1       7.195   6.269  22.956  1.00  0.00     0.011 C 
BRANCH  22  23
HETATM   23  C6  UNL     1       5.743   6.048  23.290  1.00  0.00    -0.011 C 
HETATM   24  C7  UNL     1       5.708   5.763  24.784  1.00  0.00     0.032 C 
HETATM   25  C8  UNL     1       6.031   4.279  25.018  1.00  0.00     0.232 C 
HETATM   26  N3  UNL     1       4.891   3.580  24.430  1.00  0.00    -0.075 N 
HETATM   27  C9  UNL     1       4.907   3.685  23.003  1.00  0.00     0.232 C 
ATOM     28  H32 UNL     1       4.847   2.607  24.736  1.00  0.00     0.277 HD
ATOM     29  H31 UNL     1       4.007   3.905  24.821  1.00  0.00     0.277 HD
HETATM   30  C10 UNL     1       5.036   5.071  22.470  1.00  0.00     0.032 C 
ENDBRANCH  22  23
ENDBRANCH  21  22
ENDBRANCH   5  21
BRANCH   1  31
HETATM   31  N1  UNL     1      12.628   9.241  22.975  1.00  0.00    -0.384 N 
ATOM     32  H12 UNL     1      13.167   8.871  23.759  1.00  0.00     0.157 HD
ATOM     33  H11 UNL     1      13.016   9.960  22.364  1.00  0.00     0.157 HD
ENDBRANCH   1  31
TORSDOF 6
ENDMDL
MODEL 2
REMARK VINA RESULT: -7.334477854      2.464      5.299
REMARK  6 active torsions:
REMARK  status: ('A' for Active; 'I' for Inactive)
REMARK    1  A    between atoms: N1_1  and  C1_4 
REMARK    2  A    between atoms: C3_8  and  C4_9 
REMARK    3  A    between atoms: C4_9  and  C5_10 
REMARK    4  A    between atoms: C5_10  and  C6_11 
REMARK    5  A    between atoms: C11_19  and  N4_20 
REMARK    6  A    between atoms: C15_24  and  C16_25 
ROOT
HETATM    1  C1  UNL     1       9.860   6.273  18.343  1.00  0.00     0.116 A 
HETATM    2  C2  UNL     1       8.509   6.008  18.341  1.00  0.00     0.136 A 
HETATM    3  N2  UNL     1       7.770   6.268  19.418  1.00  0.00    -0.363 N 
ATOM      4  H2  UNL     1       6.768   6.075  19.425  1.00  0.00     0.165 HD
HETATM    5  C3  UNL     1       8.392   6.802  20.516  1.00  0.00     0.053 A 
HETATM    6  C11 UNL     1       9.722   7.073  20.535  1.00  0.00     0.128 A 
HETATM    7  N6  UNL     1      10.457   6.795  19.416  1.00  0.00    -0.326 N 
ATOM      8  H6  UNL     1      11.459   6.985  19.401  1.00  0.00     0.169 HD
ENDROOT
BRANCH   6   9
HETATM    9  N4  UNL     1      10.447   7.666  21.614  1.00  0.00    -0.355 N 
HETATM   10  C12 UNL     1      10.031   8.958  22.143  1.00  0.00     0.125 C 
HETATM   11  C13 UNL     1      10.743   9.084  23.479  1.00  0.00     0.022 C 
HETATM   12  C14 UNL     1      12.031   8.357  23.168  1.00  0.00     0.033 C 
HETATM   13  C15 UNL     1      11.582   7.198  22.373  1.00  0.00     0.136 C 
BRANCH  13  14
HETATM   14  C16 UNL     1      11.206   5.990  23.167  1.00  0.00     0.032 A 
HETATM   15  C17 UNL     1      10.153   5.949  24.026  1.00  0.00     0.027 A 
HETATM   16  C18 UNL     1       9.898   4.796  24.728  1.00  0.00     0.003 A 
HETATM   17  C19 UNL     1      10.705   3.700  24.556  1.00  0.00     0.017 A 
HETATM   18  C20 UNL     1      11.773   3.790  23.666  1.00  0.00     0.088 A 
HETATM   19  N5  UNL     1      12.003   4.923  22.992  1.00  0.00    -0.367 N 
ATOM     20  H5  UNL     1      12.787   4.976  22.342  1.00  0.00     0.165 HD
ENDBRANCH  13  14
ENDBRANCH   6   9
BRANCH   5  21
HETATM   21  C4  UNL     1       7.509   6.987  21.734  1.00  0.00     0.061 C 
BRANCH  21  22
HETATM   22  C5  UNL     1       6.525   5.865  21.837  1.00  0.00     0.011 C 
BRANCH  22  23
HETATM   23  C6  UNL     1       5.483   6.020  22.913  1.00  0.00    -0.011 C 
HETATM   24  C7  UNL     1       6.186   5.660  24.213  1.00  0.00     0.032 C 
HETATM   25  C8  UNL     1       6.188   4.133  24.376  1.00  0.00     0.232 C 
HETATM   26  N3  UNL     1       4.776   3.801  24.555  1.00  0.00    -0.075 N 
HETATM   27  C9  UNL     1       4.048   3.989  23.337  1.00  0.00     0.232 C 
ATOM     28  H32 UNL     1       4.654   2.859  24.925  1.00  0.00     0.277 HD
ATOM     29  H31 UNL     1       4.361   4.325  25.326  1.00  0.00     0.277 HD
HETATM   30  C10 UNL     1       4.222   5.320  22.691  1.00  0.00     0.032 C 
ENDBRANCH  22  23
ENDBRANCH  21  22
ENDBRANCH   5  21
BRANCH   1  31
HETATM   31  N1  UNL     1      10.556   5.999  17.263  1.00  0.00    -0.384 N 
ATOM     32  H12 UNL     1      10.227   5.294  16.601  1.00  0.00     0.157 HD
ATOM     33  H11 UNL     1      11.427   6.505  17.101  1.00  0.00     0.157 HD
ENDBRANCH   1  31
TORSDOF 6
ENDMDL
MODEL 3
REMARK VINA RESULT: -7.286479960      2.447      5.358
REMARK  6 active torsions:
REMARK  status: ('A' for Active; 'I' for Inactive)
REMARK    1  A    between atoms: N1_1  and  C1_4 
REMARK    2  A    between atoms: C3_8  and  C4_9 
REMARK    3  A    between atoms: C4_9  and  C5_10 
REMARK    4  A    between atoms: C5_10  and  C6_11 
REMARK    5  A    between atoms: C11_19  and  N4_20 
REMARK    6  A    between atoms: C15_24  and  C16_25 
ROOT
HETATM    1  C1  UNL     1       9.795   6.428  18.209  1.00  0.00     0.116 A 
HETATM    2  C2  UNL     1       8.479   6.028  18.246  1.00  0.00     0.136 A 
HETATM    3  N2  UNL     1       7.767   6.154  19.364  1.00  0.00    -0.363 N 
ATOM      4  H2  UNL     1       6.791   5.860  19.400  1.00  0.00     0.165 HD
HETATM    5  C3  UNL     1       8.382   6.688  20.466  1.00  0.00     0.053 A 
HETATM    6  C11 UNL     1       9.679   7.091  20.449  1.00  0.00     0.128 A 
HETATM    7  N6  UNL     1      10.386   6.949  19.286  1.00  0.00    -0.326 N 
ATOM      8  H6  UNL     1      11.363   7.241  19.243  1.00  0.00     0.169 HD
ENDROOT
BRANCH   6   9
HETATM    9  N4  UNL     1      10.390   7.695  21.530  1.00  0.00    -0.355 N 
HETATM   10  C12 UNL     1       9.936   8.968  22.074  1.00  0.00     0.125 C 
HETATM   11  C13 UNL     1      10.650   9.103  23.408  1.00  0.00     0.022 C 
HETATM   12  C14 UNL     1      11.959   8.420  23.085  1.00  0.00     0.033 C 
HETATM   13  C15 UNL     1      11.542   7.255  22.280  1.00  0.00     0.136 C 
BRANCH  13  14
HETATM   14  C16 UNL     1      11.208   6.028  23.062  1.00  0.00     0.032 A 
HETATM   15  C17 UNL     1      10.584   6.050  24.270  1.00  0.00     0.027 A 
HETATM   16  C18 UNL     1      10.336   4.867  24.924  1.00  0.00     0.003 A 
HETATM   17  C19 UNL     1      10.720   3.679  24.356  1.00  0.00     0.017 A 
HETATM   18  C20 UNL     1      11.358   3.708  23.117  1.00  0.00     0.088 A 
HETATM   19  N5  UNL     1      11.588   4.871  22.496  1.00  0.00    -0.367 N 
ATOM     20  H5  UNL     1      12.055   4.878  21.590  1.00  0.00     0.165 HD
ENDBRANCH  13  14
ENDBRANCH   6   9
BRANCH   5  21
HETATM   21  C4  UNL     1       7.542   6.716  21.727  1.00  0.00     0.061 C 
BRANCH  21  22
HETATM   22  C5  UNL     1       6.632   5.530  21.771  1.00  0.00     0.011 C 
BRANCH  22  23
HETATM   23  C6  UNL     1       6.843   4.600  22.936  1.00  0.00    -0.011 C 
HETATM   24  C7  UNL     1       5.917   3.419  22.686  1.00  0.00     0.032 C 
HETATM   25  C8  UNL     1       4.505   3.778  23.174  1.00  0.00     0.232 C 
HETATM   26  N3  UNL     1       4.657   3.893  24.622  1.00  0.00    -0.075 N 
HETATM   27  C9  UNL     1       5.415   5.058  24.966  1.00  0.00     0.232 C 
ATOM     28  H32 UNL     1       3.755   3.877  25.099  1.00  0.00     0.277 HD
ATOM     29  H31 UNL     1       5.061   3.049  25.027  1.00  0.00     0.277 HD
HETATM   30  C10 UNL     1       6.722   5.195  24.263  1.00  0.00     0.032 C 
ENDBRANCH  22  23
ENDBRANCH  21  22
ENDBRANCH   5  21
BRANCH   1  31
HETATM   31  N1  UNL     1      10.465   6.284  17.088  1.00  0.00    -0.384 N 
ATOM     32  H12 UNL     1      11.090   7.022  16.762  1.00  0.00     0.157 HD
ATOM     33  H11 UNL     1      10.348   5.422  16.556  1.00  0.00     0.157 HD
ENDBRANCH   1  31
TORSDOF 6
ENDMDL
MODEL 4
REMARK VINA RESULT: -7.106476132      2.137      3.453
REMARK  6 active torsions:
REMARK  status: ('A' for Active; 'I' for Inactive)
REMARK    1  A    between atoms: N1_1  and  C1_4 
REMARK    2  A    between atoms: C3_8  and  C4_9 
REMARK    3  A    between atoms: C4_9  and  C5_10 
REMARK    4  A    between atoms: C5_10  and  C6_11 
REMARK    5  A    between atoms: C11_19  and  N4_20 
REMARK    6  A    between atoms: C15_24  and  C16_25 
ROOT
HETATM    1  C1  UNL     1      11.160   5.315  21.634  1.00  0.00     0.116 A 
HETATM    2  C2  UNL     1      10.255   4.514  22.294  1.00  0.00     0.136 A 
HETATM    3  N2  UNL     1       8.947   4.716  22.152  1.00  0.00    -0.363 N 
ATOM      4  H2  UNL     1       8.269   4.127  22.638  1.00  0.00     0.165 HD
HETATM    5  C3  UNL     1       8.535   5.737  21.336  1.00  0.00     0.053 A 
HETATM    6  C11 UNL     1       9.411   6.535  20.674  1.00  0.00     0.128 A 
HETATM    7  N6  UNL     1      10.749   6.305  20.840  1.00  0.00    -0.326 N 
ATOM      8  H6  UNL     1      11.433   6.890  20.357  1.00  0.00     0.169 HD
ENDROOT
BRANCH   6   9
HETATM    9  N4  UNL     1       9.077   7.591  19.772  1.00  0.00    -0.355 N 
HETATM   10  C12 UNL     1       8.768   8.916  20.293  1.00  0.00     0.125 C 
HETATM   11  C13 UNL     1       8.853   9.840  19.090  1.00  0.00     0.022 C 
HETATM   12  C14 UNL     1       8.360   8.915  18.002  1.00  0.00     0.033 C 
HETATM   13  C15 UNL     1       9.007   7.631  18.331  1.00  0.00     0.136 C 
BRANCH  13  14
HETATM   14  C16 UNL     1      10.367   7.435  17.746  1.00  0.00     0.032 A 
HETATM   15  C17 UNL     1      11.284   8.431  17.617  1.00  0.00     0.027 A 
HETATM   16  C18 UNL     1      12.503   8.158  17.046  1.00  0.00     0.003 A 
HETATM   17  C19 UNL     1      12.784   6.887  16.612  1.00  0.00     0.017 A 
HETATM   18  C20 UNL     1      11.813   5.900  16.764  1.00  0.00     0.088 A 
HETATM   19  N5  UNL     1      10.631   6.188  17.324  1.00  0.00    -0.367 N 
ATOM     20  H5  UNL     1       9.929   5.456  17.430  1.00  0.00     0.165 HD
ENDBRANCH  13  14
ENDBRANCH   6   9
BRANCH   5  21
HETATM   21  C4  UNL     1       7.037   5.967  21.293  1.00  0.00     0.061 C 
BRANCH  21  22
HETATM   22  C5  UNL     1       6.581   6.653  22.541  1.00  0.00     0.011 C 
BRANCH  22  23
HETATM   23  C6  UNL     1       5.338   6.083  23.171  1.00  0.00    -0.011 C 
HETATM   24  C7  UNL     1       5.694   5.843  24.630  1.00  0.00     0.032 C 
HETATM   25  C8  UNL     1       6.424   4.497  24.753  1.00  0.00     0.232 C 
HETATM   26  N3  UNL     1       5.400   3.514  24.403  1.00  0.00    -0.075 N 
HETATM   27  C9  UNL     1       5.086   3.578  23.008  1.00  0.00     0.232 C 
ATOM     28  H32 UNL     1       5.670   2.572  24.686  1.00  0.00     0.277 HD
ATOM     29  H31 UNL     1       4.567   3.617  24.981  1.00  0.00     0.277 HD
HETATM   30  C10 UNL     1       4.744   4.934  22.495  1.00  0.00     0.032 C 
ENDBRANCH  22  23
ENDBRANCH  21  22
ENDBRANCH   5  21
BRANCH   1  31
HETATM   31  N1  UNL     1      12.442   5.086  21.804  1.00  0.00    -0.384 N 
ATOM     32  H12 UNL     1      13.122   5.428  21.123  1.00  0.00     0.157 HD
ATOM     33  H11 UNL     1      12.742   4.564  22.628  1.00  0.00     0.157 HD
ENDBRANCH   1  31
TORSDOF 6
ENDMDL
MODEL 5
REMARK VINA RESULT: -7.099711355      0.787      1.131
REMARK  6 active torsions:
REMARK  status: ('A' for Active; 'I' for Inactive)
REMARK    1  A    between atoms: N1_1  and  C1_4 
REMARK    2  A    between atoms: C3_8  and  C4_9 
REMARK    3  A    between atoms: C4_9  and  C5_10 
REMARK    4  A    between atoms: C5_10  and  C6_11 
REMARK    5  A    between atoms: C11_19  and  N4_20 
REMARK    6  A    between atoms: C15_24  and  C16_25 
ROOT
HETATM    1  C1  UNL     1      11.381   8.738  22.693  1.00  0.00     0.116 A 
HETATM    2  C2  UNL     1      10.560   8.588  23.788  1.00  0.00     0.136 A 
HETATM    3  N2  UNL     1       9.311   8.153  23.640  1.00  0.00    -0.363 N 
ATOM      4  H2  UNL     1       8.697   8.040  24.446  1.00  0.00     0.165 HD
HETATM    5  C3  UNL     1       8.873   7.862  22.374  1.00  0.00     0.053 A 
HETATM    6  C11 UNL     1       9.668   7.999  21.282  1.00  0.00     0.128 A 
HETATM    7  N6  UNL     1      10.947   8.450  21.464  1.00  0.00    -0.326 N 
ATOM      8  H6  UNL     1      11.568   8.566  20.662  1.00  0.00     0.169 HD
ENDROOT
BRANCH   6   9
HETATM    9  N4  UNL     1       9.315   7.682  19.935  1.00  0.00    -0.355 N 
HETATM   10  C12 UNL     1       8.650   6.420  19.639  1.00  0.00     0.125 C 
HETATM   11  C13 UNL     1       8.089   6.591  18.238  1.00  0.00     0.022 C 
HETATM   12  C14 UNL     1       9.152   7.474  17.626  1.00  0.00     0.033 C 
HETATM   13  C15 UNL     1       9.463   8.427  18.708  1.00  0.00     0.136 C 
BRANCH  13  14
HETATM   14  C16 UNL     1       8.606   9.650  18.743  1.00  0.00     0.032 A 
HETATM   15  C17 UNL     1       8.178  10.239  19.892  1.00  0.00     0.027 A 
HETATM   16  C18 UNL     1       7.376  11.352  19.822  1.00  0.00     0.003 A 
HETATM   17  C19 UNL     1       7.014  11.858  18.599  1.00  0.00     0.017 A 
HETATM   18  C20 UNL     1       7.476  11.219  17.450  1.00  0.00     0.088 A 
HETATM   19  N5  UNL     1       8.258  10.136  17.540  1.00  0.00    -0.367 N 
ATOM     20  H5  UNL     1       8.590   9.679  16.692  1.00  0.00     0.165 HD
ENDBRANCH  13  14
ENDBRANCH   6   9
BRANCH   5  21
HETATM   21  C4  UNL     1       7.416   7.460  22.270  1.00  0.00     0.061 C 
BRANCH  21  22
HETATM   22  C5  UNL     1       7.122   6.325  23.198  1.00  0.00     0.011 C 
BRANCH  22  23
HETATM   23  C6  UNL     1       6.551   5.093  22.548  1.00  0.00    -0.011 C 
HETATM   24  C7  UNL     1       5.433   5.591  21.645  1.00  0.00     0.032 C 
HETATM   25  C8  UNL     1       4.161   5.789  22.484  1.00  0.00     0.232 C 
HETATM   26  N3  UNL     1       3.800   4.433  22.891  1.00  0.00    -0.075 N 
HETATM   27  C9  UNL     1       4.734   3.920  23.847  1.00  0.00     0.232 C 
ATOM     28  H32 UNL     1       2.842   4.386  23.237  1.00  0.00     0.277 HD
ATOM     29  H31 UNL     1       3.705   3.812  22.088  1.00  0.00     0.277 HD
HETATM   30  C10 UNL     1       6.166   4.011  23.448  1.00  0.00     0.032 C 
ENDBRANCH  22  23
ENDBRANCH  21  22
ENDBRANCH   5  21
BRANCH   1  31
HETATM   31  N1  UNL     1      12.606   9.174  22.879  1.00  0.00    -0.384 N 
ATOM     32  H12 UNL     1      12.952   9.355  23.822  1.00  0.00     0.157 HD
ATOM     33  H11 UNL     1      13.201   9.324  22.064  1.00  0.00     0.157 HD
ENDBRANCH   1  31
TORSDOF 6
ENDMDL
