MODEL 1
REMARK VINA RESULT: -6.412776134      0.000      0.000
REMARK  9 active torsions:
REMARK  status: ('A' for Active; 'I' for Inactive)
REMARK    1  A    between atoms: N1_2  and  C2_4 
REMARK    2  A    between atoms: C2_4  and  N2_6 
REMARK    3  A    between atoms: N3_9  and  C5_10 
REMARK    4  A    between atoms: C5_10  and  C6_11 
REMARK       I    between atoms: C6_11  and  N4_13 
REMARK    5  A    between atoms: N4_13  and  C7_15 
REMARK    6  A    between atoms: C7_15  and  C8_16 
REMARK    7  A    between atoms: C8_16  and  N5_17 
REMARK    8  A    between atoms: N6_20  and  C11_21 
REMARK    9  A    between atoms: C11_21  and  C12_22 
ROOT
HETATM    1  C12 UNL     1      13.798   1.676  16.821  1.00  0.00     0.143 C 
HETATM    2  C13 UNL     1      14.655   0.535  17.208  1.00  0.00     0.060 C 
HETATM    3  N7  UNL     1      15.340  -0.353  17.519  1.00  0.00    -0.197 NA
ENDROOT
BRANCH   1   4
HETATM    4  C11 UNL     1      14.684   2.883  16.822  1.00  0.00     0.131 C 
BRANCH   4   5
HETATM    5  N6  UNL     1      15.382   3.134  15.606  1.00  0.00    -0.408 N 
HETATM    6  C10 UNL     1      14.880   4.178  14.782  1.00  0.00     0.147 C 
HETATM    7  C9  UNL     1      15.646   5.452  14.797  1.00  0.00     0.291 C 
HETATM    8  N5  UNL     1      17.072   5.233  14.936  1.00  0.00     0.093 N 
HETATM    9  C15 UNL     1      17.410   3.860  14.594  1.00  0.00     0.291 C 
HETATM   10  C14 UNL     1      16.801   3.007  15.684  1.00  0.00     0.147 C 
BRANCH   8  11
HETATM   11  C8  UNL     1      17.784   6.182  14.107  1.00  0.00     0.292 C 
BRANCH  11  12
HETATM   12  C7  UNL     1      17.044   6.589  12.884  1.00  0.00     0.153 C 
BRANCH  12  13
HETATM   13  N4  UNL     1      17.724   6.156  11.675  1.00  0.00    -0.355 N 
HETATM   14  C6  UNL     1      17.330   5.045  10.891  1.00  0.00     0.256 C 
HETATM   15  O1  UNL     1      16.306   4.392  11.297  1.00  0.00    -0.267 OA
ATOM     16  H4  UNL     1      18.539   6.688  11.371  1.00  0.00     0.162 HD
BRANCH  14  17
HETATM   17  C5  UNL     1      18.002   4.597   9.663  1.00  0.00     0.164 C 
BRANCH  17  18
HETATM   18  N3  UNL     1      19.348   4.246   9.725  1.00  0.00    -0.362 N 
HETATM   19  C4  UNL     1      20.267   4.694   8.765  1.00  0.00     0.083 C 
HETATM   20  C3  UNL     1      21.543   3.861   8.803  1.00  0.00     0.169 C 
HETATM   21  N2  UNL     1      21.969   3.808  10.178  1.00  0.00    -0.352 N 
HETATM   22  C17 UNL     1      21.041   3.271  11.146  1.00  0.00     0.145 C 
HETATM   23  C16 UNL     1      19.682   3.096  10.491  1.00  0.00     0.147 C 
BRANCH  21  24
HETATM   24  C2  UNL     1      23.256   4.271  10.554  1.00  0.00     0.169 C 
HETATM   25  S1  UNL     1      24.414   4.512   9.433  1.00  0.00    -0.041 SA
BRANCH  24  26
HETATM   26  N1  UNL     1      23.562   4.538  11.932  1.00  0.00    -0.371 N 
HETATM   27  C1  UNL     1      24.846   5.087  12.305  1.00  0.00     0.148 C 
ATOM     28  H1  UNL     1      22.869   4.338  12.652  1.00  0.00     0.161 HD
ENDBRANCH  24  26
ENDBRANCH  21  24
ENDBRANCH  17  18
ENDBRANCH  14  17
ENDBRANCH  12  13
ENDBRANCH  11  12
ENDBRANCH   8  11
ENDBRANCH   4   5
ENDBRANCH   1   4
TORSDOF 9
ENDMDL
MODEL 2
REMARK VINA RESULT: -6.309219833      2.761      7.559
REMARK  9 active torsions:
REMARK  status: ('A' for Active; 'I' for Inactive)
REMARK    1  A    between atoms: N1_2  and  C2_4 
REMARK    2  A    between atoms: C2_4  and  N2_6 
REMARK    3  A    between atoms: N3_9  and  C5_10 
REMARK    4  A    between atoms: C5_10  and  C6_11 
REMARK       I    between atoms: C6_11  and  N4_13 
REMARK    5  A    between atoms: N4_13  and  C7_15 
REMARK    6  A    between atoms: C7_15  and  C8_16 
REMARK    7  A    between atoms: C8_16  and  N5_17 
REMARK    8  A    between atoms: N6_20  and  C11_21 
REMARK    9  A    between atoms: C11_21  and  C12_22 
ROOT
HETATM    1  C12 UNL     1      21.894   4.946  10.293  1.00  0.00     0.143 C 
HETATM    2  C13 UNL     1      23.134   4.571  11.007  1.00  0.00     0.060 C 
HETATM    3  N7  UNL     1      24.100   4.266  11.578  1.00  0.00    -0.197 NA
ENDROOT
BRANCH   1   4
HETATM    4  C11 UNL     1      20.760   4.517  11.172  1.00  0.00     0.131 C 
BRANCH   4   5
HETATM    5  N6  UNL     1      19.757   3.726  10.539  1.00  0.00    -0.408 N 
HETATM    6  C10 UNL     1      20.166   2.468  10.019  1.00  0.00     0.147 C 
HETATM    7  C9  UNL     1      19.776   1.273  10.811  1.00  0.00     0.291 C 
HETATM    8  N5  UNL     1      18.482   1.431  11.443  1.00  0.00     0.093 N 
HETATM    9  C15 UNL     1      17.734   2.503  10.803  1.00  0.00     0.291 C 
HETATM   10  C14 UNL     1      18.470   3.778  11.151  1.00  0.00     0.147 C 
BRANCH   8  11
HETATM   11  C8  UNL     1      17.767   0.174  11.391  1.00  0.00     0.292 C 
BRANCH  11  12
HETATM   12  C7  UNL     1      17.147  -0.222  12.681  1.00  0.00     0.153 C 
BRANCH  12  13
HETATM   13  N4  UNL     1      17.005   0.911  13.580  1.00  0.00    -0.355 N 
HETATM   14  C6  UNL     1      16.645   0.807  14.945  1.00  0.00     0.256 C 
HETATM   15  O1  UNL     1      16.432  -0.374  15.394  1.00  0.00    -0.267 OA
ATOM     16  H4  UNL     1      17.176   1.842  13.203  1.00  0.00     0.162 HD
BRANCH  14  17
HETATM   17  C5  UNL     1      16.503   1.941  15.871  1.00  0.00     0.164 C 
BRANCH  17  18
HETATM   18  N3  UNL     1      16.511   3.233  15.353  1.00  0.00    -0.362 N 
HETATM   19  C4  UNL     1      17.712   3.909  15.089  1.00  0.00     0.083 C 
HETATM   20  C3  UNL     1      17.471   5.406  14.938  1.00  0.00     0.169 C 
HETATM   21  N2  UNL     1      16.384   5.564  14.006  1.00  0.00    -0.352 N 
HETATM   22  C17 UNL     1      15.128   4.928  14.327  1.00  0.00     0.145 C 
HETATM   23  C16 UNL     1      15.327   4.003  15.515  1.00  0.00     0.147 C 
BRANCH  21  24
HETATM   24  C2  UNL     1      16.556   6.319  12.817  1.00  0.00     0.169 C 
HETATM   25  S1  UNL     1      17.869   7.264  12.614  1.00  0.00    -0.041 SA
BRANCH  24  26
HETATM   26  N1  UNL     1      15.575   6.266  11.769  1.00  0.00    -0.371 N 
HETATM   27  C1  UNL     1      14.886   7.464  11.347  1.00  0.00     0.148 C 
ATOM     28  H1  UNL     1      15.364   5.375  11.320  1.00  0.00     0.161 HD
ENDBRANCH  24  26
ENDBRANCH  21  24
ENDBRANCH  17  18
ENDBRANCH  14  17
ENDBRANCH  12  13
ENDBRANCH  11  12
ENDBRANCH   8  11
ENDBRANCH   4   5
ENDBRANCH   1   4
TORSDOF 9
ENDMDL
MODEL 3
REMARK VINA RESULT: -6.228765117      2.967      4.020
REMARK  9 active torsions:
REMARK  status: ('A' for Active; 'I' for Inactive)
REMARK    1  A    between atoms: N1_2  and  C2_4 
REMARK    2  A    between atoms: C2_4  and  N2_6 
REMARK    3  A    between atoms: N3_9  and  C5_10 
REMARK    4  A    between atoms: C5_10  and  C6_11 
REMARK       I    between atoms: C6_11  and  N4_13 
REMARK    5  A    between atoms: N4_13  and  C7_15 
REMARK    6  A    between atoms: C7_15  and  C8_16 
REMARK    7  A    between atoms: C8_16  and  N5_17 
REMARK    8  A    between atoms: N6_20  and  C11_21 
REMARK    9  A    between atoms: C11_21  and  C12_22 
ROOT
HETATM    1  C12 UNL     1      16.142   2.115  16.331  1.00  0.00     0.143 C 
HETATM    2  C13 UNL     1      15.664   0.800  16.808  1.00  0.00     0.060 C 
HETATM    3  N7  UNL     1      15.274  -0.232  17.179  1.00  0.00    -0.197 NA
ENDROOT
BRANCH   1   4
HETATM    4  C11 UNL     1      14.918   2.952  16.119  1.00  0.00     0.131 C 
BRANCH   4   5
HETATM    5  N6  UNL     1      15.034   3.972  15.131  1.00  0.00    -0.408 N 
HETATM    6  C10 UNL     1      14.935   5.317  15.581  1.00  0.00     0.147 C 
HETATM    7  C9  UNL     1      16.210   6.075  15.668  1.00  0.00     0.291 C 
HETATM    8  N5  UNL     1      17.140   5.708  14.618  1.00  0.00     0.093 N 
HETATM    9  C15 UNL     1      16.439   5.038  13.533  1.00  0.00     0.291 C 
HETATM   10  C14 UNL     1      15.985   3.711  14.100  1.00  0.00     0.147 C 
BRANCH   8  11
HETATM   11  C8  UNL     1      17.832   6.892  14.158  1.00  0.00     0.292 C 
BRANCH  11  12
HETATM   12  C7  UNL     1      19.308   6.828  14.313  1.00  0.00     0.153 C 
BRANCH  12  13
HETATM   13  N4  UNL     1      19.885   5.751  13.527  1.00  0.00    -0.355 N 
HETATM   14  C6  UNL     1      20.278   5.873  12.172  1.00  0.00     0.256 C 
HETATM   15  O1  UNL     1      20.100   7.017  11.625  1.00  0.00    -0.267 OA
ATOM     16  H4  UNL     1      20.016   4.847  13.981  1.00  0.00     0.162 HD
BRANCH  14  17
HETATM   17  C5  UNL     1      20.869   4.796  11.364  1.00  0.00     0.164 C 
BRANCH  17  18
HETATM   18  N3  UNL     1      20.095   3.678  11.068  1.00  0.00    -0.362 N 
HETATM   19  C4  UNL     1      20.666   2.403  10.947  1.00  0.00     0.083 C 
HETATM   20  C3  UNL     1      19.720   1.450  10.225  1.00  0.00     0.169 C 
HETATM   21  N2  UNL     1      18.438   1.561  10.873  1.00  0.00    -0.352 N 
HETATM   22  C17 UNL     1      17.823   2.867  10.923  1.00  0.00     0.145 C 
HETATM   23  C16 UNL     1      18.828   3.909  10.464  1.00  0.00     0.147 C 
BRANCH  21  24
HETATM   24  C2  UNL     1      17.813   0.420  11.439  1.00  0.00     0.169 C 
HETATM   25  S1  UNL     1      17.069   0.511  12.888  1.00  0.00    -0.041 SA
BRANCH  24  26
HETATM   26  N1  UNL     1      17.823  -0.838  10.747  1.00  0.00    -0.371 N 
HETATM   27  C1  UNL     1      18.163  -2.058  11.445  1.00  0.00     0.148 C 
ATOM     28  H1  UNL     1      17.589  -0.872   9.755  1.00  0.00     0.161 HD
ENDBRANCH  24  26
ENDBRANCH  21  24
ENDBRANCH  17  18
ENDBRANCH  14  17
ENDBRANCH  12  13
ENDBRANCH  11  12
ENDBRANCH   8  11
ENDBRANCH   4   5
ENDBRANCH   1   4
TORSDOF 9
ENDMDL
MODEL 4
REMARK VINA RESULT: -6.109240701      3.028      6.937
REMARK  9 active torsions:
REMARK  status: ('A' for Active; 'I' for Inactive)
REMARK    1  A    between atoms: N1_2  and  C2_4 
REMARK    2  A    between atoms: C2_4  and  N2_6 
REMARK    3  A    between atoms: N3_9  and  C5_10 
REMARK    4  A    between atoms: C5_10  and  C6_11 
REMARK       I    between atoms: C6_11  and  N4_13 
REMARK    5  A    between atoms: N4_13  and  C7_15 
REMARK    6  A    between atoms: C7_15  and  C8_16 
REMARK    7  A    between atoms: C8_16  and  N5_17 
REMARK    8  A    between atoms: N6_20  and  C11_21 
REMARK    9  A    between atoms: C11_21  and  C12_22 
ROOT
HETATM    1  C12 UNL     1      18.530   0.588  10.821  1.00  0.00     0.143 C 
HETATM    2  C13 UNL     1      17.598   0.123  11.871  1.00  0.00     0.060 C 
HETATM    3  N7  UNL     1      16.857  -0.227  12.697  1.00  0.00    -0.197 NA
ENDROOT
BRANCH   1   4
HETATM    4  C11 UNL     1      18.489   2.084  10.858  1.00  0.00     0.131 C 
BRANCH   4   5
HETATM    5  N6  UNL     1      19.714   2.740  10.541  1.00  0.00    -0.408 N 
HETATM    6  C10 UNL     1      19.627   3.898   9.721  1.00  0.00     0.147 C 
HETATM    7  C9  UNL     1      19.789   5.204  10.412  1.00  0.00     0.291 C 
HETATM    8  N5  UNL     1      20.740   5.134  11.504  1.00  0.00     0.093 N 
HETATM    9  C15 UNL     1      21.585   3.958  11.364  1.00  0.00     0.291 C 
HETATM   10  C14 UNL     1      20.674   2.772  11.595  1.00  0.00     0.147 C 
BRANCH   8  11
HETATM   11  C8  UNL     1      21.520   6.353  11.537  1.00  0.00     0.292 C 
BRANCH  11  12
HETATM   12  C7  UNL     1      20.801   7.513  12.123  1.00  0.00     0.153 C 
BRANCH  12  13
HETATM   13  N4  UNL     1      20.082   7.147  13.331  1.00  0.00    -0.355 N 
HETATM   14  C6  UNL     1      18.678   7.235  13.483  1.00  0.00     0.256 C 
HETATM   15  O1  UNL     1      18.019   7.672  12.475  1.00  0.00    -0.267 OA
ATOM     16  H4  UNL     1      20.626   6.804  14.123  1.00  0.00     0.162 HD
BRANCH  14  17
HETATM   17  C5  UNL     1      17.933   6.863  14.695  1.00  0.00     0.164 C 
BRANCH  17  18
HETATM   18  N3  UNL     1      17.270   5.640  14.725  1.00  0.00    -0.362 N 
HETATM   19  C4  UNL     1      17.964   4.427  14.610  1.00  0.00     0.083 C 
HETATM   20  C3  UNL     1      17.015   3.288  14.253  1.00  0.00     0.169 C 
HETATM   21  N2  UNL     1      15.913   3.355  15.180  1.00  0.00    -0.352 N 
HETATM   22  C17 UNL     1      15.156   4.584  15.232  1.00  0.00     0.145 C 
HETATM   23  C16 UNL     1      15.879   5.650  14.428  1.00  0.00     0.147 C 
BRANCH  21  24
HETATM   24  C2  UNL     1      15.595   2.247  16.005  1.00  0.00     0.169 C 
HETATM   25  S1  UNL     1      16.608   0.974  16.117  1.00  0.00    -0.041 SA
BRANCH  24  26
HETATM   26  N1  UNL     1      14.373   2.224  16.759  1.00  0.00    -0.371 N 
HETATM   27  C1  UNL     1      13.776   0.968  17.154  1.00  0.00     0.148 C 
ATOM     28  H1  UNL     1      13.922   3.102  17.019  1.00  0.00     0.161 HD
ENDBRANCH  24  26
ENDBRANCH  21  24
ENDBRANCH  17  18
ENDBRANCH  14  17
ENDBRANCH  12  13
ENDBRANCH  11  12
ENDBRANCH   8  11
ENDBRANCH   4   5
ENDBRANCH   1   4
TORSDOF 9
ENDMDL
MODEL 5
REMARK VINA RESULT: -6.052221501      4.422      6.557
REMARK  9 active torsions:
REMARK  status: ('A' for Active; 'I' for Inactive)
REMARK    1  A    between atoms: N1_2  and  C2_4 
REMARK    2  A    between atoms: C2_4  and  N2_6 
REMARK    3  A    between atoms: N3_9  and  C5_10 
REMARK    4  A    between atoms: C5_10  and  C6_11 
REMARK       I    between atoms: C6_11  and  N4_13 
REMARK    5  A    between atoms: N4_13  and  C7_15 
REMARK    6  A    between atoms: C7_15  and  C8_16 
REMARK    7  A    between atoms: C8_16  and  N5_17 
REMARK    8  A    between atoms: N6_20  and  C11_21 
REMARK    9  A    between atoms: C11_21  and  C12_22 
ROOT
HETATM    1  C12 UNL     1      13.815   1.788  16.807  1.00  0.00     0.143 C 
HETATM    2  C13 UNL     1      14.639   0.601  17.123  1.00  0.00     0.060 C 
HETATM    3  N7  UNL     1      15.298  -0.323  17.377  1.00  0.00    -0.197 NA
ENDROOT
BRANCH   1   4
HETATM    4  C11 UNL     1      14.759   2.949  16.749  1.00  0.00     0.131 C 
BRANCH   4   5
HETATM    5  N6  UNL     1      15.443   3.124  15.511  1.00  0.00    -0.408 N 
HETATM    6  C10 UNL     1      14.898   4.074  14.606  1.00  0.00     0.147 C 
HETATM    7  C9  UNL     1      15.613   5.373  14.509  1.00  0.00     0.291 C 
HETATM    8  N5  UNL     1      17.048   5.223  14.657  1.00  0.00     0.093 N 
HETATM    9  C15 UNL     1      17.437   3.840  14.428  1.00  0.00     0.291 C 
HETATM   10  C14 UNL     1      16.866   3.058  15.591  1.00  0.00     0.147 C 
BRANCH   8  11
HETATM   11  C8  UNL     1      17.718   6.125  13.746  1.00  0.00     0.292 C 
BRANCH  11  12
HETATM   12  C7  UNL     1      18.307   5.457  12.557  1.00  0.00     0.153 C 
BRANCH  12  13
HETATM   13  N4  UNL     1      17.915   6.112  11.322  1.00  0.00    -0.355 N 
HETATM   14  C6  UNL     1      16.960   5.597  10.412  1.00  0.00     0.256 C 
HETATM   15  O1  UNL     1      16.423   4.476  10.719  1.00  0.00    -0.267 OA
ATOM     16  H4  UNL     1      18.357   7.003  11.095  1.00  0.00     0.162 HD
BRANCH  14  17
HETATM   17  C5  UNL     1      16.547   6.249   9.161  1.00  0.00     0.164 C 
BRANCH  17  18
HETATM   18  N3  UNL     1      15.590   7.259   9.216  1.00  0.00    -0.362 N 
HETATM   19  C4  UNL     1      15.954   8.610   9.307  1.00  0.00     0.083 C 
HETATM   20  C3  UNL     1      14.777   9.461   9.768  1.00  0.00     0.169 C 
HETATM   21  N2  UNL     1      13.657   9.115   8.931  1.00  0.00    -0.352 N 
HETATM   22  C17 UNL     1      13.241   7.732   8.906  1.00  0.00     0.145 C 
HETATM   23  C16 UNL     1      14.279   6.887   9.622  1.00  0.00     0.147 C 
BRANCH  21  24
HETATM   24  C2  UNL     1      12.995  10.108   8.162  1.00  0.00     0.169 C 
HETATM   25  S1  UNL     1      13.567  11.633   8.103  1.00  0.00    -0.041 SA
BRANCH  24  26
HETATM   26  N1  UNL     1      11.808   9.787   7.421  1.00  0.00    -0.371 N 
HETATM   27  C1  UNL     1      11.584  10.355   6.111  1.00  0.00     0.148 C 
ATOM     28  H1  UNL     1      11.117   9.153   7.822  1.00  0.00     0.161 HD
ENDBRANCH  24  26
ENDBRANCH  21  24
ENDBRANCH  17  18
ENDBRANCH  14  17
ENDBRANCH  12  13
ENDBRANCH  11  12
ENDBRANCH   8  11
ENDBRANCH   4   5
ENDBRANCH   1   4
TORSDOF 9
ENDMDL
