MODEL 1
REMARK VINA RESULT: -6.756409774      0.000      0.000
REMARK  10 active torsions:
REMARK  status: ('A' for Active; 'I' for Inactive)
REMARK    1  A    between atoms: N2_5  and  C4_6 
REMARK    2  A    between atoms: C4_6  and  C5_7 
REMARK    3  A    between atoms: C5_7  and  N3_8 
REMARK    4  A    between atoms: N3_8  and  C6_10 
REMARK    5  A    between atoms: C6_10  and  N4_12 
REMARK    6  A    between atoms: N4_12  and  C7_14 
REMARK    7  A    between atoms: C7_14  and  C8_15 
REMARK    8  A    between atoms: C8_15  and  C9_16 
REMARK    9  A    between atoms: C9_16  and  N5_17 
REMARK   10  A    between atoms: N6_23  and  C14_25 
ROOT
HETATM    1  C14 UNL     1      17.056   5.764  10.947  1.00  0.00     0.184 C 
HETATM    2  C15 UNL     1      15.803   6.138  10.245  1.00  0.00     0.105 C 
HETATM    3  N7  UNL     1      14.818   6.412   9.697  1.00  0.00    -0.191 NA
ENDROOT
BRANCH   1   4
HETATM    4  N6  UNL     1      17.313   4.394  10.940  1.00  0.00    -0.342 N 
HETATM    5  C4  UNL     1      18.070   3.599  11.538  1.00  0.00     0.119 C 
ATOM      6  H6  UNL     1      16.723   3.909  10.264  1.00  0.00     0.167 HD
BRANCH   5   7
HETATM    7  N2  UNL     1      17.925   2.209  11.122  1.00  0.00    -0.363 N 
HETATM    8  C3  UNL     1      16.682   1.536  11.176  1.00  0.00     0.143 C 
HETATM    9  C2  UNL     1      16.732   0.139  10.604  1.00  0.00     0.136 C 
HETATM   10  N1  UNL     1      17.917  -0.589  10.847  1.00  0.00    -0.414 N 
HETATM   11  C1  UNL     1      17.795  -1.803  11.586  1.00  0.00     0.143 C 
HETATM   12  C17 UNL     1      19.081   0.148  11.200  1.00  0.00     0.136 C 
HETATM   13  C16 UNL     1      19.107   1.538  10.648  1.00  0.00     0.143 C 
ENDBRANCH   5   7
BRANCH   5  14
HETATM   14  C5  UNL     1      19.062   3.939  12.531  1.00  0.00     0.138 C 
BRANCH  14  15
HETATM   15  N3  UNL     1      18.675   4.064  13.903  1.00  0.00    -0.340 N 
ATOM     16  H3  UNL     1      18.716   3.265  14.536  1.00  0.00     0.167 HD
BRANCH  15  17
HETATM   17  C6  UNL     1      18.224   5.359  14.366  1.00  0.00     0.171 C 
HETATM   18  S1  UNL     1      19.296   6.602  14.171  1.00  0.00    -0.041 SA
BRANCH  17  19
HETATM   19  N4  UNL     1      16.980   5.607  14.944  1.00  0.00    -0.367 N 
ATOM     20  H4  UNL     1      17.003   5.912  15.917  1.00  0.00     0.161 HD
BRANCH  19  21
HETATM   21  C7  UNL     1      15.680   5.496  14.368  1.00  0.00     0.123 C 
BRANCH  21  22
HETATM   22  C8  UNL     1      14.975   4.190  14.603  1.00  0.00     0.039 C 
BRANCH  22  23
HETATM   23  C9  UNL     1      14.798   4.012  16.126  1.00  0.00     0.123 C 
BRANCH  23  24
HETATM   24  N5  UNL     1      15.340   2.773  16.480  1.00  0.00    -0.389 N 
HETATM   25  C10 UNL     1      14.866   2.035  17.566  1.00  0.00     0.084 C 
HETATM   26  C11 UNL     1      14.999   0.549  17.279  1.00  0.00     0.212 C 
HETATM   27  O1  UNL     1      16.290   0.177  16.947  1.00  0.00    -0.385 OA
HETATM   28  C12 UNL     1      16.953   1.070  16.136  1.00  0.00     0.187 C 
HETATM   29  C13 UNL     1      15.901   1.955  15.453  1.00  0.00     0.148 C 
ENDBRANCH  23  24
ENDBRANCH  22  23
ENDBRANCH  21  22
ENDBRANCH  19  21
ENDBRANCH  17  19
ENDBRANCH  15  17
ENDBRANCH  14  15
ENDBRANCH   5  14
ENDBRANCH   1   4
TORSDOF 10
ENDMDL
MODEL 2
REMARK VINA RESULT: -6.667916098      2.517      5.991
REMARK  10 active torsions:
REMARK  status: ('A' for Active; 'I' for Inactive)
REMARK    1  A    between atoms: N2_5  and  C4_6 
REMARK    2  A    between atoms: C4_6  and  C5_7 
REMARK    3  A    between atoms: C5_7  and  N3_8 
REMARK    4  A    between atoms: N3_8  and  C6_10 
REMARK    5  A    between atoms: C6_10  and  N4_12 
REMARK    6  A    between atoms: N4_12  and  C7_14 
REMARK    7  A    between atoms: C7_14  and  C8_15 
REMARK    8  A    between atoms: C8_15  and  C9_16 
REMARK    9  A    between atoms: C9_16  and  N5_17 
REMARK   10  A    between atoms: N6_23  and  C14_25 
ROOT
HETATM    1  C14 UNL     1      17.140  -0.697  11.208  1.00  0.00     0.184 C 
HETATM    2  C15 UNL     1      17.988  -1.892  11.438  1.00  0.00     0.105 C 
HETATM    3  N7  UNL     1      18.649  -2.826  11.636  1.00  0.00    -0.191 NA
ENDROOT
BRANCH   1   4
HETATM    4  N6  UNL     1      16.953   0.083  12.349  1.00  0.00    -0.342 N 
HETATM    5  C4  UNL     1      17.199   1.254  12.710  1.00  0.00     0.119 C 
ATOM      6  H6  UNL     1      16.490  -0.446  13.088  1.00  0.00     0.167 HD
BRANCH   5   7
HETATM    7  N2  UNL     1      16.774   1.559  14.072  1.00  0.00    -0.363 N 
HETATM    8  C3  UNL     1      16.704   0.566  15.076  1.00  0.00     0.143 C 
HETATM    9  C2  UNL     1      16.342   1.113  16.436  1.00  0.00     0.136 C 
HETATM   10  N1  UNL     1      15.404   2.170  16.450  1.00  0.00    -0.414 N 
HETATM   11  C1  UNL     1      14.180   1.945  17.146  1.00  0.00     0.143 C 
HETATM   12  C17 UNL     1      15.219   2.900  15.243  1.00  0.00     0.136 C 
HETATM   13  C16 UNL     1      16.425   2.925  14.360  1.00  0.00     0.143 C 
ENDBRANCH   5   7
BRANCH   5  14
HETATM   14  C5  UNL     1      17.877   2.268  11.938  1.00  0.00     0.138 C 
BRANCH  14  15
HETATM   15  N3  UNL     1      19.306   2.351  11.981  1.00  0.00    -0.340 N 
ATOM     16  H3  UNL     1      19.887   1.543  11.757  1.00  0.00     0.167 HD
BRANCH  15  17
HETATM   17  C6  UNL     1      19.901   3.617  12.352  1.00  0.00     0.171 C 
HETATM   18  S1  UNL     1      20.743   4.390  11.157  1.00  0.00    -0.041 SA
BRANCH  17  19
HETATM   19  N4  UNL     1      19.806   4.201  13.614  1.00  0.00    -0.367 N 
ATOM     20  H4  UNL     1      19.839   3.552  14.400  1.00  0.00     0.161 HD
BRANCH  19  21
HETATM   21  C7  UNL     1      19.669   5.577  13.962  1.00  0.00     0.123 C 
BRANCH  21  22
HETATM   22  C8  UNL     1      18.259   6.066  14.137  1.00  0.00     0.039 C 
BRANCH  22  23
HETATM   23  C9  UNL     1      17.998   7.157  13.076  1.00  0.00     0.123 C 
BRANCH  23  24
HETATM   24  N5  UNL     1      17.173   6.608  12.089  1.00  0.00    -0.389 N 
HETATM   25  C10 UNL     1      15.782   6.717  12.135  1.00  0.00     0.084 C 
HETATM   26  C11 UNL     1      15.221   6.793  10.725  1.00  0.00     0.212 C 
HETATM   27  O1  UNL     1      15.614   5.729   9.930  1.00  0.00    -0.385 OA
HETATM   28  C12 UNL     1      16.922   5.336  10.104  1.00  0.00     0.187 C 
HETATM   29  C13 UNL     1      17.680   6.500  10.758  1.00  0.00     0.148 C 
ENDBRANCH  23  24
ENDBRANCH  22  23
ENDBRANCH  21  22
ENDBRANCH  19  21
ENDBRANCH  17  19
ENDBRANCH  15  17
ENDBRANCH  14  15
ENDBRANCH   5  14
ENDBRANCH   1   4
TORSDOF 10
ENDMDL
MODEL 3
REMARK VINA RESULT: -6.540628070      2.031      3.056
REMARK  10 active torsions:
REMARK  status: ('A' for Active; 'I' for Inactive)
REMARK    1  A    between atoms: N2_5  and  C4_6 
REMARK    2  A    between atoms: C4_6  and  C5_7 
REMARK    3  A    between atoms: C5_7  and  N3_8 
REMARK    4  A    between atoms: N3_8  and  C6_10 
REMARK    5  A    between atoms: C6_10  and  N4_12 
REMARK    6  A    between atoms: N4_12  and  C7_14 
REMARK    7  A    between atoms: C7_14  and  C8_15 
REMARK    8  A    between atoms: C8_15  and  C9_16 
REMARK    9  A    between atoms: C9_16  and  N5_17 
REMARK   10  A    between atoms: N6_23  and  C14_25 
ROOT
HETATM    1  C14 UNL     1      22.227   4.432  11.122  1.00  0.00     0.184 C 
HETATM    2  C15 UNL     1      23.213   3.897  10.152  1.00  0.00     0.105 C 
HETATM    3  N7  UNL     1      23.971   3.467   9.385  1.00  0.00    -0.191 NA
ENDROOT
BRANCH   1   4
HETATM    4  N6  UNL     1      21.061   3.672  11.211  1.00  0.00    -0.342 N 
HETATM    5  C4  UNL     1      20.051   3.624  11.945  1.00  0.00     0.119 C 
ATOM      6  H6  UNL     1      21.023   2.964  10.478  1.00  0.00     0.167 HD
BRANCH   5   7
HETATM    7  N2  UNL     1      19.096   2.584  11.579  1.00  0.00    -0.363 N 
HETATM    8  C3  UNL     1      17.785   2.552  12.107  1.00  0.00     0.143 C 
HETATM    9  C2  UNL     1      16.929   1.455  11.519  1.00  0.00     0.136 C 
HETATM   10  N1  UNL     1      17.587   0.236  11.242  1.00  0.00    -0.414 N 
HETATM   11  C1  UNL     1      17.123  -0.924  11.929  1.00  0.00     0.143 C 
HETATM   12  C17 UNL     1      19.004   0.267  11.120  1.00  0.00     0.136 C 
HETATM   13  C16 UNL     1      19.542   1.580  10.649  1.00  0.00     0.143 C 
ENDBRANCH   5   7
BRANCH   5  14
HETATM   14  C5  UNL     1      19.788   4.448  13.102  1.00  0.00     0.138 C 
BRANCH  14  15
HETATM   15  N3  UNL     1      19.218   5.750  12.926  1.00  0.00    -0.340 N 
ATOM     16  H3  UNL     1      19.247   6.219  12.021  1.00  0.00     0.167 HD
BRANCH  15  17
HETATM   17  C6  UNL     1      18.600   6.380  14.073  1.00  0.00     0.171 C 
HETATM   18  S1  UNL     1      19.227   7.847  14.508  1.00  0.00    -0.041 SA
BRANCH  17  19
HETATM   19  N4  UNL     1      17.542   5.841  14.802  1.00  0.00    -0.367 N 
ATOM     20  H4  UNL     1      17.786   5.475  15.723  1.00  0.00     0.161 HD
BRANCH  19  21
HETATM   21  C7  UNL     1      16.166   5.728  14.445  1.00  0.00     0.123 C 
BRANCH  21  22
HETATM   22  C8  UNL     1      15.617   4.329  14.411  1.00  0.00     0.039 C 
BRANCH  22  23
HETATM   23  C9  UNL     1      14.945   4.048  15.773  1.00  0.00     0.123 C 
BRANCH  23  24
HETATM   24  N5  UNL     1      15.043   2.676  16.026  1.00  0.00    -0.389 N 
HETATM   25  C10 UNL     1      15.979   1.866  15.381  1.00  0.00     0.084 C 
HETATM   26  C11 UNL     1      16.422   0.747  16.309  1.00  0.00     0.212 C 
HETATM   27  O1  UNL     1      15.363  -0.000  16.797  1.00  0.00    -0.385 OA
HETATM   28  C12 UNL     1      14.248   0.735  17.130  1.00  0.00     0.187 C 
HETATM   29  C13 UNL     1      14.687   2.194  17.321  1.00  0.00     0.148 C 
ENDBRANCH  23  24
ENDBRANCH  22  23
ENDBRANCH  21  22
ENDBRANCH  19  21
ENDBRANCH  17  19
ENDBRANCH  15  17
ENDBRANCH  14  15
ENDBRANCH   5  14
ENDBRANCH   1   4
TORSDOF 10
ENDMDL
MODEL 4
REMARK VINA RESULT: -6.484374786      1.721      5.136
REMARK  10 active torsions:
REMARK  status: ('A' for Active; 'I' for Inactive)
REMARK    1  A    between atoms: N2_5  and  C4_6 
REMARK    2  A    between atoms: C4_6  and  C5_7 
REMARK    3  A    between atoms: C5_7  and  N3_8 
REMARK    4  A    between atoms: N3_8  and  C6_10 
REMARK    5  A    between atoms: C6_10  and  N4_12 
REMARK    6  A    between atoms: N4_12  and  C7_14 
REMARK    7  A    between atoms: C7_14  and  C8_15 
REMARK    8  A    between atoms: C8_15  and  C9_16 
REMARK    9  A    between atoms: C9_16  and  N5_17 
REMARK   10  A    between atoms: N6_23  and  C14_25 
ROOT
HETATM    1  C14 UNL     1      16.345   6.322  12.394  1.00  0.00     0.184 C 
HETATM    2  C15 UNL     1      16.178   5.808  11.012  1.00  0.00     0.105 C 
HETATM    3  N7  UNL     1      16.040   5.390   9.938  1.00  0.00    -0.191 NA
ENDROOT
BRANCH   1   4
HETATM    4  N6  UNL     1      16.158   5.352  13.377  1.00  0.00    -0.342 N 
HETATM    5  C4  UNL     1      16.834   4.826  14.287  1.00  0.00     0.119 C 
ATOM      6  H6  UNL     1      15.214   4.967  13.345  1.00  0.00     0.167 HD
BRANCH   5   7
HETATM    7  N2  UNL     1      16.118   3.812  15.054  1.00  0.00    -0.363 N 
HETATM    8  C3  UNL     1      14.950   4.117  15.791  1.00  0.00     0.143 C 
HETATM    9  C2  UNL     1      14.310   2.905  16.426  1.00  0.00     0.136 C 
HETATM   10  N1  UNL     1      15.196   1.923  16.920  1.00  0.00    -0.414 N 
HETATM   11  C1  UNL     1      15.140   1.640  18.317  1.00  0.00     0.143 C 
HETATM   12  C17 UNL     1      16.527   1.926  16.418  1.00  0.00     0.136 C 
HETATM   13  C16 UNL     1      16.650   2.475  15.033  1.00  0.00     0.143 C 
ENDBRANCH   5   7
BRANCH   5  14
HETATM   14  C5  UNL     1      18.218   5.098  14.597  1.00  0.00     0.138 C 
BRANCH  14  15
HETATM   15  N3  UNL     1      19.243   4.265  14.045  1.00  0.00    -0.340 N 
ATOM     16  H3  UNL     1      19.341   3.291  14.332  1.00  0.00     0.167 HD
BRANCH  15  17
HETATM   17  C6  UNL     1      20.137   4.846  13.067  1.00  0.00     0.171 C 
HETATM   18  S1  UNL     1      20.038   6.487  12.892  1.00  0.00    -0.041 SA
BRANCH  17  19
HETATM   19  N4  UNL     1      21.045   4.126  12.293  1.00  0.00    -0.367 N 
ATOM     20  H4  UNL     1      21.779   3.644  12.813  1.00  0.00     0.161 HD
BRANCH  19  21
HETATM   21  C7  UNL     1      21.096   3.968  10.876  1.00  0.00     0.123 C 
BRANCH  21  22
HETATM   22  C8  UNL     1      20.045   3.071  10.285  1.00  0.00     0.039 C 
BRANCH  22  23
HETATM   23  C9  UNL     1      20.070   1.734  11.058  1.00  0.00     0.123 C 
BRANCH  23  24
HETATM   24  N5  UNL     1      18.759   1.435  11.442  1.00  0.00    -0.389 N 
HETATM   25  C10 UNL     1      17.754   2.403  11.478  1.00  0.00     0.084 C 
HETATM   26  C11 UNL     1      16.414   1.773  11.134  1.00  0.00     0.212 C 
HETATM   27  O1  UNL     1      16.101   0.695  11.945  1.00  0.00    -0.385 OA
HETATM   28  C12 UNL     1      17.164  -0.127  12.242  1.00  0.00     0.187 C 
HETATM   29  C13 UNL     1      18.258   0.121  11.192  1.00  0.00     0.148 C 
ENDBRANCH  23  24
ENDBRANCH  22  23
ENDBRANCH  21  22
ENDBRANCH  19  21
ENDBRANCH  17  19
ENDBRANCH  15  17
ENDBRANCH  14  15
ENDBRANCH   5  14
ENDBRANCH   1   4
TORSDOF 10
ENDMDL
MODEL 5
REMARK VINA RESULT: -6.340885865      3.589      6.794
REMARK  10 active torsions:
REMARK  status: ('A' for Active; 'I' for Inactive)
REMARK    1  A    between atoms: N2_5  and  C4_6 
REMARK    2  A    between atoms: C4_6  and  C5_7 
REMARK    3  A    between atoms: C5_7  and  N3_8 
REMARK    4  A    between atoms: N3_8  and  C6_10 
REMARK    5  A    between atoms: C6_10  and  N4_12 
REMARK    6  A    between atoms: N4_12  and  C7_14 
REMARK    7  A    between atoms: C7_14  and  C8_15 
REMARK    8  A    between atoms: C8_15  and  C9_16 
REMARK    9  A    between atoms: C9_16  and  N5_17 
REMARK   10  A    between atoms: N6_23  and  C14_25 
ROOT
HETATM    1  C14 UNL     1      17.151  -0.720  11.182  1.00  0.00     0.184 C 
HETATM    2  C15 UNL     1      17.996  -1.918  11.408  1.00  0.00     0.105 C 
HETATM    3  N7  UNL     1      18.655  -2.853  11.603  1.00  0.00    -0.191 NA
ENDROOT
BRANCH   1   4
HETATM    4  N6  UNL     1      16.952   0.048  12.329  1.00  0.00    -0.342 N 
HETATM    5  C4  UNL     1      17.165   1.224  12.695  1.00  0.00     0.119 C 
ATOM      6  H6  UNL     1      16.514  -0.499  13.070  1.00  0.00     0.167 HD
BRANCH   5   7
HETATM    7  N2  UNL     1      16.746   1.509  14.063  1.00  0.00    -0.363 N 
HETATM    8  C3  UNL     1      16.711   0.507  15.060  1.00  0.00     0.143 C 
HETATM    9  C2  UNL     1      16.347   1.036  16.427  1.00  0.00     0.136 C 
HETATM   10  N1  UNL     1      15.383   2.067  16.457  1.00  0.00    -0.414 N 
HETATM   11  C1  UNL     1      14.172   1.806  17.163  1.00  0.00     0.143 C 
HETATM   12  C17 UNL     1      15.168   2.801  15.258  1.00  0.00     0.136 C 
HETATM   13  C16 UNL     1      16.364   2.864  14.364  1.00  0.00     0.143 C 
ENDBRANCH   5   7
BRANCH   5  14
HETATM   14  C5  UNL     1      17.804   2.263  11.921  1.00  0.00     0.138 C 
BRANCH  14  15
HETATM   15  N3  UNL     1      19.225   2.418  11.984  1.00  0.00    -0.340 N 
ATOM     16  H3  UNL     1      19.849   1.630  11.811  1.00  0.00     0.167 HD
BRANCH  15  17
HETATM   17  C6  UNL     1      19.752   3.728  12.301  1.00  0.00     0.171 C 
HETATM   18  S1  UNL     1      20.249   4.632  11.008  1.00  0.00    -0.041 SA
BRANCH  17  19
HETATM   19  N4  UNL     1      19.856   4.253  13.588  1.00  0.00    -0.367 N 
ATOM     20  H4  UNL     1      20.586   3.842  14.170  1.00  0.00     0.161 HD
BRANCH  19  21
HETATM   21  C7  UNL     1      19.089   5.285  14.206  1.00  0.00     0.123 C 
BRANCH  21  22
HETATM   22  C8  UNL     1      19.717   6.650  14.206  1.00  0.00     0.039 C 
BRANCH  22  23
HETATM   23  C9  UNL     1      18.597   7.690  14.427  1.00  0.00     0.123 C 
BRANCH  23  24
HETATM   24  N5  UNL     1      19.202   8.928  14.667  1.00  0.00    -0.389 N 
HETATM   25  C10 UNL     1      20.103   9.126  15.714  1.00  0.00     0.084 C 
HETATM   26  C11 UNL     1      21.142  10.161  15.315  1.00  0.00     0.212 C 
HETATM   27  O1  UNL     1      20.580  11.358  14.905  1.00  0.00    -0.385 OA
HETATM   28  C12 UNL     1      19.447  11.225  14.135  1.00  0.00     0.187 C 
HETATM   29  C13 UNL     1      19.432   9.801  13.561  1.00  0.00     0.148 C 
ENDBRANCH  23  24
ENDBRANCH  22  23
ENDBRANCH  21  22
ENDBRANCH  19  21
ENDBRANCH  17  19
ENDBRANCH  15  17
ENDBRANCH  14  15
ENDBRANCH   5  14
ENDBRANCH   1   4
TORSDOF 10
ENDMDL
