MODEL 1
REMARK VINA RESULT: -6.885202985      0.000      0.000
REMARK  8 active torsions:
REMARK  status: ('A' for Active; 'I' for Inactive)
REMARK    1  A    between atoms: C2_2  and  O1_4 
REMARK    2  A    between atoms: O1_4  and  C4_5 
REMARK       I    between atoms: C4_5  and  N1_7 
REMARK    3  A    between atoms: N3_15  and  C10_16 
REMARK    4  A    between atoms: C10_16  and  O3_17 
REMARK    5  A    between atoms: C10_16  and  N4_19 
REMARK    6  A    between atoms: N4_19  and  C12_21 
REMARK    7  A    between atoms: C12_21  and  C13_22 
REMARK    8  A    between atoms: C13_22  and  O4_23 
ROOT
HETATM    1  C4  UNL     1      16.812   0.867  14.889  1.00  0.00     0.363 C 
HETATM    2  O2  UNL     1      16.972  -0.204  15.546  1.00  0.00    -0.238 OA
HETATM    3  N1  UNL     1      16.955   0.892  13.452  1.00  0.00    -0.325 N 
HETATM    4  C5  UNL     1      17.276  -0.313  12.783  1.00  0.00     0.147 C 
HETATM    5  C6  UNL     1      17.789  -0.164  11.386  1.00  0.00     0.133 C 
HETATM    6  N2  UNL     1      19.169   0.105  11.248  1.00  0.00    -0.420 N 
ATOM      7  H2  UNL     1      19.833  -0.661  11.139  1.00  0.00     0.153 HD
HETATM    8  C7  UNL     1      19.621   1.450  11.266  1.00  0.00     0.115 C 
HETATM    9  C8  UNL     1      18.928   2.408  10.367  1.00  0.00     0.039 C 
HETATM   10  C9  UNL     1      18.435   3.678  11.032  1.00  0.00     0.128 C 
HETATM   11  N3  UNL     1      18.658   3.755  12.431  1.00  0.00    -0.346 N 
HETATM   12  C14 UNL     1      17.714   3.130  13.381  1.00  0.00     0.146 C 
HETATM   13  C15 UNL     1      16.748   2.183  12.825  1.00  0.00     0.148 C 
ENDROOT
BRANCH  11  14
HETATM   14  C10 UNL     1      19.723   4.398  13.041  1.00  0.00     0.216 C 
BRANCH  14  15
HETATM   15  O3  UNL     1      19.860   4.146  14.323  1.00  0.00    -0.333 OA
ATOM     16  H3  UNL     1      20.444   4.736  14.786  1.00  0.00     0.220 HD
ENDBRANCH  14  15
BRANCH  14  17
HETATM   17  N4  UNL     1      20.679   5.273  12.525  1.00  0.00    -0.350 N 
HETATM   18  C11 UNL     1      20.801   6.684  12.728  1.00  0.00     0.153 C 
BRANCH  17  19
HETATM   19  C12 UNL     1      21.753   4.708  11.640  1.00  0.00     0.151 C 
BRANCH  19  20
HETATM   20  C13 UNL     1      23.043   5.435  11.907  1.00  0.00     0.183 C 
BRANCH  20  21
HETATM   21  O4  UNL     1      24.019   4.483  12.193  1.00  0.00    -0.399 OA
ATOM     22  H4  UNL     1      23.739   3.658  11.817  1.00  0.00     0.209 HD
ENDBRANCH  20  21
ENDBRANCH  19  20
ENDBRANCH  17  19
ENDBRANCH  14  17
ENDBRANCH  11  14
BRANCH   1  23
HETATM   23  O1  UNL     1      16.497   1.997  15.627  1.00  0.00    -0.299 OA
BRANCH  23  24
HETATM   24  C2  UNL     1      15.216   2.281  16.126  1.00  0.00     0.125 C 
HETATM   25  C1  UNL     1      14.930   3.744  15.900  1.00  0.00     0.040 C 
HETATM   26  C3  UNL     1      15.103   1.941  17.598  1.00  0.00     0.040 C 
ENDBRANCH  23  24
ENDBRANCH   1  23
TORSDOF 8
ENDMDL
MODEL 2
REMARK VINA RESULT: -6.879810903      1.325      2.274
REMARK  8 active torsions:
REMARK  status: ('A' for Active; 'I' for Inactive)
REMARK    1  A    between atoms: C2_2  and  O1_4 
REMARK    2  A    between atoms: O1_4  and  C4_5 
REMARK       I    between atoms: C4_5  and  N1_7 
REMARK    3  A    between atoms: N3_15  and  C10_16 
REMARK    4  A    between atoms: C10_16  and  O3_17 
REMARK    5  A    between atoms: C10_16  and  N4_19 
REMARK    6  A    between atoms: N4_19  and  C12_21 
REMARK    7  A    between atoms: C12_21  and  C13_22 
REMARK    8  A    between atoms: C13_22  and  O4_23 
ROOT
HETATM    1  C4  UNL     1      16.774   0.808  15.089  1.00  0.00     0.363 C 
HETATM    2  O2  UNL     1      17.026  -0.317  15.614  1.00  0.00    -0.238 OA
HETATM    3  N1  UNL     1      16.881   1.008  13.662  1.00  0.00    -0.325 N 
HETATM    4  C5  UNL     1      17.274  -0.084  12.853  1.00  0.00     0.147 C 
HETATM    5  C6  UNL     1      17.742   0.263  11.475  1.00  0.00     0.133 C 
HETATM    6  N2  UNL     1      19.095   0.649  11.351  1.00  0.00    -0.420 N 
ATOM      7  H2  UNL     1      19.812  -0.046  11.143  1.00  0.00     0.153 HD
HETATM    8  C7  UNL     1      19.449   2.014  11.519  1.00  0.00     0.115 C 
HETATM    9  C8  UNL     1      18.667   3.014  10.747  1.00  0.00     0.039 C 
HETATM   10  C9  UNL     1      18.098   4.158  11.563  1.00  0.00     0.128 C 
HETATM   11  N3  UNL     1      18.347   4.090  12.959  1.00  0.00    -0.346 N 
HETATM   12  C14 UNL     1      17.473   3.290  13.842  1.00  0.00     0.146 C 
HETATM   13  C15 UNL     1      16.566   2.344  13.193  1.00  0.00     0.148 C 
ENDROOT
BRANCH  11  14
HETATM   14  C10 UNL     1      19.376   4.737  13.624  1.00  0.00     0.216 C 
BRANCH  14  15
HETATM   15  O3  UNL     1      19.907   4.056  14.614  1.00  0.00    -0.333 OA
ATOM     16  H3  UNL     1      20.857   4.044  14.625  1.00  0.00     0.220 HD
ENDBRANCH  14  15
BRANCH  14  17
HETATM   17  N4  UNL     1      19.946   5.994  13.423  1.00  0.00    -0.350 N 
HETATM   18  C11 UNL     1      20.884   6.400  12.422  1.00  0.00     0.153 C 
BRANCH  17  19
HETATM   19  C12 UNL     1      19.549   7.109  14.348  1.00  0.00     0.151 C 
BRANCH  19  20
HETATM   20  C13 UNL     1      18.076   7.372  14.196  1.00  0.00     0.183 C 
BRANCH  20  21
HETATM   21  O4  UNL     1      17.457   7.049  15.402  1.00  0.00    -0.399 OA
ATOM     22  H4  UNL     1      16.540   7.289  15.331  1.00  0.00     0.209 HD
ENDBRANCH  20  21
ENDBRANCH  19  20
ENDBRANCH  17  19
ENDBRANCH  14  17
ENDBRANCH  11  14
BRANCH   1  23
HETATM   23  O1  UNL     1      16.394   1.818  15.958  1.00  0.00    -0.299 OA
BRANCH  23  24
HETATM   24  C2  UNL     1      15.135   1.897  16.573  1.00  0.00     0.125 C 
HETATM   25  C1  UNL     1      14.588   3.287  16.362  1.00  0.00     0.040 C 
HETATM   26  C3  UNL     1      15.214   1.578  18.052  1.00  0.00     0.040 C 
ENDBRANCH  23  24
ENDBRANCH   1  23
TORSDOF 8
ENDMDL
MODEL 3
REMARK VINA RESULT: -6.720391899      2.976      5.144
REMARK  8 active torsions:
REMARK  status: ('A' for Active; 'I' for Inactive)
REMARK    1  A    between atoms: C2_2  and  O1_4 
REMARK    2  A    between atoms: O1_4  and  C4_5 
REMARK       I    between atoms: C4_5  and  N1_7 
REMARK    3  A    between atoms: N3_15  and  C10_16 
REMARK    4  A    between atoms: C10_16  and  O3_17 
REMARK    5  A    between atoms: C10_16  and  N4_19 
REMARK    6  A    between atoms: N4_19  and  C12_21 
REMARK    7  A    between atoms: C12_21  and  C13_22 
REMARK    8  A    between atoms: C13_22  and  O4_23 
ROOT
HETATM    1  C4  UNL     1      15.525   3.797  15.604  1.00  0.00     0.363 C 
HETATM    2  O2  UNL     1      14.570   4.531  15.995  1.00  0.00    -0.238 OA
HETATM    3  N1  UNL     1      16.623   4.343  14.839  1.00  0.00    -0.325 N 
HETATM    4  C5  UNL     1      16.614   5.725  14.535  1.00  0.00     0.147 C 
HETATM    5  C6  UNL     1      17.537   6.155  13.439  1.00  0.00     0.133 C 
HETATM    6  N2  UNL     1      17.053   6.013  12.119  1.00  0.00    -0.420 N 
ATOM      7  H2  UNL     1      16.566   6.786  11.665  1.00  0.00     0.153 HD
HETATM    8  C7  UNL     1      17.251   4.787  11.432  1.00  0.00     0.115 C 
HETATM    9  C8  UNL     1      18.629   4.232  11.422  1.00  0.00     0.039 C 
HETATM   10  C9  UNL     1      18.746   2.786  11.859  1.00  0.00     0.128 C 
HETATM   11  N3  UNL     1      17.531   2.175  12.267  1.00  0.00    -0.346 N 
HETATM   12  C14 UNL     1      17.029   2.342  13.646  1.00  0.00     0.146 C 
HETATM   13  C15 UNL     1      17.649   3.393  14.453  1.00  0.00     0.148 C 
ENDROOT
BRANCH  11  14
HETATM   14  C10 UNL     1      16.721   1.385  11.467  1.00  0.00     0.216 C 
BRANCH  14  15
HETATM   15  O3  UNL     1      15.563   1.923  11.153  1.00  0.00    -0.333 OA
ATOM     16  H3  UNL     1      15.620   2.708  10.620  1.00  0.00     0.220 HD
ENDBRANCH  14  15
BRANCH  14  17
HETATM   17  N4  UNL     1      16.923   0.112  10.936  1.00  0.00    -0.350 N 
HETATM   18  C11 UNL     1      16.848  -0.310   9.571  1.00  0.00     0.153 C 
BRANCH  17  19
HETATM   19  C12 UNL     1      17.278  -1.001  11.880  1.00  0.00     0.151 C 
BRANCH  19  20
HETATM   20  C13 UNL     1      18.598  -1.593  11.466  1.00  0.00     0.183 C 
BRANCH  20  21
HETATM   21  O4  UNL     1      18.462  -2.980  11.464  1.00  0.00    -0.399 OA
ATOM     22  H4  UNL     1      19.037  -3.327  10.793  1.00  0.00     0.209 HD
ENDBRANCH  20  21
ENDBRANCH  19  20
ENDBRANCH  17  19
ENDBRANCH  14  17
ENDBRANCH  11  14
BRANCH   1  23
HETATM   23  O1  UNL     1      15.450   2.458  15.950  1.00  0.00    -0.299 OA
BRANCH  23  24
HETATM   24  C2  UNL     1      14.882   1.982  17.142  1.00  0.00     0.125 C 
HETATM   25  C1  UNL     1      15.903   1.128  17.850  1.00  0.00     0.040 C 
HETATM   26  C3  UNL     1      13.618   1.189  16.880  1.00  0.00     0.040 C 
ENDBRANCH  23  24
ENDBRANCH   1  23
TORSDOF 8
ENDMDL
MODEL 4
REMARK VINA RESULT: -6.569067173      2.144      6.193
REMARK  8 active torsions:
REMARK  status: ('A' for Active; 'I' for Inactive)
REMARK    1  A    between atoms: C2_2  and  O1_4 
REMARK    2  A    between atoms: O1_4  and  C4_5 
REMARK       I    between atoms: C4_5  and  N1_7 
REMARK    3  A    between atoms: N3_15  and  C10_16 
REMARK    4  A    between atoms: C10_16  and  O3_17 
REMARK    5  A    between atoms: C10_16  and  N4_19 
REMARK    6  A    between atoms: N4_19  and  C12_21 
REMARK    7  A    between atoms: C12_21  and  C13_22 
REMARK    8  A    between atoms: C13_22  and  O4_23 
ROOT
HETATM    1  C4  UNL     1      19.100   1.608  11.740  1.00  0.00     0.363 C 
HETATM    2  O2  UNL     1      20.312   1.353  11.476  1.00  0.00    -0.238 OA
HETATM    3  N1  UNL     1      18.630   2.970  11.853  1.00  0.00    -0.325 N 
HETATM    4  C5  UNL     1      19.555   4.023  11.659  1.00  0.00     0.147 C 
HETATM    5  C6  UNL     1      19.126   5.365  12.161  1.00  0.00     0.133 C 
HETATM    6  N2  UNL     1      19.348   5.623  13.532  1.00  0.00    -0.420 N 
ATOM      7  H2  UNL     1      20.213   6.068  13.838  1.00  0.00     0.153 HD
HETATM    8  C7  UNL     1      18.357   5.256  14.480  1.00  0.00     0.115 C 
HETATM    9  C8  UNL     1      16.964   5.691  14.204  1.00  0.00     0.039 C 
HETATM   10  C9  UNL     1      15.920   4.595  14.266  1.00  0.00     0.128 C 
HETATM   11  N3  UNL     1      16.421   3.293  14.529  1.00  0.00    -0.346 N 
HETATM   12  C14 UNL     1      16.949   2.453  13.433  1.00  0.00     0.146 C 
HETATM   13  C15 UNL     1      17.221   3.121  12.161  1.00  0.00     0.148 C 
ENDROOT
BRANCH  11  14
HETATM   14  C10 UNL     1      16.466   2.685  15.773  1.00  0.00     0.216 C 
BRANCH  14  15
HETATM   15  O3  UNL     1      17.620   2.134  16.077  1.00  0.00    -0.333 OA
ATOM     16  H3  UNL     1      17.675   1.202  15.900  1.00  0.00     0.220 HD
ENDBRANCH  14  15
BRANCH  14  17
HETATM   17  N4  UNL     1      15.492   2.556  16.763  1.00  0.00    -0.350 N 
HETATM   18  C11 UNL     1      14.246   3.248  16.886  1.00  0.00     0.153 C 
BRANCH  17  19
HETATM   19  C12 UNL     1      15.730   1.565  17.866  1.00  0.00     0.151 C 
BRANCH  19  20
HETATM   20  C13 UNL     1      15.031   0.276  17.527  1.00  0.00     0.183 C 
BRANCH  20  21
HETATM   21  O4  UNL     1      15.864  -0.451  16.680  1.00  0.00    -0.399 OA
ATOM     22  H4  UNL     1      15.731  -1.374  16.863  1.00  0.00     0.209 HD
ENDBRANCH  20  21
ENDBRANCH  19  20
ENDBRANCH  17  19
ENDBRANCH  14  17
ENDBRANCH  11  14
BRANCH   1  23
HETATM   23  O1  UNL     1      18.267   0.514  11.912  1.00  0.00    -0.299 OA
BRANCH  23  24
HETATM   24  C2  UNL     1      17.979  -0.422  10.907  1.00  0.00     0.125 C 
HETATM   25  C1  UNL     1      16.564  -0.195  10.435  1.00  0.00     0.040 C 
HETATM   26  C3  UNL     1      18.150  -1.844  11.403  1.00  0.00     0.040 C 
ENDBRANCH  23  24
ENDBRANCH   1  23
TORSDOF 8
ENDMDL
MODEL 5
REMARK VINA RESULT: -6.428850723      2.213      6.125
REMARK  8 active torsions:
REMARK  status: ('A' for Active; 'I' for Inactive)
REMARK    1  A    between atoms: C2_2  and  O1_4 
REMARK    2  A    between atoms: O1_4  and  C4_5 
REMARK       I    between atoms: C4_5  and  N1_7 
REMARK    3  A    between atoms: N3_15  and  C10_16 
REMARK    4  A    between atoms: C10_16  and  O3_17 
REMARK    5  A    between atoms: C10_16  and  N4_19 
REMARK    6  A    between atoms: N4_19  and  C12_21 
REMARK    7  A    between atoms: C12_21  and  C13_22 
REMARK    8  A    between atoms: C13_22  and  O4_23 
ROOT
HETATM    1  C4  UNL     1      18.963   2.029  11.900  1.00  0.00     0.363 C 
HETATM    2  O2  UNL     1      20.130   1.536  11.909  1.00  0.00    -0.238 OA
HETATM    3  N1  UNL     1      18.754   3.458  11.947  1.00  0.00    -0.325 N 
HETATM    4  C5  UNL     1      19.886   4.306  12.002  1.00  0.00     0.147 C 
HETATM    5  C6  UNL     1      19.624   5.712  12.438  1.00  0.00     0.133 C 
HETATM    6  N2  UNL     1      19.573   5.939  13.831  1.00  0.00    -0.420 N 
ATOM      7  H2  UNL     1      20.414   6.209  14.339  1.00  0.00     0.153 HD
HETATM    8  C7  UNL     1      18.339   5.787  14.517  1.00  0.00     0.115 C 
HETATM    9  C8  UNL     1      17.159   6.485  13.947  1.00  0.00     0.039 C 
HETATM   10  C9  UNL     1      15.934   5.617  13.735  1.00  0.00     0.128 C 
HETATM   11  N3  UNL     1      16.099   4.245  14.062  1.00  0.00    -0.346 N 
HETATM   12  C14 UNL     1      16.689   3.304  13.088  1.00  0.00     0.146 C 
HETATM   13  C15 UNL     1      17.370   3.888  11.933  1.00  0.00     0.148 C 
ENDROOT
BRANCH  11  14
HETATM   14  C10 UNL     1      15.739   3.657  15.264  1.00  0.00     0.216 C 
BRANCH  14  15
HETATM   15  O3  UNL     1      14.856   4.331  15.966  1.00  0.00    -0.333 OA
ATOM     16  H3  UNL     1      14.658   3.961  16.819  1.00  0.00     0.220 HD
ENDBRANCH  14  15
BRANCH  14  17
HETATM   17  N4  UNL     1      16.156   2.467  15.860  1.00  0.00    -0.350 N 
HETATM   18  C11 UNL     1      17.489   2.024  16.135  1.00  0.00     0.153 C 
BRANCH  17  19
HETATM   19  C12 UNL     1      15.106   1.488  16.299  1.00  0.00     0.151 C 
BRANCH  19  20
HETATM   20  C13 UNL     1      15.537   0.852  17.593  1.00  0.00     0.183 C 
BRANCH  20  21
HETATM   21  O4  UNL     1      15.400  -0.527  17.458  1.00  0.00    -0.399 OA
ATOM     22  H4  UNL     1      15.911  -0.939  18.144  1.00  0.00     0.209 HD
ENDBRANCH  20  21
ENDBRANCH  19  20
ENDBRANCH  17  19
ENDBRANCH  14  17
ENDBRANCH  11  14
BRANCH   1  23
HETATM   23  O1  UNL     1      17.916   1.123  11.843  1.00  0.00    -0.299 OA
BRANCH  23  24
HETATM   24  C2  UNL     1      17.787   0.129  10.861  1.00  0.00     0.125 C 
HETATM   25  C1  UNL     1      16.373   0.157  10.336  1.00  0.00     0.040 C 
HETATM   26  C3  UNL     1      18.121  -1.244  11.409  1.00  0.00     0.040 C 
ENDBRANCH  23  24
ENDBRANCH   1  23
TORSDOF 8
ENDMDL
