MODEL 1
REMARK VINA RESULT: -7.757576696      0.000      0.000
REMARK  3 active torsions:
REMARK  status: ('A' for Active; 'I' for Inactive)
REMARK       I    between atoms: C1_2  and  N2_4 
REMARK    1  A    between atoms: N2_4  and  O2_5 
REMARK       I    between atoms: N2_4  and  C2_7 
REMARK       I    between atoms: C2_7  and  N3_9 
REMARK    2  A    between atoms: C9_16  and  S1_17 
REMARK    3  A    between atoms: S1_17  and  N4_19 
ROOT
HETATM    1  N1  UNL     1      16.214  -0.035  17.080  1.00  0.00    -0.037 NA
HETATM    2  C1  UNL     1      16.823   0.878  16.193  1.00  0.00     0.363 C 
HETATM    3  O1  UNL     1      17.326   1.910  16.688  1.00  0.00    -0.248 OA
HETATM    4  N2  UNL     1      16.894   0.687  14.767  1.00  0.00    -0.121 N 
HETATM    5  C2  UNL     1      17.519   1.651  13.968  1.00  0.00     0.353 C 
HETATM    6  O3  UNL     1      17.992   2.682  14.592  1.00  0.00    -0.244 OA
HETATM    7  N3  UNL     1      17.715   1.674  12.582  1.00  0.00    -0.321 N 
HETATM    8  C3  UNL     1      17.298   0.582  11.744  1.00  0.00     0.129 C 
HETATM    9  C4  UNL     1      18.421   0.386  10.712  1.00  0.00     0.020 C 
HETATM   10  C5  UNL     1      19.747   0.839  11.233  1.00  0.00     0.004 C 
HETATM   11  C6  UNL     1      19.722   2.331  11.498  1.00  0.00     0.033 C 
HETATM   12  C7  UNL     1      18.326   2.776  11.873  1.00  0.00     0.054 A 
HETATM   13  C8  UNL     1      17.536   3.371  10.746  1.00  0.00     0.054 A 
HETATM   14  C9  UNL     1      18.033   4.174  11.991  1.00  0.00     0.126 A 
ENDROOT
BRANCH  14  15
HETATM   15  S1  UNL     1      16.717   4.917  12.878  1.00  0.00     0.098 S 
HETATM   16  O4  UNL     1      16.183   6.358  12.147  1.00  0.00    -0.241 OA
BRANCH  15  17
HETATM   17  N4  UNL     1      17.304   5.374  14.435  1.00  0.00    -0.233 NA
HETATM   18  C10 UNL     1      18.513   6.131  14.381  1.00  0.00     0.105 C 
HETATM   19  C11 UNL     1      18.243   7.489  14.949  1.00  0.00     0.017 C 
HETATM   20  C12 UNL     1      16.965   7.349  15.714  1.00  0.00     0.017 C 
HETATM   21  C13 UNL     1      16.343   6.084  15.211  1.00  0.00     0.105 C 
ENDBRANCH  15  17
ENDBRANCH  14  15
BRANCH   4  22
HETATM   22  O2  UNL     1      16.321  -0.457  14.340  1.00  0.00    -0.275 OA
ATOM     23  H2  UNL     1      16.890  -0.995  13.802  1.00  0.00     0.245 HD
ENDBRANCH   4  22
TORSDOF 3
ENDMDL
MODEL 2
REMARK VINA RESULT: -7.723352226      2.391      5.483
REMARK  3 active torsions:
REMARK  status: ('A' for Active; 'I' for Inactive)
REMARK       I    between atoms: C1_2  and  N2_4 
REMARK    1  A    between atoms: N2_4  and  O2_5 
REMARK       I    between atoms: N2_4  and  C2_7 
REMARK       I    between atoms: C2_7  and  N3_9 
REMARK    2  A    between atoms: C9_16  and  S1_17 
REMARK    3  A    between atoms: S1_17  and  N4_19 
ROOT
HETATM    1  N1  UNL     1      19.831   1.842   9.640  1.00  0.00    -0.037 NA
HETATM    2  C1  UNL     1      19.470   2.442  10.865  1.00  0.00     0.363 C 
HETATM    3  O1  UNL     1      19.911   1.918  11.911  1.00  0.00    -0.248 OA
HETATM    4  N2  UNL     1      18.632   3.608  10.973  1.00  0.00    -0.121 N 
HETATM    5  C2  UNL     1      18.329   4.131  12.235  1.00  0.00     0.353 C 
HETATM    6  O3  UNL     1      18.833   3.497  13.245  1.00  0.00    -0.244 OA
HETATM    7  N3  UNL     1      17.555   5.246  12.579  1.00  0.00    -0.321 N 
HETATM    8  C3  UNL     1      16.966   6.091  11.577  1.00  0.00     0.129 C 
HETATM    9  C4  UNL     1      17.141   7.533  12.082  1.00  0.00     0.020 C 
HETATM   10  C5  UNL     1      18.326   7.672  12.982  1.00  0.00     0.004 C 
HETATM   11  C6  UNL     1      18.129   6.845  14.237  1.00  0.00     0.033 C 
HETATM   12  C7  UNL     1      17.268   5.637  13.941  1.00  0.00     0.054 A 
HETATM   13  C8  UNL     1      15.822   5.797  14.304  1.00  0.00     0.054 A 
HETATM   14  C9  UNL     1      16.804   4.813  15.018  1.00  0.00     0.126 A 
ENDROOT
BRANCH  14  15
HETATM   15  S1  UNL     1      16.265   3.148  14.933  1.00  0.00     0.098 S 
HETATM   16  O4  UNL     1      14.836   2.981  14.025  1.00  0.00    -0.241 OA
BRANCH  15  17
HETATM   17  N4  UNL     1      15.868   2.626  16.529  1.00  0.00    -0.233 NA
HETATM   18  C10 UNL     1      14.466   2.650  16.796  1.00  0.00     0.105 C 
HETATM   19  C11 UNL     1      14.016   1.248  17.070  1.00  0.00     0.017 C 
HETATM   20  C12 UNL     1      15.268   0.485  17.368  1.00  0.00     0.017 C 
HETATM   21  C13 UNL     1      16.381   1.335  16.841  1.00  0.00     0.105 C 
ENDBRANCH  15  17
ENDBRANCH  14  15
BRANCH   4  22
HETATM   22  O2  UNL     1      18.212   4.090   9.785  1.00  0.00    -0.275 OA
ATOM     23  H2  UNL     1      18.517   4.970   9.597  1.00  0.00     0.245 HD
ENDBRANCH   4  22
TORSDOF 3
ENDMDL
MODEL 3
REMARK VINA RESULT: -7.673088109      2.365      4.604
REMARK  3 active torsions:
REMARK  status: ('A' for Active; 'I' for Inactive)
REMARK       I    between atoms: C1_2  and  N2_4 
REMARK    1  A    between atoms: N2_4  and  O2_5 
REMARK       I    between atoms: N2_4  and  C2_7 
REMARK       I    between atoms: C2_7  and  N3_9 
REMARK    2  A    between atoms: C9_16  and  S1_17 
REMARK    3  A    between atoms: S1_17  and  N4_19 
ROOT
HETATM    1  N1  UNL     1      16.402  -0.585  10.355  1.00  0.00    -0.037 NA
HETATM    2  C1  UNL     1      16.784   0.235  11.438  1.00  0.00     0.363 C 
HETATM    3  O1  UNL     1      16.892  -0.310  12.559  1.00  0.00    -0.248 OA
HETATM    4  N2  UNL     1      17.054   1.644  11.324  1.00  0.00    -0.121 N 
HETATM    5  C2  UNL     1      17.427   2.374  12.457  1.00  0.00     0.353 C 
HETATM    6  O3  UNL     1      17.493   1.705  13.564  1.00  0.00    -0.244 OA
HETATM    7  N3  UNL     1      17.744   3.733  12.583  1.00  0.00    -0.321 N 
HETATM    8  C3  UNL     1      17.771   4.608  11.443  1.00  0.00     0.129 C 
HETATM    9  C4  UNL     1      18.996   5.516  11.633  1.00  0.00     0.020 C 
HETATM   10  C5  UNL     1      20.059   4.860  12.456  1.00  0.00     0.004 C 
HETATM   11  C6  UNL     1      19.548   4.600  13.858  1.00  0.00     0.033 C 
HETATM   12  C7  UNL     1      18.052   4.374  13.841  1.00  0.00     0.054 A 
HETATM   13  C8  UNL     1      17.234   5.579  14.200  1.00  0.00     0.054 A 
HETATM   14  C9  UNL     1      17.331   4.289  15.077  1.00  0.00     0.126 A 
ENDROOT
BRANCH  14  15
HETATM   15  S1  UNL     1      15.768   3.547  15.351  1.00  0.00     0.098 S 
HETATM   16  O4  UNL     1      14.544   4.701  15.607  1.00  0.00    -0.241 OA
BRANCH  15  17
HETATM   17  N4  UNL     1      15.855   2.628  16.811  1.00  0.00    -0.233 NA
HETATM   18  C10 UNL     1      14.591   2.480  17.458  1.00  0.00     0.105 C 
HETATM   19  C11 UNL     1      14.246   1.024  17.485  1.00  0.00     0.017 C 
HETATM   20  C12 UNL     1      15.533   0.309  17.217  1.00  0.00     0.017 C 
HETATM   21  C13 UNL     1      16.441   1.343  16.631  1.00  0.00     0.105 C 
ENDBRANCH  15  17
ENDBRANCH  14  15
BRANCH   4  22
HETATM   22  O2  UNL     1      16.908   2.128  10.073  1.00  0.00    -0.275 OA
ATOM     23  H2  UNL     1      17.429   2.903   9.897  1.00  0.00     0.245 HD
ENDBRANCH   4  22
TORSDOF 3
ENDMDL
MODEL 4
REMARK VINA RESULT: -7.324773407      2.352      4.958
REMARK  3 active torsions:
REMARK  status: ('A' for Active; 'I' for Inactive)
REMARK       I    between atoms: C1_2  and  N2_4 
REMARK    1  A    between atoms: N2_4  and  O2_5 
REMARK       I    between atoms: N2_4  and  C2_7 
REMARK       I    between atoms: C2_7  and  N3_9 
REMARK    2  A    between atoms: C9_16  and  S1_17 
REMARK    3  A    between atoms: S1_17  and  N4_19 
ROOT
HETATM    1  N1  UNL     1      18.684   0.376   9.953  1.00  0.00    -0.037 NA
HETATM    2  C1  UNL     1      18.585   1.170  11.116  1.00  0.00     0.363 C 
HETATM    3  O1  UNL     1      18.655   0.583  12.218  1.00  0.00    -0.248 OA
HETATM    4  N2  UNL     1      18.411   2.599  11.101  1.00  0.00    -0.121 N 
HETATM    5  C2  UNL     1      18.323   3.301  12.308  1.00  0.00     0.353 C 
HETATM    6  O3  UNL     1      18.396   2.585  13.384  1.00  0.00    -0.244 OA
HETATM    7  N3  UNL     1      18.165   4.674  12.536  1.00  0.00    -0.321 N 
HETATM    8  C3  UNL     1      18.120   5.617  11.452  1.00  0.00     0.129 C 
HETATM    9  C4  UNL     1      18.940   6.833  11.912  1.00  0.00     0.020 C 
HETATM   10  C5  UNL     1      19.988   6.458  12.910  1.00  0.00     0.004 C 
HETATM   11  C6  UNL     1      19.341   5.928  14.174  1.00  0.00     0.033 C 
HETATM   12  C7  UNL     1      18.022   5.260  13.850  1.00  0.00     0.054 A 
HETATM   13  C8  UNL     1      16.814   6.121  14.074  1.00  0.00     0.054 A 
HETATM   14  C9  UNL     1      17.154   4.847  14.912  1.00  0.00     0.126 A 
ENDROOT
BRANCH  14  15
HETATM   15  S1  UNL     1      15.883   3.642  14.845  1.00  0.00     0.098 S 
HETATM   16  O4  UNL     1      14.370   4.324  14.472  1.00  0.00    -0.241 OA
BRANCH  15  17
HETATM   17  N4  UNL     1      15.709   2.952  16.418  1.00  0.00    -0.233 NA
HETATM   18  C10 UNL     1      14.347   2.790  16.813  1.00  0.00     0.105 C 
HETATM   19  C11 UNL     1      14.083   1.327  16.999  1.00  0.00     0.017 C 
HETATM   20  C12 UNL     1      15.435   0.696  17.112  1.00  0.00     0.017 C 
HETATM   21  C13 UNL     1      16.389   1.710  16.564  1.00  0.00     0.105 C 
ENDBRANCH  15  17
ENDBRANCH  14  15
BRANCH   4  22
HETATM   22  O2  UNL     1      18.348   3.129   9.861  1.00  0.00    -0.275 OA
ATOM     23  H2  UNL     1      18.895   3.897   9.743  1.00  0.00     0.245 HD
ENDBRANCH   4  22
TORSDOF 3
ENDMDL
MODEL 5
REMARK VINA RESULT: -7.198967993      1.164      1.443
REMARK  3 active torsions:
REMARK  status: ('A' for Active; 'I' for Inactive)
REMARK       I    between atoms: C1_2  and  N2_4 
REMARK    1  A    between atoms: N2_4  and  O2_5 
REMARK       I    between atoms: N2_4  and  C2_7 
REMARK       I    between atoms: C2_7  and  N3_9 
REMARK    2  A    between atoms: C9_16  and  S1_17 
REMARK    3  A    between atoms: S1_17  and  N4_19 
ROOT
HETATM    1  N1  UNL     1      16.146   0.088  16.024  1.00  0.00    -0.037 NA
HETATM    2  C1  UNL     1      16.813   1.144  15.365  1.00  0.00     0.363 C 
HETATM    3  O1  UNL     1      17.126   2.141  16.052  1.00  0.00    -0.248 OA
HETATM    4  N2  UNL     1      17.148   1.133  13.965  1.00  0.00    -0.121 N 
HETATM    5  C2  UNL     1      17.811   2.229  13.402  1.00  0.00     0.353 C 
HETATM    6  O3  UNL     1      18.072   3.208  14.208  1.00  0.00    -0.244 OA
HETATM    7  N3  UNL     1      18.241   2.435  12.085  1.00  0.00    -0.321 N 
HETATM    8  C3  UNL     1      18.078   1.426  11.074  1.00  0.00     0.129 C 
HETATM    9  C4  UNL     1      19.376   1.438  10.249  1.00  0.00     0.020 C 
HETATM   10  C5  UNL     1      20.545   1.917  11.050  1.00  0.00     0.004 C 
HETATM   11  C6  UNL     1      20.337   3.360  11.464  1.00  0.00     0.033 C 
HETATM   12  C7  UNL     1      18.862   3.656  11.622  1.00  0.00     0.054 A 
HETATM   13  C8  UNL     1      18.228   4.326  10.440  1.00  0.00     0.054 A 
HETATM   14  C9  UNL     1      18.425   5.004  11.834  1.00  0.00     0.126 A 
ENDROOT
BRANCH  14  15
HETATM   15  S1  UNL     1      16.913   5.538  12.539  1.00  0.00     0.098 S 
HETATM   16  O4  UNL     1      15.791   6.029  11.357  1.00  0.00    -0.241 OA
BRANCH  15  17
HETATM   17  N4  UNL     1      17.227   6.941  13.494  1.00  0.00    -0.233 NA
HETATM   18  C10 UNL     1      17.756   6.636  14.785  1.00  0.00     0.105 C 
HETATM   19  C11 UNL     1      19.130   7.224  14.880  1.00  0.00     0.017 C 
HETATM   20  C12 UNL     1      19.205   8.229  13.774  1.00  0.00     0.017 C 
HETATM   21  C13 UNL     1      18.082   7.879  12.849  1.00  0.00     0.105 C 
ENDBRANCH  15  17
ENDBRANCH  14  15
BRANCH   4  22
HETATM   22  O2  UNL     1      16.765   0.012  13.320  1.00  0.00    -0.275 OA
ATOM     23  H2  UNL     1      15.885  -0.274  13.535  1.00  0.00     0.245 HD
ENDBRANCH   4  22
TORSDOF 3
ENDMDL
