MODEL 1
REMARK VINA RESULT: -7.848683370      0.000      0.000
REMARK  4 active torsions:
REMARK  status: ('A' for Active; 'I' for Inactive)
REMARK       I    between atoms: C1_2  and  N1_3 
REMARK    1  A    between atoms: C1_2  and  C7_12 
REMARK    2  A    between atoms: N1_3  and  C2_5 
REMARK    3  A    between atoms: C7_12  and  C8_13 
REMARK    4  A    between atoms: C7_12  and  N5_21 
REMARK       I    between atoms: C8_13  and  N3_15 
ROOT
HETATM    1  C7  UNL     1      16.883   1.779  14.736  1.00  0.00     0.274 C 
ENDROOT
BRANCH   1   2
HETATM    2  C1  UNL     1      17.910   2.831  15.060  1.00  0.00     0.255 C 
HETATM    3  O1  UNL     1      18.516   2.774  16.147  1.00  0.00    -0.270 OA
HETATM    4  N1  UNL     1      18.221   3.889  14.181  1.00  0.00    -0.311 N 
ATOM      5  H1  UNL     1      18.462   3.638  13.222  1.00  0.00     0.170 HD
BRANCH   4   6
HETATM    6  C2  UNL     1      18.229   5.128  14.473  1.00  0.00     0.107 A 
HETATM    7  C3  UNL     1      17.190   5.842  15.027  1.00  0.00     0.048 A 
HETATM    8  C4  UNL     1      17.276   7.180  15.318  1.00  0.00     0.005 A 
HETATM    9  C5  UNL     1      18.437   7.860  15.053  1.00  0.00     0.017 A 
HETATM   10  C6  UNL     1      19.464   7.131  14.500  1.00  0.00     0.089 A 
HETATM   11  N2  UNL     1      19.379   5.826  14.218  1.00  0.00    -0.352 N 
ATOM     12  H2  UNL     1      20.180   5.345  13.808  1.00  0.00     0.166 HD
ENDBRANCH   4   6
ENDBRANCH   1   2
BRANCH   1  13
HETATM   13  C8  UNL     1      16.535   1.860  13.319  1.00  0.00     0.268 C 
HETATM   14  O2  UNL     1      15.881   2.857  12.867  1.00  0.00    -0.269 OA
HETATM   15  N3  UNL     1      16.882   0.863  12.355  1.00  0.00    -0.259 N 
HETATM   16  C9  UNL     1      16.503   1.088  10.995  1.00  0.00     0.174 C 
HETATM   17  N4  UNL     1      17.542  -0.304  12.699  1.00  0.00    -0.110 NA
HETATM   18  C10 UNL     1      16.934   0.049  10.009  1.00  0.00     0.191 C 
HETATM   19  O3  UNL     1      17.878  -0.850  10.444  1.00  0.00    -0.372 OA
HETATM   20  C11 UNL     1      17.477  -1.329  11.694  1.00  0.00     0.302 C 
ENDBRANCH   1  13
BRANCH   1  21
HETATM   21  N5  UNL     1      15.852   1.838  15.683  1.00  0.00    -0.352 N 
HETATM   22  C12 UNL     1      15.658   0.784  16.561  1.00  0.00     0.065 A 
HETATM   23  C13 UNL     1      14.649   1.283  17.560  1.00  0.00     0.050 A 
HETATM   24  C14 UNL     1      14.285   2.679  17.129  1.00  0.00     0.050 A 
HETATM   25  C15 UNL     1      15.148   2.988  15.926  1.00  0.00     0.065 A 
ENDBRANCH   1  21
TORSDOF 4
ENDMDL
MODEL 2
REMARK VINA RESULT: -7.778429571      1.869      5.818
REMARK  4 active torsions:
REMARK  status: ('A' for Active; 'I' for Inactive)
REMARK       I    between atoms: C1_2  and  N1_3 
REMARK    1  A    between atoms: C1_2  and  C7_12 
REMARK    2  A    between atoms: N1_3  and  C2_5 
REMARK    3  A    between atoms: C7_12  and  C8_13 
REMARK    4  A    between atoms: C7_12  and  N5_21 
REMARK       I    between atoms: C8_13  and  N3_15 
ROOT
HETATM    1  C7  UNL     1      17.408   4.240  14.656  1.00  0.00     0.274 C 
ENDROOT
BRANCH   1   2
HETATM    2  C1  UNL     1      17.420   3.667  13.264  1.00  0.00     0.255 C 
HETATM    3  O1  UNL     1      16.516   3.986  12.468  1.00  0.00    -0.270 OA
HETATM    4  N1  UNL     1      18.416   2.776  12.814  1.00  0.00    -0.311 N 
ATOM      5  H1  UNL     1      19.386   3.066  12.937  1.00  0.00     0.170 HD
BRANCH   4   6
HETATM    6  C2  UNL     1      18.217   1.643  12.269  1.00  0.00     0.107 A 
HETATM    7  C3  UNL     1      18.806   1.179  11.114  1.00  0.00     0.048 A 
HETATM    8  C4  UNL     1      18.541  -0.061  10.587  1.00  0.00     0.005 A 
HETATM    9  C5  UNL     1      17.654  -0.891  11.219  1.00  0.00     0.017 A 
HETATM   10  C6  UNL     1      17.074  -0.412  12.371  1.00  0.00     0.089 A 
HETATM   11  N2  UNL     1      17.334   0.796  12.884  1.00  0.00    -0.352 N 
ATOM     12  H2  UNL     1      16.869   1.091  13.743  1.00  0.00     0.166 HD
ENDBRANCH   4   6
ENDBRANCH   1   2
BRANCH   1  13
HETATM   13  C8  UNL     1      16.107   3.993  15.272  1.00  0.00     0.268 C 
HETATM   14  O2  UNL     1      15.232   4.918  15.335  1.00  0.00    -0.269 OA
HETATM   15  N3  UNL     1      15.718   2.739  15.839  1.00  0.00    -0.259 N 
HETATM   16  C9  UNL     1      14.400   2.630  16.381  1.00  0.00     0.174 C 
HETATM   17  N4  UNL     1      16.575   1.654  15.897  1.00  0.00    -0.110 NA
HETATM   18  C10 UNL     1      14.013   1.287  16.913  1.00  0.00     0.191 C 
HETATM   19  O3  UNL     1      14.834   0.238  16.574  1.00  0.00    -0.372 OA
HETATM   20  C11 UNL     1      16.155   0.627  16.810  1.00  0.00     0.302 C 
ENDBRANCH   1  13
BRANCH   1  21
HETATM   21  N5  UNL     1      17.891   5.555  14.615  1.00  0.00    -0.352 N 
HETATM   22  C12 UNL     1      17.202   6.565  15.265  1.00  0.00     0.065 A 
HETATM   23  C13 UNL     1      18.112   7.763  15.210  1.00  0.00     0.050 A 
HETATM   24  C14 UNL     1      19.334   7.328  14.444  1.00  0.00     0.050 A 
HETATM   25  C15 UNL     1      19.137   5.861  14.133  1.00  0.00     0.065 A 
ENDBRANCH   1  21
TORSDOF 4
ENDMDL
MODEL 3
REMARK VINA RESULT: -7.663548055      2.869      5.206
REMARK  4 active torsions:
REMARK  status: ('A' for Active; 'I' for Inactive)
REMARK       I    between atoms: C1_2  and  N1_3 
REMARK    1  A    between atoms: C1_2  and  C7_12 
REMARK    2  A    between atoms: N1_3  and  C2_5 
REMARK    3  A    between atoms: C7_12  and  C8_13 
REMARK    4  A    between atoms: C7_12  and  N5_21 
REMARK       I    between atoms: C8_13  and  N3_15 
ROOT
HETATM    1  C7  UNL     1      17.522   3.306  12.407  1.00  0.00     0.274 C 
ENDROOT
BRANCH   1   2
HETATM    2  C1  UNL     1      16.946   2.142  13.167  1.00  0.00     0.255 C 
HETATM    3  O1  UNL     1      16.167   1.362  12.586  1.00  0.00    -0.270 OA
HETATM    4  N1  UNL     1      17.249   1.890  14.521  1.00  0.00    -0.311 N 
ATOM      5  H1  UNL     1      18.237   1.846  14.773  1.00  0.00     0.170 HD
BRANCH   4   6
HETATM    6  C2  UNL     1      16.405   1.711  15.457  1.00  0.00     0.107 A 
HETATM    7  C3  UNL     1      15.401   2.579  15.826  1.00  0.00     0.048 A 
HETATM    8  C4  UNL     1      14.525   2.314  16.849  1.00  0.00     0.005 A 
HETATM    9  C5  UNL     1      14.634   1.141  17.550  1.00  0.00     0.017 A 
HETATM   10  C6  UNL     1      15.642   0.286  17.168  1.00  0.00     0.089 A 
HETATM   11  N2  UNL     1      16.495   0.546  16.170  1.00  0.00    -0.352 N 
ATOM     12  H2  UNL     1      17.221  -0.132  15.938  1.00  0.00     0.166 HD
ENDBRANCH   4   6
ENDBRANCH   1   2
BRANCH   1  13
HETATM   13  C8  UNL     1      18.735   2.879  11.712  1.00  0.00     0.268 C 
HETATM   14  O2  UNL     1      19.493   1.987  12.216  1.00  0.00    -0.269 OA
HETATM   15  N3  UNL     1      19.161   3.410  10.454  1.00  0.00    -0.259 N 
HETATM   16  C9  UNL     1      20.354   2.877   9.873  1.00  0.00     0.174 C 
HETATM   17  N4  UNL     1      18.476   4.422   9.805  1.00  0.00    -0.110 NA
HETATM   18  C10 UNL     1      20.735   3.418   8.532  1.00  0.00     0.191 C 
HETATM   19  O3  UNL     1      19.771   4.143   7.872  1.00  0.00    -0.372 OA
HETATM   20  C11 UNL     1      19.234   5.069   8.770  1.00  0.00     0.302 C 
ENDBRANCH   1  13
BRANCH   1  21
HETATM   21  N5  UNL     1      17.593   4.418  13.256  1.00  0.00    -0.352 N 
HETATM   22  C12 UNL     1      18.825   4.883  13.686  1.00  0.00     0.065 A 
HETATM   23  C13 UNL     1      18.537   6.195  14.366  1.00  0.00     0.050 A 
HETATM   24  C14 UNL     1      17.045   6.382  14.302  1.00  0.00     0.050 A 
HETATM   25  C15 UNL     1      16.504   5.207  13.519  1.00  0.00     0.065 A 
ENDBRANCH   1  21
TORSDOF 4
ENDMDL
MODEL 4
REMARK VINA RESULT: -7.608801236      3.419      5.472
REMARK  4 active torsions:
REMARK  status: ('A' for Active; 'I' for Inactive)
REMARK       I    between atoms: C1_2  and  N1_3 
REMARK    1  A    between atoms: C1_2  and  C7_12 
REMARK    2  A    between atoms: N1_3  and  C2_5 
REMARK    3  A    between atoms: C7_12  and  C8_13 
REMARK    4  A    between atoms: C7_12  and  N5_21 
REMARK       I    between atoms: C8_13  and  N3_15 
ROOT
HETATM    1  C7  UNL     1      18.267   3.011  11.361  1.00  0.00     0.274 C 
ENDROOT
BRANCH   1   2
HETATM    2  C1  UNL     1      18.034   3.339  12.812  1.00  0.00     0.255 C 
HETATM    3  O1  UNL     1      18.996   3.705  13.515  1.00  0.00    -0.270 OA
HETATM    4  N1  UNL     1      16.765   3.249  13.420  1.00  0.00    -0.311 N 
ATOM      5  H1  UNL     1      15.997   3.739  12.960  1.00  0.00     0.170 HD
BRANCH   4   6
HETATM    6  C2  UNL     1      16.488   2.614  14.488  1.00  0.00     0.107 A 
HETATM    7  C3  UNL     1      15.517   2.946  15.406  1.00  0.00     0.048 A 
HETATM    8  C4  UNL     1      15.276   2.208  16.537  1.00  0.00     0.005 A 
HETATM    9  C5  UNL     1      16.023   1.086  16.787  1.00  0.00     0.017 A 
HETATM   10  C6  UNL     1      16.989   0.769  15.860  1.00  0.00     0.089 A 
HETATM   11  N2  UNL     1      17.222   1.490  14.758  1.00  0.00    -0.352 N 
ATOM     12  H2  UNL     1      17.954   1.199  14.110  1.00  0.00     0.166 HD
ENDBRANCH   4   6
ENDBRANCH   1   2
BRANCH   1  13
HETATM   13  C8  UNL     1      17.609   4.013  10.526  1.00  0.00     0.268 C 
HETATM   14  O2  UNL     1      16.414   4.383  10.774  1.00  0.00    -0.269 OA
HETATM   15  N3  UNL     1      18.226   4.639   9.397  1.00  0.00    -0.259 N 
HETATM   16  C9  UNL     1      17.474   5.627   8.687  1.00  0.00     0.174 C 
HETATM   17  N4  UNL     1      19.498   4.306   8.967  1.00  0.00    -0.110 NA
HETATM   18  C10 UNL     1      18.174   6.298   7.549  1.00  0.00     0.191 C 
HETATM   19  O3  UNL     1      19.535   6.116   7.479  1.00  0.00    -0.372 OA
HETATM   20  C11 UNL     1      19.799   4.753   7.635  1.00  0.00     0.302 C 
ENDBRANCH   1  13
BRANCH   1  21
HETATM   21  N5  UNL     1      17.972   1.659  11.143  1.00  0.00    -0.352 N 
HETATM   22  C12 UNL     1      18.923   0.690  11.419  1.00  0.00     0.065 A 
HETATM   23  C13 UNL     1      18.196  -0.622  11.297  1.00  0.00     0.050 A 
HETATM   24  C14 UNL     1      16.784  -0.285  10.896  1.00  0.00     0.050 A 
HETATM   25  C15 UNL     1      16.703   1.225  10.865  1.00  0.00     0.065 A 
ENDBRANCH   1  21
TORSDOF 4
ENDMDL
MODEL 5
REMARK VINA RESULT: -7.590318460      2.924      5.242
REMARK  4 active torsions:
REMARK  status: ('A' for Active; 'I' for Inactive)
REMARK       I    between atoms: C1_2  and  N1_3 
REMARK    1  A    between atoms: C1_2  and  C7_12 
REMARK    2  A    between atoms: N1_3  and  C2_5 
REMARK    3  A    between atoms: C7_12  and  C8_13 
REMARK    4  A    between atoms: C7_12  and  N5_21 
REMARK       I    between atoms: C8_13  and  N3_15 
ROOT
HETATM    1  C7  UNL     1      17.580   3.746  12.377  1.00  0.00     0.274 C 
ENDROOT
BRANCH   1   2
HETATM    2  C1  UNL     1      16.813   2.627  13.029  1.00  0.00     0.255 C 
HETATM    3  O1  UNL     1      15.778   2.200  12.482  1.00  0.00    -0.270 OA
HETATM    4  N1  UNL     1      17.214   2.034  14.244  1.00  0.00    -0.311 N 
ATOM      5  H1  UNL     1      18.176   1.699  14.299  1.00  0.00     0.170 HD
BRANCH   4   6
HETATM    6  C2  UNL     1      16.488   1.878  15.278  1.00  0.00     0.107 A 
HETATM    7  C3  UNL     1      16.611   0.880  16.218  1.00  0.00     0.048 A 
HETATM    8  C4  UNL     1      15.788   0.779  17.312  1.00  0.00     0.005 A 
HETATM    9  C5  UNL     1      14.790   1.700  17.498  1.00  0.00     0.017 A 
HETATM   10  C6  UNL     1      14.681   2.691  16.549  1.00  0.00     0.089 A 
HETATM   11  N2  UNL     1      15.485   2.787  15.484  1.00  0.00    -0.352 N 
ATOM     12  H2  UNL     1      15.350   3.548  14.817  1.00  0.00     0.166 HD
ENDBRANCH   4   6
ENDBRANCH   1   2
BRANCH   1  13
HETATM   13  C8  UNL     1      18.746   3.198  11.688  1.00  0.00     0.268 C 
HETATM   14  O2  UNL     1      19.427   2.256  12.212  1.00  0.00    -0.269 OA
HETATM   15  N3  UNL     1      19.208   3.657  10.415  1.00  0.00    -0.259 N 
HETATM   16  C9  UNL     1      20.346   3.007   9.842  1.00  0.00     0.174 C 
HETATM   17  N4  UNL     1      18.609   4.708   9.743  1.00  0.00    -0.110 NA
HETATM   18  C10 UNL     1      20.763   3.479   8.486  1.00  0.00     0.191 C 
HETATM   19  O3  UNL     1      19.861   4.268   7.812  1.00  0.00    -0.372 OA
HETATM   20  C11 UNL     1      19.413   5.259   8.688  1.00  0.00     0.302 C 
ENDBRANCH   1  13
BRANCH   1  21
HETATM   21  N5  UNL     1      17.775   4.773  13.310  1.00  0.00    -0.352 N 
HETATM   22  C12 UNL     1      19.059   5.159  13.656  1.00  0.00     0.065 A 
HETATM   23  C13 UNL     1      18.889   6.410  14.475  1.00  0.00     0.050 A 
HETATM   24  C14 UNL     1      17.406   6.648  14.575  1.00  0.00     0.050 A 
HETATM   25  C15 UNL     1      16.747   5.566  13.748  1.00  0.00     0.065 A 
ENDBRANCH   1  21
TORSDOF 4
ENDMDL
