MODEL 1
REMARK VINA RESULT: -7.565483844      0.000      0.000
REMARK  8 active torsions:
REMARK  status: ('A' for Active; 'I' for Inactive)
REMARK    1  A    between atoms: N2_5  and  C3_6 
REMARK    2  A    between atoms: C10_14  and  C11_15 
REMARK    3  A    between atoms: C11_15  and  C12_16 
REMARK    4  A    between atoms: N3_18  and  C14_19 
REMARK    5  A    between atoms: C16_22  and  O3_23 
REMARK    6  A    between atoms: O3_23  and  C17_24 
REMARK    7  A    between atoms: C17_24  and  C18_25 
REMARK    8  A    between atoms: C18_25  and  N4_26 
ROOT
HETATM    1  C12 UNL     1       0.160   0.493  82.784  1.00  0.00     0.061 A 
HETATM    2  C13 UNL     1      -0.079  -0.846  83.061  1.00  0.00     0.121 A 
HETATM    3  N3  UNL     1       0.430  -1.624  82.104  1.00  0.00    -0.307 N 
HETATM    4  C15 UNL     1       1.009  -0.828  81.186  1.00  0.00     0.137 A 
HETATM    5  C16 UNL     1       0.867   0.472  81.563  1.00  0.00     0.104 A 
ENDROOT
BRANCH   1   6
HETATM    6  C11 UNL     1      -0.191   1.593  83.543  1.00  0.00    -0.093 C 
BRANCH   6   7
HETATM    7  C10 UNL     1      -0.502   2.592  84.224  1.00  0.00     0.107 A 
HETATM    8  C2  UNL     1      -0.873   2.368  85.608  1.00  0.00     0.063 A 
HETATM    9  C1  UNL     1      -0.926   1.197  86.200  1.00  0.00     0.046 C 
HETATM   10  N1  UNL     1      -1.142   3.547  86.148  1.00  0.00    -0.290 N 
HETATM   11  N2  UNL     1      -0.984   4.507  85.269  1.00  0.00    -0.219 N 
ATOM     12  H1  UNL     1      -1.431   3.688  87.117  1.00  0.00     0.187 HD
HETATM   13  C9  UNL     1      -0.603   3.955  84.112  1.00  0.00     0.287 A 
HETATM   14  O1  UNL     1      -0.367   4.617  83.056  1.00  0.00    -0.265 OA
BRANCH  11  15
HETATM   15  C3  UNL     1      -1.152   5.918  85.460  1.00  0.00     0.060 A 
HETATM   16  C4  UNL     1      -0.076   6.708  85.817  1.00  0.00     0.031 A 
HETATM   17  C5  UNL     1      -0.305   8.063  85.969  1.00  0.00     0.002 A 
HETATM   18  C6  UNL     1      -1.547   8.628  85.776  1.00  0.00     0.000 A 
HETATM   19  C7  UNL     1      -2.637   7.836  85.415  1.00  0.00     0.002 A 
HETATM   20  C8  UNL     1      -2.395   6.480  85.268  1.00  0.00     0.031 A 
ENDBRANCH  11  15
ENDBRANCH   6   7
ENDBRANCH   1   6
BRANCH   5  21
HETATM   21  O3  UNL     1       1.282   1.634  80.957  1.00  0.00    -0.346 OA
BRANCH  21  22
HETATM   22  C17 UNL     1       2.548   2.083  80.656  1.00  0.00     0.197 C 
BRANCH  22  23
HETATM   23  C18 UNL     1       2.710   3.558  80.519  1.00  0.00     0.176 C 
BRANCH  23  24
HETATM   24  N4  UNL     1       2.778   4.188  81.823  1.00  0.00    -0.286 N 
HETATM   25  C19 UNL     1       2.863   5.511  82.014  1.00  0.00     0.130 A 
HETATM   26  C20 UNL     1       2.908   5.684  83.388  1.00  0.00     0.127 A 
HETATM   27  N5  UNL     1       2.846   4.451  83.927  1.00  0.00    -0.296 N 
HETATM   28  N6  UNL     1       2.767   3.549  82.976  1.00  0.00    -0.241 N 
ATOM     29  H5  UNL     1       2.858   4.249  84.926  1.00  0.00     0.187 HD
ATOM     30  H6  UNL     1       2.709   2.540  83.107  1.00  0.00     0.208 HD
ENDBRANCH  23  24
ENDBRANCH  22  23
ENDBRANCH  21  22
ENDBRANCH   5  21
BRANCH   3  31
HETATM   31  C14 UNL     1       0.383  -3.057  82.042  1.00  0.00     0.359 C 
HETATM   32  O2  UNL     1       1.443  -3.693  82.087  1.00  0.00    -0.283 OA
ENDBRANCH   3  31
TORSDOF 8
ENDMDL
MODEL 2
REMARK VINA RESULT: -7.370380282      2.723      5.807
REMARK  8 active torsions:
REMARK  status: ('A' for Active; 'I' for Inactive)
REMARK    1  A    between atoms: N2_5  and  C3_6 
REMARK    2  A    between atoms: C10_14  and  C11_15 
REMARK    3  A    between atoms: C11_15  and  C12_16 
REMARK    4  A    between atoms: N3_18  and  C14_19 
REMARK    5  A    between atoms: C16_22  and  O3_23 
REMARK    6  A    between atoms: O3_23  and  C17_24 
REMARK    7  A    between atoms: C17_24  and  C18_25 
REMARK    8  A    between atoms: C18_25  and  N4_26 
ROOT
HETATM    1  C12 UNL     1       1.012   5.156  81.110  1.00  0.00     0.061 A 
HETATM    2  C13 UNL     1       1.048   6.477  80.685  1.00  0.00     0.121 A 
HETATM    3  N3  UNL     1       1.386   6.550  79.396  1.00  0.00    -0.307 N 
HETATM    4  C15 UNL     1       1.578   5.296  78.947  1.00  0.00     0.137 A 
HETATM    5  C16 UNL     1       1.360   4.415  79.961  1.00  0.00     0.104 A 
ENDROOT
BRANCH   1   6
HETATM    6  C11 UNL     1       0.686   4.676  82.364  1.00  0.00    -0.093 C 
BRANCH   6   7
HETATM    7  C10 UNL     1       0.385   4.235  83.493  1.00  0.00     0.107 A 
HETATM    8  C2  UNL     1       1.191   4.673  84.617  1.00  0.00     0.063 A 
HETATM    9  C1  UNL     1       2.222   5.482  84.543  1.00  0.00     0.046 C 
HETATM   10  N1  UNL     1       0.695   4.112  85.709  1.00  0.00    -0.290 N 
HETATM   11  N2  UNL     1      -0.341   3.362  85.417  1.00  0.00    -0.219 N 
ATOM     12  H1  UNL     1       1.068   4.245  86.649  1.00  0.00     0.187 HD
HETATM   13  C9  UNL     1      -0.540   3.423  84.096  1.00  0.00     0.287 A 
HETATM   14  O1  UNL     1      -1.469   2.806  83.491  1.00  0.00    -0.265 OA
BRANCH  11  15
HETATM   15  C3  UNL     1      -1.167   2.607  86.312  1.00  0.00     0.060 A 
HETATM   16  C4  UNL     1      -2.373   3.121  86.751  1.00  0.00     0.031 A 
HETATM   17  C5  UNL     1      -3.128   2.332  87.600  1.00  0.00     0.002 A 
HETATM   18  C6  UNL     1      -2.717   1.081  88.006  1.00  0.00     0.000 A 
HETATM   19  C7  UNL     1      -1.501   0.557  87.567  1.00  0.00     0.002 A 
HETATM   20  C8  UNL     1      -0.754   1.357  86.717  1.00  0.00     0.031 A 
ENDBRANCH  11  15
ENDBRANCH   6   7
ENDBRANCH   1   6
BRANCH   5  21
HETATM   21  O3  UNL     1       1.437   3.043  79.992  1.00  0.00    -0.346 OA
BRANCH  21  22
HETATM   22  C17 UNL     1       2.506   2.212  80.239  1.00  0.00     0.197 C 
BRANCH  22  23
HETATM   23  C18 UNL     1       2.504   1.505  81.551  1.00  0.00     0.176 C 
BRANCH  23  24
HETATM   24  N4  UNL     1       1.293   0.723  81.707  1.00  0.00    -0.286 N 
HETATM   25  C19 UNL     1       1.278  -0.584  82.002  1.00  0.00     0.130 A 
HETATM   26  C20 UNL     1      -0.062  -0.934  82.054  1.00  0.00     0.127 A 
HETATM   27  N5  UNL     1      -0.758   0.188  81.788  1.00  0.00    -0.296 N 
HETATM   28  N6  UNL     1       0.067   1.188  81.578  1.00  0.00    -0.241 N 
ATOM     29  H5  UNL     1      -1.775   0.251  81.754  1.00  0.00     0.187 HD
ATOM     30  H6  UNL     1      -0.194   2.148  81.356  1.00  0.00     0.208 HD
ENDBRANCH  23  24
ENDBRANCH  22  23
ENDBRANCH  21  22
ENDBRANCH   5  21
BRANCH   3  31
HETATM   31  C14 UNL     1       1.525   7.740  78.607  1.00  0.00     0.359 C 
HETATM   32  O2  UNL     1       0.651   8.612  78.681  1.00  0.00    -0.283 OA
ENDBRANCH   3  31
TORSDOF 8
ENDMDL
MODEL 3
REMARK VINA RESULT: -7.313938671      1.431      1.629
REMARK  8 active torsions:
REMARK  status: ('A' for Active; 'I' for Inactive)
REMARK    1  A    between atoms: N2_5  and  C3_6 
REMARK    2  A    between atoms: C10_14  and  C11_15 
REMARK    3  A    between atoms: C11_15  and  C12_16 
REMARK    4  A    between atoms: N3_18  and  C14_19 
REMARK    5  A    between atoms: C16_22  and  O3_23 
REMARK    6  A    between atoms: O3_23  and  C17_24 
REMARK    7  A    between atoms: C17_24  and  C18_25 
REMARK    8  A    between atoms: C18_25  and  N4_26 
ROOT
HETATM    1  C12 UNL     1       0.090   0.477  82.736  1.00  0.00     0.061 A 
HETATM    2  C13 UNL     1      -0.077  -0.862  83.060  1.00  0.00     0.121 A 
HETATM    3  N3  UNL     1       0.365  -1.646  82.075  1.00  0.00    -0.307 N 
HETATM    4  C15 UNL     1       0.827  -0.853  81.090  1.00  0.00     0.137 A 
HETATM    5  C16 UNL     1       0.678   0.450  81.454  1.00  0.00     0.104 A 
ENDROOT
BRANCH   1   6
HETATM    6  C11 UNL     1      -0.224   1.583  83.503  1.00  0.00    -0.093 C 
BRANCH   6   7
HETATM    7  C10 UNL     1      -0.499   2.585  84.195  1.00  0.00     0.107 A 
HETATM    8  C2  UNL     1      -0.707   2.380  85.615  1.00  0.00     0.063 A 
HETATM    9  C1  UNL     1      -0.646   1.222  86.232  1.00  0.00     0.046 C 
HETATM   10  N1  UNL     1      -0.963   3.560  86.159  1.00  0.00    -0.290 N 
HETATM   11  N2  UNL     1      -0.943   4.504  85.249  1.00  0.00    -0.219 N 
ATOM     12  H1  UNL     1      -1.149   3.713  87.150  1.00  0.00     0.187 HD
HETATM   13  C9  UNL     1      -0.668   3.940  84.068  1.00  0.00     0.287 A 
HETATM   14  O1  UNL     1      -0.577   4.585  82.980  1.00  0.00    -0.265 OA
BRANCH  11  15
HETATM   15  C3  UNL     1      -1.147   5.912  85.430  1.00  0.00     0.060 A 
HETATM   16  C4  UNL     1      -0.079   6.741  85.717  1.00  0.00     0.031 A 
HETATM   17  C5  UNL     1      -0.344   8.091  85.863  1.00  0.00     0.002 A 
HETATM   18  C6  UNL     1      -1.613   8.612  85.731  1.00  0.00     0.000 A 
HETATM   19  C7  UNL     1      -2.694   7.780  85.441  1.00  0.00     0.002 A 
HETATM   20  C8  UNL     1      -2.415   6.430  85.298  1.00  0.00     0.031 A 
ENDBRANCH  11  15
ENDBRANCH   6   7
ENDBRANCH   1   6
BRANCH   5  21
HETATM   21  O3  UNL     1       0.995   1.611  80.788  1.00  0.00    -0.346 OA
BRANCH  21  22
HETATM   22  C17 UNL     1       2.158   2.345  80.775  1.00  0.00     0.197 C 
BRANCH  22  23
HETATM   23  C18 UNL     1       2.285   3.364  79.694  1.00  0.00     0.176 C 
BRANCH  23  24
HETATM   24  N4  UNL     1       1.275   4.393  79.842  1.00  0.00    -0.286 N 
HETATM   25  C19 UNL     1       1.511   5.703  79.691  1.00  0.00     0.130 A 
HETATM   26  C20 UNL     1       0.295   6.326  79.919  1.00  0.00     0.127 A 
HETATM   27  N5  UNL     1      -0.588   5.346  80.191  1.00  0.00    -0.296 N 
HETATM   28  N6  UNL     1       0.010   4.178  80.143  1.00  0.00    -0.241 N 
ATOM     29  H5  UNL     1      -1.575   5.490  80.402  1.00  0.00     0.187 HD
ATOM     30  H6  UNL     1      -0.425   3.271  80.309  1.00  0.00     0.208 HD
ENDBRANCH  23  24
ENDBRANCH  22  23
ENDBRANCH  21  22
ENDBRANCH   5  21
BRANCH   3  31
HETATM   31  C14 UNL     1       0.360  -3.081  82.046  1.00  0.00     0.359 C 
HETATM   32  O2  UNL     1       1.440  -3.682  82.071  1.00  0.00    -0.283 OA
ENDBRANCH   3  31
TORSDOF 8
ENDMDL
MODEL 4
REMARK VINA RESULT: -7.229354441      2.392      6.030
REMARK  8 active torsions:
REMARK  status: ('A' for Active; 'I' for Inactive)
REMARK    1  A    between atoms: N2_5  and  C3_6 
REMARK    2  A    between atoms: C10_14  and  C11_15 
REMARK    3  A    between atoms: C11_15  and  C12_16 
REMARK    4  A    between atoms: N3_18  and  C14_19 
REMARK    5  A    between atoms: C16_22  and  O3_23 
REMARK    6  A    between atoms: O3_23  and  C17_24 
REMARK    7  A    between atoms: C17_24  and  C18_25 
REMARK    8  A    between atoms: C18_25  and  N4_26 
ROOT
HETATM    1  C12 UNL     1      -0.852   2.288  85.085  1.00  0.00     0.061 A 
HETATM    2  C13 UNL     1      -0.831   1.339  86.098  1.00  0.00     0.121 A 
HETATM    3  N3  UNL     1      -1.734   1.629  87.036  1.00  0.00    -0.307 N 
HETATM    4  C15 UNL     1      -2.364   2.761  86.669  1.00  0.00     0.137 A 
HETATM    5  C16 UNL     1      -1.855   3.196  85.484  1.00  0.00     0.104 A 
ENDROOT
BRANCH   1   6
HETATM    6  C11 UNL     1      -0.084   2.322  83.937  1.00  0.00    -0.093 C 
BRANCH   6   7
HETATM    7  C10 UNL     1       0.617   2.356  82.904  1.00  0.00     0.107 A 
HETATM    8  C2  UNL     1       0.673   1.154  82.094  1.00  0.00     0.063 A 
HETATM    9  C1  UNL     1       0.059   0.025  82.368  1.00  0.00     0.046 C 
HETATM   10  N1  UNL     1       1.444   1.408  81.049  1.00  0.00    -0.290 N 
HETATM   11  N2  UNL     1       1.892   2.640  81.091  1.00  0.00    -0.219 N 
ATOM     12  H1  UNL     1       1.660   0.738  80.311  1.00  0.00     0.187 HD
HETATM   13  C9  UNL     1       1.409   3.222  82.195  1.00  0.00     0.287 A 
HETATM   14  O1  UNL     1       1.656   4.420  82.529  1.00  0.00    -0.265 OA
BRANCH  11  15
HETATM   15  C3  UNL     1       2.733   3.310  80.143  1.00  0.00     0.060 A 
HETATM   16  C4  UNL     1       2.180   3.954  79.052  1.00  0.00     0.031 A 
HETATM   17  C5  UNL     1       3.048   4.594  78.185  1.00  0.00     0.002 A 
HETATM   18  C6  UNL     1       4.412   4.603  78.380  1.00  0.00     0.000 A 
HETATM   19  C7  UNL     1       4.975   3.954  79.478  1.00  0.00     0.002 A 
HETATM   20  C8  UNL     1       4.096   3.317  80.338  1.00  0.00     0.031 A 
ENDBRANCH  11  15
ENDBRANCH   6   7
ENDBRANCH   1   6
BRANCH   5  21
HETATM   21  O3  UNL     1      -2.169   4.296  84.721  1.00  0.00    -0.346 OA
BRANCH  21  22
HETATM   22  C17 UNL     1      -2.218   5.630  85.054  1.00  0.00     0.197 C 
BRANCH  22  23
HETATM   23  C18 UNL     1      -1.552   6.572  84.111  1.00  0.00     0.176 C 
BRANCH  23  24
HETATM   24  N4  UNL     1      -0.132   6.655  84.391  1.00  0.00    -0.286 N 
HETATM   25  C19 UNL     1       0.636   7.703  84.067  1.00  0.00     0.130 A 
HETATM   26  C20 UNL     1       1.910   7.376  84.504  1.00  0.00     0.127 A 
HETATM   27  N5  UNL     1       1.818   6.153  85.060  1.00  0.00    -0.296 N 
HETATM   28  N6  UNL     1       0.580   5.721  84.989  1.00  0.00    -0.241 N 
ATOM     29  H5  UNL     1       2.595   5.639  85.475  1.00  0.00     0.187 HD
ATOM     30  H6  UNL     1       0.234   4.826  85.334  1.00  0.00     0.208 HD
ENDBRANCH  23  24
ENDBRANCH  22  23
ENDBRANCH  21  22
ENDBRANCH   5  21
BRANCH   3  31
HETATM   31  C14 UNL     1      -2.006   0.883  88.231  1.00  0.00     0.359 C 
HETATM   32  O2  UNL     1      -1.979  -0.352  88.184  1.00  0.00    -0.283 OA
ENDBRANCH   3  31
TORSDOF 8
ENDMDL
MODEL 5
REMARK VINA RESULT: -7.102267157      3.099      4.510
REMARK  8 active torsions:
REMARK  status: ('A' for Active; 'I' for Inactive)
REMARK    1  A    between atoms: N2_5  and  C3_6 
REMARK    2  A    between atoms: C10_14  and  C11_15 
REMARK    3  A    between atoms: C11_15  and  C12_16 
REMARK    4  A    between atoms: N3_18  and  C14_19 
REMARK    5  A    between atoms: C16_22  and  O3_23 
REMARK    6  A    between atoms: O3_23  and  C17_24 
REMARK    7  A    between atoms: C17_24  and  C18_25 
REMARK    8  A    between atoms: C18_25  and  N4_26 
ROOT
HETATM    1  C12 UNL     1      -1.038   2.946  85.382  1.00  0.00     0.061 A 
HETATM    2  C13 UNL     1      -1.737   2.709  86.557  1.00  0.00     0.121 A 
HETATM    3  N3  UNL     1      -1.583   1.442  86.950  1.00  0.00    -0.307 N 
HETATM    4  C15 UNL     1      -0.791   0.824  86.055  1.00  0.00     0.137 A 
HETATM    5  C16 UNL     1      -0.436   1.706  85.082  1.00  0.00     0.104 A 
ENDROOT
BRANCH   1   6
HETATM    6  C11 UNL     1      -0.935   4.132  84.680  1.00  0.00    -0.093 C 
BRANCH   6   7
HETATM    7  C10 UNL     1      -0.834   5.201  84.042  1.00  0.00     0.107 A 
HETATM    8  C2  UNL     1       0.495   5.608  83.627  1.00  0.00     0.063 A 
HETATM    9  C1  UNL     1       1.604   4.953  83.882  1.00  0.00     0.046 C 
HETATM   10  N1  UNL     1       0.377   6.743  82.956  1.00  0.00    -0.290 N 
HETATM   11  N2  UNL     1      -0.880   7.114  82.889  1.00  0.00    -0.219 N 
ATOM     12  H1  UNL     1       1.156   7.258  82.545  1.00  0.00     0.187 HD
HETATM   13  C9  UNL     1      -1.618   6.204  83.534  1.00  0.00     0.287 A 
HETATM   14  O1  UNL     1      -2.879   6.271  83.653  1.00  0.00    -0.265 OA
BRANCH  11  15
HETATM   15  C3  UNL     1      -1.429   8.265  82.235  1.00  0.00     0.060 A 
HETATM   16  C4  UNL     1      -1.299   9.519  82.802  1.00  0.00     0.031 A 
HETATM   17  C5  UNL     1      -1.838  10.588  82.109  1.00  0.00     0.002 A 
HETATM   18  C6  UNL     1      -2.483  10.435  80.902  1.00  0.00     0.000 A 
HETATM   19  C7  UNL     1      -2.618   9.172  80.325  1.00  0.00     0.002 A 
HETATM   20  C8  UNL     1      -2.074   8.110  81.028  1.00  0.00     0.031 A 
ENDBRANCH  11  15
ENDBRANCH   6   7
ENDBRANCH   1   6
BRANCH   5  21
HETATM   21  O3  UNL     1       0.349   1.544  83.965  1.00  0.00    -0.346 OA
BRANCH  21  22
HETATM   22  C17 UNL     1       0.173   0.749  82.855  1.00  0.00     0.197 C 
BRANCH  22  23
HETATM   23  C18 UNL     1       1.008   1.080  81.666  1.00  0.00     0.176 C 
BRANCH  23  24
HETATM   24  N4  UNL     1       0.652   2.384  81.139  1.00  0.00    -0.286 N 
HETATM   25  C19 UNL     1       1.517   3.211  80.539  1.00  0.00     0.130 A 
HETATM   26  C20 UNL     1       0.778   4.332  80.197  1.00  0.00     0.127 A 
HETATM   27  N5  UNL     1      -0.480   4.099  80.616  1.00  0.00    -0.296 N 
HETATM   28  N6  UNL     1      -0.552   2.919  81.186  1.00  0.00    -0.241 N 
ATOM     29  H5  UNL     1      -1.262   4.745  80.506  1.00  0.00     0.187 HD
ATOM     30  H6  UNL     1      -1.386   2.494  81.591  1.00  0.00     0.208 HD
ENDBRANCH  23  24
ENDBRANCH  22  23
ENDBRANCH  21  22
ENDBRANCH   5  21
BRANCH   3  31
HETATM   31  C14 UNL     1      -2.151   0.826  88.115  1.00  0.00     0.359 C 
HETATM   32  O2  UNL     1      -1.986  -0.387  88.290  1.00  0.00    -0.283 OA
ENDBRANCH   3  31
TORSDOF 8
ENDMDL
