MODEL 1
REMARK VINA RESULT: -7.609036586      0.000      0.000
REMARK  5 active torsions:
REMARK  status: ('A' for Active; 'I' for Inactive)
REMARK    1  A    between atoms: C1_2  and  C2_3 
REMARK       I    between atoms: C1_2  and  N3_16 
REMARK    2  A    between atoms: C2_3  and  N1_4 
REMARK    3  A    between atoms: N2_7  and  C5_8 
REMARK    4  A    between atoms: C15_19  and  O2_20 
REMARK    5  A    between atoms: C16_22  and  O3_23 
ROOT
HETATM    1  C2  UNL     1      17.048   2.451  12.438  1.00  0.00     0.374 C 
ENDROOT
BRANCH   1   2
HETATM    2  C1  UNL     1      16.437   3.105  13.596  1.00  0.00     0.248 C 
HETATM    3  O1  UNL     1      16.069   4.302  13.545  1.00  0.00    -0.271 OA
HETATM    4  N3  UNL     1      16.265   2.367  14.790  1.00  0.00    -0.348 N 
HETATM    5  C13 UNL     1      15.660   2.976  15.968  1.00  0.00     0.128 C 
HETATM    6  C17 UNL     1      16.679   0.979  14.897  1.00  0.00     0.160 C 
HETATM    7  C14 UNL     1      15.090   1.864  16.825  1.00  0.00     0.054 C 
HETATM    8  C15 UNL     1      16.163   0.934  17.300  1.00  0.00     0.150 C 
HETATM    9  C16 UNL     1      17.283   0.803  16.272  1.00  0.00     0.164 C 
BRANCH   8  10
HETATM   10  O2  UNL     1      15.627  -0.351  17.518  1.00  0.00    -0.393 OA
ATOM     11  H2  UNL     1      15.822  -0.915  16.779  1.00  0.00     0.210 HD
ENDBRANCH   8  10
BRANCH   9  12
HETATM   12  O3  UNL     1      18.314   1.702  16.503  1.00  0.00    -0.391 OA
ATOM     13  H3  UNL     1      19.162   1.276  16.536  1.00  0.00     0.210 HD
ENDBRANCH   9  12
ENDBRANCH   1   2
BRANCH   1  14
HETATM   14  N1  UNL     1      18.459   2.806  12.247  1.00  0.00     0.100 N 
HETATM   15  C3  UNL     1      19.070   1.666  11.622  1.00  0.00     0.303 C 
HETATM   16  C4  UNL     1      20.453   1.880  11.108  1.00  0.00     0.303 C 
HETATM   17  N2  UNL     1      20.753   3.269  10.941  1.00  0.00     0.096 N 
HETATM   18  C11 UNL     1      19.591   3.922  10.382  1.00  0.00     0.303 C 
HETATM   19  C12 UNL     1      18.550   4.027  11.507  1.00  0.00     0.303 C 
BRANCH  17  20
HETATM   20  C5  UNL     1      21.957   3.547  10.231  1.00  0.00     0.223 C 
HETATM   21  C6  UNL     1      22.868   4.524  10.943  1.00  0.00     0.036 C 
HETATM   22  C7  UNL     1      24.179   4.689  10.207  1.00  0.00     0.002 C 
HETATM   23  C8  UNL     1      24.199   3.923   8.909  1.00  0.00     0.000 C 
HETATM   24  C9  UNL     1      22.966   4.073   8.081  1.00  0.00     0.002 C 
HETATM   25  C10 UNL     1      21.681   4.081   8.851  1.00  0.00     0.036 C 
ENDBRANCH  17  20
ENDBRANCH   1  14
TORSDOF 5
ENDMDL
MODEL 2
REMARK VINA RESULT: -7.459072168      0.810      1.398
REMARK  5 active torsions:
REMARK  status: ('A' for Active; 'I' for Inactive)
REMARK    1  A    between atoms: C1_2  and  C2_3 
REMARK       I    between atoms: C1_2  and  N3_16 
REMARK    2  A    between atoms: C2_3  and  N1_4 
REMARK    3  A    between atoms: N2_7  and  C5_8 
REMARK    4  A    between atoms: C15_19  and  O2_20 
REMARK    5  A    between atoms: C16_22  and  O3_23 
ROOT
HETATM    1  C2  UNL     1      17.408   2.455  12.364  1.00  0.00     0.374 C 
ENDROOT
BRANCH   1   2
HETATM    2  C1  UNL     1      16.723   3.133  13.466  1.00  0.00     0.248 C 
HETATM    3  O1  UNL     1      16.375   4.334  13.373  1.00  0.00    -0.271 OA
HETATM    4  N3  UNL     1      16.455   2.415  14.654  1.00  0.00    -0.348 N 
HETATM    5  C13 UNL     1      15.774   3.048  15.777  1.00  0.00     0.128 C 
HETATM    6  C17 UNL     1      16.842   1.024  14.810  1.00  0.00     0.160 C 
HETATM    7  C14 UNL     1      15.129   1.955  16.605  1.00  0.00     0.054 C 
HETATM    8  C15 UNL     1      16.152   1.019  17.170  1.00  0.00     0.150 C 
HETATM    9  C16 UNL     1      17.342   0.859  16.228  1.00  0.00     0.164 C 
BRANCH   8  10
HETATM   10  O2  UNL     1      15.584  -0.256  17.365  1.00  0.00    -0.393 OA
ATOM     11  H2  UNL     1      15.454  -0.687  16.528  1.00  0.00     0.210 HD
ENDBRANCH   8  10
BRANCH   9  12
HETATM   12  O3  UNL     1      18.365   1.749  16.520  1.00  0.00    -0.391 OA
ATOM     13  H3  UNL     1      19.208   1.318  16.589  1.00  0.00     0.210 HD
ENDBRANCH   9  12
ENDBRANCH   1   2
BRANCH   1  14
HETATM   14  N1  UNL     1      18.473   3.262  11.758  1.00  0.00     0.100 N 
HETATM   15  C3  UNL     1      19.678   2.494  11.903  1.00  0.00     0.303 C 
HETATM   16  C4  UNL     1      20.858   3.001  11.146  1.00  0.00     0.303 C 
HETATM   17  N2  UNL     1      20.476   3.888  10.091  1.00  0.00     0.096 N 
HETATM   18  C11 UNL     1      19.295   3.353   9.451  1.00  0.00     0.303 C 
HETATM   19  C12 UNL     1      18.119   3.588  10.411  1.00  0.00     0.303 C 
BRANCH  17  20
HETATM   20  C5  UNL     1      21.516   4.223   9.176  1.00  0.00     0.223 C 
HETATM   21  C6  UNL     1      21.285   3.694   7.776  1.00  0.00     0.036 C 
HETATM   22  C7  UNL     1      22.354   4.179   6.822  1.00  0.00     0.002 C 
HETATM   23  C8  UNL     1      23.422   4.974   7.527  1.00  0.00     0.000 C 
HETATM   24  C9  UNL     1      23.915   4.362   8.797  1.00  0.00     0.002 C 
HETATM   25  C10 UNL     1      22.857   3.731   9.650  1.00  0.00     0.036 C 
ENDBRANCH  17  20
ENDBRANCH   1  14
TORSDOF 5
ENDMDL
MODEL 3
REMARK VINA RESULT: -7.420373203      0.842      1.480
REMARK  5 active torsions:
REMARK  status: ('A' for Active; 'I' for Inactive)
REMARK    1  A    between atoms: C1_2  and  C2_3 
REMARK       I    between atoms: C1_2  and  N3_16 
REMARK    2  A    between atoms: C2_3  and  N1_4 
REMARK    3  A    between atoms: N2_7  and  C5_8 
REMARK    4  A    between atoms: C15_19  and  O2_20 
REMARK    5  A    between atoms: C16_22  and  O3_23 
ROOT
HETATM    1  C2  UNL     1      17.365   2.482  12.358  1.00  0.00     0.374 C 
ENDROOT
BRANCH   1   2
HETATM    2  C1  UNL     1      16.666   3.149  13.458  1.00  0.00     0.248 C 
HETATM    3  O1  UNL     1      16.287   4.339  13.359  1.00  0.00    -0.271 OA
HETATM    4  N3  UNL     1      16.419   2.430  14.650  1.00  0.00    -0.348 N 
HETATM    5  C13 UNL     1      15.725   3.052  15.772  1.00  0.00     0.128 C 
HETATM    6  C17 UNL     1      16.842   1.050  14.812  1.00  0.00     0.160 C 
HETATM    7  C14 UNL     1      15.110   1.947  16.607  1.00  0.00     0.054 C 
HETATM    8  C15 UNL     1      16.158   1.040  17.174  1.00  0.00     0.150 C 
HETATM    9  C16 UNL     1      17.350   0.906  16.230  1.00  0.00     0.164 C 
BRANCH   8  10
HETATM   10  O2  UNL     1      15.624  -0.248  17.377  1.00  0.00    -0.393 OA
ATOM     11  H2  UNL     1      16.054  -0.667  18.114  1.00  0.00     0.210 HD
ENDBRANCH   8  10
BRANCH   9  12
HETATM   12  O3  UNL     1      18.350   1.823  16.515  1.00  0.00    -0.391 OA
ATOM     13  H3  UNL     1      19.081   1.427  16.974  1.00  0.00     0.210 HD
ENDBRANCH   9  12
ENDBRANCH   1   2
BRANCH   1  14
HETATM   14  N1  UNL     1      18.368   3.333  11.706  1.00  0.00     0.100 N 
HETATM   15  C3  UNL     1      19.304   3.692  12.734  1.00  0.00     0.303 C 
HETATM   16  C4  UNL     1      20.552   4.359  12.261  1.00  0.00     0.303 C 
HETATM   17  N2  UNL     1      20.784   4.133  10.868  1.00  0.00     0.096 N 
HETATM   18  C11 UNL     1      20.460   2.756  10.569  1.00  0.00     0.303 C 
HETATM   19  C12 UNL     1      18.928   2.641  10.587  1.00  0.00     0.303 C 
BRANCH  17  20
HETATM   20  C5  UNL     1      22.069   4.529  10.396  1.00  0.00     0.223 C 
HETATM   21  C6  UNL     1      22.563   3.710   9.223  1.00  0.00     0.036 C 
HETATM   22  C7  UNL     1      23.872   4.249   8.689  1.00  0.00     0.002 C 
HETATM   23  C8  UNL     1      24.395   5.392   9.521  1.00  0.00     0.000 C 
HETATM   24  C9  UNL     1      24.341   5.160  10.995  1.00  0.00     0.002 C 
HETATM   25  C10 UNL     1      23.107   4.466  11.485  1.00  0.00     0.036 C 
ENDBRANCH  17  20
ENDBRANCH   1  14
TORSDOF 5
ENDMDL
MODEL 4
REMARK VINA RESULT: -7.080742374      1.214      1.350
REMARK  5 active torsions:
REMARK  status: ('A' for Active; 'I' for Inactive)
REMARK    1  A    between atoms: C1_2  and  C2_3 
REMARK       I    between atoms: C1_2  and  N3_16 
REMARK    2  A    between atoms: C2_3  and  N1_4 
REMARK    3  A    between atoms: N2_7  and  C5_8 
REMARK    4  A    between atoms: C15_19  and  O2_20 
REMARK    5  A    between atoms: C16_22  and  O3_23 
ROOT
HETATM    1  C2  UNL     1      17.349   2.540  12.381  1.00  0.00     0.374 C 
ENDROOT
BRANCH   1   2
HETATM    2  C1  UNL     1      16.668   3.194  13.500  1.00  0.00     0.248 C 
HETATM    3  O1  UNL     1      16.308   4.392  13.429  1.00  0.00    -0.271 OA
HETATM    4  N3  UNL     1      16.417   2.453  14.678  1.00  0.00    -0.348 N 
HETATM    5  C13 UNL     1      15.741   3.062  15.817  1.00  0.00     0.128 C 
HETATM    6  C17 UNL     1      16.819   1.064  14.808  1.00  0.00     0.160 C 
HETATM    7  C14 UNL     1      15.113   1.949  16.633  1.00  0.00     0.054 C 
HETATM    8  C15 UNL     1      16.150   1.014  17.173  1.00  0.00     0.150 C 
HETATM    9  C16 UNL     1      17.333   0.882  16.219  1.00  0.00     0.164 C 
BRANCH   8  10
HETATM   10  O2  UNL     1      15.596  -0.269  17.353  1.00  0.00    -0.393 OA
ATOM     11  H2  UNL     1      16.168  -0.797  17.898  1.00  0.00     0.210 HD
ENDBRANCH   8  10
BRANCH   9  12
HETATM   12  O3  UNL     1      18.350   1.777  16.517  1.00  0.00    -0.391 OA
ATOM     13  H3  UNL     1      19.136   1.609  16.010  1.00  0.00     0.210 HD
ENDBRANCH   9  12
ENDBRANCH   1   2
BRANCH   1  14
HETATM   14  N1  UNL     1      18.350   3.395  11.731  1.00  0.00     0.100 N 
HETATM   15  C3  UNL     1      19.600   2.700  11.855  1.00  0.00     0.303 C 
HETATM   16  C4  UNL     1      20.728   3.259  11.056  1.00  0.00     0.303 C 
HETATM   17  N2  UNL     1      20.266   4.103   9.996  1.00  0.00     0.096 N 
HETATM   18  C11 UNL     1      19.101   3.489   9.400  1.00  0.00     0.303 C 
HETATM   19  C12 UNL     1      17.940   3.675  10.389  1.00  0.00     0.303 C 
BRANCH  17  20
HETATM   20  C5  UNL     1      21.259   4.480   9.046  1.00  0.00     0.223 C 
HETATM   21  C6  UNL     1      21.228   5.950   8.688  1.00  0.00     0.036 C 
HETATM   22  C7  UNL     1      22.375   6.317   7.772  1.00  0.00     0.002 C 
HETATM   23  C8  UNL     1      23.187   5.112   7.372  1.00  0.00     0.000 C 
HETATM   24  C9  UNL     1      22.377   3.928   6.957  1.00  0.00     0.002 C 
HETATM   25  C10 UNL     1      21.146   3.682   7.774  1.00  0.00     0.036 C 
ENDBRANCH  17  20
ENDBRANCH   1  14
TORSDOF 5
ENDMDL
MODEL 5
REMARK VINA RESULT: -6.825016133      1.300      1.760
REMARK  5 active torsions:
REMARK  status: ('A' for Active; 'I' for Inactive)
REMARK    1  A    between atoms: C1_2  and  C2_3 
REMARK       I    between atoms: C1_2  and  N3_16 
REMARK    2  A    between atoms: C2_3  and  N1_4 
REMARK    3  A    between atoms: N2_7  and  C5_8 
REMARK    4  A    between atoms: C15_19  and  O2_20 
REMARK    5  A    between atoms: C16_22  and  O3_23 
ROOT
HETATM    1  C2  UNL     1      17.401   2.618  12.424  1.00  0.00     0.374 C 
ENDROOT
BRANCH   1   2
HETATM    2  C1  UNL     1      16.653   3.223  13.528  1.00  0.00     0.248 C 
HETATM    3  O1  UNL     1      16.231   4.401  13.457  1.00  0.00    -0.271 OA
HETATM    4  N3  UNL     1      16.406   2.457  14.691  1.00  0.00    -0.348 N 
HETATM    5  C13 UNL     1      15.664   3.016  15.814  1.00  0.00     0.128 C 
HETATM    6  C17 UNL     1      16.877   1.089  14.820  1.00  0.00     0.160 C 
HETATM    7  C14 UNL     1      15.073   1.863  16.599  1.00  0.00     0.054 C 
HETATM    8  C15 UNL     1      16.141   0.978  17.162  1.00  0.00     0.150 C 
HETATM    9  C16 UNL     1      17.358   0.919  16.243  1.00  0.00     0.164 C 
BRANCH   8  10
HETATM   10  O2  UNL     1      15.652  -0.335  17.313  1.00  0.00    -0.393 OA
ATOM     11  H2  UNL     1      16.372  -0.954  17.305  1.00  0.00     0.210 HD
ENDBRANCH   8  10
BRANCH   9  12
HETATM   12  O3  UNL     1      18.316   1.863  16.581  1.00  0.00    -0.391 OA
ATOM     13  H3  UNL     1      18.969   1.516  17.177  1.00  0.00     0.210 HD
ENDBRANCH   9  12
ENDBRANCH   1   2
BRANCH   1  14
HETATM   14  N1  UNL     1      18.820   2.993  12.411  1.00  0.00     0.100 N 
HETATM   15  C3  UNL     1      19.189   3.083  11.027  1.00  0.00     0.303 C 
HETATM   16  C4  UNL     1      20.525   3.687  10.756  1.00  0.00     0.303 C 
HETATM   17  N2  UNL     1      21.003   4.450  11.869  1.00  0.00     0.096 N 
HETATM   18  C11 UNL     1      19.893   5.196  12.419  1.00  0.00     0.303 C 
HETATM   19  C12 UNL     1      19.005   4.192  13.170  1.00  0.00     0.303 C 
BRANCH  17  20
HETATM   20  C5  UNL     1      22.151   5.251  11.605  1.00  0.00     0.223 C 
HETATM   21  C6  UNL     1      21.990   6.166  10.409  1.00  0.00     0.036 C 
HETATM   22  C7  UNL     1      23.188   7.076  10.248  1.00  0.00     0.002 C 
HETATM   23  C8  UNL     1      24.270   6.769  11.251  1.00  0.00     0.000 C 
HETATM   24  C9  UNL     1      24.575   5.316  11.409  1.00  0.00     0.002 C 
HETATM   25  C10 UNL     1      23.382   4.411  11.392  1.00  0.00     0.036 C 
ENDBRANCH  17  20
ENDBRANCH   1  14
TORSDOF 5
ENDMDL
