MODEL 1
REMARK VINA RESULT: -6.875375762      0.000      0.000
REMARK  3 active torsions:
REMARK  status: ('A' for Active; 'I' for Inactive)
REMARK       I    between atoms: N2_11  and  C8_12 
REMARK       I    between atoms: C8_12  and  N3_14 
REMARK    1  A    between atoms: N3_14  and  C9_16 
REMARK    2  A    between atoms: C9_16  and  C10_17 
REMARK    3  A    between atoms: C10_17  and  N4_18 
ROOT
HETATM    1  O1  UNL     1      21.558   4.188   5.986  1.00  0.00    -0.274 OA
HETATM    2  C1  UNL     1      21.625   3.933   7.211  1.00  0.00     0.218 C 
HETATM    3  C2  UNL     1      20.405   3.791   7.988  1.00  0.00     0.112 C 
HETATM    4  C3  UNL     1      20.542   3.832   9.469  1.00  0.00    -0.028 C 
HETATM    5  C4  UNL     1      21.828   4.340  10.002  1.00  0.00     0.029 C 
HETATM    6  C5  UNL     1      23.049   4.116   9.206  1.00  0.00     0.123 C 
HETATM    7  N1  UNL     1      22.857   3.785   7.832  1.00  0.00    -0.361 N 
ATOM      8  H1  UNL     1      23.647   3.430   7.292  1.00  0.00     0.162 HD
HETATM    9  C6  UNL     1      20.285   2.427   9.980  1.00  0.00     0.030 C 
HETATM   10  C7  UNL     1      18.886   2.263  10.541  1.00  0.00     0.128 C 
HETATM   11  N2  UNL     1      18.818   3.145  11.691  1.00  0.00    -0.334 N 
HETATM   12  C8  UNL     1      18.340   2.767  12.952  1.00  0.00     0.318 C 
HETATM   13  O2  UNL     1      17.928   1.588  13.142  1.00  0.00    -0.247 OA
HETATM   14  N3  UNL     1      18.301   3.673  14.030  1.00  0.00    -0.341 N 
ATOM     15  H3  UNL     1      18.628   4.629  13.891  1.00  0.00     0.164 HD
HETATM   16  C15 UNL     1      19.287   4.501  11.483  1.00  0.00     0.128 C 
HETATM   17  C16 UNL     1      19.395   4.693   9.985  1.00  0.00     0.030 C 
ENDROOT
BRANCH  14  18
HETATM   18  C9  UNL     1      17.806   3.274  15.329  1.00  0.00     0.154 C 
BRANCH  18  19
HETATM   19  C10 UNL     1      16.318   3.544  15.407  1.00  0.00     0.292 C 
BRANCH  19  20
HETATM   20  N4  UNL     1      15.561   2.343  15.649  1.00  0.00     0.094 N 
HETATM   21  C11 UNL     1      16.496   1.294  15.978  1.00  0.00     0.298 C 
HETATM   22  C12 UNL     1      16.209   0.771  17.362  1.00  0.00     0.198 C 
HETATM   23  O3  UNL     1      14.921   0.239  17.362  1.00  0.00    -0.388 OA
HETATM   24  C13 UNL     1      13.972   1.236  17.153  1.00  0.00     0.198 C 
HETATM   25  C14 UNL     1      14.565   2.527  16.688  1.00  0.00     0.298 C 
ENDBRANCH  19  20
ENDBRANCH  18  19
ENDBRANCH  14  18
TORSDOF 3
ENDMDL
MODEL 2
REMARK VINA RESULT: -6.869738482      2.326      8.705
REMARK  3 active torsions:
REMARK  status: ('A' for Active; 'I' for Inactive)
REMARK       I    between atoms: N2_11  and  C8_12 
REMARK       I    between atoms: C8_12  and  N3_14 
REMARK    1  A    between atoms: N3_14  and  C9_16 
REMARK    2  A    between atoms: C9_16  and  C10_17 
REMARK    3  A    between atoms: C10_17  and  N4_18 
ROOT
HETATM    1  O1  UNL     1      14.185   1.380  17.466  1.00  0.00    -0.274 OA
HETATM    2  C1  UNL     1      15.266   1.445  16.835  1.00  0.00     0.218 C 
HETATM    3  C2  UNL     1      15.580   2.636  16.062  1.00  0.00     0.112 C 
HETATM    4  C3  UNL     1      16.689   2.524  15.076  1.00  0.00    -0.028 C 
HETATM    5  C4  UNL     1      17.139   1.153  14.737  1.00  0.00     0.029 C 
HETATM    6  C5  UNL     1      17.034   0.110  15.773  1.00  0.00     0.123 C 
HETATM    7  N1  UNL     1      16.166   0.390  16.869  1.00  0.00    -0.361 N 
ATOM      8  H1  UNL     1      16.208  -0.201  17.700  1.00  0.00     0.162 HD
HETATM    9  C6  UNL     1      17.851   3.335  15.618  1.00  0.00     0.030 C 
HETATM   10  C7  UNL     1      17.968   4.692  14.955  1.00  0.00     0.128 C 
HETATM   11  N2  UNL     1      18.261   4.424  13.559  1.00  0.00    -0.334 N 
HETATM   12  C8  UNL     1      19.288   5.039  12.833  1.00  0.00     0.318 C 
HETATM   13  O2  UNL     1      20.031   5.894  13.392  1.00  0.00    -0.247 OA
HETATM   14  N3  UNL     1      19.521   4.732  11.478  1.00  0.00    -0.341 N 
ATOM     15  H3  UNL     1      18.928   4.046  11.011  1.00  0.00     0.164 HD
HETATM   16  C15 UNL     1      17.413   3.445  12.907  1.00  0.00     0.128 C 
HETATM   17  C16 UNL     1      16.219   3.238  13.814  1.00  0.00     0.030 C 
ENDROOT
BRANCH  14  18
HETATM   18  C9  UNL     1      20.585   5.373  10.734  1.00  0.00     0.154 C 
BRANCH  18  19
HETATM   19  C10 UNL     1      21.389   4.324   9.998  1.00  0.00     0.292 C 
BRANCH  19  20
HETATM   20  N4  UNL     1      22.660   4.075  10.628  1.00  0.00     0.094 N 
HETATM   21  C11 UNL     1      23.635   3.871   9.583  1.00  0.00     0.298 C 
HETATM   22  C12 UNL     1      24.717   4.916   9.687  1.00  0.00     0.198 C 
HETATM   23  O3  UNL     1      25.345   4.763  10.922  1.00  0.00    -0.388 OA
HETATM   24  C13 UNL     1      24.469   5.053  11.964  1.00  0.00     0.198 C 
HETATM   25  C14 UNL     1      23.043   5.148  11.526  1.00  0.00     0.298 C 
ENDBRANCH  19  20
ENDBRANCH  18  19
ENDBRANCH  14  18
TORSDOF 3
ENDMDL
MODEL 3
REMARK VINA RESULT: -6.827161673      1.710      2.286
REMARK  3 active torsions:
REMARK  status: ('A' for Active; 'I' for Inactive)
REMARK       I    between atoms: N2_11  and  C8_12 
REMARK       I    between atoms: C8_12  and  N3_14 
REMARK    1  A    between atoms: N3_14  and  C9_16 
REMARK    2  A    between atoms: C9_16  and  C10_17 
REMARK    3  A    between atoms: C10_17  and  N4_18 
ROOT
HETATM    1  O1  UNL     1      24.546   3.442   8.888  1.00  0.00    -0.274 OA
HETATM    2  C1  UNL     1      23.354   3.789   9.058  1.00  0.00     0.218 C 
HETATM    3  C2  UNL     1      22.800   3.837  10.402  1.00  0.00     0.112 C 
HETATM    4  C3  UNL     1      21.318   3.916  10.516  1.00  0.00    -0.028 C 
HETATM    5  C4  UNL     1      20.542   3.607   9.292  1.00  0.00     0.029 C 
HETATM    6  C5  UNL     1      21.148   3.921   7.985  1.00  0.00     0.123 C 
HETATM    7  N1  UNL     1      22.558   4.129   7.974  1.00  0.00    -0.361 N 
ATOM      8  H1  UNL     1      22.994   4.538   7.146  1.00  0.00     0.162 HD
HETATM    9  C6  UNL     1      20.984   5.313  11.006  1.00  0.00     0.030 C 
HETATM   10  C7  UNL     1      20.673   5.346  12.489  1.00  0.00     0.128 C 
HETATM   11  N2  UNL     1      19.474   4.545  12.657  1.00  0.00    -0.334 N 
HETATM   12  C8  UNL     1      18.347   4.950  13.381  1.00  0.00     0.318 C 
HETATM   13  O2  UNL     1      18.332   6.081  13.944  1.00  0.00    -0.247 OA
HETATM   14  N3  UNL     1      17.212   4.124  13.505  1.00  0.00    -0.341 N 
ATOM     15  H3  UNL     1      17.209   3.207  13.059  1.00  0.00     0.164 HD
HETATM   16  C15 UNL     1      19.482   3.245  12.016  1.00  0.00     0.128 C 
HETATM   17  C16 UNL     1      20.919   2.962  11.634  1.00  0.00     0.030 C 
ENDROOT
BRANCH  14  18
HETATM   18  C9  UNL     1      16.050   4.551  14.256  1.00  0.00     0.154 C 
BRANCH  18  19
HETATM   19  C10 UNL     1      16.091   3.940  15.640  1.00  0.00     0.292 C 
BRANCH  19  20
HETATM   20  N4  UNL     1      15.393   2.682  15.698  1.00  0.00     0.094 N 
HETATM   21  C11 UNL     1      16.372   1.631  15.555  1.00  0.00     0.298 C 
HETATM   22  C12 UNL     1      16.361   0.755  16.781  1.00  0.00     0.198 C 
HETATM   23  O3  UNL     1      15.097   0.178  16.887  1.00  0.00    -0.388 OA
HETATM   24  C13 UNL     1      14.128   1.148  17.133  1.00  0.00     0.198 C 
HETATM   25  C14 UNL     1      14.622   2.542  16.919  1.00  0.00     0.298 C 
ENDBRANCH  19  20
ENDBRANCH  18  19
ENDBRANCH  14  18
TORSDOF 3
ENDMDL
MODEL 4
REMARK VINA RESULT: -6.698921796      4.037      6.740
REMARK  3 active torsions:
REMARK  status: ('A' for Active; 'I' for Inactive)
REMARK       I    between atoms: N2_11  and  C8_12 
REMARK       I    between atoms: C8_12  and  N3_14 
REMARK    1  A    between atoms: N3_14  and  C9_16 
REMARK    2  A    between atoms: C9_16  and  C10_17 
REMARK    3  A    between atoms: C10_17  and  N4_18 
ROOT
HETATM    1  O1  UNL     1      17.607  11.493  14.379  1.00  0.00    -0.274 OA
HETATM    2  C1  UNL     1      17.578  10.368  13.829  1.00  0.00     0.218 C 
HETATM    3  C2  UNL     1      17.216   9.193  14.606  1.00  0.00     0.112 C 
HETATM    4  C3  UNL     1      17.528   7.867  14.005  1.00  0.00    -0.028 C 
HETATM    5  C4  UNL     1      18.461   7.865  12.854  1.00  0.00     0.029 C 
HETATM    6  C5  UNL     1      18.473   9.041  11.964  1.00  0.00     0.123 C 
HETATM    7  N1  UNL     1      17.889  10.233  12.483  1.00  0.00    -0.361 N 
ATOM      8  H1  UNL     1      17.695  11.008  11.848  1.00  0.00     0.162 HD
HETATM    9  C6  UNL     1      16.207   7.236  13.608  1.00  0.00     0.030 C 
HETATM   10  C7  UNL     1      15.739   6.196  14.606  1.00  0.00     0.128 C 
HETATM   11  N2  UNL     1      16.734   5.141  14.570  1.00  0.00    -0.334 N 
HETATM   12  C8  UNL     1      16.439   3.778  14.452  1.00  0.00     0.318 C 
HETATM   13  O2  UNL     1      15.237   3.398  14.371  1.00  0.00    -0.247 OA
HETATM   14  N3  UNL     1      17.454   2.801  14.422  1.00  0.00    -0.341 N 
ATOM     15  H3  UNL     1      18.430   3.091  14.488  1.00  0.00     0.164 HD
HETATM   16  C15 UNL     1      18.117   5.566  14.663  1.00  0.00     0.128 C 
HETATM   17  C16 UNL     1      18.094   7.007  15.128  1.00  0.00     0.030 C 
ENDROOT
BRANCH  14  18
HETATM   18  C9  UNL     1      17.139   1.394  14.299  1.00  0.00     0.154 C 
BRANCH  18  19
HETATM   19  C10 UNL     1      17.292   0.966  12.855  1.00  0.00     0.292 C 
BRANCH  19  20
HETATM   20  N4  UNL     1      18.121   1.875  12.105  1.00  0.00     0.094 N 
HETATM   21  C11 UNL     1      19.267   1.136  11.634  1.00  0.00     0.298 C 
HETATM   22  C12 UNL     1      19.303   1.159  10.127  1.00  0.00     0.198 C 
HETATM   23  O3  UNL     1      19.428   2.486   9.721  1.00  0.00    -0.388 OA
HETATM   24  C13 UNL     1      18.294   3.219  10.062  1.00  0.00     0.198 C 
HETATM   25  C14 UNL     1      17.395   2.503  11.018  1.00  0.00     0.298 C 
ENDBRANCH  19  20
ENDBRANCH  18  19
ENDBRANCH  14  18
TORSDOF 3
ENDMDL
MODEL 5
REMARK VINA RESULT: -6.644557161      2.246      8.669
REMARK  3 active torsions:
REMARK  status: ('A' for Active; 'I' for Inactive)
REMARK       I    between atoms: N2_11  and  C8_12 
REMARK       I    between atoms: C8_12  and  N3_14 
REMARK    1  A    between atoms: N3_14  and  C9_16 
REMARK    2  A    between atoms: C9_16  and  C10_17 
REMARK    3  A    between atoms: C10_17  and  N4_18 
ROOT
HETATM    1  O1  UNL     1      14.329   1.230  17.598  1.00  0.00    -0.274 OA
HETATM    2  C1  UNL     1      15.356   1.377  16.896  1.00  0.00     0.218 C 
HETATM    3  C2  UNL     1      15.560   2.618  16.166  1.00  0.00     0.112 C 
HETATM    4  C3  UNL     1      16.597   2.608  15.099  1.00  0.00    -0.028 C 
HETATM    5  C4  UNL     1      17.080   1.279  14.656  1.00  0.00     0.029 C 
HETATM    6  C5  UNL     1      17.097   0.181  15.641  1.00  0.00     0.123 C 
HETATM    7  N1  UNL     1      16.301   0.365  16.809  1.00  0.00    -0.361 N 
ATOM      8  H1  UNL     1      16.430  -0.264  17.602  1.00  0.00     0.162 HD
HETATM    9  C6  UNL     1      17.760   3.445  15.599  1.00  0.00     0.030 C 
HETATM   10  C7  UNL     1      17.769   4.838  15.002  1.00  0.00     0.128 C 
HETATM   11  N2  UNL     1      17.969   4.653  13.576  1.00  0.00    -0.334 N 
HETATM   12  C8  UNL     1      18.911   5.351  12.812  1.00  0.00     0.318 C 
HETATM   13  O2  UNL     1      19.656   6.212  13.361  1.00  0.00    -0.247 OA
HETATM   14  N3  UNL     1      19.057   5.124  11.429  1.00  0.00    -0.341 N 
ATOM     15  H3  UNL     1      18.462   4.434  10.970  1.00  0.00     0.164 HD
HETATM   16  C15 UNL     1      17.118   3.669  12.936  1.00  0.00     0.128 C 
HETATM   17  C16 UNL     1      16.005   3.361  13.914  1.00  0.00     0.030 C 
ENDROOT
BRANCH  14  18
HETATM   18  C9  UNL     1      20.034   5.850  10.647  1.00  0.00     0.154 C 
BRANCH  18  19
HETATM   19  C10 UNL     1      20.681   4.912   9.650  1.00  0.00     0.292 C 
BRANCH  19  20
HETATM   20  N4  UNL     1      22.106   5.103   9.572  1.00  0.00     0.094 N 
HETATM   21  C11 UNL     1      22.568   5.500  10.880  1.00  0.00     0.298 C 
HETATM   22  C12 UNL     1      23.559   4.490  11.399  1.00  0.00     0.198 C 
HETATM   23  O3  UNL     1      24.647   4.469  10.527  1.00  0.00    -0.388 OA
HETATM   24  C13 UNL     1      24.271   3.991   9.275  1.00  0.00     0.198 C 
HETATM   25  C14 UNL     1      22.789   3.916   9.093  1.00  0.00     0.298 C 
ENDBRANCH  19  20
ENDBRANCH  18  19
ENDBRANCH  14  18
TORSDOF 3
ENDMDL
