MODEL 1
REMARK VINA RESULT: -4.507885347      0.000      0.000
REMARK  3 active torsions:
REMARK  status: ('A' for Active; 'I' for Inactive)
REMARK    1  A    between atoms: C2_2  and  C3_3 
REMARK    2  A    between atoms: C3_3  and  N1_4 
REMARK    3  A    between atoms: N1_4  and  C4_7 
ROOT
HETATM    1  C4  UNL     1      81.311   4.344 -40.738  1.00  0.00     0.213 C 
HETATM    2  C5  UNL     1      82.638   4.489 -41.384  1.00  0.00     0.062 C 
HETATM    3  C6  UNL     1      83.566   3.450 -40.730  1.00  0.00     0.234 C 
HETATM    4  N2  UNL     1      82.636   2.510 -40.161  1.00  0.00    -0.073 N 
ATOM      5  H21 UNL     1      83.049   1.924 -39.436  1.00  0.00     0.277 HD
ATOM      6  H22 UNL     1      82.380   1.759 -40.802  1.00  0.00     0.277 HD
HETATM    7  C7  UNL     1      81.505   3.272 -39.699  1.00  0.00     0.265 C 
ENDROOT
BRANCH   1   8
HETATM    8  N1  UNL     1      80.282   4.046 -41.677  1.00  0.00    -0.066 N 
ATOM      9  H12 UNL     1      80.406   3.120 -42.087  1.00  0.00     0.278 HD
ATOM     10  H11 UNL     1      80.374   4.605 -42.524  1.00  0.00     0.278 HD
BRANCH   8  11
HETATM   11  C3  UNL     1      78.983   4.192 -41.088  1.00  0.00     0.259 C 
BRANCH  11  12
HETATM   12  C2  UNL     1      78.583   5.609 -40.951  1.00  0.00    -0.010 C 
HETATM   13  C1  UNL     1      77.917   6.285 -41.867  1.00  0.00     0.008 C 
ENDBRANCH  11  12
ENDBRANCH   8  11
ENDBRANCH   1   8
TORSDOF 3
ENDMDL
MODEL 2
REMARK VINA RESULT: -4.506865383      1.170      1.635
REMARK  3 active torsions:
REMARK  status: ('A' for Active; 'I' for Inactive)
REMARK    1  A    between atoms: C2_2  and  C3_3 
REMARK    2  A    between atoms: C3_3  and  N1_4 
REMARK    3  A    between atoms: N1_4  and  C4_7 
ROOT
HETATM    1  C4  UNL     1      81.282   4.442 -41.091  1.00  0.00     0.213 C 
HETATM    2  C5  UNL     1      81.273   3.617 -39.858  1.00  0.00     0.062 C 
HETATM    3  C6  UNL     1      82.737   3.250 -39.558  1.00  0.00     0.234 C 
HETATM    4  N2  UNL     1      83.469   4.245 -40.297  1.00  0.00    -0.073 N 
ATOM      5  H21 UNL     1      84.441   3.986 -40.466  1.00  0.00     0.277 HD
ATOM      6  H22 UNL     1      83.655   5.091 -39.757  1.00  0.00     0.277 HD
HETATM    7  C7  UNL     1      82.729   4.494 -41.506  1.00  0.00     0.265 C 
ENDROOT
BRANCH   1   8
HETATM    8  N1  UNL     1      80.703   5.726 -40.886  1.00  0.00    -0.066 N 
ATOM      9  H12 UNL     1      80.600   6.236 -41.764  1.00  0.00     0.278 HD
ATOM     10  H11 UNL     1      81.349   6.358 -40.414  1.00  0.00     0.278 HD
BRANCH   8  11
HETATM   11  C3  UNL     1      79.456   5.628 -40.186  1.00  0.00     0.259 C 
BRANCH  11  12
HETATM   12  C2  UNL     1      78.299   5.555 -41.104  1.00  0.00    -0.010 C 
HETATM   13  C1  UNL     1      77.915   6.539 -41.895  1.00  0.00     0.008 C 
ENDBRANCH  11  12
ENDBRANCH   8  11
ENDBRANCH   1   8
TORSDOF 3
ENDMDL
MODEL 3
REMARK VINA RESULT: -4.361622351      0.951      1.169
REMARK  3 active torsions:
REMARK  status: ('A' for Active; 'I' for Inactive)
REMARK    1  A    between atoms: C2_2  and  C3_3 
REMARK    2  A    between atoms: C3_3  and  N1_4 
REMARK    3  A    between atoms: N1_4  and  C4_7 
ROOT
HETATM    1  C4  UNL     1      81.540   4.154 -40.529  1.00  0.00     0.213 C 
HETATM    2  C5  UNL     1      82.877   4.359 -41.137  1.00  0.00     0.062 C 
HETATM    3  C6  UNL     1      83.791   3.251 -40.585  1.00  0.00     0.234 C 
HETATM    4  N2  UNL     1      82.849   2.261 -40.132  1.00  0.00    -0.073 N 
ATOM      5  H21 UNL     1      83.250   1.599 -39.468  1.00  0.00     0.277 HD
ATOM      6  H22 UNL     1      82.600   1.584 -40.853  1.00  0.00     0.277 HD
HETATM    7  C7  UNL     1      81.715   2.976 -39.607  1.00  0.00     0.265 C 
ENDROOT
BRANCH   1   8
HETATM    8  N1  UNL     1      80.524   3.962 -41.508  1.00  0.00    -0.066 N 
ATOM      9  H12 UNL     1      80.850   3.379 -42.279  1.00  0.00     0.278 HD
ATOM     10  H11 UNL     1      80.339   4.820 -42.029  1.00  0.00     0.278 HD
BRANCH   8  11
HETATM   11  C3  UNL     1      79.328   3.436 -40.919  1.00  0.00     0.259 C 
BRANCH  11  12
HETATM   12  C2  UNL     1      78.385   4.501 -40.512  1.00  0.00    -0.010 C 
HETATM   13  C1  UNL     1      77.800   4.564 -39.332  1.00  0.00     0.008 C 
ENDBRANCH  11  12
ENDBRANCH   8  11
ENDBRANCH   1   8
TORSDOF 3
ENDMDL
MODEL 4
REMARK VINA RESULT: -4.353029009      1.324      4.436
REMARK  3 active torsions:
REMARK  status: ('A' for Active; 'I' for Inactive)
REMARK    1  A    between atoms: C2_2  and  C3_3 
REMARK    2  A    between atoms: C3_3  and  N1_4 
REMARK    3  A    between atoms: N1_4  and  C4_7 
ROOT
HETATM    1  C4  UNL     1      80.478   4.486 -40.911  1.00  0.00     0.213 C 
HETATM    2  C5  UNL     1      79.126   3.989 -41.264  1.00  0.00     0.062 C 
HETATM    3  C6  UNL     1      78.197   5.215 -41.301  1.00  0.00     0.234 C 
HETATM    4  N2  UNL     1      79.122   6.307 -41.458  1.00  0.00    -0.073 N 
ATOM      5  H21 UNL     1      78.726   7.210 -41.200  1.00  0.00     0.277 HD
ATOM      6  H22 UNL     1      79.321   6.528 -42.434  1.00  0.00     0.277 HD
HETATM    7  C7  UNL     1      80.299   5.966 -40.702  1.00  0.00     0.265 C 
ENDROOT
BRANCH   1   8
HETATM    8  N1  UNL     1      81.448   4.164 -41.903  1.00  0.00    -0.066 N 
ATOM      9  H12 UNL     1      81.135   4.433 -42.835  1.00  0.00     0.278 HD
ATOM     10  H11 UNL     1      81.518   3.157 -42.046  1.00  0.00     0.278 HD
BRANCH   8  11
HETATM   11  C3  UNL     1      82.722   4.742 -41.588  1.00  0.00     0.259 C 
BRANCH  11  12
HETATM   12  C2  UNL     1      83.482   3.931 -40.612  1.00  0.00    -0.010 C 
HETATM   13  C1  UNL     1      83.992   2.742 -40.870  1.00  0.00     0.008 C 
ENDBRANCH  11  12
ENDBRANCH   8  11
ENDBRANCH   1   8
TORSDOF 3
ENDMDL
MODEL 5
REMARK VINA RESULT: -4.281326381      2.493      3.890
REMARK  3 active torsions:
REMARK  status: ('A' for Active; 'I' for Inactive)
REMARK    1  A    between atoms: C2_2  and  C3_3 
REMARK    2  A    between atoms: C3_3  and  N1_4 
REMARK    3  A    between atoms: N1_4  and  C4_7 
ROOT
HETATM    1  C4  UNL     1      82.827   2.741 -39.819  1.00  0.00     0.213 C 
HETATM    2  C5  UNL     1      81.705   3.653 -40.147  1.00  0.00     0.062 C 
HETATM    3  C6  UNL     1      82.125   4.442 -41.400  1.00  0.00     0.234 C 
HETATM    4  N2  UNL     1      83.167   3.619 -41.956  1.00  0.00    -0.073 N 
ATOM      5  H21 UNL     1      83.769   4.119 -42.609  1.00  0.00     0.277 HD
ATOM      6  H22 UNL     1      82.820   2.919 -42.611  1.00  0.00     0.277 HD
HETATM    7  C7  UNL     1      83.885   3.050 -40.845  1.00  0.00     0.265 C 
ENDROOT
BRANCH   1   8
HETATM    8  N1  UNL     1      82.427   1.374 -39.810  1.00  0.00    -0.066 N 
ATOM      9  H12 UNL     1      83.182   0.764 -39.495  1.00  0.00     0.278 HD
ATOM     10  H11 UNL     1      82.316   1.009 -40.755  1.00  0.00     0.278 HD
BRANCH   8  11
HETATM   11  C3  UNL     1      81.239   1.186 -39.030  1.00  0.00     0.259 C 
BRANCH  11  12
HETATM   12  C2  UNL     1      80.426   0.047 -39.509  1.00  0.00    -0.010 C 
HETATM   13  C1  UNL     1      79.324   0.169 -40.224  1.00  0.00     0.008 C 
ENDBRANCH  11  12
ENDBRANCH   8  11
ENDBRANCH   1   8
TORSDOF 3
ENDMDL
