MODEL 1
REMARK VINA RESULT: -5.403739293      0.000      0.000
REMARK  3 active torsions:
REMARK  status: ('A' for Active; 'I' for Inactive)
REMARK    1  A    between atoms: C1_4  and  N2_5 
REMARK    2  A    between atoms: N2_5  and  N3_7 
REMARK    3  A    between atoms: C2_9  and  C3_10 
ROOT
HETATM    1  N3  UNL     1      80.960   5.563 -40.984  1.00  0.00    -0.309 N 
ATOM      2  H3  UNL     1      81.467   6.446 -40.915  1.00  0.00     0.186 HD
HETATM    3  C2  UNL     1      79.813   5.463 -40.441  1.00  0.00     0.138 C 
ENDROOT
BRANCH   1   4
HETATM    4  N2  UNL     1      81.536   4.510 -41.661  1.00  0.00    -0.297 N 
ATOM      5  H2  UNL     1      80.997   4.016 -42.372  1.00  0.00     0.187 HD
BRANCH   4   6
HETATM    6  C1  UNL     1      82.859   4.106 -41.388  1.00  0.00     0.190 C 
HETATM    7  N1  UNL     1      83.482   3.271 -42.160  1.00  0.00    -0.394 N 
ATOM      8  H12 UNL     1      82.990   2.909 -42.977  1.00  0.00     0.156 HD
ATOM      9  H11 UNL     1      84.439   2.978 -41.962  1.00  0.00     0.156 HD
ENDBRANCH   4   6
ENDBRANCH   1   4
BRANCH   3  10
HETATM   10  C3  UNL     1      79.251   6.602 -39.737  1.00  0.00     0.065 A 
HETATM   11  C4  UNL     1      78.337   7.534 -40.188  1.00  0.00     0.119 A 
HETATM   12  N4  UNL     1      78.083   8.417 -39.236  1.00  0.00    -0.360 N 
HETATM   13  C5  UNL     1      78.814   8.089 -38.157  1.00  0.00     0.180 A 
ATOM     14  H4  UNL     1      77.444   9.209 -39.309  1.00  0.00     0.166 HD
HETATM   15  N5  UNL     1      79.526   6.989 -38.453  1.00  0.00    -0.350 N 
ATOM     16  H5  UNL     1      80.170   6.516 -37.820  1.00  0.00     0.166 HD
ENDBRANCH   3  10
TORSDOF 3
ENDMDL
MODEL 2
REMARK VINA RESULT: -5.375444750      1.764      2.522
REMARK  3 active torsions:
REMARK  status: ('A' for Active; 'I' for Inactive)
REMARK    1  A    between atoms: C1_4  and  N2_5 
REMARK    2  A    between atoms: N2_5  and  N3_7 
REMARK    3  A    between atoms: C2_9  and  C3_10 
ROOT
HETATM    1  N3  UNL     1      82.012   4.246 -42.038  1.00  0.00    -0.309 N 
ATOM      2  H3  UNL     1      81.643   4.674 -42.887  1.00  0.00     0.186 HD
HETATM    3  C2  UNL     1      81.358   4.360 -40.951  1.00  0.00     0.138 C 
ENDROOT
BRANCH   1   4
HETATM    4  N2  UNL     1      83.206   3.560 -42.097  1.00  0.00    -0.297 N 
ATOM      5  H2  UNL     1      83.695   3.479 -42.988  1.00  0.00     0.187 HD
BRANCH   4   6
HETATM    6  C1  UNL     1      83.763   2.968 -40.944  1.00  0.00     0.190 C 
HETATM    7  N1  UNL     1      83.959   1.689 -40.871  1.00  0.00    -0.394 N 
ATOM      8  H12 UNL     1      83.700   1.113 -41.672  1.00  0.00     0.156 HD
ATOM      9  H11 UNL     1      84.361   1.261 -40.037  1.00  0.00     0.156 HD
ENDBRANCH   4   6
ENDBRANCH   1   4
BRANCH   3  10
HETATM   10  C3  UNL     1      80.106   5.095 -40.942  1.00  0.00     0.065 A 
HETATM   11  C4  UNL     1      79.792   6.262 -40.272  1.00  0.00     0.119 A 
HETATM   12  N4  UNL     1      78.540   6.607 -40.527  1.00  0.00    -0.360 N 
HETATM   13  C5  UNL     1      78.014   5.689 -41.356  1.00  0.00     0.180 A 
ATOM     14  H4  UNL     1      78.058   7.427 -40.158  1.00  0.00     0.166 HD
HETATM   15  N5  UNL     1      78.959   4.768 -41.612  1.00  0.00    -0.350 N 
ATOM     16  H5  UNL     1      78.839   3.953 -42.213  1.00  0.00     0.166 HD
ENDBRANCH   3  10
TORSDOF 3
ENDMDL
MODEL 3
REMARK VINA RESULT: -5.360048107      1.966      2.590
REMARK  3 active torsions:
REMARK  status: ('A' for Active; 'I' for Inactive)
REMARK    1  A    between atoms: C1_4  and  N2_5 
REMARK    2  A    between atoms: N2_5  and  N3_7 
REMARK    3  A    between atoms: C2_9  and  C3_10 
ROOT
HETATM    1  N3  UNL     1      82.152   4.144 -42.051  1.00  0.00    -0.309 N 
ATOM      2  H3  UNL     1      81.749   4.484 -42.924  1.00  0.00     0.186 HD
HETATM    3  C2  UNL     1      81.513   4.321 -40.964  1.00  0.00     0.138 C 
ENDROOT
BRANCH   1   4
HETATM    4  N2  UNL     1      83.372   3.505 -42.079  1.00  0.00    -0.297 N 
ATOM      5  H2  UNL     1      83.927   3.519 -42.934  1.00  0.00     0.187 HD
BRANCH   4   6
HETATM    6  C1  UNL     1      83.867   2.831 -40.943  1.00  0.00     0.190 C 
HETATM    7  N1  UNL     1      83.925   1.538 -40.898  1.00  0.00    -0.394 N 
ATOM      8  H12 UNL     1      83.603   1.010 -41.709  1.00  0.00     0.156 HD
ATOM      9  H11 UNL     1      84.282   1.050 -40.076  1.00  0.00     0.156 HD
ENDBRANCH   4   6
ENDBRANCH   1   4
BRANCH   3  10
HETATM   10  C3  UNL     1      80.230   5.002 -40.989  1.00  0.00     0.065 A 
HETATM   11  C4  UNL     1      78.961   4.459 -40.928  1.00  0.00     0.119 A 
HETATM   12  N4  UNL     1      78.055   5.421 -40.980  1.00  0.00    -0.360 N 
HETATM   13  C5  UNL     1      78.699   6.598 -41.076  1.00  0.00     0.180 A 
ATOM     14  H4  UNL     1      77.043   5.293 -40.953  1.00  0.00     0.166 HD
HETATM   15  N5  UNL     1      80.020   6.350 -41.082  1.00  0.00    -0.350 N 
ATOM     16  H5  UNL     1      80.751   7.058 -41.147  1.00  0.00     0.166 HD
ENDBRANCH   3  10
TORSDOF 3
ENDMDL
MODEL 4
REMARK VINA RESULT: -5.135250041      2.893      4.730
REMARK  3 active torsions:
REMARK  status: ('A' for Active; 'I' for Inactive)
REMARK    1  A    between atoms: C1_4  and  N2_5 
REMARK    2  A    between atoms: N2_5  and  N3_7 
REMARK    3  A    between atoms: C2_9  and  C3_10 
ROOT
HETATM    1  N3  UNL     1      84.132   2.233 -41.919  1.00  0.00    -0.309 N 
ATOM      2  H3  UNL     1      83.552   2.328 -42.753  1.00  0.00     0.186 HD
HETATM    3  C2  UNL     1      83.851   2.923 -40.887  1.00  0.00     0.138 C 
ENDROOT
BRANCH   1   4
HETATM    4  N2  UNL     1      85.199   1.361 -41.940  1.00  0.00    -0.297 N 
ATOM      5  H2  UNL     1      86.006   1.568 -42.529  1.00  0.00     0.187 HD
BRANCH   4   6
HETATM    6  C1  UNL     1      85.194   0.186 -41.160  1.00  0.00     0.190 C 
HETATM    7  N1  UNL     1      86.290  -0.451 -40.894  1.00  0.00    -0.394 N 
ATOM      8  H12 UNL     1      87.166  -0.083 -41.264  1.00  0.00     0.156 HD
ATOM      9  H11 UNL     1      86.286  -1.302 -40.330  1.00  0.00     0.156 HD
ENDBRANCH   4   6
ENDBRANCH   1   4
BRANCH   3  10
HETATM   10  C3  UNL     1      82.717   3.829 -40.917  1.00  0.00     0.065 A 
HETATM   11  C4  UNL     1      82.655   5.124 -41.395  1.00  0.00     0.119 A 
HETATM   12  N4  UNL     1      81.434   5.607 -41.238  1.00  0.00    -0.360 N 
HETATM   13  C5  UNL     1      80.679   4.654 -40.663  1.00  0.00     0.180 A 
ATOM     14  H4  UNL     1      81.119   6.539 -41.507  1.00  0.00     0.166 HD
HETATM   15  N5  UNL     1      81.451   3.573 -40.465  1.00  0.00    -0.350 N 
ATOM     16  H5  UNL     1      81.142   2.698 -40.043  1.00  0.00     0.166 HD
ENDBRANCH   3  10
TORSDOF 3
ENDMDL
MODEL 5
REMARK VINA RESULT: -5.133454283      0.790      1.219
REMARK  3 active torsions:
REMARK  status: ('A' for Active; 'I' for Inactive)
REMARK    1  A    between atoms: C1_4  and  N2_5 
REMARK    2  A    between atoms: N2_5  and  N3_7 
REMARK    3  A    between atoms: C2_9  and  C3_10 
ROOT
HETATM    1  N3  UNL     1      80.649   5.455 -41.250  1.00  0.00    -0.309 N 
ATOM      2  H3  UNL     1      80.841   6.351 -41.699  1.00  0.00     0.186 HD
HETATM    3  C2  UNL     1      79.777   5.401 -40.323  1.00  0.00     0.138 C 
ENDROOT
BRANCH   1   4
HETATM    4  N2  UNL     1      81.340   4.336 -41.661  1.00  0.00    -0.297 N 
ATOM      5  H2  UNL     1      80.831   3.553 -42.069  1.00  0.00     0.187 HD
BRANCH   4   6
HETATM    6  C1  UNL     1      82.742   4.257 -41.527  1.00  0.00     0.190 C 
HETATM    7  N1  UNL     1      83.428   3.349 -42.147  1.00  0.00    -0.394 N 
ATOM      8  H12 UNL     1      82.929   2.686 -42.740  1.00  0.00     0.156 HD
ATOM      9  H11 UNL     1      84.442   3.291 -42.049  1.00  0.00     0.156 HD
ENDBRANCH   4   6
ENDBRANCH   1   4
BRANCH   3  10
HETATM   10  C3  UNL     1      79.078   6.610 -39.926  1.00  0.00     0.065 A 
HETATM   11  C4  UNL     1      79.054   7.230 -38.691  1.00  0.00     0.119 A 
HETATM   12  N4  UNL     1      78.295   8.312 -38.743  1.00  0.00    -0.360 N 
HETATM   13  C5  UNL     1      77.811   8.424 -39.993  1.00  0.00     0.180 A 
ATOM     14  H4  UNL     1      78.108   8.951 -37.970  1.00  0.00     0.166 HD
HETATM   15  N5  UNL     1      78.282   7.394 -40.716  1.00  0.00    -0.350 N 
ATOM     16  H5  UNL     1      78.078   7.223 -41.700  1.00  0.00     0.166 HD
ENDBRANCH   3  10
TORSDOF 3
ENDMDL
