MODEL 1
REMARK VINA RESULT: -4.475055589      0.000      0.000
REMARK  3 active torsions:
REMARK  status: ('A' for Active; 'I' for Inactive)
REMARK    1  A    between atoms: C1_4  and  C2_5 
REMARK    2  A    between atoms: C2_5  and  N2_6 
REMARK    3  A    between atoms: N2_6  and  C3_9 
ROOT
HETATM    1  N2  UNL     1      79.538   5.054 -41.355  1.00  0.00    -0.065 N 
ATOM      2  H21 UNL     1      78.641   4.571 -41.415  1.00  0.00     0.278 HD
ATOM      3  H22 UNL     1      79.717   5.202 -42.348  1.00  0.00     0.278 HD
ENDROOT
BRANCH   1   4
HETATM    4  C2  UNL     1      80.531   4.205 -40.783  1.00  0.00     0.276 C 
BRANCH   4   5
HETATM    5  C1  UNL     1      81.910   4.597 -41.188  1.00  0.00     0.080 C 
HETATM    6  N1  UNL     1      82.322   4.273 -42.356  1.00  0.00    -0.410 N 
ATOM      7  H12 UNL     1      81.705   3.757 -42.984  1.00  0.00     0.155 HD
ATOM      8  H11 UNL     1      83.266   4.541 -42.634  1.00  0.00     0.155 HD
ENDBRANCH   4   5
ENDBRANCH   1   4
BRANCH   1   9
HETATM    9  C3  UNL     1      79.400   6.290 -40.676  1.00  0.00     0.213 C 
HETATM   10  C4  UNL     1      78.139   7.034 -41.135  1.00  0.00     0.062 C 
HETATM   11  C5  UNL     1      77.909   7.975 -39.998  1.00  0.00     0.234 C 
HETATM   12  N3  UNL     1      78.885   7.671 -38.962  1.00  0.00    -0.073 N 
HETATM   13  C6  UNL     1      79.103   6.227 -39.199  1.00  0.00     0.265 C 
ATOM     14  H32 UNL     1      79.726   8.249 -38.968  1.00  0.00     0.277 HD
ATOM     15  H31 UNL     1      78.611   7.924 -38.013  1.00  0.00     0.277 HD
ENDBRANCH   1   9
TORSDOF 3
ENDMDL
MODEL 2
REMARK VINA RESULT: -4.443602653      1.777      4.129
REMARK  3 active torsions:
REMARK  status: ('A' for Active; 'I' for Inactive)
REMARK    1  A    between atoms: C1_4  and  C2_5 
REMARK    2  A    between atoms: C2_5  and  N2_6 
REMARK    3  A    between atoms: N2_6  and  C3_9 
ROOT
HETATM    1  N2  UNL     1      79.711   6.709 -38.496  1.00  0.00    -0.065 N 
ATOM      2  H21 UNL     1      80.493   6.098 -38.258  1.00  0.00     0.278 HD
ATOM      3  H22 UNL     1      80.228   7.536 -38.792  1.00  0.00     0.278 HD
ENDROOT
BRANCH   1   4
HETATM    4  C2  UNL     1      78.921   6.992 -37.342  1.00  0.00     0.276 C 
BRANCH   4   5
HETATM    5  C1  UNL     1      79.042   8.412 -36.910  1.00  0.00     0.080 C 
HETATM    6  N1  UNL     1      80.204   8.948 -36.877  1.00  0.00    -0.410 N 
ATOM      7  H12 UNL     1      81.021   8.398 -37.144  1.00  0.00     0.155 HD
ATOM      8  H11 UNL     1      80.287   9.920 -36.581  1.00  0.00     0.155 HD
ENDBRANCH   4   5
ENDBRANCH   1   4
BRANCH   1   9
HETATM    9  C3  UNL     1      78.959   6.171 -39.570  1.00  0.00     0.213 C 
HETATM   10  C4  UNL     1      78.286   7.283 -40.385  1.00  0.00     0.062 C 
HETATM   11  C5  UNL     1      78.019   6.592 -41.682  1.00  0.00     0.234 C 
HETATM   12  N3  UNL     1      78.613   5.266 -41.612  1.00  0.00    -0.073 N 
HETATM   13  C6  UNL     1      79.737   5.512 -40.681  1.00  0.00     0.265 C 
ATOM     14  H32 UNL     1      77.979   4.513 -41.345  1.00  0.00     0.277 HD
ATOM     15  H31 UNL     1      78.868   4.851 -42.509  1.00  0.00     0.277 HD
ENDBRANCH   1   9
TORSDOF 3
ENDMDL
MODEL 3
REMARK VINA RESULT: -4.433354837      2.223      3.280
REMARK  3 active torsions:
REMARK  status: ('A' for Active; 'I' for Inactive)
REMARK    1  A    between atoms: C1_4  and  C2_5 
REMARK    2  A    between atoms: C2_5  and  N2_6 
REMARK    3  A    between atoms: N2_6  and  C3_9 
ROOT
HETATM    1  N2  UNL     1      79.760   6.112 -39.433  1.00  0.00    -0.065 N 
ATOM      2  H21 UNL     1      80.690   6.386 -39.116  1.00  0.00     0.278 HD
ATOM      3  H22 UNL     1      79.808   5.110 -39.252  1.00  0.00     0.278 HD
ENDROOT
BRANCH   1   4
HETATM    4  C2  UNL     1      79.606   6.368 -40.828  1.00  0.00     0.276 C 
BRANCH   4   5
HETATM    5  C1  UNL     1      78.232   6.834 -41.168  1.00  0.00     0.080 C 
HETATM    6  N1  UNL     1      77.819   6.700 -42.373  1.00  0.00    -0.410 N 
ATOM      7  H12 UNL     1      78.431   6.280 -43.073  1.00  0.00     0.155 HD
ATOM      8  H11 UNL     1      76.879   7.018 -42.606  1.00  0.00     0.155 HD
ENDBRANCH   4   5
ENDBRANCH   1   4
BRANCH   1   9
HETATM    9  C3  UNL     1      78.757   6.721 -38.638  1.00  0.00     0.213 C 
HETATM   10  C4  UNL     1      78.138   5.711 -37.662  1.00  0.00     0.062 C 
HETATM   11  C5  UNL     1      77.542   6.612 -36.630  1.00  0.00     0.234 C 
HETATM   12  N3  UNL     1      77.921   7.979 -36.956  1.00  0.00    -0.073 N 
HETATM   13  C6  UNL     1      79.214   7.754 -37.640  1.00  0.00     0.265 C 
ATOM     14  H32 UNL     1      77.231   8.511 -37.487  1.00  0.00     0.277 HD
ATOM     15  H31 UNL     1      77.947   8.627 -36.170  1.00  0.00     0.277 HD
ENDBRANCH   1   9
TORSDOF 3
ENDMDL
MODEL 4
REMARK VINA RESULT: -4.392506380      1.113      1.140
REMARK  3 active torsions:
REMARK  status: ('A' for Active; 'I' for Inactive)
REMARK    1  A    between atoms: C1_4  and  C2_5 
REMARK    2  A    between atoms: C2_5  and  N2_6 
REMARK    3  A    between atoms: N2_6  and  C3_9 
ROOT
HETATM    1  N2  UNL     1      79.788   5.617 -39.500  1.00  0.00    -0.065 N 
ATOM      2  H21 UNL     1      80.627   5.605 -38.919  1.00  0.00     0.278 HD
ATOM      3  H22 UNL     1      79.141   5.144 -38.870  1.00  0.00     0.278 HD
ENDROOT
BRANCH   1   4
HETATM    4  C2  UNL     1      79.985   4.854 -40.689  1.00  0.00     0.276 C 
BRANCH   4   5
HETATM    5  C1  UNL     1      81.420   4.527 -40.919  1.00  0.00     0.080 C 
HETATM    6  N1  UNL     1      81.809   4.274 -42.112  1.00  0.00    -0.410 N 
ATOM      7  H12 UNL     1      81.136   4.301 -42.879  1.00  0.00     0.155 HD
ATOM      8  H11 UNL     1      82.791   4.050 -42.270  1.00  0.00     0.155 HD
ENDBRANCH   4   5
ENDBRANCH   1   4
BRANCH   1   9
HETATM    9  C3  UNL     1      79.367   6.946 -39.751  1.00  0.00     0.213 C 
HETATM   10  C4  UNL     1      78.302   6.990 -40.855  1.00  0.00     0.062 C 
HETATM   11  C5  UNL     1      77.654   8.312 -40.600  1.00  0.00     0.234 C 
HETATM   12  N3  UNL     1      78.233   8.868 -39.387  1.00  0.00    -0.073 N 
HETATM   13  C6  UNL     1      78.590   7.632 -38.656  1.00  0.00     0.265 C 
ATOM     14  H32 UNL     1      78.997   9.530 -39.528  1.00  0.00     0.277 HD
ATOM     15  H31 UNL     1      77.641   9.524 -38.879  1.00  0.00     0.277 HD
ENDBRANCH   1   9
TORSDOF 3
ENDMDL
MODEL 5
REMARK VINA RESULT: -4.372830775      1.448      1.904
REMARK  3 active torsions:
REMARK  status: ('A' for Active; 'I' for Inactive)
REMARK    1  A    between atoms: C1_4  and  C2_5 
REMARK    2  A    between atoms: C2_5  and  N2_6 
REMARK    3  A    between atoms: N2_6  and  C3_9 
ROOT
HETATM    1  N2  UNL     1      80.103   4.124 -41.519  1.00  0.00    -0.065 N 
ATOM      2  H21 UNL     1      79.894   3.151 -41.748  1.00  0.00     0.278 HD
ATOM      3  H22 UNL     1      80.248   4.490 -42.460  1.00  0.00     0.278 HD
ENDROOT
BRANCH   1   4
HETATM    4  C2  UNL     1      81.300   4.217 -40.750  1.00  0.00     0.276 C 
BRANCH   4   5
HETATM    5  C1  UNL     1      82.474   4.616 -41.576  1.00  0.00     0.080 C 
HETATM    6  N1  UNL     1      83.097   3.712 -42.234  1.00  0.00    -0.410 N 
ATOM      7  H12 UNL     1      82.783   2.742 -42.183  1.00  0.00     0.155 HD
ATOM      8  H11 UNL     1      83.900   3.985 -42.801  1.00  0.00     0.155 HD
ENDBRANCH   4   5
ENDBRANCH   1   4
BRANCH   1   9
HETATM    9  C3  UNL     1      78.990   4.746 -40.902  1.00  0.00     0.213 C 
HETATM   10  C4  UNL     1      78.458   3.898 -39.739  1.00  0.00     0.062 C 
HETATM   11  C5  UNL     1      77.697   4.911 -38.946  1.00  0.00     0.234 C 
HETATM   12  N3  UNL     1      77.912   6.212 -39.561  1.00  0.00    -0.073 N 
HETATM   13  C6  UNL     1      79.257   6.025 -40.149  1.00  0.00     0.265 C 
ATOM     14  H32 UNL     1      77.187   6.516 -40.211  1.00  0.00     0.277 HD
ATOM     15  H31 UNL     1      77.812   7.013 -38.938  1.00  0.00     0.277 HD
ENDBRANCH   1   9
TORSDOF 3
ENDMDL
