MODEL 1
REMARK VINA RESULT: -4.794296328      0.000      0.000
REMARK  2 active torsions:
REMARK  status: ('A' for Active; 'I' for Inactive)
REMARK    1  A    between atoms: C1_2  and  N1_3 
REMARK    2  A    between atoms: N1_3  and  C2_5 
ROOT
HETATM    1  C2  UNL     1      79.135   6.705 -38.040  1.00  0.00     0.127 A 
HETATM    2  C3  UNL     1      77.892   7.069 -37.489  1.00  0.00     0.141 A 
HETATM    3  N2  UNL     1      78.028   8.207 -36.791  1.00  0.00    -0.315 N 
ATOM      4  H2  UNL     1      77.290   8.698 -36.286  1.00  0.00     0.170 HD
HETATM    5  C4  UNL     1      79.297   8.572 -36.880  1.00  0.00     0.325 A 
HETATM    6  O2  UNL     1      79.819   9.598 -36.353  1.00  0.00    -0.247 OA
HETATM    7  N3  UNL     1      79.968   7.667 -37.634  1.00  0.00    -0.293 N 
ATOM      8  H3  UNL     1      80.962   7.714 -37.858  1.00  0.00     0.172 HD
ENDROOT
BRANCH   1   9
HETATM    9  N1  UNL     1      79.329   5.551 -38.833  1.00  0.00    -0.319 N 
ATOM     10  H1  UNL     1      79.139   4.639 -38.417  1.00  0.00     0.169 HD
BRANCH   9  11
HETATM   11  C1  UNL     1      79.772   5.599 -40.167  1.00  0.00     0.354 C 
HETATM   12  O1  UNL     1      80.221   6.617 -40.736  1.00  0.00    -0.283 OA
ENDBRANCH   9  11
ENDBRANCH   1   9
TORSDOF 2
ENDMDL
MODEL 2
REMARK VINA RESULT: -4.698868976      5.597      6.860
REMARK  2 active torsions:
REMARK  status: ('A' for Active; 'I' for Inactive)
REMARK    1  A    between atoms: C1_2  and  N1_3 
REMARK    2  A    between atoms: N1_3  and  C2_5 
ROOT
HETATM    1  C2  UNL     1      82.676   4.099 -41.438  1.00  0.00     0.127 A 
HETATM    2  C3  UNL     1      82.571   3.652 -40.107  1.00  0.00     0.141 A 
HETATM    3  N2  UNL     1      83.426   2.637 -39.906  1.00  0.00    -0.315 N 
ATOM      4  H2  UNL     1      83.561   2.124 -39.036  1.00  0.00     0.170 HD
HETATM    5  C4  UNL     1      84.061   2.429 -41.049  1.00  0.00     0.325 A 
HETATM    6  O2  UNL     1      84.950   1.552 -41.261  1.00  0.00    -0.247 OA
HETATM    7  N3  UNL     1      83.611   3.310 -41.975  1.00  0.00    -0.293 N 
ATOM      8  H3  UNL     1      83.937   3.362 -42.940  1.00  0.00     0.172 HD
ENDROOT
BRANCH   1   9
HETATM    9  N1  UNL     1      81.907   5.159 -41.968  1.00  0.00    -0.319 N 
ATOM     10  H1  UNL     1      80.981   4.949 -42.340  1.00  0.00     0.169 HD
BRANCH   9  11
HETATM   11  C1  UNL     1      82.356   6.492 -42.007  1.00  0.00     0.354 C 
HETATM   12  O1  UNL     1      82.490   7.171 -43.048  1.00  0.00    -0.283 OA
ENDBRANCH   9  11
ENDBRANCH   1   9
TORSDOF 2
ENDMDL
MODEL 3
REMARK VINA RESULT: -4.698370446      4.258      6.474
REMARK  2 active torsions:
REMARK  status: ('A' for Active; 'I' for Inactive)
REMARK    1  A    between atoms: C1_2  and  N1_3 
REMARK    2  A    between atoms: N1_3  and  C2_5 
ROOT
HETATM    1  C2  UNL     1      82.348   4.110 -41.173  1.00  0.00     0.127 A 
HETATM    2  C3  UNL     1      82.280   3.475 -39.918  1.00  0.00     0.141 A 
HETATM    3  N2  UNL     1      83.240   2.543 -39.835  1.00  0.00    -0.315 N 
ATOM      4  H2  UNL     1      83.423   1.932 -39.039  1.00  0.00     0.170 HD
HETATM    5  C4  UNL     1      83.907   2.564 -40.978  1.00  0.00     0.325 A 
HETATM    6  O2  UNL     1      84.890   1.827 -41.285  1.00  0.00    -0.247 OA
HETATM    7  N3  UNL     1      83.371   3.509 -41.788  1.00  0.00    -0.293 N 
ATOM      8  H3  UNL     1      83.699   3.729 -42.728  1.00  0.00     0.172 HD
ENDROOT
BRANCH   1   9
HETATM    9  N1  UNL     1      81.470   5.143 -41.574  1.00  0.00    -0.319 N 
ATOM     10  H1  UNL     1      81.652   5.618 -42.458  1.00  0.00     0.169 HD
BRANCH   9  11
HETATM   11  C1  UNL     1      80.359   5.547 -40.813  1.00  0.00     0.354 C 
HETATM   12  O1  UNL     1      80.051   6.734 -40.571  1.00  0.00    -0.283 OA
ENDBRANCH   9  11
ENDBRANCH   1   9
TORSDOF 2
ENDMDL
MODEL 4
REMARK VINA RESULT: -4.654151933      4.254      5.764
REMARK  2 active torsions:
REMARK  status: ('A' for Active; 'I' for Inactive)
REMARK    1  A    between atoms: C1_2  and  N1_3 
REMARK    2  A    between atoms: N1_3  and  C2_5 
ROOT
HETATM    1  C2  UNL     1      82.292   4.171 -41.496  1.00  0.00     0.127 A 
HETATM    2  C3  UNL     1      82.301   5.576 -41.586  1.00  0.00     0.141 A 
HETATM    3  N2  UNL     1      81.124   6.059 -41.162  1.00  0.00    -0.315 N 
ATOM      4  H2  UNL     1      80.853   7.042 -41.119  1.00  0.00     0.170 HD
HETATM    5  C4  UNL     1      80.379   5.023 -40.810  1.00  0.00     0.325 A 
HETATM    6  O2  UNL     1      79.197   5.071 -40.358  1.00  0.00    -0.247 OA
HETATM    7  N3  UNL     1      81.082   3.882 -41.010  1.00  0.00    -0.293 N 
ATOM      8  H3  UNL     1      80.737   2.941 -40.819  1.00  0.00     0.172 HD
ENDROOT
BRANCH   1   9
HETATM    9  N1  UNL     1      83.387   3.358 -41.867  1.00  0.00    -0.319 N 
ATOM     10  H1  UNL     1      83.647   3.314 -42.853  1.00  0.00     0.169 HD
BRANCH   9  11
HETATM   11  C1  UNL     1      84.137   2.607 -40.944  1.00  0.00     0.354 C 
HETATM   12  O1  UNL     1      84.902   1.664 -41.241  1.00  0.00    -0.283 OA
ENDBRANCH   9  11
ENDBRANCH   1   9
TORSDOF 2
ENDMDL
MODEL 5
REMARK VINA RESULT: -4.593039124      3.851      6.205
REMARK  2 active torsions:
REMARK  status: ('A' for Active; 'I' for Inactive)
REMARK    1  A    between atoms: C1_2  and  N1_3 
REMARK    2  A    between atoms: N1_3  and  C2_5 
ROOT
HETATM    1  C2  UNL     1      81.877   4.034 -40.379  1.00  0.00     0.127 A 
HETATM    2  C3  UNL     1      82.252   4.298 -41.710  1.00  0.00     0.141 A 
HETATM    3  N2  UNL     1      83.352   3.594 -42.015  1.00  0.00    -0.315 N 
ATOM      4  H2  UNL     1      83.841   3.593 -42.909  1.00  0.00     0.170 HD
HETATM    5  C4  UNL     1      83.684   2.901 -40.936  1.00  0.00     0.325 A 
HETATM    6  O2  UNL     1      84.670   2.114 -40.827  1.00  0.00    -0.247 OA
HETATM    7  N3  UNL     1      82.795   3.165 -39.948  1.00  0.00    -0.293 N 
ATOM      8  H3  UNL     1      82.823   2.760 -39.012  1.00  0.00     0.172 HD
ENDROOT
BRANCH   1   9
HETATM    9  N1  UNL     1      80.755   4.622 -39.753  1.00  0.00    -0.319 N 
ATOM     10  H1  UNL     1      80.581   4.411 -38.770  1.00  0.00     0.169 HD
BRANCH   9  11
HETATM   11  C1  UNL     1      79.865   5.485 -40.419  1.00  0.00     0.354 C 
HETATM   12  O1  UNL     1      79.969   6.730 -40.456  1.00  0.00    -0.283 OA
ENDBRANCH   9  11
ENDBRANCH   1   9
TORSDOF 2
ENDMDL
