MODEL 1
REMARK VINA RESULT: -4.922762031      0.000      0.000
REMARK  3 active torsions:
REMARK  status: ('A' for Active; 'I' for Inactive)
REMARK    1  A    between atoms: N1_2  and  C3_4 
REMARK    2  A    between atoms: C3_4  and  C4_5 
REMARK    3  A    between atoms: C6_11  and  N4_12 
ROOT
HETATM    1  C4  UNL     1      78.414   6.595 -40.132  1.00  0.00     0.041 A 
HETATM    2  C5  UNL     1      78.351   5.820 -41.260  1.00  0.00     0.123 A 
HETATM    3  N2  UNL     1      77.917   6.590 -42.264  1.00  0.00    -0.309 N 
ATOM      4  H2  UNL     1      77.774   6.277 -43.224  1.00  0.00     0.186 HD
HETATM    5  N3  UNL     1      77.702   7.816 -41.823  1.00  0.00    -0.285 N 
ATOM      6  H3  UNL     1      77.369   8.601 -42.382  1.00  0.00     0.188 HD
HETATM    7  C6  UNL     1      77.997   7.852 -40.517  1.00  0.00     0.126 A 
ENDROOT
BRANCH   1   8
HETATM    8  C3  UNL     1      78.830   6.248 -38.746  1.00  0.00     0.101 C 
BRANCH   8   9
HETATM    9  N1  UNL     1      77.777   5.978 -37.848  1.00  0.00    -0.398 N 
HETATM   10  C1  UNL     1      77.626   6.806 -36.714  1.00  0.00     0.148 C 
HETATM   11  C2  UNL     1      77.527   4.599 -37.584  1.00  0.00     0.148 C 
ENDBRANCH   8   9
ENDBRANCH   1   8
BRANCH   7  12
HETATM   12  N4  UNL     1      77.888   8.927 -39.791  1.00  0.00    -0.384 N 
ATOM     13  H42 UNL     1      78.682   9.378 -39.338  1.00  0.00     0.157 HD
ATOM     14  H41 UNL     1      77.047   9.461 -39.570  1.00  0.00     0.157 HD
ENDBRANCH   7  12
TORSDOF 3
ENDMDL
MODEL 2
REMARK VINA RESULT: -4.914187231      1.401      2.440
REMARK  3 active torsions:
REMARK  status: ('A' for Active; 'I' for Inactive)
REMARK    1  A    between atoms: N1_2  and  C3_4 
REMARK    2  A    between atoms: C3_4  and  C4_5 
REMARK    3  A    between atoms: C6_11  and  N4_12 
ROOT
HETATM    1  C4  UNL     1      78.649   6.999 -39.888  1.00  0.00     0.041 A 
HETATM    2  C5  UNL     1      78.511   8.022 -38.988  1.00  0.00     0.123 A 
HETATM    3  N2  UNL     1      77.895   9.035 -39.608  1.00  0.00    -0.309 N 
ATOM      4  H2  UNL     1      77.661   9.930 -39.180  1.00  0.00     0.186 HD
HETATM    5  N3  UNL     1      77.637   8.699 -40.858  1.00  0.00    -0.285 N 
ATOM      6  H3  UNL     1      77.173   9.287 -41.551  1.00  0.00     0.188 HD
HETATM    7  C6  UNL     1      78.088   7.455 -41.062  1.00  0.00     0.126 A 
ENDROOT
BRANCH   1   8
HETATM    8  C3  UNL     1      79.255   5.650 -39.727  1.00  0.00     0.101 C 
BRANCH   8   9
HETATM    9  N1  UNL     1      78.340   4.593 -39.543  1.00  0.00    -0.398 N 
HETATM   10  C1  UNL     1      77.665   4.490 -38.307  1.00  0.00     0.148 C 
HETATM   11  C2  UNL     1      78.734   3.333 -40.083  1.00  0.00     0.148 C 
ENDBRANCH   8   9
ENDBRANCH   1   8
BRANCH   7  12
HETATM   12  N4  UNL     1      77.982   6.836 -42.203  1.00  0.00    -0.384 N 
ATOM     13  H42 UNL     1      78.628   6.108 -42.505  1.00  0.00     0.157 HD
ATOM     14  H41 UNL     1      77.283   6.969 -42.935  1.00  0.00     0.157 HD
ENDBRANCH   7  12
TORSDOF 3
ENDMDL
MODEL 3
REMARK VINA RESULT: -4.891440588      1.251      1.621
REMARK  3 active torsions:
REMARK  status: ('A' for Active; 'I' for Inactive)
REMARK    1  A    between atoms: N1_2  and  C3_4 
REMARK    2  A    between atoms: C3_4  and  C4_5 
REMARK    3  A    between atoms: C6_11  and  N4_12 
ROOT
HETATM    1  C4  UNL     1      77.997   6.613 -39.767  1.00  0.00     0.041 A 
HETATM    2  C5  UNL     1      78.182   5.574 -40.641  1.00  0.00     0.123 A 
HETATM    3  N2  UNL     1      78.170   6.072 -41.882  1.00  0.00    -0.309 N 
ATOM      4  H2  UNL     1      78.285   5.526 -42.735  1.00  0.00     0.186 HD
HETATM    5  N3  UNL     1      77.986   7.379 -41.833  1.00  0.00    -0.285 N 
ATOM      6  H3  UNL     1      77.938   8.004 -42.638  1.00  0.00     0.188 HD
HETATM    7  C6  UNL     1      77.876   7.742 -40.549  1.00  0.00     0.126 A 
ENDROOT
BRANCH   1   8
HETATM    8  C3  UNL     1      77.929   6.622 -38.281  1.00  0.00     0.101 C 
BRANCH   8   9
HETATM    9  N1  UNL     1      79.170   6.721 -37.619  1.00  0.00    -0.398 N 
HETATM   10  C1  UNL     1      79.545   5.692 -36.728  1.00  0.00     0.148 C 
HETATM   11  C2  UNL     1      79.526   8.025 -37.165  1.00  0.00     0.148 C 
ENDBRANCH   8   9
ENDBRANCH   1   8
BRANCH   7  12
HETATM   12  N4  UNL     1      77.687   8.974 -40.171  1.00  0.00    -0.384 N 
ATOM     13  H42 UNL     1      76.852   9.509 -40.408  1.00  0.00     0.157 HD
ATOM     14  H41 UNL     1      78.301   9.567 -39.612  1.00  0.00     0.157 HD
ENDBRANCH   7  12
TORSDOF 3
ENDMDL
MODEL 4
REMARK VINA RESULT: -4.849259856      1.639      2.855
REMARK  3 active torsions:
REMARK  status: ('A' for Active; 'I' for Inactive)
REMARK    1  A    between atoms: N1_2  and  C3_4 
REMARK    2  A    between atoms: C3_4  and  C4_5 
REMARK    3  A    between atoms: C6_11  and  N4_12 
ROOT
HETATM    1  C4  UNL     1      78.155   6.754 -39.890  1.00  0.00     0.041 A 
HETATM    2  C5  UNL     1      78.131   7.756 -38.955  1.00  0.00     0.123 A 
HETATM    3  N2  UNL     1      77.923   8.911 -39.597  1.00  0.00    -0.309 N 
ATOM      4  H2  UNL     1      77.859   9.826 -39.152  1.00  0.00     0.186 HD
HETATM    5  N3  UNL     1      77.815   8.686 -40.893  1.00  0.00    -0.285 N 
ATOM      6  H3  UNL     1      77.653   9.393 -41.610  1.00  0.00     0.188 HD
HETATM    7  C6  UNL     1      77.953   7.371 -41.106  1.00  0.00     0.126 A 
ENDROOT
BRANCH   1   8
HETATM    8  C3  UNL     1      78.349   5.288 -39.725  1.00  0.00     0.101 C 
BRANCH   8   9
HETATM    9  N1  UNL     1      79.689   4.863 -39.618  1.00  0.00    -0.398 N 
HETATM   10  C1  UNL     1      80.372   4.475 -40.791  1.00  0.00     0.148 C 
HETATM   11  C2  UNL     1      79.991   4.047 -38.488  1.00  0.00     0.148 C 
ENDBRANCH   8   9
ENDBRANCH   1   8
BRANCH   7  12
HETATM   12  N4  UNL     1      77.895   6.830 -42.289  1.00  0.00    -0.384 N 
ATOM     13  H42 UNL     1      77.169   6.170 -42.566  1.00  0.00     0.157 HD
ATOM     14  H41 UNL     1      78.524   6.966 -43.081  1.00  0.00     0.157 HD
ENDBRANCH   7  12
TORSDOF 3
ENDMDL
MODEL 5
REMARK VINA RESULT: -4.793397185      5.247      5.898
REMARK  3 active torsions:
REMARK  status: ('A' for Active; 'I' for Inactive)
REMARK    1  A    between atoms: N1_2  and  C3_4 
REMARK    2  A    between atoms: C3_4  and  C4_5 
REMARK    3  A    between atoms: C6_11  and  N4_12 
ROOT
HETATM    1  C4  UNL     1      82.262   3.545 -40.219  1.00  0.00     0.041 A 
HETATM    2  C5  UNL     1      81.468   4.353 -40.989  1.00  0.00     0.123 A 
HETATM    3  N2  UNL     1      82.032   4.450 -42.198  1.00  0.00    -0.309 N 
ATOM      4  H2  UNL     1      81.658   4.990 -42.978  1.00  0.00     0.186 HD
HETATM    5  N3  UNL     1      83.145   3.742 -42.228  1.00  0.00    -0.285 N 
ATOM      6  H3  UNL     1      83.769   3.644 -43.029  1.00  0.00     0.188 HD
HETATM    7  C6  UNL     1      83.315   3.174 -41.027  1.00  0.00     0.126 A 
ENDROOT
BRANCH   1   8
HETATM    8  C3  UNL     1      82.105   3.104 -38.806  1.00  0.00     0.101 C 
BRANCH   8   9
HETATM    9  N1  UNL     1      81.208   2.035 -38.602  1.00  0.00    -0.398 N 
HETATM   10  C1  UNL     1      79.946   2.310 -38.033  1.00  0.00     0.148 C 
HETATM   11  C2  UNL     1      81.791   0.820 -38.135  1.00  0.00     0.148 C 
ENDBRANCH   8   9
ENDBRANCH   1   8
BRANCH   7  12
HETATM   12  N4  UNL     1      84.329   2.409 -40.738  1.00  0.00    -0.384 N 
ATOM     13  H42 UNL     1      85.033   2.654 -40.042  1.00  0.00     0.157 HD
ATOM     14  H41 UNL     1      84.570   1.499 -41.132  1.00  0.00     0.157 HD
ENDBRANCH   7  12
TORSDOF 3
ENDMDL
