MODEL 1
REMARK VINA RESULT: -3.876282747      0.000      0.000
REMARK  5 active torsions:
REMARK  status: ('A' for Active; 'I' for Inactive)
REMARK    1  A    between atoms: N1_1  and  C1_5 
REMARK    2  A    between atoms: C1_5  and  C2_6 
REMARK    3  A    between atoms: C3_7  and  N2_8 
REMARK    4  A    between atoms: C4_12  and  C5_13 
REMARK    5  A    between atoms: C5_13  and  N3_14 
ROOT
HETATM    1  C2  UNL     1     -21.972  23.185 -26.971  1.00  0.00     0.049 A 
HETATM    2  C3  UNL     1     -22.513  22.579 -25.748  1.00  0.00     0.195 A 
HETATM    3  C4  UNL     1     -22.014  23.980 -25.667  1.00  0.00     0.049 A 
ENDROOT
BRANCH   1   4
HETATM    4  C1  UNL     1     -20.626  22.867 -27.521  1.00  0.00     0.236 C 
BRANCH   4   5
HETATM    5  N1  UNL     1     -20.792  22.412 -28.890  1.00  0.00    -0.079 N 
ATOM      6  H13 UNL     1     -21.362  21.569 -28.958  1.00  0.00     0.274 HD
ATOM      7  H12 UNL     1     -21.392  23.028 -29.439  1.00  0.00     0.274 HD
ATOM      8  H11 UNL     1     -19.865  22.296 -29.301  1.00  0.00     0.274 HD
ENDBRANCH   4   5
ENDBRANCH   1   4
BRANCH   2   9
HETATM    9  N2  UNL     1     -21.798  21.614 -24.964  1.00  0.00    -0.074 N 
ATOM     10  H23 UNL     1     -21.268  21.030 -25.611  1.00  0.00     0.274 HD
ATOM     11  H22 UNL     1     -21.062  22.115 -24.465  1.00  0.00     0.274 HD
ATOM     12  H21 UNL     1     -22.249  20.992 -24.294  1.00  0.00     0.274 HD
ENDBRANCH   2   9
BRANCH   3  13
HETATM   13  C5  UNL     1     -23.001  25.128 -25.646  1.00  0.00     0.236 C 
BRANCH  13  14
HETATM   14  N3  UNL     1     -23.860  25.068 -24.498  1.00  0.00    -0.079 N 
ATOM     15  H33 UNL     1     -24.457  24.242 -24.522  1.00  0.00     0.274 HD
ATOM     16  H32 UNL     1     -23.332  24.859 -23.650  1.00  0.00     0.274 HD
ATOM     17  H31 UNL     1     -24.410  25.921 -24.393  1.00  0.00     0.274 HD
ENDBRANCH  13  14
ENDBRANCH   3  13
TORSDOF 5
ENDMDL
MODEL 2
REMARK VINA RESULT: -3.809506789      1.224      1.364
REMARK  5 active torsions:
REMARK  status: ('A' for Active; 'I' for Inactive)
REMARK    1  A    between atoms: N1_1  and  C1_5 
REMARK    2  A    between atoms: C1_5  and  C2_6 
REMARK    3  A    between atoms: C3_7  and  N2_8 
REMARK    4  A    between atoms: C4_12  and  C5_13 
REMARK    5  A    between atoms: C5_13  and  N3_14 
ROOT
HETATM    1  C2  UNL     1     -22.871  23.046 -26.160  1.00  0.00     0.049 A 
HETATM    2  C3  UNL     1     -22.896  22.058 -25.073  1.00  0.00     0.195 A 
HETATM    3  C4  UNL     1     -23.175  23.479 -24.727  1.00  0.00     0.049 A 
ENDROOT
BRANCH   1   4
HETATM    4  C1  UNL     1     -21.616  23.568 -26.768  1.00  0.00     0.236 C 
BRANCH   4   5
HETATM    5  N1  UNL     1     -21.207  22.652 -27.818  1.00  0.00    -0.079 N 
ATOM      6  H13 UNL     1     -20.482  22.003 -27.513  1.00  0.00     0.274 HD
ATOM      7  H12 UNL     1     -21.925  21.962 -28.040  1.00  0.00     0.274 HD
ATOM      8  H11 UNL     1     -20.926  23.204 -28.629  1.00  0.00     0.274 HD
ENDBRANCH   4   5
ENDBRANCH   1   4
BRANCH   2   9
HETATM    9  N2  UNL     1     -21.712  21.493 -24.494  1.00  0.00    -0.074 N 
ATOM     10  H23 UNL     1     -21.598  21.909 -23.570  1.00  0.00     0.274 HD
ATOM     11  H22 UNL     1     -21.918  20.519 -24.274  1.00  0.00     0.274 HD
ATOM     12  H21 UNL     1     -20.800  21.515 -24.950  1.00  0.00     0.274 HD
ENDBRANCH   2   9
BRANCH   3  13
HETATM   13  C5  UNL     1     -24.600  23.925 -24.479  1.00  0.00     0.236 C 
BRANCH  13  14
HETATM   14  N3  UNL     1     -24.653  25.238 -23.903  1.00  0.00    -0.079 N 
ATOM     15  H33 UNL     1     -25.511  25.374 -23.368  1.00  0.00     0.274 HD
ATOM     16  H32 UNL     1     -23.976  25.339 -23.147  1.00  0.00     0.274 HD
ATOM     17  H31 UNL     1     -24.536  25.964 -24.609  1.00  0.00     0.274 HD
ENDBRANCH  13  14
ENDBRANCH   3  13
TORSDOF 5
ENDMDL
MODEL 3
REMARK VINA RESULT: -3.794921899      1.050      3.670
REMARK  5 active torsions:
REMARK  status: ('A' for Active; 'I' for Inactive)
REMARK    1  A    between atoms: N1_1  and  C1_5 
REMARK    2  A    between atoms: C1_5  and  C2_6 
REMARK    3  A    between atoms: C3_7  and  N2_8 
REMARK    4  A    between atoms: C4_12  and  C5_13 
REMARK    5  A    between atoms: C5_13  and  N3_14 
ROOT
HETATM    1  C2  UNL     1     -22.428  22.560 -25.844  1.00  0.00     0.049 A 
HETATM    2  C3  UNL     1     -22.817  23.877 -26.364  1.00  0.00     0.195 A 
HETATM    3  C4  UNL     1     -21.546  23.282 -26.861  1.00  0.00     0.049 A 
ENDROOT
BRANCH   1   4
HETATM    4  C1  UNL     1     -21.854  22.348 -24.487  1.00  0.00     0.236 C 
BRANCH   4   5
HETATM    5  N1  UNL     1     -21.670  20.921 -24.292  1.00  0.00    -0.079 N 
ATOM      6  H13 UNL     1     -22.482  20.474 -23.865  1.00  0.00     0.274 HD
ATOM      7  H12 UNL     1     -21.672  20.400 -25.169  1.00  0.00     0.274 HD
ATOM      8  H11 UNL     1     -20.815  20.782 -23.752  1.00  0.00     0.274 HD
ENDBRANCH   4   5
ENDBRANCH   1   4
BRANCH   2   9
HETATM    9  N2  UNL     1     -22.688  25.091 -25.612  1.00  0.00    -0.074 N 
ATOM     10  H23 UNL     1     -23.623  25.359 -25.306  1.00  0.00     0.274 HD
ATOM     11  H22 UNL     1     -22.227  24.855 -24.733  1.00  0.00     0.274 HD
ATOM     12  H21 UNL     1     -22.236  25.930 -25.975  1.00  0.00     0.274 HD
ENDBRANCH   2   9
BRANCH   3  13
HETATM   13  C5  UNL     1     -21.500  22.649 -28.236  1.00  0.00     0.236 C 
BRANCH  13  14
HETATM   14  N3  UNL     1     -20.154  22.507 -28.711  1.00  0.00    -0.079 N 
ATOM     15  H33 UNL     1     -19.989  21.573 -29.086  1.00  0.00     0.274 HD
ATOM     16  H32 UNL     1     -20.000  23.050 -29.561  1.00  0.00     0.274 HD
ATOM     17  H31 UNL     1     -19.473  22.743 -27.990  1.00  0.00     0.274 HD
ENDBRANCH  13  14
ENDBRANCH   3  13
TORSDOF 5
ENDMDL
MODEL 4
REMARK VINA RESULT: -3.708409775      1.426      3.781
REMARK  5 active torsions:
REMARK  status: ('A' for Active; 'I' for Inactive)
REMARK    1  A    between atoms: N1_1  and  C1_5 
REMARK    2  A    between atoms: C1_5  and  C2_6 
REMARK    3  A    between atoms: C3_7  and  N2_8 
REMARK    4  A    between atoms: C4_12  and  C5_13 
REMARK    5  A    between atoms: C5_13  and  N3_14 
ROOT
HETATM    1  C2  UNL     1     -22.976  23.074 -24.562  1.00  0.00     0.049 A 
HETATM    2  C3  UNL     1     -21.844  22.139 -24.583  1.00  0.00     0.195 A 
HETATM    3  C4  UNL     1     -22.450  22.525 -25.887  1.00  0.00     0.049 A 
ENDROOT
BRANCH   1   4
HETATM    4  C1  UNL     1     -24.359  22.683 -24.174  1.00  0.00     0.236 C 
BRANCH   4   5
HETATM    5  N1  UNL     1     -25.031  23.860 -23.652  1.00  0.00    -0.079 N 
ATOM      6  H13 UNL     1     -24.517  24.721 -23.834  1.00  0.00     0.274 HD
ATOM      7  H12 UNL     1     -25.877  24.093 -24.172  1.00  0.00     0.274 HD
ATOM      8  H11 UNL     1     -25.209  23.709 -22.658  1.00  0.00     0.274 HD
ENDBRANCH   4   5
ENDBRANCH   1   4
BRANCH   2   9
HETATM    9  N2  UNL     1     -21.958  20.755 -24.225  1.00  0.00    -0.074 N 
ATOM     10  H23 UNL     1     -22.947  20.564 -24.064  1.00  0.00     0.274 HD
ATOM     11  H22 UNL     1     -21.762  20.208 -25.064  1.00  0.00     0.274 HD
ATOM     12  H21 UNL     1     -21.439  20.330 -23.457  1.00  0.00     0.274 HD
ENDBRANCH   2   9
BRANCH   3  13
HETATM   13  C5  UNL     1     -21.751  23.537 -26.770  1.00  0.00     0.236 C 
BRANCH  13  14
HETATM   14  N3  UNL     1     -21.013  22.901 -27.824  1.00  0.00    -0.079 N 
ATOM     15  H33 UNL     1     -21.142  21.890 -27.810  1.00  0.00     0.274 HD
ATOM     16  H32 UNL     1     -21.422  23.102 -28.737  1.00  0.00     0.274 HD
ATOM     17  H31 UNL     1     -20.024  23.150 -27.796  1.00  0.00     0.274 HD
ENDBRANCH  13  14
ENDBRANCH   3  13
TORSDOF 5
ENDMDL
MODEL 5
REMARK VINA RESULT: -3.696661132      2.108      4.074
REMARK  5 active torsions:
REMARK  status: ('A' for Active; 'I' for Inactive)
REMARK    1  A    between atoms: N1_1  and  C1_5 
REMARK    2  A    between atoms: C1_5  and  C2_6 
REMARK    3  A    between atoms: C3_7  and  N2_8 
REMARK    4  A    between atoms: C4_12  and  C5_13 
REMARK    5  A    between atoms: C5_13  and  N3_14 
ROOT
HETATM    1  C2  UNL     1     -23.976  21.884 -24.655  1.00  0.00     0.049 A 
HETATM    2  C3  UNL     1     -24.585  23.207 -24.844  1.00  0.00     0.195 A 
HETATM    3  C4  UNL     1     -23.162  23.033 -25.248  1.00  0.00     0.049 A 
ENDROOT
BRANCH   1   4
HETATM    4  C1  UNL     1     -23.536  21.363 -23.332  1.00  0.00     0.236 C 
BRANCH   4   5
HETATM    5  N1  UNL     1     -23.738  19.925 -23.323  1.00  0.00    -0.079 N 
ATOM      6  H13 UNL     1     -24.033  19.563 -24.229  1.00  0.00     0.274 HD
ATOM      7  H12 UNL     1     -22.863  19.405 -23.246  1.00  0.00     0.274 HD
ATOM      8  H11 UNL     1     -24.396  19.701 -22.575  1.00  0.00     0.274 HD
ENDBRANCH   4   5
ENDBRANCH   1   4
BRANCH   2   9
HETATM    9  N2  UNL     1     -24.822  24.126 -23.770  1.00  0.00    -0.074 N 
ATOM     10  H23 UNL     1     -24.325  24.989 -23.993  1.00  0.00     0.274 HD
ATOM     11  H22 UNL     1     -25.799  24.414 -23.828  1.00  0.00     0.274 HD
ATOM     12  H21 UNL     1     -24.627  23.909 -22.793  1.00  0.00     0.274 HD
ENDBRANCH   2   9
BRANCH   3  13
HETATM   13  C5  UNL     1     -22.811  22.882 -26.714  1.00  0.00     0.236 C 
BRANCH  13  14
HETATM   14  N3  UNL     1     -21.393  22.932 -26.928  1.00  0.00    -0.079 N 
ATOM     15  H33 UNL     1     -21.167  23.379 -27.816  1.00  0.00     0.274 HD
ATOM     16  H32 UNL     1     -20.945  23.597 -26.296  1.00  0.00     0.274 HD
ATOM     17  H31 UNL     1     -20.968  22.008 -26.858  1.00  0.00     0.274 HD
ENDBRANCH  13  14
ENDBRANCH   3  13
TORSDOF 5
ENDMDL
