MODEL 1
REMARK VINA RESULT: -7.105514000      0.000      0.000
REMARK  4 active torsions:
REMARK  status: ('A' for Active; 'I' for Inactive)
REMARK    1  A    between atoms: C2_2  and  C3_3 
REMARK    2  A    between atoms: C3_3  and  C4_4 
REMARK    3  A    between atoms: C4_4  and  C6_6 
REMARK    4  A    between atoms: C6_6  and  C7_7 
ROOT
HETATM    1  C6  UNL     1      64.259  47.561  29.448  1.00  0.00    -0.020 C 
HETATM    2  C8  UNL     1      64.519  48.933  28.745  1.00  0.00     0.011 C 
HETATM    3  C9  UNL     1      64.042  48.925  27.342  1.00  0.00     0.002 C 
HETATM    4  C10 UNL     1      62.691  48.328  27.158  1.00  0.00     0.010 C 
HETATM    5  C11 UNL     1      61.962  48.141  28.488  1.00  0.00    -0.035 C 
HETATM    6  C12 UNL     1      61.615  49.496  28.984  1.00  0.00     0.016 C 
HETATM    7  C13 UNL     1      62.801  47.268  29.385  1.00  0.00     0.004 C 
HETATM    8  C14 UNL     1      62.103  46.940  30.645  1.00  0.00     0.006 C 
HETATM    9  C15 UNL     1      60.731  46.317  30.278  1.00  0.00     0.006 C 
HETATM   10  C16 UNL     1      60.011  47.379  29.575  1.00  0.00    -0.000 A 
HETATM   11  C17 UNL     1      60.722  47.347  28.167  1.00  0.00     0.008 A 
HETATM   12  C18 UNL     1      59.366  47.500  28.332  1.00  0.00    -0.032 A 
HETATM   13  C19 UNL     1      58.354  46.718  27.671  1.00  0.00     0.011 A 
HETATM   14  C20 UNL     1      58.277  48.250  27.857  1.00  0.00     0.011 A 
ENDROOT
BRANCH   1  15
HETATM   15  C4  UNL     1      64.913  47.743  30.748  1.00  0.00    -0.005 C 
HETATM   16  C5  UNL     1      66.358  47.329  30.872  1.00  0.00     0.011 C 
BRANCH  15  17
HETATM   17  C3  UNL     1      64.643  48.851  31.668  1.00  0.00     0.031 C 
BRANCH  17  18
HETATM   18  C2  UNL     1      64.728  48.452  33.122  1.00  0.00    -0.037 C 
HETATM   19  C1  UNL     1      63.663  47.948  33.696  1.00  0.00     0.007 C 
ENDBRANCH  17  18
ENDBRANCH  15  17
ENDBRANCH   1  15
BRANCH   1  20
HETATM   20  C7  UNL     1      65.077  46.632  28.579  1.00  0.00     0.121 C 
HETATM   21  S1  UNL     1      64.500  45.029  28.180  1.00  0.00    -0.126 SA
ENDBRANCH   1  20
TORSDOF 4
ENDMDL
MODEL 2
REMARK VINA RESULT: -6.863871836      0.766      1.138
REMARK  4 active torsions:
REMARK  status: ('A' for Active; 'I' for Inactive)
REMARK    1  A    between atoms: C2_2  and  C3_3 
REMARK    2  A    between atoms: C3_3  and  C4_4 
REMARK    3  A    between atoms: C4_4  and  C6_6 
REMARK    4  A    between atoms: C6_6  and  C7_7 
ROOT
HETATM    1  C6  UNL     1      64.431  47.691  29.433  1.00  0.00    -0.020 C 
HETATM    2  C8  UNL     1      64.661  49.002  28.613  1.00  0.00     0.011 C 
HETATM    3  C9  UNL     1      64.150  48.874  27.227  1.00  0.00     0.002 C 
HETATM    4  C10 UNL     1      62.801  48.253  27.127  1.00  0.00     0.010 C 
HETATM    5  C11 UNL     1      62.106  48.171  28.486  1.00  0.00    -0.035 C 
HETATM    6  C12 UNL     1      61.758  49.561  28.876  1.00  0.00     0.016 C 
HETATM    7  C13 UNL     1      62.976  47.383  29.431  1.00  0.00     0.004 C 
HETATM    8  C14 UNL     1      62.311  47.155  30.731  1.00  0.00     0.006 C 
HETATM    9  C15 UNL     1      60.937  46.494  30.451  1.00  0.00     0.006 C 
HETATM   10  C16 UNL     1      60.190  47.488  29.680  1.00  0.00    -0.000 A 
HETATM   11  C17 UNL     1      60.867  47.345  28.263  1.00  0.00     0.008 A 
HETATM   12  C18 UNL     1      59.514  47.500  28.448  1.00  0.00    -0.032 A 
HETATM   13  C19 UNL     1      58.493  46.658  27.880  1.00  0.00     0.011 A 
HETATM   14  C20 UNL     1      58.406  48.199  27.940  1.00  0.00     0.011 A 
ENDROOT
BRANCH   1  15
HETATM   15  C4  UNL     1      65.115  47.986  30.696  1.00  0.00    -0.005 C 
HETATM   16  C5  UNL     1      64.410  48.881  31.685  1.00  0.00     0.011 C 
BRANCH  15  17
HETATM   17  C3  UNL     1      65.975  47.044  31.419  1.00  0.00     0.031 C 
BRANCH  17  18
HETATM   18  C2  UNL     1      65.844  47.148  32.919  1.00  0.00    -0.037 C 
HETATM   19  C1  UNL     1      66.747  46.567  33.669  1.00  0.00     0.007 C 
ENDBRANCH  17  18
ENDBRANCH  15  17
ENDBRANCH   1  15
BRANCH   1  20
HETATM   20  C7  UNL     1      65.237  46.700  28.624  1.00  0.00     0.121 C 
HETATM   21  S1  UNL     1      64.601  45.114  28.247  1.00  0.00    -0.126 SA
ENDBRANCH   1  20
TORSDOF 4
ENDMDL
MODEL 3
REMARK VINA RESULT: -6.733602601      1.753      5.910
REMARK  4 active torsions:
REMARK  status: ('A' for Active; 'I' for Inactive)
REMARK    1  A    between atoms: C2_2  and  C3_3 
REMARK    2  A    between atoms: C3_3  and  C4_4 
REMARK    3  A    between atoms: C4_4  and  C6_6 
REMARK    4  A    between atoms: C6_6  and  C7_7 
ROOT
HETATM    1  C6  UNL     1      64.565  47.850  29.693  1.00  0.00    -0.020 C 
HETATM    2  C8  UNL     1      65.708  46.891  29.228  1.00  0.00     0.011 C 
HETATM    3  C9  UNL     1      67.036  47.366  29.684  1.00  0.00     0.002 C 
HETATM    4  C10 UNL     1      67.073  47.807  31.105  1.00  0.00     0.010 C 
HETATM    5  C11 UNL     1      65.820  47.382  31.870  1.00  0.00    -0.035 C 
HETATM    6  C12 UNL     1      65.888  45.907  32.022  1.00  0.00     0.016 C 
HETATM    7  C13 UNL     1      64.610  47.952  31.177  1.00  0.00     0.004 C 
HETATM    8  C14 UNL     1      63.367  47.686  31.930  1.00  0.00     0.006 C 
HETATM    9  C15 UNL     1      63.566  48.217  33.374  1.00  0.00     0.006 C 
HETATM   10  C16 UNL     1      64.659  47.416  33.923  1.00  0.00    -0.000 A 
HETATM   11  C17 UNL     1      65.903  48.069  33.208  1.00  0.00     0.008 A 
HETATM   12  C18 UNL     1      65.897  47.691  34.529  1.00  0.00    -0.032 A 
HETATM   13  C19 UNL     1      66.285  48.525  35.637  1.00  0.00     0.011 A 
HETATM   14  C20 UNL     1      66.688  47.040  35.493  1.00  0.00     0.011 A 
ENDROOT
BRANCH   1  15
HETATM   15  C4  UNL     1      63.386  47.277  29.035  1.00  0.00    -0.005 C 
HETATM   16  C5  UNL     1      63.514  45.895  28.442  1.00  0.00     0.011 C 
BRANCH  15  17
HETATM   17  C3  UNL     1      62.002  47.496  29.464  1.00  0.00     0.031 C 
BRANCH  17  18
HETATM   18  C2  UNL     1      61.084  47.897  28.334  1.00  0.00    -0.037 C 
HETATM   19  C1  UNL     1      59.843  47.478  28.356  1.00  0.00     0.007 C 
ENDBRANCH  17  18
ENDBRANCH  15  17
ENDBRANCH   1  15
BRANCH   1  20
HETATM   20  C7  UNL     1      64.969  49.135  29.008  1.00  0.00     0.121 C 
HETATM   21  S1  UNL     1      64.551  49.438  27.337  1.00  0.00    -0.126 SA
ENDBRANCH   1  20
TORSDOF 4
ENDMDL
MODEL 4
REMARK VINA RESULT: -6.684409191      2.877      4.963
REMARK  4 active torsions:
REMARK  status: ('A' for Active; 'I' for Inactive)
REMARK    1  A    between atoms: C2_2  and  C3_3 
REMARK    2  A    between atoms: C3_3  and  C4_4 
REMARK    3  A    between atoms: C4_4  and  C6_6 
REMARK    4  A    between atoms: C6_6  and  C7_7 
ROOT
HETATM    1  C6  UNL     1      66.253  47.474  32.475  1.00  0.00    -0.020 C 
HETATM    2  C8  UNL     1      64.931  46.973  33.144  1.00  0.00     0.011 C 
HETATM    3  C9  UNL     1      63.868  48.005  33.089  1.00  0.00     0.002 C 
HETATM    4  C10 UNL     1      63.734  48.675  31.766  1.00  0.00     0.010 C 
HETATM    5  C11 UNL     1      64.503  47.938  30.670  1.00  0.00    -0.035 C 
HETATM    6  C12 UNL     1      63.786  46.662  30.424  1.00  0.00     0.016 C 
HETATM    7  C13 UNL     1      65.954  47.853  31.067  1.00  0.00     0.004 C 
HETATM    8  C14 UNL     1      66.784  47.262  29.997  1.00  0.00     0.006 C 
HETATM    9  C15 UNL     1      66.540  48.080  28.702  1.00  0.00     0.006 C 
HETATM   10  C16 UNL     1      65.124  47.885  28.395  1.00  0.00    -0.000 A 
HETATM   11  C17 UNL     1      64.449  48.833  29.460  1.00  0.00     0.008 A 
HETATM   12  C18 UNL     1      64.025  48.728  28.156  1.00  0.00    -0.032 A 
HETATM   13  C19 UNL     1      63.812  49.834  27.258  1.00  0.00     0.011 A 
HETATM   14  C20 UNL     1      62.855  48.627  27.383  1.00  0.00     0.011 A 
ENDROOT
BRANCH   1  15
HETATM   15  C4  UNL     1      67.183  46.375  32.755  1.00  0.00    -0.005 C 
HETATM   16  C5  UNL     1      68.623  46.727  33.037  1.00  0.00     0.011 C 
BRANCH  15  17
HETATM   17  C3  UNL     1      66.832  45.149  33.477  1.00  0.00     0.031 C 
BRANCH  17  18
HETATM   18  C2  UNL     1      67.071  43.895  32.671  1.00  0.00    -0.037 C 
HETATM   19  C1  UNL     1      66.829  43.921  31.384  1.00  0.00     0.007 C 
ENDBRANCH  17  18
ENDBRANCH  15  17
ENDBRANCH   1  15
BRANCH   1  20
HETATM   20  C7  UNL     1      66.581  48.668  33.342  1.00  0.00     0.121 C 
HETATM   21  S1  UNL     1      66.210  48.671  35.051  1.00  0.00    -0.126 SA
ENDBRANCH   1  20
TORSDOF 4
ENDMDL
MODEL 5
REMARK VINA RESULT: -6.436107641      1.784      5.858
REMARK  4 active torsions:
REMARK  status: ('A' for Active; 'I' for Inactive)
REMARK    1  A    between atoms: C2_2  and  C3_3 
REMARK    2  A    between atoms: C3_3  and  C4_4 
REMARK    3  A    between atoms: C4_4  and  C6_6 
REMARK    4  A    between atoms: C6_6  and  C7_7 
ROOT
HETATM    1  C6  UNL     1      64.163  48.190  29.836  1.00  0.00    -0.020 C 
HETATM    2  C8  UNL     1      65.052  47.080  29.187  1.00  0.00     0.011 C 
HETATM    3  C9  UNL     1      66.491  47.304  29.463  1.00  0.00     0.002 C 
HETATM    4  C10 UNL     1      66.795  47.660  30.876  1.00  0.00     0.010 C 
HETATM    5  C11 UNL     1      65.603  47.410  31.799  1.00  0.00    -0.035 C 
HETATM    6  C12 UNL     1      65.437  45.939  31.900  1.00  0.00     0.016 C 
HETATM    7  C13 UNL     1      64.426  48.208  31.301  1.00  0.00     0.004 C 
HETATM    8  C14 UNL     1      63.269  48.114  32.215  1.00  0.00     0.006 C 
HETATM    9  C15 UNL     1      63.750  48.531  33.630  1.00  0.00     0.006 C 
HETATM   10  C16 UNL     1      64.754  47.533  33.997  1.00  0.00    -0.000 A 
HETATM   11  C17 UNL     1      65.983  48.006  33.129  1.00  0.00     0.008 A 
HETATM   12  C18 UNL     1      66.091  47.567  34.427  1.00  0.00    -0.032 A 
HETATM   13  C19 UNL     1      66.762  48.269  35.491  1.00  0.00     0.011 A 
HETATM   14  C20 UNL     1      66.882  46.747  35.251  1.00  0.00     0.011 A 
ENDROOT
BRANCH   1  15
HETATM   15  C4  UNL     1      62.826  47.854  29.337  1.00  0.00    -0.005 C 
HETATM   16  C5  UNL     1      62.235  48.732  28.261  1.00  0.00     0.011 C 
BRANCH  15  17
HETATM   17  C3  UNL     1      62.308  46.491  29.190  1.00  0.00     0.031 C 
BRANCH  17  18
HETATM   18  C2  UNL     1      60.838  46.374  29.510  1.00  0.00    -0.037 C 
HETATM   19  C1  UNL     1      60.472  46.309  30.766  1.00  0.00     0.007 C 
ENDBRANCH  17  18
ENDBRANCH  15  17
ENDBRANCH   1  15
BRANCH   1  20
HETATM   20  C7  UNL     1      64.686  49.424  29.136  1.00  0.00     0.121 C 
HETATM   21  S1  UNL     1      65.138  49.378  27.446  1.00  0.00    -0.126 SA
ENDBRANCH   1  20
TORSDOF 4
ENDMDL
