MODEL 1
REMARK VINA RESULT: -6.807239612      0.000      0.000
REMARK  5 active torsions:
REMARK  status: ('A' for Active; 'I' for Inactive)
REMARK    1  A    between atoms: C2_2  and  C3_3 
REMARK    2  A    between atoms: C2_2  and  C5_5 
REMARK    3  A    between atoms: C12_12  and  C13_13 
REMARK    4  A    between atoms: C13_13  and  C15_15 
REMARK    5  A    between atoms: C15_15  and  N1_18 
ROOT
HETATM    1  C5  UNL     1      67.255  47.345  34.244  1.00  0.00     0.022 C 
HETATM    2  C6  UNL     1      67.817  45.927  34.469  1.00  0.00     0.010 C 
HETATM    3  C7  UNL     1      67.922  45.277  33.106  1.00  0.00     0.007 C 
HETATM    4  C8  UNL     1      66.907  46.057  32.353  1.00  0.00     0.002 C 
HETATM    5  C9  UNL     1      66.805  45.812  30.891  1.00  0.00    -0.039 C 
HETATM    6  C10 UNL     1      66.658  44.277  30.758  1.00  0.00     0.015 C 
HETATM    7  C11 UNL     1      68.038  46.094  30.099  1.00  0.00     0.015 C 
HETATM    8  C12 UNL     1      65.561  46.533  30.426  1.00  0.00    -0.000 C 
HETATM    9  C18 UNL     1      65.056  47.533  31.396  1.00  0.00     0.006 C 
HETATM   10  C19 UNL     1      66.161  48.311  32.123  1.00  0.00     0.010 C 
HETATM   11  C20 UNL     1      67.134  47.465  32.817  1.00  0.00    -0.032 C 
HETATM   12  C21 UNL     1      68.522  47.994  32.355  1.00  0.00     0.016 C 
ENDROOT
BRANCH   8  13
HETATM   13  C13 UNL     1      65.433  46.770  28.984  1.00  0.00     0.021 C 
HETATM   14  C14 UNL     1      64.791  45.630  28.221  1.00  0.00     0.013 C 
BRANCH  13  15
HETATM   15  C15 UNL     1      64.882  48.024  28.449  1.00  0.00     0.120 C 
HETATM   16  C16 UNL     1      64.188  47.680  27.116  1.00  0.00     0.046 C 
HETATM   17  C17 UNL     1      63.815  48.661  29.314  1.00  0.00     0.046 C 
BRANCH  15  18
HETATM   18  N1  UNL     1      65.888  48.989  28.017  1.00  0.00    -0.071 N 
ATOM     19  H13 UNL     1      66.248  49.510  28.816  1.00  0.00     0.275 HD
ATOM     20  H12 UNL     1      66.739  48.508  27.723  1.00  0.00     0.275 HD
ATOM     21  H11 UNL     1      65.573  49.629  27.288  1.00  0.00     0.275 HD
ENDBRANCH  15  18
ENDBRANCH  13  15
ENDBRANCH   8  13
BRANCH   1  22
HETATM   22  C2  UNL     1      66.254  47.547  35.248  1.00  0.00    -0.085 C 
HETATM   23  C1  UNL     1      65.675  46.784  36.134  1.00  0.00     0.014 C 
BRANCH  22  24
HETATM   24  C3  UNL     1      65.735  48.969  35.318  1.00  0.00     0.029 C 
HETATM   25  C4  UNL     1      64.244  48.836  34.961  1.00  0.00     0.010 C 
ENDBRANCH  22  24
ENDBRANCH   1  22
TORSDOF 5
ENDMDL
MODEL 2
REMARK VINA RESULT: -6.603171167      3.020      4.313
REMARK  5 active torsions:
REMARK  status: ('A' for Active; 'I' for Inactive)
REMARK    1  A    between atoms: C2_2  and  C3_3 
REMARK    2  A    between atoms: C2_2  and  C5_5 
REMARK    3  A    between atoms: C12_12  and  C13_13 
REMARK    4  A    between atoms: C13_13  and  C15_15 
REMARK    5  A    between atoms: C15_15  and  N1_18 
ROOT
HETATM    1  C5  UNL     1      65.697  47.959  32.310  1.00  0.00     0.022 C 
HETATM    2  C6  UNL     1      66.643  47.615  31.141  1.00  0.00     0.010 C 
HETATM    3  C7  UNL     1      65.812  47.669  29.876  1.00  0.00     0.007 C 
HETATM    4  C8  UNL     1      64.456  47.425  30.431  1.00  0.00     0.002 C 
HETATM    5  C9  UNL     1      63.306  47.547  29.498  1.00  0.00    -0.039 C 
HETATM    6  C10 UNL     1      63.675  46.644  28.297  1.00  0.00     0.015 C 
HETATM    7  C11 UNL     1      63.126  48.885  28.861  1.00  0.00     0.015 C 
HETATM    8  C12 UNL     1      62.100  47.019  30.240  1.00  0.00    -0.000 C 
HETATM    9  C18 UNL     1      62.302  46.914  31.705  1.00  0.00     0.006 C 
HETATM   10  C19 UNL     1      63.125  48.062  32.305  1.00  0.00     0.010 C 
HETATM   11  C20 UNL     1      64.437  48.250  31.683  1.00  0.00    -0.032 C 
HETATM   12  C21 UNL     1      64.509  49.770  31.359  1.00  0.00     0.016 C 
ENDROOT
BRANCH   8  13
HETATM   13  C13 UNL     1      60.782  47.370  29.699  1.00  0.00     0.021 C 
HETATM   14  C14 UNL     1      60.816  47.916  28.287  1.00  0.00     0.013 C 
BRANCH  13  15
HETATM   15  C15 UNL     1      59.635  46.454  29.791  1.00  0.00     0.120 C 
HETATM   16  C16 UNL     1      58.834  46.859  31.045  1.00  0.00     0.046 C 
HETATM   17  C17 UNL     1      58.662  46.550  28.636  1.00  0.00     0.046 C 
BRANCH  15  18
HETATM   18  N1  UNL     1      59.989  45.073  30.101  1.00  0.00    -0.071 N 
ATOM     19  H13 UNL     1      61.001  44.949  30.065  1.00  0.00     0.275 HD
ATOM     20  H12 UNL     1      59.823  44.876  31.088  1.00  0.00     0.275 HD
ATOM     21  H11 UNL     1      59.525  44.377  29.517  1.00  0.00     0.275 HD
ENDBRANCH  15  18
ENDBRANCH  13  15
ENDBRANCH   8  13
BRANCH   1  22
HETATM   22  C2  UNL     1      65.984  47.018  33.351  1.00  0.00    -0.085 C 
HETATM   23  C1  UNL     1      66.575  45.857  33.401  1.00  0.00     0.014 C 
BRANCH  22  24
HETATM   24  C3  UNL     1      65.500  47.454  34.719  1.00  0.00     0.029 C 
HETATM   25  C4  UNL     1      65.996  48.906  34.841  1.00  0.00     0.010 C 
ENDBRANCH  22  24
ENDBRANCH   1  22
TORSDOF 5
ENDMDL
MODEL 3
REMARK VINA RESULT: -6.440689210      3.006      4.548
REMARK  5 active torsions:
REMARK  status: ('A' for Active; 'I' for Inactive)
REMARK    1  A    between atoms: C2_2  and  C3_3 
REMARK    2  A    between atoms: C2_2  and  C5_5 
REMARK    3  A    between atoms: C12_12  and  C13_13 
REMARK    4  A    between atoms: C13_13  and  C15_15 
REMARK    5  A    between atoms: C15_15  and  N1_18 
ROOT
HETATM    1  C5  UNL     1      65.844  47.833  31.962  1.00  0.00     0.022 C 
HETATM    2  C6  UNL     1      66.709  47.480  30.736  1.00  0.00     0.010 C 
HETATM    3  C7  UNL     1      65.805  47.567  29.524  1.00  0.00     0.007 C 
HETATM    4  C8  UNL     1      64.479  47.349  30.157  1.00  0.00     0.002 C 
HETATM    5  C9  UNL     1      63.279  47.508  29.297  1.00  0.00    -0.039 C 
HETATM    6  C10 UNL     1      63.553  46.609  28.067  1.00  0.00     0.015 C 
HETATM    7  C11 UNL     1      63.093  48.856  28.684  1.00  0.00     0.015 C 
HETATM    8  C12 UNL     1      62.107  47.001  30.105  1.00  0.00    -0.000 C 
HETATM    9  C18 UNL     1      62.394  46.875  31.554  1.00  0.00     0.006 C 
HETATM   10  C19 UNL     1      63.279  47.997  32.113  1.00  0.00     0.010 C 
HETATM   11  C20 UNL     1      64.556  48.161  31.416  1.00  0.00    -0.032 C 
HETATM   12  C21 UNL     1      64.645  49.681  31.102  1.00  0.00     0.016 C 
ENDROOT
BRANCH   8  13
HETATM   13  C13 UNL     1      60.768  47.388  29.647  1.00  0.00     0.021 C 
HETATM   14  C14 UNL     1      60.740  48.015  28.269  1.00  0.00     0.013 C 
BRANCH  13  15
HETATM   15  C15 UNL     1      59.620  46.474  29.740  1.00  0.00     0.120 C 
HETATM   16  C16 UNL     1      58.828  46.871  31.002  1.00  0.00     0.046 C 
HETATM   17  C17 UNL     1      58.640  46.578  28.592  1.00  0.00     0.046 C 
BRANCH  15  18
HETATM   18  N1  UNL     1      59.974  45.090  30.038  1.00  0.00    -0.071 N 
ATOM     19  H13 UNL     1      59.164  44.586  30.399  1.00  0.00     0.275 HD
ATOM     20  H12 UNL     1      60.133  44.569  29.175  1.00  0.00     0.275 HD
ATOM     21  H11 UNL     1      60.769  44.984  30.668  1.00  0.00     0.275 HD
ENDBRANCH  15  18
ENDBRANCH  13  15
ENDBRANCH   8  13
BRANCH   1  22
HETATM   22  C2  UNL     1      66.170  46.875  32.976  1.00  0.00    -0.085 C 
HETATM   23  C1  UNL     1      66.066  46.843  34.275  1.00  0.00     0.014 C 
BRANCH  22  24
HETATM   24  C3  UNL     1      66.772  45.594  32.435  1.00  0.00     0.029 C 
HETATM   25  C4  UNL     1      67.531  45.007  33.639  1.00  0.00     0.010 C 
ENDBRANCH  22  24
ENDBRANCH   1  22
TORSDOF 5
ENDMDL
MODEL 4
REMARK VINA RESULT: -6.439508892      3.194      5.351
REMARK  5 active torsions:
REMARK  status: ('A' for Active; 'I' for Inactive)
REMARK    1  A    between atoms: C2_2  and  C3_3 
REMARK    2  A    between atoms: C2_2  and  C5_5 
REMARK    3  A    between atoms: C12_12  and  C13_13 
REMARK    4  A    between atoms: C13_13  and  C15_15 
REMARK    5  A    between atoms: C15_15  and  N1_18 
ROOT
HETATM    1  C5  UNL     1      65.733  47.839  30.519  1.00  0.00     0.022 C 
HETATM    2  C6  UNL     1      66.279  48.051  29.092  1.00  0.00     0.010 C 
HETATM    3  C7  UNL     1      65.086  48.354  28.209  1.00  0.00     0.007 C 
HETATM    4  C8  UNL     1      63.998  47.715  28.992  1.00  0.00     0.002 C 
HETATM    5  C9  UNL     1      62.605  47.921  28.518  1.00  0.00    -0.039 C 
HETATM    6  C10 UNL     1      62.634  47.522  27.024  1.00  0.00     0.015 C 
HETATM    7  C11 UNL     1      62.139  49.339  28.470  1.00  0.00     0.015 C 
HETATM    8  C12 UNL     1      61.738  46.985  29.328  1.00  0.00    -0.000 C 
HETATM    9  C18 UNL     1      62.404  46.462  30.545  1.00  0.00     0.006 C 
HETATM   10  C19 UNL     1      63.293  47.488  31.260  1.00  0.00     0.010 C 
HETATM   11  C20 UNL     1      64.322  48.088  30.409  1.00  0.00    -0.032 C 
HETATM   12  C21 UNL     1      64.182  49.620  30.635  1.00  0.00     0.016 C 
ENDROOT
BRANCH   8  13
HETATM   13  C13 UNL     1      60.296  47.253  29.330  1.00  0.00     0.021 C 
HETATM   14  C14 UNL     1      59.694  47.427  27.952  1.00  0.00     0.013 C 
BRANCH  13  15
HETATM   15  C15 UNL     1      59.357  46.446  30.124  1.00  0.00     0.120 C 
HETATM   16  C16 UNL     1      59.490  46.909  31.589  1.00  0.00     0.046 C 
HETATM   17  C17 UNL     1      57.900  46.642  29.763  1.00  0.00     0.046 C 
BRANCH  15  18
HETATM   18  N1  UNL     1      59.714  45.035  30.228  1.00  0.00    -0.071 N 
ATOM     19  H13 UNL     1      59.639  44.719  31.195  1.00  0.00     0.275 HD
ATOM     20  H12 UNL     1      58.994  44.453  29.798  1.00  0.00     0.275 HD
ATOM     21  H11 UNL     1      60.631  44.802  29.848  1.00  0.00     0.275 HD
ENDBRANCH  15  18
ENDBRANCH  13  15
ENDBRANCH   8  13
BRANCH   1  22
HETATM   22  C2  UNL     1      66.401  46.684  31.039  1.00  0.00    -0.085 C 
HETATM   23  C1  UNL     1      66.896  45.596  30.516  1.00  0.00     0.014 C 
BRANCH  22  24
HETATM   24  C3  UNL     1      66.590  46.712  32.542  1.00  0.00     0.029 C 
HETATM   25  C4  UNL     1      67.203  45.337  32.862  1.00  0.00     0.010 C 
ENDBRANCH  22  24
ENDBRANCH   1  22
TORSDOF 5
ENDMDL
MODEL 5
REMARK VINA RESULT: -6.400534064      3.309      6.732
REMARK  5 active torsions:
REMARK  status: ('A' for Active; 'I' for Inactive)
REMARK    1  A    between atoms: C2_2  and  C3_3 
REMARK    2  A    between atoms: C2_2  and  C5_5 
REMARK    3  A    between atoms: C12_12  and  C13_13 
REMARK    4  A    between atoms: C13_13  and  C15_15 
REMARK    5  A    between atoms: C15_15  and  N1_18 
ROOT
HETATM    1  C5  UNL     1      61.138  47.280  28.622  1.00  0.00     0.022 C 
HETATM    2  C6  UNL     1      61.607  48.570  27.919  1.00  0.00     0.010 C 
HETATM    3  C7  UNL     1      62.892  48.995  28.598  1.00  0.00     0.007 C 
HETATM    4  C8  UNL     1      62.727  48.346  29.924  1.00  0.00     0.002 C 
HETATM    5  C9  UNL     1      63.878  48.407  30.861  1.00  0.00    -0.039 C 
HETATM    6  C10 UNL     1      64.253  49.906  30.928  1.00  0.00     0.015 C 
HETATM    7  C11 UNL     1      65.141  47.773  30.379  1.00  0.00     0.015 C 
HETATM    8  C12 UNL     1      63.370  47.901  32.191  1.00  0.00    -0.000 C 
HETATM    9  C18 UNL     1      62.087  47.165  32.096  1.00  0.00     0.006 C 
HETATM   10  C19 UNL     1      61.964  46.283  30.847  1.00  0.00     0.010 C 
HETATM   11  C20 UNL     1      62.166  46.996  29.584  1.00  0.00    -0.032 C 
HETATM   12  C21 UNL     1      63.200  46.136  28.802  1.00  0.00     0.016 C 
ENDROOT
BRANCH   8  13
HETATM   13  C13 UNL     1      64.380  47.502  33.178  1.00  0.00     0.021 C 
HETATM   14  C14 UNL     1      65.717  47.119  32.580  1.00  0.00     0.013 C 
BRANCH  13  15
HETATM   15  C15 UNL     1      64.648  48.304  34.382  1.00  0.00     0.120 C 
HETATM   16  C16 UNL     1      65.793  49.276  34.031  1.00  0.00     0.046 C 
HETATM   17  C17 UNL     1      63.493  49.176  34.825  1.00  0.00     0.046 C 
BRANCH  15  18
HETATM   18  N1  UNL     1      65.228  47.553  35.490  1.00  0.00    -0.071 N 
ATOM     19  H13 UNL     1      64.544  46.903  35.876  1.00  0.00     0.275 HD
ATOM     20  H12 UNL     1      65.924  46.890  35.145  1.00  0.00     0.275 HD
ATOM     21  H11 UNL     1      65.626  48.132  36.230  1.00  0.00     0.275 HD
ENDBRANCH  15  18
ENDBRANCH  13  15
ENDBRANCH   8  13
BRANCH   1  22
HETATM   22  C2  UNL     1      59.729  47.426  28.833  1.00  0.00    -0.085 C 
HETATM   23  C1  UNL     1      58.812  48.238  28.385  1.00  0.00     0.014 C 
BRANCH  22  24
HETATM   24  C3  UNL     1      59.146  46.409  29.794  1.00  0.00     0.029 C 
HETATM   25  C4  UNL     1      57.663  46.808  29.899  1.00  0.00     0.010 C 
ENDBRANCH  22  24
ENDBRANCH   1  22
TORSDOF 5
ENDMDL
