MODEL 1
REMARK VINA RESULT: -8.048145424      0.000      0.000
REMARK  4 active torsions:
REMARK  status: ('A' for Active; 'I' for Inactive)
REMARK    1  A    between atoms: C2_2  and  C3_3 
REMARK    2  A    between atoms: C3_3  and  C4_4 
REMARK    3  A    between atoms: C4_4  and  N1_5 
REMARK    4  A    between atoms: N1_5  and  C5_8 
ROOT
HETATM    1  C5  UNL     1      66.652  46.925  30.578  1.00  0.00     0.190 C 
HETATM    2  C6  UNL     1      68.035  46.418  30.374  1.00  0.00     0.033 C 
HETATM    3  C7  UNL     1      68.870  47.233  31.379  1.00  0.00     0.003 C 
HETATM    4  C8  UNL     1      68.585  46.616  32.696  1.00  0.00     0.010 C 
HETATM    5  C9  UNL     1      67.127  46.486  33.042  1.00  0.00    -0.035 C 
HETATM    6  C10 UNL     1      66.934  44.996  33.415  1.00  0.00     0.016 C 
HETATM    7  C11 UNL     1      66.938  47.197  34.387  1.00  0.00    -0.006 C 
HETATM    8  C12 UNL     1      65.854  46.612  35.214  1.00  0.00     0.006 C 
HETATM    9  C13 UNL     1      64.873  47.599  35.762  1.00  0.00     0.010 C 
HETATM   10  C14 UNL     1      63.992  48.158  34.662  1.00  0.00    -0.036 A 
HETATM   11  C15 UNL     1      63.162  49.356  35.163  1.00  0.00     0.016 C 
HETATM   12  C16 UNL     1      63.610  47.527  33.552  1.00  0.00     0.020 A 
HETATM   13  C17 UNL     1      64.767  48.393  33.477  1.00  0.00    -0.032 A 
HETATM   14  C18 UNL     1      65.664  49.359  34.074  1.00  0.00     0.011 C 
HETATM   15  C19 UNL     1      67.002  48.683  34.299  1.00  0.00     0.006 C 
HETATM   16  C20 UNL     1      65.328  48.079  32.215  1.00  0.00     0.017 C 
HETATM   17  C21 UNL     1      66.146  46.811  32.012  1.00  0.00     0.025 C 
ENDROOT
BRANCH   1  18
HETATM   18  N1  UNL     1      65.754  46.367  29.624  1.00  0.00    -0.070 N 
ATOM     19  H12 UNL     1      64.987  45.874  30.082  1.00  0.00     0.277 HD
ATOM     20  H11 UNL     1      66.178  45.582  29.132  1.00  0.00     0.277 HD
BRANCH  18  21
HETATM   21  C4  UNL     1      65.259  47.364  28.698  1.00  0.00     0.232 C 
BRANCH  21  22
HETATM   22  C3  UNL     1      63.750  47.433  28.696  1.00  0.00     0.027 C 
BRANCH  22  23
HETATM   23  C2  UNL     1      63.287  48.854  28.644  1.00  0.00    -0.003 C 
HETATM   24  C1  UNL     1      63.050  49.421  27.289  1.00  0.00     0.005 C 
ENDBRANCH  22  23
ENDBRANCH  21  22
ENDBRANCH  18  21
ENDBRANCH   1  18
TORSDOF 4
ENDMDL
MODEL 2
REMARK VINA RESULT: -7.546451507      1.639      4.985
REMARK  4 active torsions:
REMARK  status: ('A' for Active; 'I' for Inactive)
REMARK    1  A    between atoms: C2_2  and  C3_3 
REMARK    2  A    between atoms: C3_3  and  C4_4 
REMARK    3  A    between atoms: C4_4  and  N1_5 
REMARK    4  A    between atoms: N1_5  and  C5_8 
ROOT
HETATM    1  C5  UNL     1      65.978  46.331  33.265  1.00  0.00     0.190 C 
HETATM    2  C6  UNL     1      67.061  45.323  33.407  1.00  0.00     0.033 C 
HETATM    3  C7  UNL     1      66.891  44.433  32.162  1.00  0.00     0.003 C 
HETATM    4  C8  UNL     1      67.455  45.229  31.047  1.00  0.00     0.010 C 
HETATM    5  C9  UNL     1      66.905  46.623  30.910  1.00  0.00    -0.035 C 
HETATM    6  C10 UNL     1      68.147  47.545  30.883  1.00  0.00     0.016 C 
HETATM    7  C11 UNL     1      66.371  46.736  29.477  1.00  0.00    -0.006 C 
HETATM    8  C12 UNL     1      66.456  48.111  28.925  1.00  0.00     0.006 C 
HETATM    9  C13 UNL     1      65.196  48.622  28.302  1.00  0.00     0.010 C 
HETATM   10  C14 UNL     1      64.144  48.906  29.355  1.00  0.00    -0.036 A 
HETATM   11  C15 UNL     1      62.770  49.181  28.716  1.00  0.00     0.016 C 
HETATM   12  C16 UNL     1      64.362  49.299  30.610  1.00  0.00     0.020 A 
HETATM   13  C17 UNL     1      64.166  47.886  30.365  1.00  0.00    -0.032 A 
HETATM   14  C18 UNL     1      63.842  46.790  29.477  1.00  0.00     0.011 C 
HETATM   15  C19 UNL     1      65.105  45.985  29.243  1.00  0.00     0.006 C 
HETATM   16  C20 UNL     1      64.547  47.287  31.589  1.00  0.00     0.017 C 
HETATM   17  C21 UNL     1      66.015  47.114  31.957  1.00  0.00     0.025 C 
ENDROOT
BRANCH   1  18
HETATM   18  N1  UNL     1      65.902  47.170  34.414  1.00  0.00    -0.070 N 
ATOM     19  H12 UNL     1      66.345  46.732  35.222  1.00  0.00     0.277 HD
ATOM     20  H11 UNL     1      64.947  47.228  34.767  1.00  0.00     0.277 HD
BRANCH  18  21
HETATM   21  C4  UNL     1      66.451  48.486  34.162  1.00  0.00     0.232 C 
BRANCH  21  22
HETATM   22  C3  UNL     1      65.589  49.579  34.747  1.00  0.00     0.027 C 
BRANCH  22  23
HETATM   23  C2  UNL     1      64.142  49.318  34.468  1.00  0.00    -0.003 C 
HETATM   24  C1  UNL     1      63.190  49.650  35.561  1.00  0.00     0.005 C 
ENDBRANCH  22  23
ENDBRANCH  21  22
ENDBRANCH  18  21
ENDBRANCH   1  18
TORSDOF 4
ENDMDL
MODEL 3
REMARK VINA RESULT: -7.404139648      3.096      5.203
REMARK  4 active torsions:
REMARK  status: ('A' for Active; 'I' for Inactive)
REMARK    1  A    between atoms: C2_2  and  C3_3 
REMARK    2  A    between atoms: C3_3  and  C4_4 
REMARK    3  A    between atoms: C4_4  and  N1_5 
REMARK    4  A    between atoms: N1_5  and  C5_8 
ROOT
HETATM    1  C5  UNL     1      61.263  47.193  29.698  1.00  0.00     0.190 C 
HETATM    2  C6  UNL     1      61.004  47.386  28.247  1.00  0.00     0.033 C 
HETATM    3  C7  UNL     1      61.784  48.670  27.909  1.00  0.00     0.003 C 
HETATM    4  C8  UNL     1      63.201  48.246  27.840  1.00  0.00     0.010 C 
HETATM    5  C9  UNL     1      63.706  47.497  29.043  1.00  0.00    -0.035 C 
HETATM    6  C10 UNL     1      64.323  46.196  28.477  1.00  0.00     0.016 C 
HETATM    7  C11 UNL     1      64.937  48.263  29.543  1.00  0.00    -0.006 C 
HETATM    8  C12 UNL     1      65.947  47.392  30.193  1.00  0.00     0.006 C 
HETATM    9  C13 UNL     1      66.430  47.868  31.526  1.00  0.00     0.010 C 
HETATM   10  C14 UNL     1      65.349  47.722  32.579  1.00  0.00    -0.036 A 
HETATM   11  C15 UNL     1      65.738  48.442  33.885  1.00  0.00     0.016 C 
HETATM   12  C16 UNL     1      64.394  46.793  32.614  1.00  0.00     0.020 A 
HETATM   13  C17 UNL     1      64.072  48.078  32.031  1.00  0.00    -0.032 A 
HETATM   14  C18 UNL     1      64.419  49.448  31.718  1.00  0.00     0.011 C 
HETATM   15  C19 UNL     1      64.613  49.552  30.217  1.00  0.00     0.006 C 
HETATM   16  C20 UNL     1      62.824  47.847  31.402  1.00  0.00     0.017 C 
HETATM   17  C21 UNL     1      62.740  47.115  30.068  1.00  0.00     0.025 C 
ENDROOT
BRANCH   1  18
HETATM   18  N1  UNL     1      60.501  46.107  30.217  1.00  0.00    -0.070 N 
ATOM     19  H12 UNL     1      60.401  46.175  31.230  1.00  0.00     0.277 HD
ATOM     20  H11 UNL     1      61.021  45.232  30.165  1.00  0.00     0.277 HD
BRANCH  18  21
HETATM   21  C4  UNL     1      59.211  45.992  29.569  1.00  0.00     0.232 C 
BRANCH  21  22
HETATM   22  C3  UNL     1      58.095  46.532  30.432  1.00  0.00     0.027 C 
BRANCH  22  23
HETATM   23  C2  UNL     1      57.001  47.101  29.586  1.00  0.00    -0.003 C 
HETATM   24  C1  UNL     1      57.380  48.217  28.680  1.00  0.00     0.005 C 
ENDBRANCH  22  23
ENDBRANCH  21  22
ENDBRANCH  18  21
ENDBRANCH   1  18
TORSDOF 4
ENDMDL
MODEL 4
REMARK VINA RESULT: -7.199734109      1.934      3.050
REMARK  4 active torsions:
REMARK  status: ('A' for Active; 'I' for Inactive)
REMARK    1  A    between atoms: C2_2  and  C3_3 
REMARK    2  A    between atoms: C3_3  and  C4_4 
REMARK    3  A    between atoms: C4_4  and  N1_5 
REMARK    4  A    between atoms: N1_5  and  C5_8 
ROOT
HETATM    1  C5  UNL     1      64.424  48.213  30.137  1.00  0.00     0.190 C 
HETATM    2  C6  UNL     1      64.886  48.121  28.727  1.00  0.00     0.033 C 
HETATM    3  C7  UNL     1      66.390  48.438  28.819  1.00  0.00     0.003 C 
HETATM    4  C8  UNL     1      67.007  47.200  29.350  1.00  0.00     0.010 C 
HETATM    5  C9  UNL     1      66.393  46.669  30.616  1.00  0.00    -0.035 C 
HETATM    6  C10 UNL     1      66.060  45.189  30.312  1.00  0.00     0.016 C 
HETATM    7  C11 UNL     1      67.534  46.555  31.634  1.00  0.00    -0.006 C 
HETATM    8  C12 UNL     1      67.340  45.459  32.615  1.00  0.00     0.006 C 
HETATM    9  C13 UNL     1      67.526  45.850  34.046  1.00  0.00     0.010 C 
HETATM   10  C14 UNL     1      66.389  46.732  34.521  1.00  0.00    -0.036 A 
HETATM   11  C15 UNL     1      66.697  47.350  35.899  1.00  0.00     0.016 C 
HETATM   12  C16 UNL     1      65.127  46.699  34.096  1.00  0.00     0.020 A 
HETATM   13  C17 UNL     1      66.021  47.663  33.492  1.00  0.00    -0.032 A 
HETATM   14  C18 UNL     1      67.305  48.327  33.424  1.00  0.00     0.011 C 
HETATM   15  C19 UNL     1      68.007  47.866  32.162  1.00  0.00     0.006 C 
HETATM   16  C20 UNL     1      65.288  48.133  32.376  1.00  0.00     0.017 C 
HETATM   17  C21 UNL     1      65.172  47.302  31.105  1.00  0.00     0.025 C 
ENDROOT
BRANCH   1  18
HETATM   18  N1  UNL     1      63.009  48.075  30.224  1.00  0.00    -0.070 N 
ATOM     19  H12 UNL     1      62.549  48.985  30.252  1.00  0.00     0.277 HD
ATOM     20  H11 UNL     1      62.727  47.724  31.139  1.00  0.00     0.277 HD
BRANCH  18  21
HETATM   21  C4  UNL     1      62.477  47.251  29.159  1.00  0.00     0.232 C 
BRANCH  21  22
HETATM   22  C3  UNL     1      61.015  46.933  29.366  1.00  0.00     0.027 C 
BRANCH  22  23
HETATM   23  C2  UNL     1      60.179  47.574  28.305  1.00  0.00    -0.003 C 
HETATM   24  C1  UNL     1      58.752  47.159  28.250  1.00  0.00     0.005 C 
ENDBRANCH  22  23
ENDBRANCH  21  22
ENDBRANCH  18  21
ENDBRANCH   1  18
TORSDOF 4
ENDMDL
MODEL 5
REMARK VINA RESULT: -7.150868772      1.807      5.292
REMARK  4 active torsions:
REMARK  status: ('A' for Active; 'I' for Inactive)
REMARK    1  A    between atoms: C2_2  and  C3_3 
REMARK    2  A    between atoms: C3_3  and  C4_4 
REMARK    3  A    between atoms: C4_4  and  N1_5 
REMARK    4  A    between atoms: N1_5  and  C5_8 
ROOT
HETATM    1  C5  UNL     1      66.773  47.919  33.012  1.00  0.00     0.190 C 
HETATM    2  C6  UNL     1      66.407  48.614  34.274  1.00  0.00     0.033 C 
HETATM    3  C7  UNL     1      65.607  49.839  33.793  1.00  0.00     0.003 C 
HETATM    4  C8  UNL     1      64.277  49.303  33.425  1.00  0.00     0.010 C 
HETATM    5  C9  UNL     1      64.294  48.142  32.468  1.00  0.00    -0.035 C 
HETATM    6  C10 UNL     1      63.446  47.043  33.153  1.00  0.00     0.016 C 
HETATM    7  C11 UNL     1      63.417  48.551  31.278  1.00  0.00    -0.006 C 
HETATM    8  C12 UNL     1      62.739  47.403  30.626  1.00  0.00     0.006 C 
HETATM    9  C13 UNL     1      62.879  47.347  29.138  1.00  0.00     0.010 C 
HETATM   10  C14 UNL     1      64.295  46.982  28.739  1.00  0.00    -0.036 A 
HETATM   11  C15 UNL     1      64.518  47.175  27.226  1.00  0.00     0.016 C 
HETATM   12  C16 UNL     1      65.140  46.212  29.422  1.00  0.00     0.020 A 
HETATM   13  C17 UNL     1      65.238  47.645  29.594  1.00  0.00    -0.032 A 
HETATM   14  C18 UNL     1      64.844  48.991  29.236  1.00  0.00     0.011 C 
HETATM   15  C19 UNL     1      64.043  49.568  30.387  1.00  0.00     0.006 C 
HETATM   16  C20 UNL     1      66.096  47.782  30.712  1.00  0.00     0.017 C 
HETATM   17  C21 UNL     1      65.585  47.553  32.128  1.00  0.00     0.025 C 
ENDROOT
BRANCH   1  18
HETATM   18  N1  UNL     1      67.640  46.817  33.264  1.00  0.00    -0.070 N 
ATOM     19  H12 UNL     1      68.470  47.109  33.779  1.00  0.00     0.277 HD
ATOM     20  H11 UNL     1      68.087  46.495  32.406  1.00  0.00     0.277 HD
BRANCH  18  21
HETATM   21  C4  UNL     1      66.957  45.734  33.940  1.00  0.00     0.232 C 
BRANCH  21  22
HETATM   22  C3  UNL     1      67.558  44.390  33.602  1.00  0.00     0.027 C 
BRANCH  22  23
HETATM   23  C2  UNL     1      66.790  43.728  32.503  1.00  0.00    -0.003 C 
HETATM   24  C1  UNL     1      67.122  44.154  31.118  1.00  0.00     0.005 C 
ENDBRANCH  22  23
ENDBRANCH  21  22
ENDBRANCH  18  21
ENDBRANCH   1  18
TORSDOF 4
ENDMDL
