MODEL 1
REMARK VINA RESULT: -9.121942941      0.000      0.000
REMARK  4 active torsions:
REMARK  status: ('A' for Active; 'I' for Inactive)
REMARK    1  A    between atoms: C2_2  and  C3_3 
REMARK    2  A    between atoms: C3_3  and  C5_5 
REMARK    3  A    between atoms: C14_14  and  C15_15 
REMARK    4  A    between atoms: C15_15  and  N1_16 
ROOT
HETATM    1  C5  UNL     1      64.753  47.466  31.523  1.00  0.00     0.002 C 
HETATM    2  C6  UNL     1      66.228  47.095  31.314  1.00  0.00     0.006 C 
HETATM    3  C7  UNL     1      66.615  47.462  29.932  1.00  0.00     0.006 C 
HETATM    4  C8  UNL     1      65.401  47.934  29.231  1.00  0.00    -0.001 C 
HETATM    5  C9  UNL     1      64.923  46.883  28.306  1.00  0.00    -0.009 C 
HETATM    6  C10 UNL     1      64.450  47.440  26.972  1.00  0.00     0.005 C 
HETATM    7  C11 UNL     1      63.001  47.870  27.072  1.00  0.00     0.006 C 
HETATM    8  C12 UNL     1      62.654  48.440  28.428  1.00  0.00    -0.005 C 
HETATM    9  C13 UNL     1      61.141  48.618  28.423  1.00  0.00     0.011 C 
HETATM   10  C14 UNL     1      60.388  47.322  28.508  1.00  0.00     0.011 C 
HETATM   11  C17 UNL     1      60.893  46.459  29.622  1.00  0.00     0.007 C 
HETATM   12  C18 UNL     1      61.989  47.117  30.437  1.00  0.00     0.011 C 
HETATM   13  C19 UNL     1      63.112  47.592  29.586  1.00  0.00    -0.028 C 
HETATM   14  C20 UNL     1      63.712  46.315  28.967  1.00  0.00     0.015 C 
HETATM   15  C21 UNL     1      64.310  48.163  30.308  1.00  0.00    -0.028 C 
HETATM   16  C22 UNL     1      64.213  49.677  30.422  1.00  0.00     0.016 C 
ENDROOT
BRANCH  10  17
HETATM   17  C15 UNL     1      58.925  47.670  28.696  1.00  0.00     0.236 C 
BRANCH  17  18
HETATM   18  N1  UNL     1      58.125  46.479  28.816  1.00  0.00    -0.079 N 
HETATM   19  C16 UNL     1      57.133  46.739  29.870  1.00  0.00     0.267 C 
ATOM     20  H12 UNL     1      57.707  46.185  27.934  1.00  0.00     0.276 HD
ATOM     21  H11 UNL     1      58.678  45.638  28.983  1.00  0.00     0.276 HD
ENDBRANCH  17  18
ENDBRANCH  10  17
BRANCH   1  22
HETATM   22  C3  UNL     1      64.722  48.203  32.835  1.00  0.00     0.008 C 
HETATM   23  C4  UNL     1      65.929  47.659  33.622  1.00  0.00     0.014 C 
BRANCH  22  24
HETATM   24  C2  UNL     1      63.540  47.926  33.671  1.00  0.00    -0.032 C 
HETATM   25  C1  UNL     1      63.301  48.539  34.824  1.00  0.00     0.007 C 
ENDBRANCH  22  24
ENDBRANCH   1  22
TORSDOF 4
ENDMDL
MODEL 2
REMARK VINA RESULT: -8.788860078      2.541      5.600
REMARK  4 active torsions:
REMARK  status: ('A' for Active; 'I' for Inactive)
REMARK    1  A    between atoms: C2_2  and  C3_3 
REMARK    2  A    between atoms: C3_3  and  C5_5 
REMARK    3  A    between atoms: C14_14  and  C15_15 
REMARK    4  A    between atoms: C15_15  and  N1_16 
ROOT
HETATM    1  C5  UNL     1      61.819  47.524  29.457  1.00  0.00     0.002 C 
HETATM    2  C6  UNL     1      61.179  48.293  28.292  1.00  0.00     0.006 C 
HETATM    3  C7  UNL     1      62.210  48.516  27.253  1.00  0.00     0.006 C 
HETATM    4  C8  UNL     1      63.501  48.023  27.780  1.00  0.00    -0.001 C 
HETATM    5  C9  UNL     1      64.343  49.171  28.182  1.00  0.00    -0.009 C 
HETATM    6  C10 UNL     1      65.805  48.993  27.800  1.00  0.00     0.005 C 
HETATM    7  C11 UNL     1      66.533  48.213  28.875  1.00  0.00     0.006 C 
HETATM    8  C12 UNL     1      65.664  47.156  29.516  1.00  0.00    -0.005 C 
HETATM    9  C13 UNL     1      66.470  46.624  30.695  1.00  0.00     0.011 C 
HETATM   10  C14 UNL     1      66.558  47.589  31.841  1.00  0.00     0.011 C 
HETATM   11  C17 UNL     1      65.213  48.126  32.219  1.00  0.00     0.007 C 
HETATM   12  C18 UNL     1      64.081  47.524  31.410  1.00  0.00     0.011 C 
HETATM   13  C19 UNL     1      64.308  47.653  29.947  1.00  0.00    -0.028 C 
HETATM   14  C20 UNL     1      64.305  49.169  29.673  1.00  0.00     0.015 C 
HETATM   15  C21 UNL     1      63.188  47.187  29.047  1.00  0.00    -0.028 C 
HETATM   16  C22 UNL     1      63.402  45.747  28.603  1.00  0.00     0.016 C 
ENDROOT
BRANCH  10  17
HETATM   17  C15 UNL     1      67.205  46.850  32.996  1.00  0.00     0.236 C 
BRANCH  17  18
HETATM   18  N1  UNL     1      67.741  45.586  32.561  1.00  0.00    -0.079 N 
HETATM   19  C16 UNL     1      67.523  44.633  33.658  1.00  0.00     0.267 C 
ATOM     20  H12 UNL     1      67.355  45.271  31.671  1.00  0.00     0.276 HD
ATOM     21  H11 UNL     1      68.716  45.643  32.266  1.00  0.00     0.276 HD
ENDBRANCH  17  18
ENDBRANCH  10  17
BRANCH   1  22
HETATM   22  C3  UNL     1      60.855  46.406  29.756  1.00  0.00     0.008 C 
HETATM   23  C4  UNL     1      59.621  46.705  28.884  1.00  0.00     0.014 C 
BRANCH  22  24
HETATM   24  C2  UNL     1      60.365  46.370  31.146  1.00  0.00    -0.032 C 
HETATM   25  C1  UNL     1      61.041  46.871  32.172  1.00  0.00     0.007 C 
ENDBRANCH  22  24
ENDBRANCH   1  22
TORSDOF 4
ENDMDL
MODEL 3
REMARK VINA RESULT: -8.175796450      2.358      5.548
REMARK  4 active torsions:
REMARK  status: ('A' for Active; 'I' for Inactive)
REMARK    1  A    between atoms: C2_2  and  C3_3 
REMARK    2  A    between atoms: C3_3  and  C5_5 
REMARK    3  A    between atoms: C14_14  and  C15_15 
REMARK    4  A    between atoms: C15_15  and  N1_16 
ROOT
HETATM    1  C5  UNL     1      61.839  47.823  29.094  1.00  0.00     0.002 C 
HETATM    2  C6  UNL     1      61.510  48.582  27.800  1.00  0.00     0.006 C 
HETATM    3  C7  UNL     1      62.729  48.630  26.960  1.00  0.00     0.006 C 
HETATM    4  C8  UNL     1      63.840  48.037  27.736  1.00  0.00    -0.001 C 
HETATM    5  C9  UNL     1      64.723  49.113  28.237  1.00  0.00    -0.009 C 
HETATM    6  C10 UNL     1      66.199  48.759  28.138  1.00  0.00     0.005 C 
HETATM    7  C11 UNL     1      66.629  47.974  29.361  1.00  0.00     0.006 C 
HETATM    8  C12 UNL     1      65.544  47.057  29.875  1.00  0.00    -0.005 C 
HETATM    9  C13 UNL     1      66.061  46.517  31.203  1.00  0.00     0.011 C 
HETATM   10  C14 UNL     1      66.054  47.538  32.304  1.00  0.00     0.011 C 
HETATM   11  C17 UNL     1      64.734  48.236  32.406  1.00  0.00     0.007 C 
HETATM   12  C18 UNL     1      63.703  47.708  31.428  1.00  0.00     0.011 C 
HETATM   13  C19 UNL     1      64.200  47.720  30.028  1.00  0.00    -0.028 C 
HETATM   14  C20 UNL     1      64.420  49.208  29.694  1.00  0.00     0.015 C 
HETATM   15  C21 UNL     1      63.212  47.319  28.957  1.00  0.00    -0.028 C 
HETATM   16  C22 UNL     1      63.334  45.840  28.622  1.00  0.00     0.016 C 
ENDROOT
BRANCH  10  17
HETATM   17  C15 UNL     1      66.395  46.808  33.589  1.00  0.00     0.236 C 
BRANCH  17  18
HETATM   18  N1  UNL     1      65.609  47.306  34.687  1.00  0.00    -0.079 N 
HETATM   19  C16 UNL     1      66.449  48.275  35.405  1.00  0.00     0.267 C 
ATOM     20  H12 UNL     1      64.710  47.690  34.396  1.00  0.00     0.276 HD
ATOM     21  H11 UNL     1      65.245  46.567  35.289  1.00  0.00     0.276 HD
ENDBRANCH  17  18
ENDBRANCH  10  17
BRANCH   1  22
HETATM   22  C3  UNL     1      60.715  46.835  29.258  1.00  0.00     0.008 C 
HETATM   23  C4  UNL     1      59.553  47.419  28.433  1.00  0.00     0.014 C 
BRANCH  22  24
HETATM   24  C2  UNL     1      60.205  46.703  30.634  1.00  0.00    -0.032 C 
HETATM   25  C1  UNL     1      60.549  45.714  31.450  1.00  0.00     0.007 C 
ENDBRANCH  22  24
ENDBRANCH   1  22
TORSDOF 4
ENDMDL
MODEL 4
REMARK VINA RESULT: -5.191650036      2.504      4.337
REMARK  4 active torsions:
REMARK  status: ('A' for Active; 'I' for Inactive)
REMARK    1  A    between atoms: C2_2  and  C3_3 
REMARK    2  A    between atoms: C3_3  and  C5_5 
REMARK    3  A    between atoms: C14_14  and  C15_15 
REMARK    4  A    between atoms: C15_15  and  N1_16 
ROOT
HETATM    1  C5  UNL     1      66.368  47.108  34.007  1.00  0.00     0.002 C 
HETATM    2  C6  UNL     1      66.764  45.865  34.818  1.00  0.00     0.006 C 
HETATM    3  C7  UNL     1      67.564  44.972  33.948  1.00  0.00     0.006 C 
HETATM    4  C8  UNL     1      67.578  45.553  32.588  1.00  0.00    -0.001 C 
HETATM    5  C9  UNL     1      66.660  44.790  31.714  1.00  0.00    -0.009 C 
HETATM    6  C10 UNL     1      67.224  44.565  30.319  1.00  0.00     0.005 C 
HETATM    7  C11 UNL     1      66.915  45.755  29.435  1.00  0.00     0.006 C 
HETATM    8  C12 UNL     1      66.947  47.065  30.188  1.00  0.00    -0.005 C 
HETATM    9  C13 UNL     1      66.416  48.109  29.214  1.00  0.00     0.011 C 
HETATM   10  C14 UNL     1      64.937  48.005  28.977  1.00  0.00     0.011 C 
HETATM   11  C17 UNL     1      64.173  47.930  30.262  1.00  0.00     0.007 C 
HETATM   12  C18 UNL     1      65.056  48.042  31.489  1.00  0.00     0.011 C 
HETATM   13  C19 UNL     1      66.165  47.053  31.475  1.00  0.00    -0.028 C 
HETATM   14  C20 UNL     1      65.474  45.677  31.539  1.00  0.00     0.015 C 
HETATM   15  C21 UNL     1      67.040  47.002  32.706  1.00  0.00    -0.028 C 
HETATM   16  C22 UNL     1      68.277  47.873  32.536  1.00  0.00     0.016 C 
ENDROOT
BRANCH  10  17
HETATM   17  C15 UNL     1      64.532  49.217  28.162  1.00  0.00     0.236 C 
BRANCH  17  18
HETATM   18  N1  UNL     1      63.098  49.337  28.097  1.00  0.00    -0.079 N 
HETATM   19  C16 UNL     1      62.626  48.289  27.181  1.00  0.00     0.267 C 
ATOM     20  H12 UNL     1      62.650  49.303  29.013  1.00  0.00     0.276 HD
ATOM     21  H11 UNL     1      62.784  50.272  27.835  1.00  0.00     0.276 HD
ENDBRANCH  17  18
ENDBRANCH  10  17
BRANCH   1  22
HETATM   22  C3  UNL     1      66.697  48.273  34.902  1.00  0.00     0.008 C 
HETATM   23  C4  UNL     1      66.809  47.666  36.314  1.00  0.00     0.014 C 
BRANCH  22  24
HETATM   24  C2  UNL     1      65.645  49.301  34.989  1.00  0.00    -0.032 C 
HETATM   25  C1  UNL     1      64.350  49.033  34.875  1.00  0.00     0.007 C 
ENDBRANCH  22  24
ENDBRANCH   1  22
TORSDOF 4
ENDMDL
