MODEL 1
REMARK VINA RESULT: -9.909642044      0.000      0.000
REMARK  4 active torsions:
REMARK  status: ('A' for Active; 'I' for Inactive)
REMARK    1  A    between atoms: C2_2  and  C3_3 
REMARK    2  A    between atoms: C2_2  and  C15_16 
REMARK    3  A    between atoms: C3_3  and  C4_4 
REMARK    4  A    between atoms: C4_4  and  N1_5 
ROOT
HETATM    1  N1  UNL     1      64.374  47.595  31.043  1.00  0.00    -0.408 N 
HETATM    2  C5  UNL     1      63.970  48.803  31.660  1.00  0.00     0.117 C 
HETATM    3  C6  UNL     1      63.827  48.653  33.182  1.00  0.00     0.019 C 
HETATM    4  C7  UNL     1      65.124  48.191  33.804  1.00  0.00     0.002 C 
HETATM    5  C8  UNL     1      65.170  46.703  33.747  1.00  0.00     0.007 C 
HETATM    6  C9  UNL     1      65.690  46.122  32.492  1.00  0.00     0.012 C 
HETATM    7  C10 UNL     1      67.172  45.813  32.514  1.00  0.00    -0.013 C 
HETATM    8  C11 UNL     1      67.427  44.581  33.319  1.00  0.00     0.010 C 
HETATM    9  C12 UNL     1      67.511  45.687  31.065  1.00  0.00     0.007 C 
HETATM   10  C13 UNL     1      66.341  46.292  30.275  1.00  0.00     0.026 C 
HETATM   11  C14 UNL     1      65.653  47.106  31.311  1.00  0.00     0.083 C 
ENDROOT
BRANCH   1  12
HETATM   12  C4  UNL     1      63.658  47.165  29.905  1.00  0.00     0.117 C 
BRANCH  12  13
HETATM   13  C3  UNL     1      62.153  47.190  30.082  1.00  0.00     0.025 C 
BRANCH  13  14
HETATM   14  C2  UNL     1      61.414  47.447  28.819  1.00  0.00    -0.002 C 
HETATM   15  C1  UNL     1      61.138  48.860  28.600  1.00  0.00     0.011 C 
BRANCH  14  16
HETATM   16  C15 UNL     1      60.231  46.495  28.773  1.00  0.00     0.059 C 
HETATM   17  C16 UNL     1      60.063  45.781  30.159  1.00  0.00     0.043 C 
HETATM   18  C17 UNL     1      58.830  46.290  30.889  1.00  0.00    -0.029 C 
HETATM   19  C18 UNL     1      57.499  46.191  30.365  1.00  0.00    -0.030 C 
HETATM   20  C19 UNL     1      56.863  47.301  29.520  1.00  0.00     0.038 C 
HETATM   21  C20 UNL     1      57.704  47.582  28.226  1.00  0.00     0.084 C 
HETATM   22  C21 UNL     1      58.966  47.010  28.443  1.00  0.00    -0.177 C 
ENDBRANCH  14  16
ENDBRANCH  13  14
ENDBRANCH  12  13
ENDBRANCH   1  12
TORSDOF 4
ENDMDL
MODEL 2
REMARK VINA RESULT: -9.406891797      0.837      1.558
REMARK  4 active torsions:
REMARK  status: ('A' for Active; 'I' for Inactive)
REMARK    1  A    between atoms: C2_2  and  C3_3 
REMARK    2  A    between atoms: C2_2  and  C15_16 
REMARK    3  A    between atoms: C3_3  and  C4_4 
REMARK    4  A    between atoms: C4_4  and  N1_5 
ROOT
HETATM    1  N1  UNL     1      64.612  47.439  30.606  1.00  0.00    -0.408 N 
HETATM    2  C5  UNL     1      63.884  48.526  31.148  1.00  0.00     0.117 C 
HETATM    3  C6  UNL     1      63.481  48.278  32.608  1.00  0.00     0.019 C 
HETATM    4  C7  UNL     1      64.696  48.020  33.468  1.00  0.00     0.002 C 
HETATM    5  C8  UNL     1      65.021  46.568  33.401  1.00  0.00     0.007 C 
HETATM    6  C9  UNL     1      65.869  46.150  32.266  1.00  0.00     0.012 C 
HETATM    7  C10 UNL     1      67.350  46.104  32.577  1.00  0.00    -0.013 C 
HETATM    8  C11 UNL     1      67.665  44.898  33.399  1.00  0.00     0.010 C 
HETATM    9  C12 UNL     1      67.979  46.112  31.222  1.00  0.00     0.007 C 
HETATM   10  C13 UNL     1      66.893  46.540  30.224  1.00  0.00     0.026 C 
HETATM   11  C14 UNL     1      65.882  47.170  31.115  1.00  0.00     0.083 C 
ENDROOT
BRANCH   1  12
HETATM   12  C4  UNL     1      64.218  46.948  29.343  1.00  0.00     0.117 C 
BRANCH  12  13
HETATM   13  C3  UNL     1      62.856  46.285  29.340  1.00  0.00     0.025 C 
BRANCH  13  14
HETATM   14  C2  UNL     1      61.888  46.924  28.412  1.00  0.00    -0.002 C 
HETATM   15  C1  UNL     1      62.511  47.892  27.520  1.00  0.00     0.011 C 
BRANCH  14  16
HETATM   16  C15 UNL     1      60.703  47.402  29.234  1.00  0.00     0.059 C 
HETATM   17  C16 UNL     1      59.513  47.783  28.288  1.00  0.00     0.043 C 
HETATM   18  C17 UNL     1      58.384  46.769  28.395  1.00  0.00    -0.029 C 
HETATM   19  C18 UNL     1      57.686  46.482  29.614  1.00  0.00    -0.030 C 
HETATM   20  C19 UNL     1      58.128  45.370  30.573  1.00  0.00     0.038 C 
HETATM   21  C20 UNL     1      59.593  45.608  31.082  1.00  0.00     0.084 C 
HETATM   22  C21 UNL     1      60.169  46.540  30.206  1.00  0.00    -0.177 C 
ENDBRANCH  14  16
ENDBRANCH  13  14
ENDBRANCH  12  13
ENDBRANCH   1  12
TORSDOF 4
ENDMDL
MODEL 3
REMARK VINA RESULT: -9.267742983      1.751      4.049
REMARK  4 active torsions:
REMARK  status: ('A' for Active; 'I' for Inactive)
REMARK    1  A    between atoms: C2_2  and  C3_3 
REMARK    2  A    between atoms: C2_2  and  C15_16 
REMARK    3  A    between atoms: C3_3  and  C4_4 
REMARK    4  A    between atoms: C4_4  and  N1_5 
ROOT
HETATM    1  N1  UNL     1      65.831  45.916  31.895  1.00  0.00    -0.408 N 
HETATM    2  C5  UNL     1      66.198  44.585  32.207  1.00  0.00     0.117 C 
HETATM    3  C6  UNL     1      67.189  44.519  33.377  1.00  0.00     0.019 C 
HETATM    4  C7  UNL     1      66.614  45.174  34.611  1.00  0.00     0.002 C 
HETATM    5  C8  UNL     1      66.911  46.632  34.552  1.00  0.00     0.007 C 
HETATM    6  C9  UNL     1      65.945  47.457  33.796  1.00  0.00     0.012 C 
HETATM    7  C10 UNL     1      64.854  48.074  34.643  1.00  0.00    -0.013 C 
HETATM    8  C11 UNL     1      65.397  49.228  35.420  1.00  0.00     0.010 C 
HETATM    9  C12 UNL     1      63.813  48.441  33.636  1.00  0.00     0.007 C 
HETATM   10  C13 UNL     1      64.159  47.695  32.339  1.00  0.00     0.026 C 
HETATM   11  C14 UNL     1      65.080  46.634  32.826  1.00  0.00     0.083 C 
ENDROOT
BRANCH   1  12
HETATM   12  C4  UNL     1      65.878  46.312  30.541  1.00  0.00     0.117 C 
BRANCH  12  13
HETATM   13  C3  UNL     1      65.613  45.185  29.563  1.00  0.00     0.025 C 
BRANCH  13  14
HETATM   14  C2  UNL     1      64.347  45.348  28.802  1.00  0.00    -0.002 C 
HETATM   15  C1  UNL     1      64.501  45.078  27.380  1.00  0.00     0.011 C 
BRANCH  14  16
HETATM   16  C15 UNL     1      63.740  46.684  29.192  1.00  0.00     0.059 C 
HETATM   17  C16 UNL     1      63.994  47.739  28.061  1.00  0.00     0.043 C 
HETATM   18  C17 UNL     1      62.704  48.072  27.326  1.00  0.00    -0.029 C 
HETATM   19  C18 UNL     1      61.546  48.626  27.964  1.00  0.00    -0.030 C 
HETATM   20  C19 UNL     1      60.426  47.750  28.538  1.00  0.00     0.038 C 
HETATM   21  C20 UNL     1      60.973  46.778  29.640  1.00  0.00     0.084 C 
HETATM   22  C21 UNL     1      62.366  46.741  29.478  1.00  0.00    -0.177 C 
ENDBRANCH  14  16
ENDBRANCH  13  14
ENDBRANCH  12  13
ENDBRANCH   1  12
TORSDOF 4
ENDMDL
MODEL 4
REMARK VINA RESULT: -9.085721045      2.664      4.726
REMARK  4 active torsions:
REMARK  status: ('A' for Active; 'I' for Inactive)
REMARK    1  A    between atoms: C2_2  and  C3_3 
REMARK    2  A    between atoms: C2_2  and  C15_16 
REMARK    3  A    between atoms: C3_3  and  C4_4 
REMARK    4  A    between atoms: C4_4  and  N1_5 
ROOT
HETATM    1  N1  UNL     1      65.794  47.129  32.323  1.00  0.00    -0.408 N 
HETATM    2  C5  UNL     1      66.801  46.205  32.692  1.00  0.00     0.117 C 
HETATM    3  C6  UNL     1      67.441  46.559  34.042  1.00  0.00     0.019 C 
HETATM    4  C7  UNL     1      66.401  46.617  35.135  1.00  0.00     0.002 C 
HETATM    5  C8  UNL     1      65.812  47.985  35.152  1.00  0.00     0.007 C 
HETATM    6  C9  UNL     1      64.689  48.215  34.221  1.00  0.00     0.012 C 
HETATM    7  C10 UNL     1      63.320  48.003  34.829  1.00  0.00    -0.013 C 
HETATM    8  C11 UNL     1      62.966  49.154  35.712  1.00  0.00     0.010 C 
HETATM    9  C12 UNL     1      62.440  47.847  33.631  1.00  0.00     0.007 C 
HETATM   10  C13 UNL     1      63.358  47.595  32.428  1.00  0.00     0.026 C 
HETATM   11  C14 UNL     1      64.626  47.180  33.085  1.00  0.00     0.083 C 
ENDROOT
BRANCH   1  12
HETATM   12  C4  UNL     1      65.827  47.650  31.012  1.00  0.00     0.117 C 
BRANCH  12  13
HETATM   13  C3  UNL     1      66.037  46.600  29.940  1.00  0.00     0.025 C 
BRANCH  13  14
HETATM   14  C2  UNL     1      64.845  45.747  29.705  1.00  0.00    -0.002 C 
HETATM   15  C1  UNL     1      65.157  44.325  29.692  1.00  0.00     0.011 C 
BRANCH  14  16
HETATM   16  C15 UNL     1      64.106  46.304  28.500  1.00  0.00     0.059 C 
HETATM   17  C16 UNL     1      62.622  46.632  28.886  1.00  0.00     0.043 C 
HETATM   18  C17 UNL     1      62.391  48.134  28.942  1.00  0.00    -0.029 C 
HETATM   19  C18 UNL     1      62.585  49.010  27.824  1.00  0.00    -0.030 C 
HETATM   20  C19 UNL     1      63.921  49.712  27.550  1.00  0.00     0.038 C 
HETATM   21  C20 UNL     1      65.079  48.673  27.356  1.00  0.00     0.084 C 
HETATM   22  C21 UNL     1      64.611  47.457  27.876  1.00  0.00    -0.177 C 
ENDBRANCH  14  16
ENDBRANCH  13  14
ENDBRANCH  12  13
ENDBRANCH   1  12
TORSDOF 4
ENDMDL
MODEL 5
REMARK VINA RESULT: -9.085025177      1.039      2.579
REMARK  4 active torsions:
REMARK  status: ('A' for Active; 'I' for Inactive)
REMARK    1  A    between atoms: C2_2  and  C3_3 
REMARK    2  A    between atoms: C2_2  and  C15_16 
REMARK    3  A    between atoms: C3_3  and  C4_4 
REMARK    4  A    between atoms: C4_4  and  N1_5 
ROOT
HETATM    1  N1  UNL     1      64.777  47.220  30.576  1.00  0.00    -0.408 N 
HETATM    2  C5  UNL     1      65.552  46.187  29.997  1.00  0.00     0.117 C 
HETATM    3  C6  UNL     1      66.992  46.180  30.530  1.00  0.00     0.019 C 
HETATM    4  C7  UNL     1      67.012  46.030  32.033  1.00  0.00     0.002 C 
HETATM    5  C8  UNL     1      66.884  47.383  32.643  1.00  0.00     0.007 C 
HETATM    6  C9  UNL     1      65.504  47.882  32.819  1.00  0.00     0.012 C 
HETATM    7  C10 UNL     1      64.908  47.599  34.181  1.00  0.00    -0.013 C 
HETATM    8  C11 UNL     1      65.489  48.526  35.198  1.00  0.00     0.010 C 
HETATM    9  C12 UNL     1      63.442  47.775  33.950  1.00  0.00     0.007 C 
HETATM   10  C13 UNL     1      63.222  47.768  32.431  1.00  0.00     0.026 C 
HETATM   11  C14 UNL     1      64.480  47.148  31.936  1.00  0.00     0.083 C 
ENDROOT
BRANCH   1  12
HETATM   12  C4  UNL     1      64.014  48.034  29.710  1.00  0.00     0.117 C 
BRANCH  12  13
HETATM   13  C3  UNL     1      63.232  47.258  28.670  1.00  0.00     0.025 C 
BRANCH  13  14
HETATM   14  C2  UNL     1      61.897  47.841  28.378  1.00  0.00    -0.002 C 
HETATM   15  C1  UNL     1      61.628  49.053  29.137  1.00  0.00     0.011 C 
BRANCH  14  16
HETATM   16  C15 UNL     1      60.873  46.723  28.472  1.00  0.00     0.059 C 
HETATM   17  C16 UNL     1      60.996  45.998  29.856  1.00  0.00     0.043 C 
HETATM   18  C17 UNL     1      59.808  46.319  30.749  1.00  0.00    -0.029 C 
HETATM   19  C18 UNL     1      58.449  46.021  30.402  1.00  0.00    -0.030 C 
HETATM   20  C19 UNL     1      57.550  47.021  29.664  1.00  0.00     0.038 C 
HETATM   21  C20 UNL     1      58.163  47.419  28.277  1.00  0.00     0.084 C 
HETATM   22  C21 UNL     1      59.513  47.042  28.318  1.00  0.00    -0.177 C 
ENDBRANCH  14  16
ENDBRANCH  13  14
ENDBRANCH  12  13
ENDBRANCH   1  12
TORSDOF 4
ENDMDL
