MODEL 1
REMARK VINA RESULT: -8.417857202      0.000      0.000
REMARK  5 active torsions:
REMARK  status: ('A' for Active; 'I' for Inactive)
REMARK    1  A    between atoms: C2_2  and  C3_3 
REMARK    2  A    between atoms: C3_3  and  N1_5 
REMARK    3  A    between atoms: C3_3  and  C5_9 
REMARK    4  A    between atoms: C5_9  and  C6_10 
REMARK    5  A    between atoms: C6_10  and  C7_11 
ROOT
HETATM    1  C7  UNL     1      64.593  47.188  32.251  1.00  0.00    -0.001 C 
HETATM    2  C8  UNL     1      64.473  48.373  33.132  1.00  0.00    -0.002 A 
HETATM    3  C9  UNL     1      63.026  48.526  33.585  1.00  0.00     0.006 A 
HETATM    4  C10 UNL     1      63.470  48.444  35.003  1.00  0.00     0.010 A 
HETATM    5  C11 UNL     1      64.916  48.365  34.489  1.00  0.00    -0.040 A 
HETATM    6  C12 UNL     1      65.600  49.686  34.904  1.00  0.00     0.015 C 
HETATM    7  C13 UNL     1      65.615  47.249  35.109  1.00  0.00     0.010 C 
HETATM    8  C14 UNL     1      65.477  45.894  34.542  1.00  0.00     0.011 C 
HETATM    9  C15 UNL     1      66.265  45.638  33.288  1.00  0.00    -0.033 A 
HETATM   10  C16 UNL     1      67.727  45.526  33.633  1.00  0.00     0.010 A 
HETATM   11  C17 UNL     1      67.763  44.077  33.242  1.00  0.00     0.002 A 
HETATM   12  C18 UNL     1      66.283  44.172  32.992  1.00  0.00     0.010 A 
HETATM   13  C19 UNL     1      65.937  46.571  32.148  1.00  0.00    -0.036 C 
HETATM   14  C20 UNL     1      67.055  47.599  32.038  1.00  0.00     0.016 C 
HETATM   15  C21 UNL     1      66.032  45.733  30.885  1.00  0.00     0.016 C 
ENDROOT
BRANCH   1  16
HETATM   16  C6  UNL     1      63.814  47.412  31.007  1.00  0.00     0.008 C 
BRANCH  16  17
HETATM   17  C5  UNL     1      63.996  48.671  30.271  1.00  0.00     0.038 C 
BRANCH  17  18
HETATM   18  C3  UNL     1      63.603  48.613  28.811  1.00  0.00     0.120 C 
HETATM   19  C4  UNL     1      64.481  49.406  27.898  1.00  0.00     0.046 C 
BRANCH  18  20
HETATM   20  C2  UNL     1      62.151  48.913  28.659  1.00  0.00     0.033 C 
HETATM   21  C1  UNL     1      61.384  47.635  28.310  1.00  0.00     0.007 C 
ENDBRANCH  18  20
BRANCH  18  22
HETATM   22  N1  UNL     1      63.789  47.202  28.407  1.00  0.00    -0.071 N 
ATOM     23  H13 UNL     1      63.571  46.539  29.150  1.00  0.00     0.275 HD
ATOM     24  H12 UNL     1      63.092  46.879  27.738  1.00  0.00     0.275 HD
ATOM     25  H11 UNL     1      64.746  47.120  28.063  1.00  0.00     0.275 HD
ENDBRANCH  18  22
ENDBRANCH  17  18
ENDBRANCH  16  17
ENDBRANCH   1  16
TORSDOF 5
ENDMDL
MODEL 2
REMARK VINA RESULT: -8.179953238      0.940      1.328
REMARK  5 active torsions:
REMARK  status: ('A' for Active; 'I' for Inactive)
REMARK    1  A    between atoms: C2_2  and  C3_3 
REMARK    2  A    between atoms: C3_3  and  N1_5 
REMARK    3  A    between atoms: C3_3  and  C5_9 
REMARK    4  A    between atoms: C5_9  and  C6_10 
REMARK    5  A    between atoms: C6_10  and  C7_11 
ROOT
HETATM    1  C7  UNL     1      64.963  47.511  32.163  1.00  0.00    -0.001 C 
HETATM    2  C8  UNL     1      64.682  48.494  33.236  1.00  0.00    -0.002 A 
HETATM    3  C9  UNL     1      63.175  48.673  33.379  1.00  0.00     0.006 A 
HETATM    4  C10 UNL     1      63.270  48.261  34.806  1.00  0.00     0.010 A 
HETATM    5  C11 UNL     1      64.792  48.167  34.620  1.00  0.00    -0.040 A 
HETATM    6  C12 UNL     1      65.407  49.309  35.459  1.00  0.00     0.015 C 
HETATM    7  C13 UNL     1      65.287  46.890  35.116  1.00  0.00     0.010 C 
HETATM    8  C14 UNL     1      65.237  45.700  34.247  1.00  0.00     0.011 C 
HETATM    9  C15 UNL     1      66.288  45.642  33.174  1.00  0.00    -0.033 A 
HETATM   10  C16 UNL     1      67.624  45.337  33.801  1.00  0.00     0.010 A 
HETATM   11  C17 UNL     1      67.699  44.003  33.116  1.00  0.00     0.002 A 
HETATM   12  C18 UNL     1      66.323  44.274  32.573  1.00  0.00     0.010 A 
HETATM   13  C19 UNL     1      66.270  46.817  32.226  1.00  0.00    -0.036 C 
HETATM   14  C20 UNL     1      67.419  47.745  32.597  1.00  0.00     0.016 C 
HETATM   15  C21 UNL     1      66.630  46.254  30.862  1.00  0.00     0.016 C 
ENDROOT
BRANCH   1  16
HETATM   16  C6  UNL     1      64.506  48.055  30.858  1.00  0.00     0.008 C 
BRANCH  16  17
HETATM   17  C5  UNL     1      63.464  47.334  30.113  1.00  0.00     0.038 C 
BRANCH  17  18
HETATM   18  C3  UNL     1      63.710  47.227  28.625  1.00  0.00     0.120 C 
HETATM   19  C4  UNL     1      64.164  45.880  28.164  1.00  0.00     0.046 C 
BRANCH  18  20
HETATM   20  C2  UNL     1      64.584  48.344  28.168  1.00  0.00     0.033 C 
HETATM   21  C1  UNL     1      63.758  49.375  27.393  1.00  0.00     0.007 C 
ENDBRANCH  18  20
BRANCH  18  22
HETATM   22  N1  UNL     1      62.390  47.434  27.989  1.00  0.00    -0.071 N 
ATOM     23  H13 UNL     1      61.619  47.438  28.656  1.00  0.00     0.275 HD
ATOM     24  H12 UNL     1      62.257  48.381  27.635  1.00  0.00     0.275 HD
ATOM     25  H11 UNL     1      62.296  46.718  27.269  1.00  0.00     0.275 HD
ENDBRANCH  18  22
ENDBRANCH  17  18
ENDBRANCH  16  17
ENDBRANCH   1  16
TORSDOF 5
ENDMDL
MODEL 3
REMARK VINA RESULT: -8.132902602      1.494      3.858
REMARK  5 active torsions:
REMARK  status: ('A' for Active; 'I' for Inactive)
REMARK    1  A    between atoms: C2_2  and  C3_3 
REMARK    2  A    between atoms: C3_3  and  N1_5 
REMARK    3  A    between atoms: C3_3  and  C5_9 
REMARK    4  A    between atoms: C5_9  and  C6_10 
REMARK    5  A    between atoms: C6_10  and  C7_11 
ROOT
HETATM    1  C7  UNL     1      65.346  47.502  31.487  1.00  0.00    -0.001 C 
HETATM    2  C8  UNL     1      65.859  46.122  31.322  1.00  0.00    -0.002 A 
HETATM    3  C9  UNL     1      67.009  46.123  30.321  1.00  0.00     0.006 A 
HETATM    4  C10 UNL     1      67.900  45.534  31.357  1.00  0.00     0.010 A 
HETATM    5  C11 UNL     1      66.686  45.492  32.299  1.00  0.00    -0.040 A 
HETATM    6  C12 UNL     1      66.343  44.000  32.504  1.00  0.00     0.015 C 
HETATM    7  C13 UNL     1      67.021  46.087  33.586  1.00  0.00     0.010 C 
HETATM    8  C14 UNL     1      66.940  47.550  33.757  1.00  0.00     0.011 C 
HETATM    9  C15 UNL     1      65.552  48.105  33.909  1.00  0.00    -0.033 A 
HETATM   10  C16 UNL     1      65.018  47.747  35.272  1.00  0.00     0.010 A 
HETATM   11  C17 UNL     1      64.999  49.185  35.700  1.00  0.00     0.002 A 
HETATM   12  C18 UNL     1      65.622  49.524  34.374  1.00  0.00     0.010 A 
HETATM   13  C19 UNL     1      64.633  47.799  32.752  1.00  0.00    -0.036 C 
HETATM   14  C20 UNL     1      63.689  46.682  33.176  1.00  0.00     0.016 C 
HETATM   15  C21 UNL     1      63.756  49.027  32.582  1.00  0.00     0.016 C 
ENDROOT
BRANCH   1  16
HETATM   16  C6  UNL     1      64.753  47.969  30.208  1.00  0.00     0.008 C 
BRANCH  16  17
HETATM   17  C5  UNL     1      63.806  47.093  29.501  1.00  0.00     0.038 C 
BRANCH  17  18
HETATM   18  C3  UNL     1      63.786  47.266  27.999  1.00  0.00     0.120 C 
HETATM   19  C4  UNL     1      62.497  47.786  27.450  1.00  0.00     0.046 C 
BRANCH  18  20
HETATM   20  C2  UNL     1      64.264  46.021  27.333  1.00  0.00     0.033 C 
HETATM   21  C1  UNL     1      64.269  44.860  28.329  1.00  0.00     0.007 C 
ENDBRANCH  18  20
BRANCH  18  22
HETATM   22  N1  UNL     1      64.788  48.314  27.708  1.00  0.00    -0.071 N 
ATOM     23  H13 UNL     1      64.511  49.238  28.036  1.00  0.00     0.275 HD
ATOM     24  H12 UNL     1      65.636  48.228  28.268  1.00  0.00     0.275 HD
ATOM     25  H11 UNL     1      64.964  48.280  26.704  1.00  0.00     0.275 HD
ENDBRANCH  18  22
ENDBRANCH  17  18
ENDBRANCH  16  17
ENDBRANCH   1  16
TORSDOF 5
ENDMDL
MODEL 4
REMARK VINA RESULT: -8.116745136      1.193      3.694
REMARK  5 active torsions:
REMARK  status: ('A' for Active; 'I' for Inactive)
REMARK    1  A    between atoms: C2_2  and  C3_3 
REMARK    2  A    between atoms: C3_3  and  N1_5 
REMARK    3  A    between atoms: C3_3  and  C5_9 
REMARK    4  A    between atoms: C5_9  and  C6_10 
REMARK    5  A    between atoms: C6_10  and  C7_11 
ROOT
HETATM    1  C7  UNL     1      65.710  47.263  31.623  1.00  0.00    -0.001 C 
HETATM    2  C8  UNL     1      66.266  45.905  31.835  1.00  0.00    -0.002 A 
HETATM    3  C9  UNL     1      67.719  45.874  31.377  1.00  0.00     0.006 A 
HETATM    4  C10 UNL     1      68.131  45.445  32.741  1.00  0.00     0.010 A 
HETATM    5  C11 UNL     1      66.643  45.426  33.125  1.00  0.00    -0.040 A 
HETATM    6  C12 UNL     1      66.267  43.945  33.347  1.00  0.00     0.015 C 
HETATM    7  C13 UNL     1      66.428  46.165  34.361  1.00  0.00     0.010 C 
HETATM    8  C14 UNL     1      66.265  47.630  34.317  1.00  0.00     0.011 C 
HETATM    9  C15 UNL     1      64.924  48.115  33.843  1.00  0.00    -0.033 A 
HETATM   10  C16 UNL     1      63.896  47.864  34.916  1.00  0.00     0.010 A 
HETATM   11  C17 UNL     1      63.687  49.335  35.133  1.00  0.00     0.002 A 
HETATM   12  C18 UNL     1      64.782  49.576  34.132  1.00  0.00     0.010 A 
HETATM   13  C19 UNL     1      64.547  47.642  32.460  1.00  0.00    -0.036 C 
HETATM   14  C20 UNL     1      63.528  46.519  32.603  1.00  0.00     0.016 C 
HETATM   15  C21 UNL     1      63.794  48.793  31.819  1.00  0.00     0.016 C 
ENDROOT
BRANCH   1  16
HETATM   16  C6  UNL     1      65.670  47.564  30.170  1.00  0.00     0.008 C 
BRANCH  16  17
HETATM   17  C5  UNL     1      64.953  46.646  29.273  1.00  0.00     0.038 C 
BRANCH  17  18
HETATM   18  C3  UNL     1      64.023  47.321  28.289  1.00  0.00     0.120 C 
HETATM   19  C4  UNL     1      64.449  48.693  27.873  1.00  0.00     0.046 C 
BRANCH  18  20
HETATM   20  C2  UNL     1      62.618  47.252  28.780  1.00  0.00     0.033 C 
HETATM   21  C1  UNL     1      61.895  48.570  28.493  1.00  0.00     0.007 C 
ENDBRANCH  18  20
BRANCH  18  22
HETATM   22  N1  UNL     1      64.084  46.501  27.060  1.00  0.00    -0.071 N 
ATOM     23  H13 UNL     1      64.407  45.549  27.227  1.00  0.00     0.275 HD
ATOM     24  H12 UNL     1      63.165  46.261  26.689  1.00  0.00     0.275 HD
ATOM     25  H11 UNL     1      64.665  47.013  26.395  1.00  0.00     0.275 HD
ENDBRANCH  18  22
ENDBRANCH  17  18
ENDBRANCH  16  17
ENDBRANCH   1  16
TORSDOF 5
ENDMDL
MODEL 5
REMARK VINA RESULT: -8.058639604      1.319      3.815
REMARK  5 active torsions:
REMARK  status: ('A' for Active; 'I' for Inactive)
REMARK    1  A    between atoms: C2_2  and  C3_3 
REMARK    2  A    between atoms: C3_3  and  N1_5 
REMARK    3  A    between atoms: C3_3  and  C5_9 
REMARK    4  A    between atoms: C5_9  and  C6_10 
REMARK    5  A    between atoms: C6_10  and  C7_11 
ROOT
HETATM    1  C7  UNL     1      65.389  47.364  31.485  1.00  0.00    -0.001 C 
HETATM    2  C8  UNL     1      65.863  45.964  31.375  1.00  0.00    -0.002 A 
HETATM    3  C9  UNL     1      67.016  45.895  30.381  1.00  0.00     0.006 A 
HETATM    4  C10 UNL     1      67.886  45.321  31.443  1.00  0.00     0.010 A 
HETATM    5  C11 UNL     1      66.668  45.349  32.379  1.00  0.00    -0.040 A 
HETATM    6  C12 UNL     1      66.281  43.876  32.639  1.00  0.00     0.015 C 
HETATM    7  C13 UNL     1      67.014  45.982  33.644  1.00  0.00     0.010 C 
HETATM    8  C14 UNL     1      66.974  47.452  33.761  1.00  0.00     0.011 C 
HETATM    9  C15 UNL     1      65.602  48.051  33.884  1.00  0.00    -0.033 A 
HETATM   10  C16 UNL     1      65.052  47.760  35.256  1.00  0.00     0.010 A 
HETATM   11  C17 UNL     1      65.072  49.213  35.630  1.00  0.00     0.002 A 
HETATM   12  C18 UNL     1      65.710  49.484  34.296  1.00  0.00     0.010 A 
HETATM   13  C19 UNL     1      64.679  47.727  32.734  1.00  0.00    -0.036 C 
HETATM   14  C20 UNL     1      63.701  46.655  33.195  1.00  0.00     0.016 C 
HETATM   15  C21 UNL     1      63.838  48.973  32.514  1.00  0.00     0.016 C 
ENDROOT
BRANCH   1  16
HETATM   16  C6  UNL     1      64.814  47.798  30.186  1.00  0.00     0.008 C 
BRANCH  16  17
HETATM   17  C5  UNL     1      63.932  46.877  29.455  1.00  0.00     0.038 C 
BRANCH  17  18
HETATM   18  C3  UNL     1      62.674  47.510  28.904  1.00  0.00     0.120 C 
HETATM   19  C4  UNL     1      61.403  46.869  29.361  1.00  0.00     0.046 C 
BRANCH  18  20
HETATM   20  C2  UNL     1      62.776  47.653  27.425  1.00  0.00     0.033 C 
HETATM   21  C1  UNL     1      62.769  49.134  27.037  1.00  0.00     0.007 C 
ENDBRANCH  18  20
BRANCH  18  22
HETATM   22  N1  UNL     1      62.644  48.880  29.461  1.00  0.00    -0.071 N 
ATOM     23  H13 UNL     1      62.107  48.952  30.325  1.00  0.00     0.275 HD
ATOM     24  H12 UNL     1      63.541  49.180  29.843  1.00  0.00     0.275 HD
ATOM     25  H11 UNL     1      62.298  49.490  28.721  1.00  0.00     0.275 HD
ENDBRANCH  18  22
ENDBRANCH  17  18
ENDBRANCH  16  17
ENDBRANCH   1  16
TORSDOF 5
ENDMDL
