MODEL 1
REMARK VINA RESULT: -8.728184917      0.000      0.000
REMARK  4 active torsions:
REMARK  status: ('A' for Active; 'I' for Inactive)
REMARK    1  A    between atoms: C2_2  and  C3_3 
REMARK    2  A    between atoms: C3_3  and  C4_4 
REMARK    3  A    between atoms: C4_4  and  C5_5 
REMARK    4  A    between atoms: C5_5  and  N1_6 
ROOT
HETATM    1  N1  UNL     1      62.945  48.316  28.631  1.00  0.00    -0.364 N 
HETATM    2  C6  UNL     1      63.420  47.909  27.379  1.00  0.00     0.064 C 
HETATM    3  C7  UNL     1      63.778  46.445  27.269  1.00  0.00     0.045 C 
HETATM    4  C8  UNL     1      63.937  45.923  28.670  1.00  0.00     0.012 C 
HETATM    5  C9  UNL     1      64.718  46.975  29.474  1.00  0.00     0.018 C 
HETATM    6  C10 UNL     1      65.443  46.375  30.597  1.00  0.00    -0.004 C 
HETATM    7  C11 UNL     1      66.963  46.595  30.468  1.00  0.00     0.006 C 
HETATM    8  C12 UNL     1      67.594  45.542  31.385  1.00  0.00     0.009 C 
HETATM    9  C13 UNL     1      67.328  46.021  32.803  1.00  0.00    -0.047 C 
HETATM   10  C14 UNL     1      68.634  46.669  33.280  1.00  0.00     0.015 C 
HETATM   11  C15 UNL     1      67.009  44.876  33.733  1.00  0.00     0.015 C 
HETATM   12  C16 UNL     1      66.276  47.074  32.844  1.00  0.00     0.013 C 
HETATM   13  C17 UNL     1      65.054  46.725  31.974  1.00  0.00    -0.009 C 
HETATM   14  C18 UNL     1      64.108  47.849  32.150  1.00  0.00     0.007 C 
HETATM   15  C19 UNL     1      63.098  48.049  31.078  1.00  0.00     0.032 C 
HETATM   16  C20 UNL     1      63.804  48.115  29.749  1.00  0.00     0.036 C 
HETATM   17  C21 UNL     1      64.673  49.385  29.809  1.00  0.00     0.039 C 
ENDROOT
BRANCH   1  18
HETATM   18  C5  UNL     1      61.570  48.418  28.855  1.00  0.00     0.064 C 
BRANCH  18  19
HETATM   19  C4  UNL     1      60.907  47.132  28.362  1.00  0.00     0.044 C 
BRANCH  19  20
HETATM   20  C3  UNL     1      60.297  46.364  29.505  1.00  0.00     0.005 C 
BRANCH  20  21
HETATM   21  C2  UNL     1      58.849  46.044  29.336  1.00  0.00    -0.004 C 
HETATM   22  C1  UNL     1      58.347  46.943  28.199  1.00  0.00     0.005 C 
ENDBRANCH  20  21
ENDBRANCH  19  20
ENDBRANCH  18  19
ENDBRANCH   1  18
TORSDOF 4
ENDMDL
MODEL 2
REMARK VINA RESULT: -7.670759695      1.938      6.180
REMARK  4 active torsions:
REMARK  status: ('A' for Active; 'I' for Inactive)
REMARK    1  A    between atoms: C2_2  and  C3_3 
REMARK    2  A    between atoms: C3_3  and  C4_4 
REMARK    3  A    between atoms: C4_4  and  C5_5 
REMARK    4  A    between atoms: C5_5  and  N1_6 
ROOT
HETATM    1  N1  UNL     1      66.543  46.668  32.814  1.00  0.00    -0.364 N 
HETATM    2  C6  UNL     1      67.243  45.541  32.368  1.00  0.00     0.064 C 
HETATM    3  C7  UNL     1      67.841  45.658  30.985  1.00  0.00     0.045 C 
HETATM    4  C8  UNL     1      67.142  46.797  30.296  1.00  0.00     0.012 C 
HETATM    5  C9  UNL     1      65.642  46.684  30.614  1.00  0.00     0.018 C 
HETATM    6  C10 UNL     1      64.817  47.308  29.576  1.00  0.00    -0.004 C 
HETATM    7  C11 UNL     1      63.877  46.283  28.912  1.00  0.00     0.006 C 
HETATM    8  C12 UNL     1      63.467  46.927  27.583  1.00  0.00     0.009 C 
HETATM    9  C13 UNL     1      62.502  48.043  27.949  1.00  0.00    -0.047 C 
HETATM   10  C14 UNL     1      61.097  47.490  27.681  1.00  0.00     0.015 C 
HETATM   11  C15 UNL     1      62.697  49.262  27.081  1.00  0.00     0.015 C 
HETATM   12  C16 UNL     1      62.570  48.381  29.398  1.00  0.00     0.013 C 
HETATM   13  C17 UNL     1      64.017  48.499  29.911  1.00  0.00    -0.009 C 
HETATM   14  C18 UNL     1      63.902  48.862  31.341  1.00  0.00     0.007 C 
HETATM   15  C19 UNL     1      65.069  48.550  32.208  1.00  0.00     0.032 C 
HETATM   16  C20 UNL     1      65.438  47.101  32.027  1.00  0.00     0.036 C 
HETATM   17  C21 UNL     1      64.237  46.301  32.563  1.00  0.00     0.039 C 
ENDROOT
BRANCH   1  18
HETATM   18  C5  UNL     1      67.173  47.595  33.647  1.00  0.00     0.064 C 
BRANCH  18  19
HETATM   19  C4  UNL     1      67.030  47.115  35.092  1.00  0.00     0.044 C 
BRANCH  19  20
HETATM   20  C3  UNL     1      65.703  47.531  35.672  1.00  0.00     0.005 C 
BRANCH  20  21
HETATM   21  C2  UNL     1      65.302  48.935  35.361  1.00  0.00    -0.004 C 
HETATM   22  C1  UNL     1      63.770  48.932  35.294  1.00  0.00     0.005 C 
ENDBRANCH  20  21
ENDBRANCH  19  20
ENDBRANCH  18  19
ENDBRANCH   1  18
TORSDOF 4
ENDMDL
MODEL 3
REMARK VINA RESULT: -7.628348260      0.941      1.192
REMARK  4 active torsions:
REMARK  status: ('A' for Active; 'I' for Inactive)
REMARK    1  A    between atoms: C2_2  and  C3_3 
REMARK    2  A    between atoms: C3_3  and  C4_4 
REMARK    3  A    between atoms: C4_4  and  C5_5 
REMARK    4  A    between atoms: C5_5  and  N1_6 
ROOT
HETATM    1  N1  UNL     1      63.852  47.511  27.931  1.00  0.00    -0.364 N 
HETATM    2  C6  UNL     1      64.228  46.558  26.977  1.00  0.00     0.064 C 
HETATM    3  C7  UNL     1      64.161  45.121  27.438  1.00  0.00     0.045 C 
HETATM    4  C8  UNL     1      64.126  45.140  28.941  1.00  0.00     0.012 C 
HETATM    5  C9  UNL     1      65.150  46.185  29.417  1.00  0.00     0.018 C 
HETATM    6  C10 UNL     1      65.643  45.889  30.765  1.00  0.00    -0.004 C 
HETATM    7  C11 UNL     1      67.167  45.654  30.767  1.00  0.00     0.006 C 
HETATM    8  C12 UNL     1      67.448  44.900  32.071  1.00  0.00     0.009 C 
HETATM    9  C13 UNL     1      67.288  45.927  33.181  1.00  0.00    -0.047 C 
HETATM   10  C14 UNL     1      68.710  46.356  33.565  1.00  0.00     0.015 C 
HETATM   11  C15 UNL     1      66.633  45.336  34.405  1.00  0.00     0.015 C 
HETATM   12  C16 UNL     1      66.576  47.147  32.709  1.00  0.00     0.013 C 
HETATM   13  C17 UNL     1      65.330  46.816  31.866  1.00  0.00    -0.009 C 
HETATM   14  C18 UNL     1      64.736  48.123  31.508  1.00  0.00     0.007 C 
HETATM   15  C19 UNL     1      63.854  48.153  30.311  1.00  0.00     0.032 C 
HETATM   16  C20 UNL     1      64.587  47.535  29.150  1.00  0.00     0.036 C 
HETATM   17  C21 UNL     1      65.777  48.471  28.871  1.00  0.00     0.039 C 
ENDROOT
BRANCH   1  18
HETATM   18  C5  UNL     1      62.556  48.032  27.922  1.00  0.00     0.064 C 
BRANCH  18  19
HETATM   19  C4  UNL     1      61.573  46.873  28.091  1.00  0.00     0.044 C 
BRANCH  19  20
HETATM   20  C3  UNL     1      60.526  47.198  29.125  1.00  0.00     0.005 C 
BRANCH  20  21
HETATM   21  C2  UNL     1      59.495  46.137  29.320  1.00  0.00    -0.004 C 
HETATM   22  C1  UNL     1      59.486  45.828  30.822  1.00  0.00     0.005 C 
ENDBRANCH  20  21
ENDBRANCH  19  20
ENDBRANCH  18  19
ENDBRANCH   1  18
TORSDOF 4
ENDMDL
MODEL 4
REMARK VINA RESULT: -6.791105193      1.509      1.901
REMARK  4 active torsions:
REMARK  status: ('A' for Active; 'I' for Inactive)
REMARK    1  A    between atoms: C2_2  and  C3_3 
REMARK    2  A    between atoms: C3_3  and  C4_4 
REMARK    3  A    between atoms: C4_4  and  C5_5 
REMARK    4  A    between atoms: C5_5  and  N1_6 
ROOT
HETATM    1  N1  UNL     1      63.323  48.576  29.596  1.00  0.00    -0.364 N 
HETATM    2  C6  UNL     1      64.380  48.593  28.678  1.00  0.00     0.064 C 
HETATM    3  C7  UNL     1      65.202  47.327  28.616  1.00  0.00     0.045 C 
HETATM    4  C8  UNL     1      64.922  46.556  29.877  1.00  0.00     0.012 C 
HETATM    5  C9  UNL     1      64.912  47.559  31.043  1.00  0.00     0.018 C 
HETATM    6  C10 UNL     1      65.254  46.917  32.316  1.00  0.00    -0.004 C 
HETATM    7  C11 UNL     1      66.528  47.529  32.929  1.00  0.00     0.006 C 
HETATM    8  C12 UNL     1      67.022  46.484  33.936  1.00  0.00     0.009 C 
HETATM    9  C13 UNL     1      66.050  46.549  35.104  1.00  0.00    -0.047 C 
HETATM   10  C14 UNL     1      66.753  47.374  36.189  1.00  0.00     0.015 C 
HETATM   11  C15 UNL     1      65.761  45.181  35.672  1.00  0.00     0.015 C 
HETATM   12  C16 UNL     1      64.800  47.273  34.744  1.00  0.00     0.013 C 
HETATM   13  C17 UNL     1      64.236  46.840  33.378  1.00  0.00    -0.009 C 
HETATM   14  C18 UNL     1      62.996  47.626  33.194  1.00  0.00     0.007 C 
HETATM   15  C19 UNL     1      62.520  47.808  31.797  1.00  0.00     0.032 C 
HETATM   16  C20 UNL     1      63.652  48.345  30.962  1.00  0.00     0.036 C 
HETATM   17  C21 UNL     1      63.957  49.742  31.533  1.00  0.00     0.039 C 
ENDROOT
BRANCH   1  18
HETATM   18  C5  UNL     1      62.028  48.283  29.162  1.00  0.00     0.064 C 
BRANCH  18  19
HETATM   19  C4  UNL     1      61.889  46.763  29.064  1.00  0.00     0.044 C 
BRANCH  19  20
HETATM   20  C3  UNL     1      60.467  46.333  29.318  1.00  0.00     0.005 C 
BRANCH  20  21
HETATM   21  C2  UNL     1      59.439  47.108  28.563  1.00  0.00    -0.004 C 
HETATM   22  C1  UNL     1      58.097  46.424  28.853  1.00  0.00     0.005 C 
ENDBRANCH  20  21
ENDBRANCH  19  20
ENDBRANCH  18  19
ENDBRANCH   1  18
TORSDOF 4
ENDMDL
MODEL 5
REMARK VINA RESULT: -6.784821872      1.815      6.495
REMARK  4 active torsions:
REMARK  status: ('A' for Active; 'I' for Inactive)
REMARK    1  A    between atoms: C2_2  and  C3_3 
REMARK    2  A    between atoms: C3_3  and  C4_4 
REMARK    3  A    between atoms: C4_4  and  C5_5 
REMARK    4  A    between atoms: C5_5  and  N1_6 
ROOT
HETATM    1  N1  UNL     1      67.107  46.194  32.103  1.00  0.00    -0.364 N 
HETATM    2  C6  UNL     1      67.285  47.281  32.967  1.00  0.00     0.064 C 
HETATM    3  C7  UNL     1      66.021  47.819  33.596  1.00  0.00     0.045 C 
HETATM    4  C8  UNL     1      64.868  47.312  32.775  1.00  0.00     0.012 C 
HETATM    5  C9  UNL     1      65.256  47.447  31.293  1.00  0.00     0.018 C 
HETATM    6  C10 UNL     1      64.077  47.573  30.431  1.00  0.00    -0.004 C 
HETATM    7  C11 UNL     1      64.080  48.911  29.667  1.00  0.00     0.006 C 
HETATM    8  C12 UNL     1      62.627  49.115  29.223  1.00  0.00     0.009 C 
HETATM    9  C13 UNL     1      62.396  48.115  28.102  1.00  0.00    -0.047 C 
HETATM   10  C14 UNL     1      62.509  48.912  26.797  1.00  0.00     0.015 C 
HETATM   11  C15 UNL     1      61.015  47.511  28.161  1.00  0.00     0.015 C 
HETATM   12  C16 UNL     1      63.455  47.068  28.067  1.00  0.00     0.013 C 
HETATM   13  C17 UNL     1      63.776  46.504  29.464  1.00  0.00    -0.009 C 
HETATM   14  C18 UNL     1      64.812  45.470  29.246  1.00  0.00     0.007 C 
HETATM   15  C19 UNL     1      65.669  45.123  30.411  1.00  0.00     0.032 C 
HETATM   16  C20 UNL     1      66.253  46.389  30.980  1.00  0.00     0.036 C 
HETATM   17  C21 UNL     1      67.173  46.949  29.881  1.00  0.00     0.039 C 
ENDROOT
BRANCH   1  18
HETATM   18  C5  UNL     1      67.312  44.893  32.568  1.00  0.00     0.064 C 
BRANCH  18  19
HETATM   19  C4  UNL     1      67.303  44.924  34.097  1.00  0.00     0.044 C 
BRANCH  19  20
HETATM   20  C3  UNL     1      66.112  44.183  34.647  1.00  0.00     0.005 C 
BRANCH  20  21
HETATM   21  C2  UNL     1      65.753  44.538  36.051  1.00  0.00    -0.004 C 
HETATM   22  C1  UNL     1      65.766  46.071  36.117  1.00  0.00     0.005 C 
ENDBRANCH  20  21
ENDBRANCH  19  20
ENDBRANCH  18  19
ENDBRANCH   1  18
TORSDOF 4
ENDMDL
