MODEL 1
REMARK VINA RESULT: -9.916905267      0.000      0.000
REMARK  7 active torsions:
REMARK  status: ('A' for Active; 'I' for Inactive)
REMARK    1  A    between atoms: O1_2  and  C2_3 
REMARK    2  A    between atoms: C7_8  and  O2_9 
REMARK    3  A    between atoms: N1_17  and  C15_18 
REMARK    4  A    between atoms: C15_18  and  C16_19 
REMARK    5  A    between atoms: C16_19  and  C17_20 
REMARK    6  A    between atoms: C20_27  and  C21_28 
REMARK       I    between atoms: C21_28  and  N3_30 
REMARK    7  A    between atoms: N4_33  and  C24_34 
ROOT
HETATM    1  C17 UNL     1      15.393  20.396   5.649  1.00  0.00     0.387 C 
HETATM    2  N2  UNL     1      15.715  20.201   7.043  1.00  0.00    -0.029 N 
ATOM      3  H21 UNL     1      15.467  19.257   7.339  1.00  0.00     0.281 HD
ATOM      4  H22 UNL     1      15.082  20.739   7.634  1.00  0.00     0.281 HD
HETATM    5  C18 UNL     1      17.093  20.493   7.378  1.00  0.00     0.286 C 
HETATM    6 CL1  UNL     1      17.425  19.761   8.963  1.00  0.00    -0.095 Cl
HETATM    7  C19 UNL     1      18.072  19.899   6.388  1.00  0.00     0.092 C 
HETATM    8  C20 UNL     1      17.216  18.968   5.504  1.00  0.00     0.282 C 
HETATM    9  N5  UNL     1      16.404  19.925   4.742  1.00  0.00    -0.033 N 
ATOM     10  H51 UNL     1      16.951  20.674   4.316  1.00  0.00     0.280 HD
ATOM     11  H52 UNL     1      16.027  19.541   3.876  1.00  0.00     0.280 HD
ENDROOT
BRANCH   1  12
HETATM   12  C16 UNL     1      14.949  21.814   5.407  1.00  0.00     0.093 C 
BRANCH  12  13
HETATM   13  C15 UNL     1      14.789  22.578   6.699  1.00  0.00     0.276 C 
BRANCH  13  14
HETATM   14  N1  UNL     1      13.623  23.441   6.671  1.00  0.00     0.088 N 
HETATM   15  C14 UNL     1      13.426  23.930   5.327  1.00  0.00     0.273 C 
HETATM   16  C13 UNL     1      12.392  25.052   5.302  1.00  0.00     0.049 C 
HETATM   17  C9  UNL     1      11.210  24.647   6.159  1.00  0.00     0.009 A 
HETATM   18  C5  UNL     1       9.950  25.100   5.548  1.00  0.00    -0.032 A 
HETATM   19  C10 UNL     1      11.212  25.263   7.493  1.00  0.00    -0.005 A 
HETATM   20  C30 UNL     1      11.254  23.127   6.273  1.00  0.00     0.049 C 
HETATM   21  C4  UNL     1       9.301  25.905   6.467  1.00  0.00    -0.020 A 
HETATM   22  C6  UNL     1       9.364  24.871   4.314  1.00  0.00     0.048 A 
HETATM   23  C3  UNL     1       8.091  26.448   6.110  1.00  0.00     0.052 A 
HETATM   24  C11 UNL     1      10.115  25.988   7.672  1.00  0.00    -0.054 A 
HETATM   25  C2  UNL     1       7.488  26.231   4.881  1.00  0.00     0.102 A 
HETATM   26  C7  UNL     1       8.147  25.423   3.967  1.00  0.00     0.102 A 
HETATM   27  C12 UNL     1       9.781  26.752   8.901  1.00  0.00     0.049 C 
HETATM   28  C29 UNL     1      12.439  22.763   7.141  1.00  0.00     0.273 C 
BRANCH  25  29
HETATM   29  O1  UNL     1       6.265  26.789   4.538  1.00  0.00    -0.353 OA
HETATM   30  C1  UNL     1       5.118  26.435   5.292  1.00  0.00     0.210 C 
ENDBRANCH  25  29
BRANCH  26  31
HETATM   31  O2  UNL     1       7.576  25.178   2.719  1.00  0.00    -0.353 OA
HETATM   32  C8  UNL     1       8.378  25.271   1.558  1.00  0.00     0.210 C 
ENDBRANCH  26  31
ENDBRANCH  13  14
ENDBRANCH  12  13
ENDBRANCH   1  12
BRANCH   8  33
HETATM   33  C21 UNL     1      18.019  18.122   4.629  1.00  0.00     0.251 C 
HETATM   34  O3  UNL     1      18.269  18.528   3.453  1.00  0.00    -0.271 OA
HETATM   35  N3  UNL     1      18.522  16.879   5.042  1.00  0.00    -0.347 N 
HETATM   36  C22 UNL     1      19.376  16.051   4.177  1.00  0.00     0.156 C 
HETATM   37  C28 UNL     1      18.211  16.316   6.325  1.00  0.00     0.156 C 
HETATM   38  C23 UNL     1      19.477  14.700   4.802  1.00  0.00     0.292 C 
HETATM   39  N4  UNL     1      20.083  14.753   6.117  1.00  0.00     0.095 N 
HETATM   40  C27 UNL     1      19.561  15.873   6.914  1.00  0.00     0.292 C 
BRANCH  39  41
HETATM   41  C24 UNL     1      19.746  13.564   6.882  1.00  0.00     0.215 C 
HETATM   42  C25 UNL     1      20.011  13.828   8.345  1.00  0.00     0.042 C 
HETATM   43  C26 UNL     1      20.426  12.327   6.401  1.00  0.00     0.042 C 
ENDBRANCH  39  41
ENDBRANCH   8  33
TORSDOF 7
ENDMDL
MODEL 2
REMARK VINA RESULT: -9.848598637      1.656      2.934
REMARK  7 active torsions:
REMARK  status: ('A' for Active; 'I' for Inactive)
REMARK    1  A    between atoms: O1_2  and  C2_3 
REMARK    2  A    between atoms: C7_8  and  O2_9 
REMARK    3  A    between atoms: N1_17  and  C15_18 
REMARK    4  A    between atoms: C15_18  and  C16_19 
REMARK    5  A    between atoms: C16_19  and  C17_20 
REMARK    6  A    between atoms: C20_27  and  C21_28 
REMARK       I    between atoms: C21_28  and  N3_30 
REMARK    7  A    between atoms: N4_33  and  C24_34 
ROOT
HETATM    1  C17 UNL     1      15.108  19.611   4.739  1.00  0.00     0.387 C 
HETATM    2  N2  UNL     1      15.392  19.802   6.141  1.00  0.00    -0.029 N 
ATOM      3  H21 UNL     1      15.307  18.921   6.647  1.00  0.00     0.281 HD
ATOM      4  H22 UNL     1      14.644  20.331   6.589  1.00  0.00     0.281 HD
HETATM    5  C18 UNL     1      16.676  20.417   6.405  1.00  0.00     0.286 C 
HETATM    6 CL1  UNL     1      17.060  20.140   8.119  1.00  0.00    -0.095 Cl
HETATM    7  C19 UNL     1      17.794  19.810   5.584  1.00  0.00     0.092 C 
HETATM    8  C20 UNL     1      17.165  18.557   4.937  1.00  0.00     0.282 C 
HETATM    9  N5  UNL     1      16.230  19.146   3.970  1.00  0.00    -0.033 N 
ATOM     10  H51 UNL     1      16.650  19.868   3.385  1.00  0.00     0.280 HD
ATOM     11  H52 UNL     1      15.971  18.511   3.215  1.00  0.00     0.280 HD
ENDROOT
BRANCH   1  12
HETATM   12  C16 UNL     1      14.424  20.827   4.173  1.00  0.00     0.093 C 
BRANCH  12  13
HETATM   13  C15 UNL     1      13.121  20.473   3.498  1.00  0.00     0.276 C 
BRANCH  13  14
HETATM   14  N1  UNL     1      12.116  21.500   3.701  1.00  0.00     0.088 N 
HETATM   15  C14 UNL     1      11.716  21.507   5.088  1.00  0.00     0.273 C 
HETATM   16  C13 UNL     1      10.472  22.368   5.292  1.00  0.00     0.049 C 
HETATM   17  C9  UNL     1      10.646  23.665   4.530  1.00  0.00     0.009 A 
HETATM   18  C5  UNL     1      10.081  24.790   5.292  1.00  0.00    -0.032 A 
HETATM   19  C10 UNL     1       9.929  23.695   3.248  1.00  0.00    -0.005 A 
HETATM   20  C30 UNL     1      12.144  23.845   4.308  1.00  0.00     0.049 C 
HETATM   21  C4  UNL     1       9.125  25.400   4.500  1.00  0.00    -0.020 A 
HETATM   22  C6  UNL     1      10.330  25.291   6.560  1.00  0.00     0.048 A 
HETATM   23  C3  UNL     1       8.458  26.485   5.010  1.00  0.00     0.052 A 
HETATM   24  C11 UNL     1       9.053  24.692   3.228  1.00  0.00    -0.054 A 
HETATM   25  C2  UNL     1       8.691  27.001   6.275  1.00  0.00     0.102 A 
HETATM   26  C7  UNL     1       9.652  26.384   7.062  1.00  0.00     0.102 A 
HETATM   27  C12 UNL     1       8.154  25.023   2.093  1.00  0.00     0.049 C 
HETATM   28  C29 UNL     1      12.590  22.804   3.305  1.00  0.00     0.273 C 
BRANCH  25  29
HETATM   29  O1  UNL     1       8.006  28.100   6.775  1.00  0.00    -0.353 OA
HETATM   30  C1  UNL     1       6.617  27.980   7.028  1.00  0.00     0.210 C 
ENDBRANCH  25  29
BRANCH  26  31
HETATM   31  O2  UNL     1       9.920  26.871   8.340  1.00  0.00    -0.353 OA
HETATM   32  C8  UNL     1      10.686  26.088   9.235  1.00  0.00     0.210 C 
ENDBRANCH  26  31
ENDBRANCH  13  14
ENDBRANCH  12  13
ENDBRANCH   1  12
BRANCH   8  33
HETATM   33  C21 UNL     1      18.150  17.702   4.285  1.00  0.00     0.251 C 
HETATM   34  O3  UNL     1      18.549  18.013   3.121  1.00  0.00    -0.271 OA
HETATM   35  N3  UNL     1      18.668  16.552   4.899  1.00  0.00    -0.347 N 
HETATM   36  C22 UNL     1      19.700  15.720   4.262  1.00  0.00     0.156 C 
HETATM   37  C28 UNL     1      18.204  16.092   6.176  1.00  0.00     0.156 C 
HETATM   38  C23 UNL     1      19.798  14.450   5.038  1.00  0.00     0.292 C 
HETATM   39  N4  UNL     1      20.189  14.681   6.414  1.00  0.00     0.095 N 
HETATM   40  C27 UNL     1      19.474  15.824   7.000  1.00  0.00     0.292 C 
BRANCH  39  41
HETATM   41  C24 UNL     1      19.822  13.546   7.246  1.00  0.00     0.215 C 
HETATM   42  C25 UNL     1      19.861  13.966   8.696  1.00  0.00     0.042 C 
HETATM   43  C26 UNL     1      20.638  12.324   6.991  1.00  0.00     0.042 C 
ENDBRANCH  39  41
ENDBRANCH   8  33
TORSDOF 7
ENDMDL
MODEL 3
REMARK VINA RESULT: -9.843903889      6.076     11.540
REMARK  7 active torsions:
REMARK  status: ('A' for Active; 'I' for Inactive)
REMARK    1  A    between atoms: O1_2  and  C2_3 
REMARK    2  A    between atoms: C7_8  and  O2_9 
REMARK    3  A    between atoms: N1_17  and  C15_18 
REMARK    4  A    between atoms: C15_18  and  C16_19 
REMARK    5  A    between atoms: C16_19  and  C17_20 
REMARK    6  A    between atoms: C20_27  and  C21_28 
REMARK       I    between atoms: C21_28  and  N3_30 
REMARK    7  A    between atoms: N4_33  and  C24_34 
ROOT
HETATM    1  C17 UNL     1       6.683  27.488   6.989  1.00  0.00     0.387 C 
HETATM    2  N2  UNL     1       5.804  28.632   6.975  1.00  0.00    -0.029 N 
ATOM      3  H21 UNL     1       5.909  29.153   6.105  1.00  0.00     0.281 HD
ATOM      4  H22 UNL     1       6.124  29.337   7.639  1.00  0.00     0.281 HD
HETATM    5  C18 UNL     1       4.412  28.310   7.209  1.00  0.00     0.286 C 
HETATM    6 CL1  UNL     1       3.444  29.709   6.691  1.00  0.00    -0.095 Cl
HETATM    7  C19 UNL     1       3.947  27.113   6.407  1.00  0.00     0.092 C 
HETATM    8  C20 UNL     1       5.103  26.831   5.423  1.00  0.00     0.282 C 
HETATM    9  N5  UNL     1       6.154  26.331   6.318  1.00  0.00    -0.033 N 
ATOM     10  H51 UNL     1       5.835  25.602   6.955  1.00  0.00     0.280 HD
ATOM     11  H52 UNL     1       6.865  25.777   5.842  1.00  0.00     0.280 HD
ENDROOT
BRANCH   1  12
HETATM   12  C16 UNL     1       7.179  27.226   8.387  1.00  0.00     0.093 C 
BRANCH  12  13
HETATM   13  C15 UNL     1       8.593  27.717   8.579  1.00  0.00     0.276 C 
BRANCH  13  14
HETATM   14  N1  UNL     1       9.560  26.817   7.979  1.00  0.00     0.088 N 
HETATM   15  C14 UNL     1      10.670  26.638   8.884  1.00  0.00     0.273 C 
HETATM   16  C13 UNL     1      11.831  25.932   8.189  1.00  0.00     0.049 C 
HETATM   17  C9  UNL     1      11.287  24.764   7.393  1.00  0.00     0.009 A 
HETATM   18  C5  UNL     1      12.206  23.617   7.466  1.00  0.00    -0.032 A 
HETATM   19  C10 UNL     1      11.159  25.041   5.956  1.00  0.00    -0.005 A 
HETATM   20  C30 UNL     1       9.927  24.422   7.993  1.00  0.00     0.049 C 
HETATM   21  C4  UNL     1      12.564  23.280   6.173  1.00  0.00    -0.020 A 
HETATM   22  C6  UNL     1      12.723  22.888   8.524  1.00  0.00     0.048 A 
HETATM   23  C3  UNL     1      13.425  22.227   5.994  1.00  0.00     0.052 A 
HETATM   24  C11 UNL     1      11.893  24.188   5.251  1.00  0.00    -0.054 A 
HETATM   25  C2  UNL     1      13.954  21.485   7.039  1.00  0.00     0.102 A 
HETATM   26  C7  UNL     1      13.589  21.830   8.331  1.00  0.00     0.102 A 
HETATM   27  C12 UNL     1      12.006  24.171   3.771  1.00  0.00     0.049 C 
HETATM   28  C29 UNL     1       8.973  25.542   7.642  1.00  0.00     0.273 C 
BRANCH  25  29
HETATM   29  O1  UNL     1      14.824  20.423   6.839  1.00  0.00    -0.353 OA
HETATM   30  C1  UNL     1      15.504  20.322   5.599  1.00  0.00     0.210 C 
ENDBRANCH  25  29
BRANCH  26  31
HETATM   31  O2  UNL     1      14.096  21.111   9.412  1.00  0.00    -0.353 OA
HETATM   32  C8  UNL     1      15.158  21.654  10.172  1.00  0.00     0.210 C 
ENDBRANCH  26  31
ENDBRANCH  13  14
ENDBRANCH  12  13
ENDBRANCH   1  12
BRANCH   8  33
HETATM   33  C21 UNL     1       4.750  25.851   4.403  1.00  0.00     0.251 C 
HETATM   34  O3  UNL     1       3.522  25.658   4.144  1.00  0.00    -0.271 OA
HETATM   35  N3  UNL     1       5.718  25.117   3.701  1.00  0.00    -0.347 N 
HETATM   36  C22 UNL     1       5.364  24.168   2.636  1.00  0.00     0.156 C 
HETATM   37  C28 UNL     1       7.119  25.220   3.998  1.00  0.00     0.156 C 
HETATM   38  C23 UNL     1       6.581  23.365   2.322  1.00  0.00     0.292 C 
HETATM   39  N4  UNL     1       7.671  24.193   1.846  1.00  0.00     0.095 N 
HETATM   40  C27 UNL     1       7.810  25.423   2.639  1.00  0.00     0.292 C 
BRANCH  39  41
HETATM   41  C24 UNL     1       8.942  23.504   2.004  1.00  0.00     0.215 C 
HETATM   42  C25 UNL     1       9.774  23.715   0.762  1.00  0.00     0.042 C 
HETATM   43  C26 UNL     1       8.804  22.059   2.350  1.00  0.00     0.042 C 
ENDBRANCH  39  41
ENDBRANCH   8  33
TORSDOF 7
ENDMDL
MODEL 4
REMARK VINA RESULT: -9.825701071      3.290      5.286
REMARK  7 active torsions:
REMARK  status: ('A' for Active; 'I' for Inactive)
REMARK    1  A    between atoms: O1_2  and  C2_3 
REMARK    2  A    between atoms: C7_8  and  O2_9 
REMARK    3  A    between atoms: N1_17  and  C15_18 
REMARK    4  A    between atoms: C15_18  and  C16_19 
REMARK    5  A    between atoms: C16_19  and  C17_20 
REMARK    6  A    between atoms: C20_27  and  C21_28 
REMARK       I    between atoms: C21_28  and  N3_30 
REMARK    7  A    between atoms: N4_33  and  C24_34 
ROOT
HETATM    1  C17 UNL     1      15.114  20.259   2.945  1.00  0.00     0.387 C 
HETATM    2  N2  UNL     1      15.709  19.201   2.164  1.00  0.00    -0.029 N 
ATOM      3  H21 UNL     1      16.617  19.493   1.801  1.00  0.00     0.281 HD
ATOM      4  H22 UNL     1      15.204  19.077   1.287  1.00  0.00     0.281 HD
HETATM    5  C18 UNL     1      15.825  17.941   2.867  1.00  0.00     0.286 C 
HETATM    6 CL1  UNL     1      16.977  16.930   1.967  1.00  0.00    -0.095 Cl
HETATM    7  C19 UNL     1      16.363  18.104   4.273  1.00  0.00     0.092 C 
HETATM    8  C20 UNL     1      16.834  19.572   4.341  1.00  0.00     0.282 C 
HETATM    9  N5  UNL     1      15.563  20.306   4.310  1.00  0.00    -0.033 N 
ATOM     10  H51 UNL     1      14.875  19.958   4.978  1.00  0.00     0.280 HD
ATOM     11  H52 UNL     1      15.630  21.253   4.684  1.00  0.00     0.280 HD
ENDROOT
BRANCH   1  12
HETATM   12  C16 UNL     1      13.617  20.252   2.781  1.00  0.00     0.093 C 
BRANCH  12  13
HETATM   13  C15 UNL     1      12.908  20.200   4.112  1.00  0.00     0.276 C 
BRANCH  13  14
HETATM   14  N1  UNL     1      11.909  21.245   4.229  1.00  0.00     0.088 N 
HETATM   15  C14 UNL     1      11.571  21.427   5.620  1.00  0.00     0.273 C 
HETATM   16  C13 UNL     1      10.334  22.309   5.770  1.00  0.00     0.049 C 
HETATM   17  C9  UNL     1      10.469  23.500   4.845  1.00  0.00     0.009 A 
HETATM   18  C5  UNL     1       9.934  24.713   5.485  1.00  0.00    -0.032 A 
HETATM   19  C10 UNL     1       9.696  23.370   3.602  1.00  0.00    -0.005 A 
HETATM   20  C30 UNL     1      11.955  23.648   4.536  1.00  0.00     0.049 C 
HETATM   21  C4  UNL     1       8.941  25.220   4.665  1.00  0.00    -0.020 A 
HETATM   22  C6  UNL     1      10.236  25.368   6.667  1.00  0.00     0.048 A 
HETATM   23  C3  UNL     1       8.293  26.362   5.065  1.00  0.00     0.052 A 
HETATM   24  C11 UNL     1       8.816  24.358   3.497  1.00  0.00    -0.054 A 
HETATM   25  C2  UNL     1       8.580  27.032   6.244  1.00  0.00     0.102 A 
HETATM   26  C7  UNL     1       9.577  26.517   7.058  1.00  0.00     0.102 A 
HETATM   27  C12 UNL     1       7.866  24.546   2.371  1.00  0.00     0.049 C 
HETATM   28  C29 UNL     1      12.360  22.489   3.652  1.00  0.00     0.273 C 
BRANCH  25  29
HETATM   29  O1  UNL     1       7.914  28.185   6.632  1.00  0.00    -0.353 OA
HETATM   30  C1  UNL     1       6.569  28.082   7.068  1.00  0.00     0.210 C 
ENDBRANCH  25  29
BRANCH  26  31
HETATM   31  O2  UNL     1       9.900  27.159   8.252  1.00  0.00    -0.353 OA
HETATM   32  C8  UNL     1      10.747  26.513   9.182  1.00  0.00     0.210 C 
ENDBRANCH  26  31
ENDBRANCH  13  14
ENDBRANCH  12  13
ENDBRANCH   1  12
BRANCH   8  33
HETATM   33  C21 UNL     1      17.599  19.865   5.548  1.00  0.00     0.251 C 
HETATM   34  O3  UNL     1      18.863  19.750   5.510  1.00  0.00    -0.271 OA
HETATM   35  N3  UNL     1      16.987  20.266   6.745  1.00  0.00    -0.347 N 
HETATM   36  C22 UNL     1      17.762  20.611   7.946  1.00  0.00     0.156 C 
HETATM   37  C28 UNL     1      15.560  20.337   6.888  1.00  0.00     0.156 C 
HETATM   38  C23 UNL     1      16.809  20.700   9.090  1.00  0.00     0.292 C 
HETATM   39  N4  UNL     1      15.809  21.728   8.887  1.00  0.00     0.095 N 
HETATM   40  C27 UNL     1      15.281  21.713   7.514  1.00  0.00     0.292 C 
BRANCH  39  41
HETATM   41  C24 UNL     1      14.651  21.488   9.733  1.00  0.00     0.215 C 
HETATM   42  C25 UNL     1      13.447  22.166   9.123  1.00  0.00     0.042 C 
HETATM   43  C26 UNL     1      14.856  21.879  11.157  1.00  0.00     0.042 C 
ENDBRANCH  39  41
ENDBRANCH   8  33
TORSDOF 7
ENDMDL
MODEL 5
REMARK VINA RESULT: -9.693941238      1.164      2.496
REMARK  7 active torsions:
REMARK  status: ('A' for Active; 'I' for Inactive)
REMARK    1  A    between atoms: O1_2  and  C2_3 
REMARK    2  A    between atoms: C7_8  and  O2_9 
REMARK    3  A    between atoms: N1_17  and  C15_18 
REMARK    4  A    between atoms: C15_18  and  C16_19 
REMARK    5  A    between atoms: C16_19  and  C17_20 
REMARK    6  A    between atoms: C20_27  and  C21_28 
REMARK       I    between atoms: C21_28  and  N3_30 
REMARK    7  A    between atoms: N4_33  and  C24_34 
ROOT
HETATM    1  C17 UNL     1      15.517  20.148   5.003  1.00  0.00     0.387 C 
HETATM    2  N2  UNL     1      15.713  20.040   6.429  1.00  0.00    -0.029 N 
ATOM      3  H21 UNL     1      15.420  19.121   6.761  1.00  0.00     0.281 HD
ATOM      4  H22 UNL     1      15.043  20.626   6.927  1.00  0.00     0.281 HD
HETATM    5  C18 UNL     1      17.063  20.330   6.864  1.00  0.00     0.286 C 
HETATM    6 CL1  UNL     1      17.241  19.698   8.516  1.00  0.00    -0.095 Cl
HETATM    7  C19 UNL     1      18.111  19.657   6.003  1.00  0.00     0.092 C 
HETATM    8  C20 UNL     1      17.313  18.684   5.109  1.00  0.00     0.282 C 
HETATM    9  N5  UNL     1      16.592  19.602   4.219  1.00  0.00    -0.033 N 
ATOM     10  H51 UNL     1      17.190  20.313   3.796  1.00  0.00     0.280 HD
ATOM     11  H52 UNL     1      16.283  19.168   3.350  1.00  0.00     0.280 HD
ENDROOT
BRANCH   1  12
HETATM   12  C16 UNL     1      15.127  21.554   4.633  1.00  0.00     0.093 C 
BRANCH  12  13
HETATM   13  C15 UNL     1      14.694  22.350   5.840  1.00  0.00     0.276 C 
BRANCH  13  14
HETATM   14  N1  UNL     1      13.342  22.856   5.693  1.00  0.00     0.088 N 
HETATM   15  C14 UNL     1      12.839  23.252   6.986  1.00  0.00     0.273 C 
HETATM   16  C13 UNL     1      11.338  23.525   6.927  1.00  0.00     0.049 C 
HETATM   17  C9  UNL     1      11.041  24.353   5.695  1.00  0.00     0.009 A 
HETATM   18  C5  UNL     1       9.992  25.345   5.981  1.00  0.00    -0.032 A 
HETATM   19  C10 UNL     1      10.506  23.569   4.573  1.00  0.00    -0.005 A 
HETATM   20  C30 UNL     1      12.348  25.030   5.296  1.00  0.00     0.049 C 
HETATM   21  C4  UNL     1       8.954  25.132   5.091  1.00  0.00    -0.020 A 
HETATM   22  C6  UNL     1       9.887  26.365   6.913  1.00  0.00     0.048 A 
HETATM   23  C3  UNL     1       7.855  25.949   5.173  1.00  0.00     0.052 A 
HETATM   24  C11 UNL     1       9.305  24.014   4.225  1.00  0.00    -0.054 A 
HETATM   25  C2  UNL     1       7.730  26.974   6.098  1.00  0.00     0.102 A 
HETATM   26  C7  UNL     1       8.775  27.181   6.984  1.00  0.00     0.102 A 
HETATM   27  C12 UNL     1       8.467  23.460   3.132  1.00  0.00     0.049 C 
HETATM   28  C29 UNL     1      13.278  23.960   4.766  1.00  0.00     0.273 C 
BRANCH  25  29
HETATM   29  O1  UNL     1       6.609  27.790   6.165  1.00  0.00    -0.353 OA
HETATM   30  C1  UNL     1       5.475  27.333   6.881  1.00  0.00     0.210 C 
ENDBRANCH  25  29
BRANCH  26  31
HETATM   31  O2  UNL     1       8.693  28.201   7.930  1.00  0.00    -0.353 OA
HETATM   32  C8  UNL     1       8.242  27.903   9.237  1.00  0.00     0.210 C 
ENDBRANCH  26  31
ENDBRANCH  13  14
ENDBRANCH  12  13
ENDBRANCH   1  12
BRANCH   8  33
HETATM   33  C21 UNL     1      18.171  17.769   4.364  1.00  0.00     0.251 C 
HETATM   34  O3  UNL     1      18.492  18.072   3.173  1.00  0.00    -0.271 OA
HETATM   35  N3  UNL     1      18.649  16.571   4.915  1.00  0.00    -0.347 N 
HETATM   36  C22 UNL     1      19.555  15.676   4.181  1.00  0.00     0.156 C 
HETATM   37  C28 UNL     1      18.260  16.122   6.222  1.00  0.00     0.156 C 
HETATM   38  C23 UNL     1      19.620  14.387   4.929  1.00  0.00     0.292 C 
HETATM   39  N4  UNL     1      20.144  14.560   6.268  1.00  0.00     0.095 N 
HETATM   40  C27 UNL     1      19.571  15.742   6.930  1.00  0.00     0.292 C 
BRANCH  39  41
HETATM   41  C24 UNL     1      19.762  13.441   7.114  1.00  0.00     0.215 C 
HETATM   42  C25 UNL     1      19.970  13.823   8.560  1.00  0.00     0.042 C 
HETATM   43  C26 UNL     1      20.447  12.162   6.765  1.00  0.00     0.042 C 
ENDBRANCH  39  41
ENDBRANCH   8  33
TORSDOF 7
ENDMDL
