MODEL 1
REMARK VINA RESULT: -10.588099992      0.000      0.000
REMARK  7 active torsions:
REMARK  status: ('A' for Active; 'I' for Inactive)
REMARK    1  A    between atoms: O1_2  and  C2_3 
REMARK    2  A    between atoms: C5_6  and  C6_7 
REMARK    3  A    between atoms: C6_7  and  C7_8 
REMARK    4  A    between atoms: C9_10  and  N1_11 
REMARK    5  A    between atoms: N1_11  and  C10_13 
REMARK    6  A    between atoms: C13_16  and  S1_17 
REMARK    7  A    between atoms: S1_17  and  N2_20 
ROOT
HETATM    1  C7  UNL     1      12.672  21.210   5.153  1.00  0.00     0.018 A 
HETATM    2  C8  UNL     1      12.070  21.966   6.121  1.00  0.00     0.057 A 
HETATM    3  C9  UNL     1      12.775  22.261   7.305  1.00  0.00     0.066 A 
HETATM    4  C20 UNL     1      14.048  21.800   7.488  1.00  0.00     0.112 A 
HETATM    5  N5  UNL     1      14.953  21.899   8.459  1.00  0.00    -0.342 N 
ATOM      6  H5  UNL     1      14.831  22.400   9.339  1.00  0.00     0.167 HD
HETATM    7  C21 UNL     1      16.061  21.225   8.084  1.00  0.00     0.236 A 
HETATM    8  O4  UNL     1      15.839  20.714   6.891  1.00  0.00    -0.287 OA
HETATM    9  C22 UNL     1      14.628  21.034   6.484  1.00  0.00     0.178 A 
HETATM   10  N6  UNL     1      13.928  20.764   5.353  1.00  0.00    -0.338 N 
ATOM     11  H6  UNL     1      14.370  20.202   4.626  1.00  0.00     0.168 HD
ENDROOT
BRANCH   3  12
HETATM   12  N1  UNL     1      12.176  22.958   8.169  1.00  0.00    -0.354 N 
ATOM     13  H1  UNL     1      12.376  22.789   9.155  1.00  0.00     0.166 HD
BRANCH  12  14
HETATM   14  C10 UNL     1      11.245  23.957   7.835  1.00  0.00     0.032 A 
HETATM   15  C11 UNL     1      11.204  25.155   8.555  1.00  0.00     0.031 A 
HETATM   16  C12 UNL     1      10.300  26.135   8.213  1.00  0.00     0.027 A 
HETATM   17  C13 UNL     1       9.411  26.004   7.178  1.00  0.00     0.080 A 
HETATM   18  C18 UNL     1       9.447  24.831   6.467  1.00  0.00     0.027 A 
HETATM   19  C19 UNL     1      10.354  23.820   6.793  1.00  0.00     0.031 A 
BRANCH  17  20
HETATM   20  S1  UNL     1       8.256  27.255   6.811  1.00  0.00     0.276 S 
HETATM   21  O2  UNL     1       8.476  27.577   5.311  1.00  0.00    -0.200 OA
HETATM   22  O3  UNL     1       8.721  28.542   7.501  1.00  0.00    -0.200 OA
BRANCH  20  23
HETATM   23  N2  UNL     1       6.674  26.921   7.061  1.00  0.00    -0.112 N 
HETATM   24  C14 UNL     1       5.553  27.459   7.028  1.00  0.00     0.691 A 
HETATM   25  N3  UNL     1       4.433  26.707   7.345  1.00  0.00    -0.201 N 
HETATM   26  N4  UNL     1       5.287  28.730   6.711  1.00  0.00    -0.201 N 
HETATM   27  C15 UNL     1       3.200  27.192   7.336  1.00  0.00     0.107 A 
ATOM     28  H3  UNL     1       4.565  25.728   7.598  1.00  0.00     0.183 HD
HETATM   29  C16 UNL     1       2.947  28.504   7.006  1.00  0.00     0.035 A 
HETATM   30  C17 UNL     1       4.039  29.272   6.687  1.00  0.00     0.107 A 
ATOM     31  H4  UNL     1       6.074  29.334   6.469  1.00  0.00     0.183 HD
ATOM     32  H2  UNL     1       6.573  25.943   7.334  1.00  0.00     0.197 HD
ENDBRANCH  20  23
ENDBRANCH  17  20
ENDBRANCH  12  14
ENDBRANCH   3  12
BRANCH   1  33
HETATM   33  C6  UNL     1      11.973  20.881   3.859  1.00  0.00     0.095 C 
BRANCH  33  34
HETATM   34  C5  UNL     1      11.176  22.057   3.427  1.00  0.00    -0.051 A 
HETATM   35  C4  UNL     1      11.791  23.233   3.069  1.00  0.00     0.010 A 
HETATM   36  C3  UNL     1      11.036  24.328   2.678  1.00  0.00     0.039 A 
HETATM   37  C2  UNL     1       9.662  24.296   2.630  1.00  0.00     0.085 A 
HETATM   38  C24 UNL     1       9.047  23.119   2.990  1.00  0.00     0.044 A 
HETATM   39  C23 UNL     1       9.796  22.029   3.378  1.00  0.00     0.029 A 
HETATM   40 BR1  UNL     1       7.124  22.991   2.950  1.00  0.00    -0.048 Br
BRANCH  37  41
HETATM   41  O1  UNL     1       8.889  25.380   2.242  1.00  0.00    -0.355 OA
HETATM   42  C1  UNL     1       8.425  25.617   0.947  1.00  0.00     0.210 C 
ENDBRANCH  37  41
ENDBRANCH  33  34
ENDBRANCH   1  33
TORSDOF 7
ENDMDL
MODEL 2
REMARK VINA RESULT: -10.580054601      4.843     11.276
REMARK  7 active torsions:
REMARK  status: ('A' for Active; 'I' for Inactive)
REMARK    1  A    between atoms: O1_2  and  C2_3 
REMARK    2  A    between atoms: C5_6  and  C6_7 
REMARK    3  A    between atoms: C6_7  and  C7_8 
REMARK    4  A    between atoms: C9_10  and  N1_11 
REMARK    5  A    between atoms: N1_11  and  C10_13 
REMARK    6  A    between atoms: C13_16  and  S1_17 
REMARK    7  A    between atoms: S1_17  and  N2_20 
ROOT
HETATM    1  C7  UNL     1      11.650  23.007   6.447  1.00  0.00     0.018 A 
HETATM    2  C8  UNL     1      12.067  21.961   5.670  1.00  0.00     0.057 A 
HETATM    3  C9  UNL     1      11.611  21.862   4.341  1.00  0.00     0.066 A 
HETATM    4  C20 UNL     1      10.761  22.800   3.827  1.00  0.00     0.112 A 
HETATM    5  N5  UNL     1      10.167  22.986   2.650  1.00  0.00    -0.342 N 
ATOM      6  H5  UNL     1      10.262  22.384   1.832  1.00  0.00     0.167 HD
HETATM    7  C21 UNL     1       9.419  24.108   2.720  1.00  0.00     0.236 A 
HETATM    8  O4  UNL     1       9.550  24.607   3.931  1.00  0.00    -0.287 OA
HETATM    9  C22 UNL     1      10.356  23.848   4.644  1.00  0.00     0.178 A 
HETATM   10  N6  UNL     1      10.810  23.921   5.921  1.00  0.00    -0.338 N 
ATOM     11  H6  UNL     1      10.503  24.697   6.506  1.00  0.00     0.168 HD
ENDROOT
BRANCH   3  12
HETATM   12  N1  UNL     1      12.022  20.878   3.666  1.00  0.00    -0.354 N 
ATOM     13  H1  UNL     1      11.383  20.442   3.002  1.00  0.00     0.166 HD
BRANCH  12  14
HETATM   14  C10 UNL     1      13.322  20.355   3.789  1.00  0.00     0.032 A 
HETATM   15  C11 UNL     1      13.890  20.160   5.052  1.00  0.00     0.031 A 
HETATM   16  C12 UNL     1      15.156  19.634   5.165  1.00  0.00     0.027 A 
HETATM   17  C13 UNL     1      15.918  19.279   4.082  1.00  0.00     0.080 A 
HETATM   18  C18 UNL     1      15.367  19.469   2.839  1.00  0.00     0.027 A 
HETATM   19  C19 UNL     1      14.083  20.000   2.696  1.00  0.00     0.031 A 
BRANCH  17  20
HETATM   20  S1  UNL     1      17.534  18.659   4.274  1.00  0.00     0.276 S 
HETATM   21  O2  UNL     1      18.329  19.809   4.943  1.00  0.00    -0.200 OA
HETATM   22  O3  UNL     1      18.174  18.573   2.884  1.00  0.00    -0.200 OA
BRANCH  20  23
HETATM   23  N2  UNL     1      17.720  17.294   5.158  1.00  0.00    -0.112 N 
HETATM   24  C14 UNL     1      18.471  16.310   5.275  1.00  0.00     0.691 A 
HETATM   25  N3  UNL     1      18.190  15.356   6.239  1.00  0.00    -0.201 N 
HETATM   26  N4  UNL     1      19.564  16.051   4.550  1.00  0.00    -0.201 N 
HETATM   27  C15 UNL     1      18.933  14.277   6.438  1.00  0.00     0.107 A 
ATOM     28  H3  UNL     1      17.368  15.491   6.827  1.00  0.00     0.183 HD
HETATM   29  C16 UNL     1      20.055  14.028   5.682  1.00  0.00     0.035 A 
HETATM   30  C17 UNL     1      20.357  14.958   4.718  1.00  0.00     0.107 A 
ATOM     31  H4  UNL     1      19.822  16.718   3.822  1.00  0.00     0.183 HD
ATOM     32  H2  UNL     1      16.968  17.229   5.844  1.00  0.00     0.197 HD
ENDBRANCH  20  23
ENDBRANCH  17  20
ENDBRANCH  12  14
ENDBRANCH   3  12
BRANCH   1  33
HETATM   33  C6  UNL     1      12.120  23.173   7.868  1.00  0.00     0.095 C 
BRANCH  33  34
HETATM   34  C5  UNL     1      13.523  22.698   7.971  1.00  0.00    -0.051 A 
HETATM   35  C4  UNL     1      14.543  23.368   7.339  1.00  0.00     0.010 A 
HETATM   36  C3  UNL     1      15.848  22.909   7.434  1.00  0.00     0.039 A 
HETATM   37  C2  UNL     1      16.182  21.782   8.149  1.00  0.00     0.085 A 
HETATM   38  C24 UNL     1      15.160  21.112   8.780  1.00  0.00     0.044 A 
HETATM   39  C23 UNL     1      13.863  21.567   8.688  1.00  0.00     0.029 A 
HETATM   40 BR1  UNL     1      15.545  19.523   9.803  1.00  0.00    -0.048 Br
BRANCH  37  41
HETATM   41  O1  UNL     1      17.480  21.306   8.254  1.00  0.00    -0.355 OA
HETATM   42  C1  UNL     1      18.510  21.925   8.966  1.00  0.00     0.210 C 
ENDBRANCH  37  41
ENDBRANCH  33  34
ENDBRANCH   1  33
TORSDOF 7
ENDMDL
MODEL 3
REMARK VINA RESULT: -10.557957530      0.891      1.360
REMARK  7 active torsions:
REMARK  status: ('A' for Active; 'I' for Inactive)
REMARK    1  A    between atoms: O1_2  and  C2_3 
REMARK    2  A    between atoms: C5_6  and  C6_7 
REMARK    3  A    between atoms: C6_7  and  C7_8 
REMARK    4  A    between atoms: C9_10  and  N1_11 
REMARK    5  A    between atoms: N1_11  and  C10_13 
REMARK    6  A    between atoms: C13_16  and  S1_17 
REMARK    7  A    between atoms: S1_17  and  N2_20 
ROOT
HETATM    1  C7  UNL     1      12.678  21.263   5.139  1.00  0.00     0.018 A 
HETATM    2  C8  UNL     1      12.051  21.984   6.117  1.00  0.00     0.057 A 
HETATM    3  C9  UNL     1      12.746  22.287   7.305  1.00  0.00     0.066 A 
HETATM    4  C20 UNL     1      14.033  21.866   7.483  1.00  0.00     0.112 A 
HETATM    5  N5  UNL     1      14.934  21.983   8.456  1.00  0.00    -0.342 N 
ATOM      6  H5  UNL     1      14.795  22.467   9.343  1.00  0.00     0.167 HD
HETATM    7  C21 UNL     1      16.064  21.351   8.072  1.00  0.00     0.236 A 
HETATM    8  O4  UNL     1      15.860  20.849   6.872  1.00  0.00    -0.287 OA
HETATM    9  C22 UNL     1      14.639  21.135   6.469  1.00  0.00     0.178 A 
HETATM   10  N6  UNL     1      13.949  20.857   5.334  1.00  0.00    -0.338 N 
ATOM     11  H6  UNL     1      14.409  20.319   4.600  1.00  0.00     0.168 HD
ENDROOT
BRANCH   3  12
HETATM   12  N1  UNL     1      12.123  22.952   8.179  1.00  0.00    -0.354 N 
ATOM     13  H1  UNL     1      12.282  22.732   9.162  1.00  0.00     0.166 HD
BRANCH  12  14
HETATM   14  C10 UNL     1      11.220  23.980   7.858  1.00  0.00     0.032 A 
HETATM   15  C11 UNL     1      10.286  23.807   6.832  1.00  0.00     0.031 A 
HETATM   16  C12 UNL     1       9.395  24.812   6.533  1.00  0.00     0.027 A 
HETATM   17  C13 UNL     1       9.367  26.010   7.200  1.00  0.00     0.080 A 
HETATM   18  C18 UNL     1      10.281  26.186   8.208  1.00  0.00     0.027 A 
HETATM   19  C19 UNL     1      11.196  25.181   8.533  1.00  0.00     0.031 A 
BRANCH  17  20
HETATM   20  S1  UNL     1       8.249  27.269   6.756  1.00  0.00     0.276 S 
HETATM   21  O2  UNL     1       8.538  27.553   5.260  1.00  0.00    -0.200 OA
HETATM   22  O3  UNL     1       8.705  28.565   7.437  1.00  0.00    -0.200 OA
BRANCH  20  23
HETATM   23  N2  UNL     1       6.652  26.965   6.944  1.00  0.00    -0.112 N 
HETATM   24  C14 UNL     1       5.666  26.542   6.316  1.00  0.00     0.691 A 
HETATM   25  N3  UNL     1       4.440  26.465   6.956  1.00  0.00    -0.201 N 
HETATM   26  N4  UNL     1       5.646  26.134   5.043  1.00  0.00    -0.201 N 
HETATM   27  C15 UNL     1       3.335  26.026   6.370  1.00  0.00     0.107 A 
ATOM     28  H3  UNL     1       4.384  26.762   7.930  1.00  0.00     0.183 HD
HETATM   29  C16 UNL     1       3.335  25.610   5.059  1.00  0.00     0.035 A 
HETATM   30  C17 UNL     1       4.538  25.675   4.400  1.00  0.00     0.107 A 
ATOM     31  H4  UNL     1       6.521  26.169   4.519  1.00  0.00     0.183 HD
ATOM     32  H2  UNL     1       6.372  27.201   7.896  1.00  0.00     0.197 HD
ENDBRANCH  20  23
ENDBRANCH  17  20
ENDBRANCH  12  14
ENDBRANCH   3  12
BRANCH   1  33
HETATM   33  C6  UNL     1      11.992  20.928   3.840  1.00  0.00     0.095 C 
BRANCH  33  34
HETATM   34  C5  UNL     1      11.179  22.094   3.409  1.00  0.00    -0.051 A 
HETATM   35  C4  UNL     1      11.778  23.281   3.061  1.00  0.00     0.010 A 
HETATM   36  C3  UNL     1      11.009  24.366   2.670  1.00  0.00     0.039 A 
HETATM   37  C2  UNL     1       9.636  24.313   2.612  1.00  0.00     0.085 A 
HETATM   38  C24 UNL     1       9.037  23.124   2.961  1.00  0.00     0.044 A 
HETATM   39  C23 UNL     1       9.800  22.045   3.350  1.00  0.00     0.029 A 
HETATM   40 BR1  UNL     1       7.116  22.967   2.906  1.00  0.00    -0.048 Br
BRANCH  37  41
HETATM   41  O1  UNL     1       8.849  25.387   2.224  1.00  0.00    -0.355 OA
HETATM   42  C1  UNL     1       8.399  25.629   0.925  1.00  0.00     0.210 C 
ENDBRANCH  37  41
ENDBRANCH  33  34
ENDBRANCH   1  33
TORSDOF 7
ENDMDL
MODEL 4
REMARK VINA RESULT: -10.440952832      1.012      1.593
REMARK  7 active torsions:
REMARK  status: ('A' for Active; 'I' for Inactive)
REMARK    1  A    between atoms: O1_2  and  C2_3 
REMARK    2  A    between atoms: C5_6  and  C6_7 
REMARK    3  A    between atoms: C6_7  and  C7_8 
REMARK    4  A    between atoms: C9_10  and  N1_11 
REMARK    5  A    between atoms: N1_11  and  C10_13 
REMARK    6  A    between atoms: C13_16  and  S1_17 
REMARK    7  A    between atoms: S1_17  and  N2_20 
ROOT
HETATM    1  C7  UNL     1      13.410  22.313   4.963  1.00  0.00     0.018 A 
HETATM    2  C8  UNL     1      12.602  22.830   5.939  1.00  0.00     0.057 A 
HETATM    3  C9  UNL     1      12.847  22.495   7.286  1.00  0.00     0.066 A 
HETATM    4  C20 UNL     1      13.879  21.664   7.619  1.00  0.00     0.112 A 
HETATM    5  N5  UNL     1      14.359  21.171   8.758  1.00  0.00    -0.342 N 
ATOM      6  H5  UNL     1      13.988  21.355   9.691  1.00  0.00     0.167 HD
HETATM    7  C21 UNL     1      15.418  20.385   8.473  1.00  0.00     0.236 A 
HETATM    8  O4  UNL     1      15.590  20.393   7.167  1.00  0.00    -0.287 OA
HETATM    9  C22 UNL     1      14.678  21.157   6.601  1.00  0.00     0.178 A 
HETATM   10  N6  UNL     1      14.422  21.495   5.312  1.00  0.00    -0.338 N 
ATOM     11  H6  UNL     1      15.019  21.114   4.578  1.00  0.00     0.168 HD
ENDROOT
BRANCH   3  12
HETATM   12  N1  UNL     1      12.073  22.994   8.149  1.00  0.00    -0.354 N 
ATOM     13  H1  UNL     1      12.111  22.634   9.102  1.00  0.00     0.166 HD
BRANCH  12  14
HETATM   14  C10 UNL     1      11.160  24.022   7.855  1.00  0.00     0.032 A 
HETATM   15  C11 UNL     1      10.153  23.825   6.905  1.00  0.00     0.031 A 
HETATM   16  C12 UNL     1       9.254  24.830   6.634  1.00  0.00     0.027 A 
HETATM   17  C13 UNL     1       9.287  26.051   7.257  1.00  0.00     0.080 A 
HETATM   18  C18 UNL     1      10.273  26.251   8.190  1.00  0.00     0.027 A 
HETATM   19  C19 UNL     1      11.198  25.247   8.486  1.00  0.00     0.031 A 
BRANCH  17  20
HETATM   20  S1  UNL     1       8.154  27.309   6.847  1.00  0.00     0.276 S 
HETATM   21  O2  UNL     1       8.392  27.588   5.341  1.00  0.00    -0.200 OA
HETATM   22  O3  UNL     1       8.632  28.607   7.508  1.00  0.00    -0.200 OA
BRANCH  20  23
HETATM   23  N2  UNL     1       6.564  27.004   7.091  1.00  0.00    -0.112 N 
HETATM   24  C14 UNL     1       5.454  27.561   7.048  1.00  0.00     0.691 A 
HETATM   25  N3  UNL     1       4.320  26.832   7.365  1.00  0.00    -0.201 N 
HETATM   26  N4  UNL     1       5.212  28.834   6.719  1.00  0.00    -0.201 N 
HETATM   27  C15 UNL     1       3.095  27.338   7.346  1.00  0.00     0.107 A 
ATOM     28  H3  UNL     1       4.433  25.852   7.627  1.00  0.00     0.183 HD
HETATM   29  C16 UNL     1       2.867  28.651   7.003  1.00  0.00     0.035 A 
HETATM   30  C17 UNL     1       3.973  29.398   6.684  1.00  0.00     0.107 A 
ATOM     31  H4  UNL     1       6.010  29.422   6.477  1.00  0.00     0.183 HD
ATOM     32  H2  UNL     1       6.445  26.031   7.372  1.00  0.00     0.197 HD
ENDBRANCH  20  23
ENDBRANCH  17  20
ENDBRANCH  12  14
ENDBRANCH   3  12
BRANCH   1  33
HETATM   33  C6  UNL     1      13.207  22.653   3.509  1.00  0.00     0.095 C 
BRANCH  33  34
HETATM   34  C5  UNL     1      11.753  22.645   3.209  1.00  0.00    -0.051 A 
HETATM   35  C4  UNL     1      11.024  21.483   3.284  1.00  0.00     0.010 A 
HETATM   36  C3  UNL     1       9.668  21.486   2.991  1.00  0.00     0.039 A 
HETATM   37  C2  UNL     1       8.998  22.628   2.617  1.00  0.00     0.085 A 
HETATM   38  C24 UNL     1       9.730  23.790   2.541  1.00  0.00     0.044 A 
HETATM   39  C23 UNL     1      11.076  23.789   2.832  1.00  0.00     0.029 A 
HETATM   40 BR1  UNL     1       8.865  25.434   2.024  1.00  0.00    -0.048 Br
BRANCH  37  41
HETATM   41  O1  UNL     1       7.644  22.651   2.319  1.00  0.00    -0.355 OA
HETATM   42  C1  UNL     1       6.630  23.012   3.207  1.00  0.00     0.210 C 
ENDBRANCH  37  41
ENDBRANCH  33  34
ENDBRANCH   1  33
TORSDOF 7
ENDMDL
MODEL 5
REMARK VINA RESULT: -10.383206658      1.247      1.855
REMARK  7 active torsions:
REMARK  status: ('A' for Active; 'I' for Inactive)
REMARK    1  A    between atoms: O1_2  and  C2_3 
REMARK    2  A    between atoms: C5_6  and  C6_7 
REMARK    3  A    between atoms: C6_7  and  C7_8 
REMARK    4  A    between atoms: C9_10  and  N1_11 
REMARK    5  A    between atoms: N1_11  and  C10_13 
REMARK    6  A    between atoms: C13_16  and  S1_17 
REMARK    7  A    between atoms: S1_17  and  N2_20 
ROOT
HETATM    1  C7  UNL     1      13.324  22.265   4.837  1.00  0.00     0.018 A 
HETATM    2  C8  UNL     1      12.451  22.702   5.795  1.00  0.00     0.057 A 
HETATM    3  C9  UNL     1      12.707  22.407   7.149  1.00  0.00     0.066 A 
HETATM    4  C20 UNL     1      13.815  21.693   7.507  1.00  0.00     0.112 A 
HETATM    5  N5  UNL     1      14.325  21.264   8.659  1.00  0.00    -0.342 N 
ATOM      6  H5  UNL     1      13.921  21.417   9.584  1.00  0.00     0.167 HD
HETATM    7  C21 UNL     1      15.467  20.592   8.399  1.00  0.00     0.236 A 
HETATM    8  O4  UNL     1      15.658  20.607   7.097  1.00  0.00    -0.287 OA
HETATM    9  C22 UNL     1      14.681  21.265   6.508  1.00  0.00     0.178 A 
HETATM   10  N6  UNL     1      14.412  21.562   5.211  1.00  0.00    -0.338 N 
ATOM     11  H6  UNL     1      15.058  21.240   4.491  1.00  0.00     0.168 HD
ENDROOT
BRANCH   3  12
HETATM   12  N1  UNL     1      11.870  22.829   7.994  1.00  0.00    -0.354 N 
ATOM     13  H1  UNL     1      11.815  22.362   8.899  1.00  0.00     0.166 HD
BRANCH  12  14
HETATM   14  C10 UNL     1      11.010  23.913   7.745  1.00  0.00     0.032 A 
HETATM   15  C11 UNL     1       9.972  23.794   6.816  1.00  0.00     0.031 A 
HETATM   16  C12 UNL     1       9.125  24.854   6.588  1.00  0.00     0.027 A 
HETATM   17  C13 UNL     1       9.241  26.057   7.235  1.00  0.00     0.080 A 
HETATM   18  C18 UNL     1      10.259  26.180   8.148  1.00  0.00     0.027 A 
HETATM   19  C19 UNL     1      11.132  25.120   8.400  1.00  0.00     0.031 A 
BRANCH  17  20
HETATM   20  S1  UNL     1       8.172  27.385   6.880  1.00  0.00     0.276 S 
HETATM   21  O2  UNL     1       8.368  27.665   5.368  1.00  0.00    -0.200 OA
HETATM   22  O3  UNL     1       8.753  28.645   7.532  1.00  0.00    -0.200 OA
BRANCH  20  23
HETATM   23  N2  UNL     1       6.578  27.174   7.184  1.00  0.00    -0.112 N 
HETATM   24  C14 UNL     1       5.538  26.749   6.651  1.00  0.00     0.691 A 
HETATM   25  N3  UNL     1       4.351  26.784   7.362  1.00  0.00    -0.201 N 
HETATM   26  N4  UNL     1       5.424  26.238   5.420  1.00  0.00    -0.201 N 
HETATM   27  C15 UNL     1       3.195  26.352   6.879  1.00  0.00     0.107 A 
ATOM     28  H3  UNL     1       4.366  27.164   8.309  1.00  0.00     0.183 HD
HETATM   29  C16 UNL     1       3.098  25.829   5.610  1.00  0.00     0.035 A 
HETATM   30  C17 UNL     1       4.260  25.782   4.882  1.00  0.00     0.107 A 
ATOM     31  H4  UNL     1       6.266  26.187   4.846  1.00  0.00     0.183 HD
ATOM     32  H2  UNL     1       6.366  27.502   8.126  1.00  0.00     0.197 HD
ENDBRANCH  20  23
ENDBRANCH  17  20
ENDBRANCH  12  14
ENDBRANCH   3  12
BRANCH   1  33
HETATM   33  C6  UNL     1      13.112  22.568   3.377  1.00  0.00     0.095 C 
BRANCH  33  34
HETATM   34  C5  UNL     1      11.654  22.616   3.101  1.00  0.00    -0.051 A 
HETATM   35  C4  UNL     1      10.887  21.477   3.157  1.00  0.00     0.010 A 
HETATM   36  C3  UNL     1       9.528  21.533   2.886  1.00  0.00     0.039 A 
HETATM   37  C2  UNL     1       8.891  22.706   2.554  1.00  0.00     0.085 A 
HETATM   38  C24 UNL     1       9.660  23.845   2.497  1.00  0.00     0.044 A 
HETATM   39  C23 UNL     1      11.010  23.792   2.766  1.00  0.00     0.029 A 
HETATM   40 BR1  UNL     1       8.843  25.530   2.038  1.00  0.00    -0.048 Br
BRANCH  37  41
HETATM   41  O1  UNL     1       7.534  22.782   2.279  1.00  0.00    -0.355 OA
HETATM   42  C1  UNL     1       6.545  23.143   3.196  1.00  0.00     0.210 C 
ENDBRANCH  37  41
ENDBRANCH  33  34
ENDBRANCH   1  33
TORSDOF 7
ENDMDL
