MODEL 1
REMARK VINA RESULT: -10.652944503      0.000      0.000
REMARK  9 active torsions:
REMARK  status: ('A' for Active; 'I' for Inactive)
REMARK    1  A    between atoms: C2_2  and  S1_3 
REMARK    2  A    between atoms: S1_3  and  N1_6 
REMARK    3  A    between atoms: C5_9  and  N2_10 
REMARK    4  A    between atoms: N2_10  and  C6_12 
REMARK    5  A    between atoms: C8_14  and  C9_15 
REMARK    6  A    between atoms: C9_15  and  C10_16 
REMARK    7  A    between atoms: C10_16  and  C11_17 
REMARK    8  A    between atoms: C15_23  and  N4_24 
REMARK    9  A    between atoms: N4_24  and  C16_26 
ROOT
HETATM    1  C9  UNL     1      12.527  20.955   5.430  1.00  0.00     0.046 C 
ENDROOT
BRANCH   1   2
HETATM    2  C8  UNL     1      12.050  22.314   5.018  1.00  0.00    -0.031 A 
HETATM    3  C7  UNL     1      11.764  22.592   3.699  1.00  0.00     0.057 A 
HETATM    4  C6  UNL     1      11.328  23.870   3.368  1.00  0.00     0.101 A 
HETATM    5  N7  UNL     1      11.181  24.829   4.297  1.00  0.00    -0.351 N 
HETATM    6  C24 UNL     1      11.455  24.583   5.605  1.00  0.00     0.114 A 
ATOM      7  H7  UNL     1      10.859  25.755   4.017  1.00  0.00     0.166 HD
HETATM    8  C23 UNL     1      11.890  23.318   5.949  1.00  0.00     0.055 A 
HETATM    9 CL1  UNL     1      12.244  22.969   7.626  1.00  0.00    -0.082 Cl
BRANCH   4  10
HETATM   10  N2  UNL     1      11.072  24.089   2.127  1.00  0.00    -0.372 N 
ATOM     11  H2  UNL     1      11.811  24.507   1.562  1.00  0.00     0.161 HD
BRANCH  10  12
HETATM   12  C5  UNL     1       9.822  23.788   1.470  1.00  0.00     0.086 C 
HETATM   13  C4  UNL     1       9.028  22.721   2.198  1.00  0.00     0.045 C 
HETATM   14  C3  UNL     1       7.534  22.969   2.073  1.00  0.00     0.137 C 
HETATM   15  N1  UNL     1       7.211  24.143   2.815  1.00  0.00    -0.311 N 
HETATM   16  C26 UNL     1       8.095  25.248   2.570  1.00  0.00     0.137 C 
HETATM   17  C25 UNL     1       8.960  25.031   1.346  1.00  0.00     0.045 C 
BRANCH  15  18
HETATM   18  S1  UNL     1       5.566  24.533   2.926  1.00  0.00     0.228 S 
HETATM   19  O1  UNL     1       5.142  25.106   1.586  1.00  0.00    -0.206 OA
HETATM   20  O2  UNL     1       5.390  25.628   3.935  1.00  0.00    -0.206 OA
BRANCH  18  21
HETATM   21  C2  UNL     1       4.495  23.194   3.280  1.00  0.00     0.159 C 
HETATM   22  C1  UNL     1       3.383  23.492   4.224  1.00  0.00     0.023 C 
ENDBRANCH  18  21
ENDBRANCH  15  18
ENDBRANCH  10  12
ENDBRANCH   4  10
ENDBRANCH   1   2
BRANCH   1  23
HETATM   23  C10 UNL     1      12.975  20.235   4.179  1.00  0.00     0.062 C 
BRANCH  23  24
HETATM   24  C11 UNL     1      14.427  19.908   4.234  1.00  0.00     0.028 A 
HETATM   25  C12 UNL     1      15.029  19.107   3.295  1.00  0.00     0.050 A 
HETATM   26  C13 UNL     1      16.381  18.861   3.431  1.00  0.00     0.024 A 
HETATM   27  C14 UNL     1      17.075  17.994   2.433  1.00  0.00     0.068 C 
HETATM   28  N3  UNL     1      17.050  19.409   4.466  1.00  0.00    -0.196 N 
HETATM   29  C15 UNL     1      16.440  20.194   5.376  1.00  0.00     0.684 A 
ATOM     30  H3  UNL     1      18.049  19.225   4.562  1.00  0.00     0.184 HD
HETATM   31  N6  UNL     1      15.125  20.448   5.265  1.00  0.00    -0.195 N 
ATOM     32  H6  UNL     1      14.656  21.041   5.950  1.00  0.00     0.184 HD
BRANCH  29  33
HETATM   33  N4  UNL     1      17.119  20.712   6.368  1.00  0.00    -0.176 N 
ATOM     34  H4  UNL     1      17.854  21.393   6.176  1.00  0.00     0.186 HD
BRANCH  33  35
HETATM   35  C16 UNL     1      16.844  20.335   7.711  1.00  0.00     0.127 A 
HETATM   36  N5  UNL     1      17.240  19.105   8.153  1.00  0.00    -0.351 N 
HETATM   37  C17 UNL     1      16.990  18.725   9.419  1.00  0.00     0.090 A 
ATOM     38  H5  UNL     1      17.729  18.472   7.520  1.00  0.00     0.166 HD
HETATM   39  C18 UNL     1      16.330  19.571  10.288  1.00  0.00     0.024 A 
HETATM   40  C19 UNL     1      15.929  20.824   9.837  1.00  0.00    -0.051 A 
HETATM   41  C20 UNL     1      15.229  21.723  10.759  1.00  0.00     0.049 C 
HETATM   42  C21 UNL     1      16.184  21.211   8.543  1.00  0.00    -0.011 A 
HETATM   43  C22 UNL     1      15.752  22.538   8.084  1.00  0.00     0.052 C 
ENDBRANCH  33  35
ENDBRANCH  29  33
ENDBRANCH  23  24
ENDBRANCH   1  23
TORSDOF 9
ENDMDL
MODEL 2
REMARK VINA RESULT: -10.600604036      5.010     10.670
REMARK  9 active torsions:
REMARK  status: ('A' for Active; 'I' for Inactive)
REMARK    1  A    between atoms: C2_2  and  S1_3 
REMARK    2  A    between atoms: S1_3  and  N1_6 
REMARK    3  A    between atoms: C5_9  and  N2_10 
REMARK    4  A    between atoms: N2_10  and  C6_12 
REMARK    5  A    between atoms: C8_14  and  C9_15 
REMARK    6  A    between atoms: C9_15  and  C10_16 
REMARK    7  A    between atoms: C10_16  and  C11_17 
REMARK    8  A    between atoms: C15_23  and  N4_24 
REMARK    9  A    between atoms: N4_24  and  C16_26 
ROOT
HETATM    1  C9  UNL     1      11.366  22.698   6.640  1.00  0.00     0.046 C 
ENDROOT
BRANCH   1   2
HETATM    2  C8  UNL     1      12.816  22.443   6.362  1.00  0.00    -0.031 A 
HETATM    3  C7  UNL     1      13.791  22.912   7.214  1.00  0.00     0.057 A 
HETATM    4  C6  UNL     1      15.123  22.652   6.908  1.00  0.00     0.101 A 
HETATM    5  N7  UNL     1      15.473  21.962   5.810  1.00  0.00    -0.351 N 
HETATM    6  C24 UNL     1      14.532  21.488   4.952  1.00  0.00     0.114 A 
ATOM      7  H7  UNL     1      16.460  21.791   5.618  1.00  0.00     0.166 HD
HETATM    8  C23 UNL     1      13.206  21.739   5.243  1.00  0.00     0.055 A 
HETATM    9 CL1  UNL     1      11.971  21.137   4.159  1.00  0.00    -0.082 Cl
BRANCH   4  10
HETATM   10  N2  UNL     1      16.002  23.106   7.729  1.00  0.00    -0.372 N 
ATOM     11  H2  UNL     1      16.448  23.992   7.496  1.00  0.00     0.161 HD
BRANCH  10  12
HETATM   12  C5  UNL     1      16.407  22.458   8.955  1.00  0.00     0.086 C 
HETATM   13  C4  UNL     1      15.424  21.394   9.400  1.00  0.00     0.045 C 
HETATM   14  C3  UNL     1      16.138  20.241  10.086  1.00  0.00     0.137 C 
HETATM   15  N1  UNL     1      16.909  19.547   9.107  1.00  0.00    -0.311 N 
HETATM   16  C26 UNL     1      17.689  20.408   8.263  1.00  0.00     0.137 C 
HETATM   17  C25 UNL     1      17.776  21.820   8.806  1.00  0.00     0.045 C 
BRANCH  15  18
HETATM   18  S1  UNL     1      17.687  18.135   9.627  1.00  0.00     0.228 S 
HETATM   19  O1  UNL     1      18.885  18.554  10.459  1.00  0.00    -0.206 OA
HETATM   20  O2  UNL     1      18.227  17.406   8.434  1.00  0.00    -0.206 OA
BRANCH  18  21
HETATM   21  C2  UNL     1      16.719  17.061  10.616  1.00  0.00     0.159 C 
HETATM   22  C1  UNL     1      17.293  15.707  10.847  1.00  0.00     0.023 C 
ENDBRANCH  18  21
ENDBRANCH  15  18
ENDBRANCH  10  12
ENDBRANCH   4  10
ENDBRANCH   1   2
BRANCH   1  23
HETATM   23  C10 UNL     1      11.292  23.738   7.734  1.00  0.00     0.062 C 
BRANCH  23  24
HETATM   24  C11 UNL     1      10.445  24.893   7.327  1.00  0.00     0.028 A 
HETATM   25  C12 UNL     1       9.965  25.803   8.237  1.00  0.00     0.050 A 
HETATM   26  C13 UNL     1       9.188  26.840   7.761  1.00  0.00     0.024 A 
HETATM   27  C14 UNL     1       8.646  27.850   8.717  1.00  0.00     0.068 C 
HETATM   28  N3  UNL     1       8.933  26.920   6.440  1.00  0.00    -0.196 N 
HETATM   29  C15 UNL     1       9.413  26.017   5.563  1.00  0.00     0.684 A 
ATOM     30  H3  UNL     1       8.358  27.688   6.093  1.00  0.00     0.184 HD
HETATM   31  N6  UNL     1      10.172  24.999   6.000  1.00  0.00    -0.195 N 
ATOM     32  H6  UNL     1      10.540  24.311   5.343  1.00  0.00     0.184 HD
BRANCH  29  33
HETATM   33  N4  UNL     1       9.147  26.124   4.285  1.00  0.00    -0.176 N 
ATOM     34  H4  UNL     1       9.525  26.910   3.756  1.00  0.00     0.186 HD
BRANCH  33  35
HETATM   35  C16 UNL     1       8.336  25.158   3.628  1.00  0.00     0.127 A 
HETATM   36  N5  UNL     1       6.991  25.151   3.857  1.00  0.00    -0.351 N 
HETATM   37  C17 UNL     1       6.203  24.246   3.249  1.00  0.00     0.090 A 
ATOM     38  H5  UNL     1       6.580  25.836   4.492  1.00  0.00     0.166 HD
HETATM   39  C18 UNL     1       6.743  23.313   2.387  1.00  0.00     0.024 A 
HETATM   40  C19 UNL     1       8.114  23.323   2.154  1.00  0.00    -0.051 A 
HETATM   41  C20 UNL     1       8.689  22.332   1.238  1.00  0.00     0.049 C 
HETATM   42  C21 UNL     1       8.918  24.247   2.776  1.00  0.00    -0.011 A 
HETATM   43  C22 UNL     1      10.365  24.242   2.519  1.00  0.00     0.052 C 
ENDBRANCH  33  35
ENDBRANCH  29  33
ENDBRANCH  23  24
ENDBRANCH   1  23
TORSDOF 9
ENDMDL
MODEL 3
REMARK VINA RESULT: -10.334148381      1.364      4.111
REMARK  9 active torsions:
REMARK  status: ('A' for Active; 'I' for Inactive)
REMARK    1  A    between atoms: C2_2  and  S1_3 
REMARK    2  A    between atoms: S1_3  and  N1_6 
REMARK    3  A    between atoms: C5_9  and  N2_10 
REMARK    4  A    between atoms: N2_10  and  C6_12 
REMARK    5  A    between atoms: C8_14  and  C9_15 
REMARK    6  A    between atoms: C9_15  and  C10_16 
REMARK    7  A    between atoms: C10_16  and  C11_17 
REMARK    8  A    between atoms: C15_23  and  N4_24 
REMARK    9  A    between atoms: N4_24  and  C16_26 
ROOT
HETATM    1  C9  UNL     1      12.503  23.223   7.771  1.00  0.00     0.046 C 
ENDROOT
BRANCH   1   2
HETATM    2  C8  UNL     1      11.699  24.080   6.842  1.00  0.00    -0.031 A 
HETATM    3  C7  UNL     1      11.727  23.866   5.481  1.00  0.00     0.057 A 
HETATM    4  C6  UNL     1      10.966  24.692   4.662  1.00  0.00     0.101 A 
HETATM    5  N7  UNL     1      10.212  25.684   5.165  1.00  0.00    -0.351 N 
HETATM    6  C24 UNL     1      10.166  25.918   6.502  1.00  0.00     0.114 A 
ATOM      7  H7  UNL     1       9.667  26.270   4.533  1.00  0.00     0.166 HD
HETATM    8  C23 UNL     1      10.918  25.106   7.328  1.00  0.00     0.055 A 
HETATM    9 CL1  UNL     1      10.873  25.379   9.056  1.00  0.00    -0.082 Cl
BRANCH   4  10
HETATM   10  N2  UNL     1      11.019  24.459   3.399  1.00  0.00    -0.372 N 
ATOM     11  H2  UNL     1      11.887  24.689   2.916  1.00  0.00     0.161 HD
BRANCH  10  12
HETATM   12  C5  UNL     1       9.947  23.896   2.611  1.00  0.00     0.086 C 
HETATM   13  C4  UNL     1       9.063  22.966   3.417  1.00  0.00     0.045 C 
HETATM   14  C3  UNL     1       7.619  23.038   2.948  1.00  0.00     0.137 C 
HETATM   15  N1  UNL     1       7.101  24.321   3.295  1.00  0.00    -0.311 N 
HETATM   16  C26 UNL     1       7.970  25.412   2.954  1.00  0.00     0.137 C 
HETATM   17  C25 UNL     1       9.080  24.990   2.014  1.00  0.00     0.045 C 
BRANCH  15  18
HETATM   18  S1  UNL     1       5.454  24.574   2.984  1.00  0.00     0.228 S 
HETATM   19  O1  UNL     1       5.324  25.004   1.535  1.00  0.00    -0.206 OA
HETATM   20  O2  UNL     1       4.970  25.722   3.818  1.00  0.00    -0.206 OA
BRANCH  18  21
HETATM   21  C2  UNL     1       4.422  23.176   3.206  1.00  0.00     0.159 C 
HETATM   22  C1  UNL     1       3.264  23.371   4.121  1.00  0.00     0.023 C 
ENDBRANCH  18  21
ENDBRANCH  15  18
ENDBRANCH  10  12
ENDBRANCH   4  10
ENDBRANCH   1   2
BRANCH   1  23
HETATM   23  C10 UNL     1      13.961  23.436   7.435  1.00  0.00     0.062 C 
BRANCH  23  24
HETATM   24  C11 UNL     1      14.742  22.178   7.585  1.00  0.00     0.028 A 
HETATM   25  C12 UNL     1      14.705  21.430   8.737  1.00  0.00     0.050 A 
HETATM   26  C13 UNL     1      15.464  20.278   8.780  1.00  0.00     0.024 A 
HETATM   27  C14 UNL     1      15.453  19.436  10.013  1.00  0.00     0.068 C 
HETATM   28  N3  UNL     1      16.203  19.934   7.706  1.00  0.00    -0.196 N 
HETATM   29  C15 UNL     1      16.225  20.682   6.585  1.00  0.00     0.684 A 
ATOM     30  H3  UNL     1      16.763  19.082   7.743  1.00  0.00     0.184 HD
HETATM   31  N6  UNL     1      15.495  21.807   6.518  1.00  0.00    -0.195 N 
ATOM     32  H6  UNL     1      15.506  22.379   5.673  1.00  0.00     0.184 HD
BRANCH  29  33
HETATM   33  N4  UNL     1      16.953  20.320   5.559  1.00  0.00    -0.176 N 
ATOM     34  H4  UNL     1      17.969  20.413   5.603  1.00  0.00     0.186 HD
BRANCH  33  35
HETATM   35  C16 UNL     1      16.346  19.799   4.384  1.00  0.00     0.127 A 
HETATM   36  N5  UNL     1      15.187  20.359   3.929  1.00  0.00    -0.351 N 
HETATM   37  C17 UNL     1      14.592  19.882   2.821  1.00  0.00     0.090 A 
ATOM     38  H5  UNL     1      14.770  21.142   4.432  1.00  0.00     0.166 HD
HETATM   39  C18 UNL     1      15.143  18.822   2.129  1.00  0.00     0.024 A 
HETATM   40  C19 UNL     1      16.324  18.254   2.593  1.00  0.00    -0.051 A 
HETATM   41  C20 UNL     1      16.911  17.128   1.859  1.00  0.00     0.049 C 
HETATM   42  C21 UNL     1      16.931  18.741   3.726  1.00  0.00    -0.011 A 
HETATM   43  C22 UNL     1      18.179  18.127   4.202  1.00  0.00     0.052 C 
ENDBRANCH  33  35
ENDBRANCH  29  33
ENDBRANCH  23  24
ENDBRANCH   1  23
TORSDOF 9
ENDMDL
MODEL 4
REMARK VINA RESULT: -10.094945343      0.570      1.337
REMARK  9 active torsions:
REMARK  status: ('A' for Active; 'I' for Inactive)
REMARK    1  A    between atoms: C2_2  and  S1_3 
REMARK    2  A    between atoms: S1_3  and  N1_6 
REMARK    3  A    between atoms: C5_9  and  N2_10 
REMARK    4  A    between atoms: N2_10  and  C6_12 
REMARK    5  A    between atoms: C8_14  and  C9_15 
REMARK    6  A    between atoms: C9_15  and  C10_16 
REMARK    7  A    between atoms: C10_16  and  C11_17 
REMARK    8  A    between atoms: C15_23  and  N4_24 
REMARK    9  A    between atoms: N4_24  and  C16_26 
ROOT
HETATM    1  C9  UNL     1      12.436  20.910   5.261  1.00  0.00     0.046 C 
ENDROOT
BRANCH   1   2
HETATM    2  C8  UNL     1      11.988  22.290   4.888  1.00  0.00    -0.031 A 
HETATM    3  C7  UNL     1      11.680  22.603   3.582  1.00  0.00     0.057 A 
HETATM    4  C6  UNL     1      11.273  23.900   3.287  1.00  0.00     0.101 A 
HETATM    5  N7  UNL     1      11.175  24.842   4.239  1.00  0.00    -0.351 N 
HETATM    6  C24 UNL     1      11.472  24.562   5.535  1.00  0.00     0.114 A 
ATOM      7  H7  UNL     1      10.873  25.783   3.986  1.00  0.00     0.166 HD
HETATM    8  C23 UNL     1      11.879  23.278   5.842  1.00  0.00     0.055 A 
HETATM    9 CL1  UNL     1      12.262  22.885   7.504  1.00  0.00    -0.082 Cl
BRANCH   4  10
HETATM   10  N2  UNL     1      10.995  24.151   2.058  1.00  0.00    -0.372 N 
ATOM     11  H2  UNL     1      11.715  24.606   1.497  1.00  0.00     0.161 HD
BRANCH  10  12
HETATM   12  C5  UNL     1       9.743  23.840   1.408  1.00  0.00     0.086 C 
HETATM   13  C4  UNL     1       8.964  22.764   2.138  1.00  0.00     0.045 C 
HETATM   14  C3  UNL     1       7.467  22.997   2.023  1.00  0.00     0.137 C 
HETATM   15  N1  UNL     1       7.138  24.166   2.770  1.00  0.00    -0.311 N 
HETATM   16  C26 UNL     1       8.009  25.280   2.522  1.00  0.00     0.137 C 
HETATM   17  C25 UNL     1       8.868  25.074   1.292  1.00  0.00     0.045 C 
BRANCH  15  18
HETATM   18  S1  UNL     1       5.489  24.540   2.892  1.00  0.00     0.228 S 
HETATM   19  O1  UNL     1       5.049  25.102   1.552  1.00  0.00    -0.206 OA
HETATM   20  O2  UNL     1       5.310  25.638   3.897  1.00  0.00    -0.206 OA
BRANCH  18  21
HETATM   21  C2  UNL     1       4.435  23.191   3.260  1.00  0.00     0.159 C 
HETATM   22  C1  UNL     1       3.371  23.463   4.266  1.00  0.00     0.023 C 
ENDBRANCH  18  21
ENDBRANCH  15  18
ENDBRANCH  10  12
ENDBRANCH   4  10
ENDBRANCH   1   2
BRANCH   1  23
HETATM   23  C10 UNL     1      12.955  20.249   4.006  1.00  0.00     0.062 C 
BRANCH  23  24
HETATM   24  C11 UNL     1      14.305  19.659   4.224  1.00  0.00     0.028 A 
HETATM   25  C12 UNL     1      14.945  18.924   3.256  1.00  0.00     0.050 A 
HETATM   26  C13 UNL     1      16.194  18.418   3.553  1.00  0.00     0.024 A 
HETATM   27  C14 UNL     1      16.924  17.613   2.529  1.00  0.00     0.068 C 
HETATM   28  N3  UNL     1      16.733  18.661   4.764  1.00  0.00    -0.196 N 
HETATM   29  C15 UNL     1      16.089  19.386   5.701  1.00  0.00     0.684 A 
ATOM     30  H3  UNL     1      17.657  18.285   4.979  1.00  0.00     0.184 HD
HETATM   31  N6  UNL     1      14.872  19.889   5.436  1.00  0.00    -0.195 N 
ATOM     32  H6  UNL     1      14.378  20.438   6.139  1.00  0.00     0.184 HD
BRANCH  29  33
HETATM   33  N4  UNL     1      16.641  19.604   6.868  1.00  0.00    -0.176 N 
ATOM     34  H4  UNL     1      17.328  18.943   7.232  1.00  0.00     0.186 HD
BRANCH  33  35
HETATM   35  C16 UNL     1      16.293  20.750   7.634  1.00  0.00     0.127 A 
HETATM   36  N5  UNL     1      16.369  21.985   7.057  1.00  0.00    -0.351 N 
HETATM   37  C17 UNL     1      16.046  23.085   7.761  1.00  0.00     0.090 A 
ATOM     38  H5  UNL     1      16.671  22.074   6.086  1.00  0.00     0.166 HD
HETATM   39  C18 UNL     1      15.635  22.980   9.076  1.00  0.00     0.024 A 
HETATM   40  C19 UNL     1      15.557  21.721   9.660  1.00  0.00    -0.051 A 
HETATM   41  C20 UNL     1      15.121  21.610  11.056  1.00  0.00     0.049 C 
HETATM   42  C21 UNL     1      15.887  20.598   8.940  1.00  0.00    -0.011 A 
HETATM   43  C22 UNL     1      15.800  19.277   9.576  1.00  0.00     0.052 C 
ENDBRANCH  33  35
ENDBRANCH  29  33
ENDBRANCH  23  24
ENDBRANCH   1  23
TORSDOF 9
ENDMDL
MODEL 5
REMARK VINA RESULT: -10.089535302      3.055      5.319
REMARK  9 active torsions:
REMARK  status: ('A' for Active; 'I' for Inactive)
REMARK    1  A    between atoms: C2_2  and  S1_3 
REMARK    2  A    between atoms: S1_3  and  N1_6 
REMARK    3  A    between atoms: C5_9  and  N2_10 
REMARK    4  A    between atoms: N2_10  and  C6_12 
REMARK    5  A    between atoms: C8_14  and  C9_15 
REMARK    6  A    between atoms: C9_15  and  C10_16 
REMARK    7  A    between atoms: C10_16  and  C11_17 
REMARK    8  A    between atoms: C15_23  and  N4_24 
REMARK    9  A    between atoms: N4_24  and  C16_26 
ROOT
HETATM    1  C9  UNL     1      13.509  23.068   7.464  1.00  0.00     0.046 C 
ENDROOT
BRANCH   1   2
HETATM    2  C8  UNL     1      12.068  23.467   7.374  1.00  0.00    -0.031 A 
HETATM    3  C7  UNL     1      11.610  24.605   8.002  1.00  0.00     0.057 A 
HETATM    4  C6  UNL     1      10.262  24.929   7.891  1.00  0.00     0.101 A 
HETATM    5  N7  UNL     1       9.407  24.164   7.193  1.00  0.00    -0.351 N 
HETATM    6  C24 UNL     1       9.831  23.036   6.564  1.00  0.00     0.114 A 
ATOM      7  H7  UNL     1       8.425  24.432   7.133  1.00  0.00     0.166 HD
HETATM    8  C23 UNL     1      11.167  22.701   6.666  1.00  0.00     0.055 A 
HETATM    9 CL1  UNL     1      11.744  21.258   5.862  1.00  0.00    -0.082 Cl
BRANCH   4  10
HETATM   10  N2  UNL     1       9.875  25.998   8.490  1.00  0.00    -0.372 N 
ATOM     11  H2  UNL     1      10.111  26.094   9.478  1.00  0.00     0.161 HD
BRANCH  10  12
HETATM   12  C5  UNL     1       9.133  27.074   7.876  1.00  0.00     0.086 C 
HETATM   13  C4  UNL     1       8.884  26.836   6.400  1.00  0.00     0.045 C 
HETATM   14  C3  UNL     1       7.544  27.410   5.970  1.00  0.00     0.137 C 
HETATM   15  N1  UNL     1       6.511  26.637   6.578  1.00  0.00    -0.311 N 
HETATM   16  C26 UNL     1       6.715  26.391   7.978  1.00  0.00     0.137 C 
HETATM   17  C25 UNL     1       7.796  27.275   8.565  1.00  0.00     0.045 C 
BRANCH  15  18
HETATM   18  S1  UNL     1       4.923  27.019   6.127  1.00  0.00     0.228 S 
HETATM   19  O1  UNL     1       4.012  25.960   6.721  1.00  0.00    -0.206 OA
HETATM   20  O2  UNL     1       4.798  26.906   4.637  1.00  0.00    -0.206 OA
BRANCH  18  21
HETATM   21  C2  UNL     1       4.337  28.576   6.676  1.00  0.00     0.159 C 
HETATM   22  C1  UNL     1       3.173  28.533   7.604  1.00  0.00     0.023 C 
ENDBRANCH  18  21
ENDBRANCH  15  18
ENDBRANCH  10  12
ENDBRANCH   4  10
ENDBRANCH   1   2
BRANCH   1  23
HETATM   23  C10 UNL     1      13.651  22.151   8.656  1.00  0.00     0.062 C 
BRANCH  23  24
HETATM   24  C11 UNL     1      14.774  21.191   8.471  1.00  0.00     0.028 A 
HETATM   25  C12 UNL     1      15.166  20.327   9.463  1.00  0.00     0.050 A 
HETATM   26  C13 UNL     1      16.218  19.474   9.195  1.00  0.00     0.024 A 
HETATM   27  C14 UNL     1      16.677  18.519  10.247  1.00  0.00     0.068 C 
HETATM   28  N3  UNL     1      16.813  19.521   7.986  1.00  0.00    -0.196 N 
HETATM   29  C15 UNL     1      16.413  20.376   7.025  1.00  0.00     0.684 A 
ATOM     30  H3  UNL     1      17.591  18.889   7.793  1.00  0.00     0.184 HD
HETATM   31  N6  UNL     1      15.391  21.216   7.261  1.00  0.00    -0.195 N 
ATOM     32  H6  UNL     1      15.081  21.866   6.540  1.00  0.00     0.184 HD
BRANCH  29  33
HETATM   33  N4  UNL     1      17.012  20.396   5.861  1.00  0.00    -0.176 N 
ATOM     34  H4  UNL     1      17.963  20.759   5.790  1.00  0.00     0.186 HD
BRANCH  33  35
HETATM   35  C16 UNL     1      16.352  19.918   4.696  1.00  0.00     0.127 A 
HETATM   36  N5  UNL     1      15.193  20.516   4.294  1.00  0.00    -0.351 N 
HETATM   37  C17 UNL     1      14.549  20.081   3.196  1.00  0.00     0.090 A 
ATOM     38  H5  UNL     1      14.812  21.297   4.829  1.00  0.00     0.166 HD
HETATM   39  C18 UNL     1      15.051  19.024   2.461  1.00  0.00     0.024 A 
HETATM   40  C19 UNL     1      16.233  18.418   2.872  1.00  0.00    -0.051 A 
HETATM   41  C20 UNL     1      16.766  17.297   2.092  1.00  0.00     0.049 C 
HETATM   42  C21 UNL     1      16.889  18.863   3.994  1.00  0.00    -0.011 A 
HETATM   43  C22 UNL     1      18.137  18.209   4.413  1.00  0.00     0.052 C 
ENDBRANCH  33  35
ENDBRANCH  29  33
ENDBRANCH  23  24
ENDBRANCH   1  23
TORSDOF 9
ENDMDL
