MODEL 1
REMARK VINA RESULT: -9.191522483      0.000      0.000
REMARK  10 active torsions:
REMARK  status: ('A' for Active; 'I' for Inactive)
REMARK    1  A    between atoms: N1_2  and  C2_3 
REMARK    2  A    between atoms: N1_2  and  C24_38 
REMARK    3  A    between atoms: C2_3  and  O1_4 
REMARK    4  A    between atoms: C2_3  and  C3_6 
REMARK    5  A    between atoms: C3_6  and  N2_7 
REMARK    6  A    between atoms: C9_16  and  N4_17 
REMARK    7  A    between atoms: N4_17  and  C10_18 
REMARK    8  A    between atoms: C10_18  and  C11_19 
REMARK    9  A    between atoms: N5_26  and  C18_27 
REMARK   10  A    between atoms: C18_27  and  C19_28 
ROOT
HETATM    1  N2  UNL     1       6.095  27.546   6.752  1.00  0.00    -0.342 N 
HETATM    2  C4  UNL     1       5.009  27.690   7.713  1.00  0.00     0.231 C 
HETATM    3  C5  UNL     1       3.716  27.245   7.188  1.00  0.00     0.240 C 
HETATM    4  O2  UNL     1       2.636  27.667   7.728  1.00  0.00    -0.271 OA
HETATM    5  N3  UNL     1       3.584  26.358   6.094  1.00  0.00    -0.321 N 
ATOM      6  H3  UNL     1       2.684  25.936   5.866  1.00  0.00     0.169 HD
HETATM    7  C6  UNL     1       4.742  26.071   5.325  1.00  0.00     0.101 A 
HETATM    8  C7  UNL     1       5.931  26.654   5.660  1.00  0.00     0.069 A 
HETATM    9  C8  UNL     1       7.024  26.341   4.872  1.00  0.00     0.096 A 
HETATM   10  C9  UNL     1       6.936  25.466   3.770  1.00  0.00     0.181 A 
HETATM   11  N6  UNL     1       5.703  24.934   3.515  1.00  0.00    -0.320 N 
ATOM     12  H6  UNL     1       5.609  24.297   2.724  1.00  0.00     0.169 HD
HETATM   13  C23 UNL     1       4.617  25.198   4.238  1.00  0.00     0.135 A 
HETATM   14 CL1  UNL     1       3.090  24.459   3.820  1.00  0.00    -0.062 Cl
ENDROOT
BRANCH  10  15
HETATM   15  N4  UNL     1       7.860  25.187   3.076  1.00  0.00    -0.404 NA
BRANCH  15  16
HETATM   16  C10 UNL     1       8.882  24.879   2.277  1.00  0.00     0.162 C 
BRANCH  16  17
HETATM   17  C11 UNL     1       9.909  24.032   3.018  1.00  0.00     0.038 C 
HETATM   18  C12 UNL     1       9.456  22.576   3.100  1.00  0.00     0.014 C 
HETATM   19  C13 UNL     1      10.388  21.913   4.067  1.00  0.00     0.041 C 
HETATM   20  C14 UNL     1      11.830  22.057   3.762  1.00  0.00     0.088 C 
HETATM   21  C15 UNL     1      12.233  23.122   2.825  1.00  0.00     0.041 C 
HETATM   22  C17 UNL     1      12.577  22.248   5.066  1.00  0.00     0.166 C 
HETATM   23  O4  UNL     1      12.287  20.769   3.308  1.00  0.00    -0.291 OA
HETATM   24  C16 UNL     1      11.198  24.019   2.273  1.00  0.00     0.014 C 
HETATM   25  N5  UNL     1      13.480  21.134   5.187  1.00  0.00    -0.325 N 
HETATM   26  C22 UNL     1      13.465  20.459   3.937  1.00  0.00     0.363 C 
HETATM   27  O3  UNL     1      14.399  19.703   3.503  1.00  0.00    -0.238 OA
BRANCH  25  28
HETATM   28  C18 UNL     1      14.233  20.832   6.379  1.00  0.00     0.132 C 
BRANCH  28  29
HETATM   29  C19 UNL     1      13.853  21.660   7.570  1.00  0.00     0.004 A 
HETATM   30  C20 UNL     1      14.892  22.567   8.151  1.00  0.00     0.007 A 
HETATM   31  C21 UNL     1      14.419  21.337   8.912  1.00  0.00     0.007 A 
ENDBRANCH  28  29
ENDBRANCH  25  28
ENDBRANCH  16  17
ENDBRANCH  15  16
ENDBRANCH  10  15
BRANCH   1  32
HETATM   32  C3  UNL     1       7.286  28.306   6.972  1.00  0.00     0.147 C 
BRANCH  32  33
HETATM   33  C2  UNL     1       8.425  27.738   7.664  1.00  0.00     0.153 C 
BRANCH  33  34
HETATM   34  N1  UNL     1       8.839  26.455   7.982  1.00  0.00    -0.360 N 
HETATM   35  C1  UNL     1       8.322  25.566   8.967  1.00  0.00     0.152 C 
BRANCH  34  36
HETATM   36  C24 UNL     1       9.977  25.889   7.209  1.00  0.00     0.086 C 
HETATM   37  C25 UNL     1       9.659  24.533   6.676  1.00  0.00     0.025 C 
HETATM   38  C26 UNL     1      10.536  23.538   7.399  1.00  0.00     0.002 C 
HETATM   39  C27 UNL     1      11.576  24.323   8.136  1.00  0.00     0.002 C 
HETATM   40  C28 UNL     1      11.109  25.746   8.202  1.00  0.00     0.025 C 
ENDBRANCH  34  36
ENDBRANCH  33  34
BRANCH  33  41
HETATM   41  O1  UNL     1       9.234  28.718   8.074  1.00  0.00    -0.345 OA
ATOM     42  H1  UNL     1       9.183  29.524   7.573  1.00  0.00     0.219 HD
ENDBRANCH  33  41
ENDBRANCH  32  33
ENDBRANCH   1  32
TORSDOF 10
ENDMDL
MODEL 2
REMARK VINA RESULT: -9.135191154      5.051     11.672
REMARK  10 active torsions:
REMARK  status: ('A' for Active; 'I' for Inactive)
REMARK    1  A    between atoms: N1_2  and  C2_3 
REMARK    2  A    between atoms: N1_2  and  C24_38 
REMARK    3  A    between atoms: C2_3  and  O1_4 
REMARK    4  A    between atoms: C2_3  and  C3_6 
REMARK    5  A    between atoms: C3_6  and  N2_7 
REMARK    6  A    between atoms: C9_16  and  N4_17 
REMARK    7  A    between atoms: N4_17  and  C10_18 
REMARK    8  A    between atoms: C10_18  and  C11_19 
REMARK    9  A    between atoms: N5_26  and  C18_27 
REMARK   10  A    between atoms: C18_27  and  C19_28 
ROOT
HETATM    1  N2  UNL     1      18.208  17.846   5.417  1.00  0.00    -0.342 N 
HETATM    2  C4  UNL     1      18.256  16.450   4.999  1.00  0.00     0.231 C 
HETATM    3  C5  UNL     1      18.645  15.541   6.079  1.00  0.00     0.240 C 
HETATM    4  O2  UNL     1      19.116  14.387   5.794  1.00  0.00    -0.271 OA
HETATM    5  N3  UNL     1      18.531  15.869   7.451  1.00  0.00    -0.321 N 
ATOM      6  H3  UNL     1      18.647  15.157   8.172  1.00  0.00     0.169 HD
HETATM    7  C6  UNL     1      18.250  17.217   7.793  1.00  0.00     0.101 A 
HETATM    8  C7  UNL     1      18.101  18.144   6.801  1.00  0.00     0.069 A 
HETATM    9  C8  UNL     1      17.833  19.443   7.194  1.00  0.00     0.096 A 
HETATM   10  C9  UNL     1      17.716  19.814   8.549  1.00  0.00     0.181 A 
HETATM   11  N6  UNL     1      17.882  18.815   9.467  1.00  0.00    -0.320 N 
ATOM     12  H6  UNL     1      17.803  19.054  10.456  1.00  0.00     0.169 HD
HETATM   13  C23 UNL     1      18.141  17.550   9.149  1.00  0.00     0.135 A 
HETATM   14 CL1  UNL     1      18.334  16.354  10.408  1.00  0.00    -0.062 Cl
ENDROOT
BRANCH  10  15
HETATM   15  N4  UNL     1      17.491  20.924   8.911  1.00  0.00    -0.404 NA
BRANCH  15  16
HETATM   16  C10 UNL     1      17.263  22.171   9.322  1.00  0.00     0.162 C 
BRANCH  16  17
HETATM   17  C11 UNL     1      15.893  22.650   8.858  1.00  0.00     0.038 C 
HETATM   18  C12 UNL     1      15.759  22.527   7.341  1.00  0.00     0.014 C 
HETATM   19  C13 UNL     1      14.508  23.270   6.982  1.00  0.00     0.041 C 
HETATM   20  C14 UNL     1      13.289  22.852   7.710  1.00  0.00     0.088 C 
HETATM   21  C15 UNL     1      13.459  22.075   8.951  1.00  0.00     0.041 C 
HETATM   22  C17 UNL     1      12.470  24.089   8.017  1.00  0.00     0.166 C 
HETATM   23  O4  UNL     1      12.466  22.141   6.764  1.00  0.00    -0.291 OA
HETATM   24  C16 UNL     1      14.825  21.790   9.435  1.00  0.00     0.014 C 
HETATM   25  N5  UNL     1      11.212  23.927   7.336  1.00  0.00    -0.325 N 
HETATM   26  C22 UNL     1      11.174  22.588   6.863  1.00  0.00     0.363 C 
HETATM   27  O3  UNL     1      10.108  21.941   6.587  1.00  0.00    -0.238 OA
BRANCH  25  28
HETATM   28  C18 UNL     1      10.224  24.969   7.209  1.00  0.00     0.132 C 
BRANCH  28  29
HETATM   29  C19 UNL     1       9.620  25.403   8.511  1.00  0.00     0.004 A 
HETATM   30  C20 UNL     1       8.251  24.902   8.848  1.00  0.00     0.007 A 
HETATM   31  C21 UNL     1       8.483  26.370   8.518  1.00  0.00     0.007 A 
ENDBRANCH  28  29
ENDBRANCH  25  28
ENDBRANCH  16  17
ENDBRANCH  15  16
ENDBRANCH  10  15
BRANCH   1  32
HETATM   32  C3  UNL     1      18.254  18.849   4.399  1.00  0.00     0.147 C 
BRANCH  32  33
HETATM   33  C2  UNL     1      17.317  18.845   3.294  1.00  0.00     0.153 C 
BRANCH  33  34
HETATM   34  N1  UNL     1      15.945  18.985   3.172  1.00  0.00    -0.360 N 
HETATM   35  C1  UNL     1      15.025  18.184   2.437  1.00  0.00     0.152 C 
BRANCH  34  36
HETATM   36  C24 UNL     1      15.302  20.113   3.897  1.00  0.00     0.086 C 
HETATM   37  C25 UNL     1      14.555  19.642   5.098  1.00  0.00     0.025 C 
HETATM   38  C26 UNL     1      13.083  19.859   4.838  1.00  0.00     0.002 C 
HETATM   39  C27 UNL     1      12.974  20.727   3.623  1.00  0.00     0.002 C 
HETATM   40  C28 UNL     1      14.301  20.700   2.926  1.00  0.00     0.025 C 
ENDBRANCH  34  36
ENDBRANCH  33  34
BRANCH  33  41
HETATM   41  O1  UNL     1      17.977  18.655   2.149  1.00  0.00    -0.345 OA
ATOM     42  H1  UNL     1      18.865  18.332   2.239  1.00  0.00     0.219 HD
ENDBRANCH  33  41
ENDBRANCH  32  33
ENDBRANCH   1  32
TORSDOF 10
ENDMDL
MODEL 3
REMARK VINA RESULT: -9.129388723      5.110     11.916
REMARK  10 active torsions:
REMARK  status: ('A' for Active; 'I' for Inactive)
REMARK    1  A    between atoms: N1_2  and  C2_3 
REMARK    2  A    between atoms: N1_2  and  C24_38 
REMARK    3  A    between atoms: C2_3  and  O1_4 
REMARK    4  A    between atoms: C2_3  and  C3_6 
REMARK    5  A    between atoms: C3_6  and  N2_7 
REMARK    6  A    between atoms: C9_16  and  N4_17 
REMARK    7  A    between atoms: N4_17  and  C10_18 
REMARK    8  A    between atoms: C10_18  and  C11_19 
REMARK    9  A    between atoms: N5_26  and  C18_27 
REMARK   10  A    between atoms: C18_27  and  C19_28 
ROOT
HETATM    1  N2  UNL     1      18.565  17.062   5.068  1.00  0.00    -0.342 N 
HETATM    2  C4  UNL     1      18.715  15.636   4.808  1.00  0.00     0.231 C 
HETATM    3  C5  UNL     1      19.077  14.870   6.003  1.00  0.00     0.240 C 
HETATM    4  O2  UNL     1      19.626  13.722   5.875  1.00  0.00    -0.271 OA
HETATM    5  N3  UNL     1      18.853  15.332   7.321  1.00  0.00    -0.321 N 
ATOM      6  H3  UNL     1      18.957  14.709   8.121  1.00  0.00     0.169 HD
HETATM    7  C6  UNL     1      18.478  16.690   7.496  1.00  0.00     0.101 A 
HETATM    8  C7  UNL     1      18.348  17.497   6.402  1.00  0.00     0.069 A 
HETATM    9  C8  UNL     1      17.986  18.811   6.635  1.00  0.00     0.096 A 
HETATM   10  C9  UNL     1      17.757  19.315   7.932  1.00  0.00     0.181 A 
HETATM   11  N6  UNL     1      17.913  18.430   8.961  1.00  0.00    -0.320 N 
ATOM     12  H6  UNL     1      17.754  18.766   9.912  1.00  0.00     0.169 HD
HETATM   13  C23 UNL     1      18.260  17.156   8.799  1.00  0.00     0.135 A 
HETATM   14 CL1  UNL     1      18.429  16.113  10.190  1.00  0.00    -0.062 Cl
ENDROOT
BRANCH  10  15
HETATM   15  N4  UNL     1      17.450  20.441   8.156  1.00  0.00    -0.404 NA
BRANCH  15  16
HETATM   16  C10 UNL     1      17.119  21.704   8.428  1.00  0.00     0.162 C 
BRANCH  16  17
HETATM   17  C11 UNL     1      15.739  22.031   7.873  1.00  0.00     0.038 C 
HETATM   18  C12 UNL     1      14.643  21.553   8.823  1.00  0.00     0.014 C 
HETATM   19  C13 UNL     1      13.360  21.677   8.059  1.00  0.00     0.041 C 
HETATM   20  C14 UNL     1      13.088  23.013   7.484  1.00  0.00     0.088 C 
HETATM   21  C15 UNL     1      14.219  23.951   7.355  1.00  0.00     0.041 C 
HETATM   22  C17 UNL     1      12.453  22.826   6.121  1.00  0.00     0.166 C 
HETATM   23  O4  UNL     1      12.024  23.591   8.265  1.00  0.00    -0.291 OA
HETATM   24  C16 UNL     1      15.568  23.505   7.758  1.00  0.00     0.014 C 
HETATM   25  N5  UNL     1      11.144  23.419   6.195  1.00  0.00    -0.325 N 
HETATM   26  C22 UNL     1      11.087  24.131   7.423  1.00  0.00     0.363 C 
HETATM   27  O3  UNL     1      10.292  25.101   7.669  1.00  0.00    -0.238 OA
BRANCH  25  28
HETATM   28  C18 UNL     1      10.137  23.280   5.172  1.00  0.00     0.132 C 
BRANCH  28  29
HETATM   29  C19 UNL     1      10.647  22.703   3.885  1.00  0.00     0.004 A 
HETATM   30  C20 UNL     1      10.157  23.305   2.606  1.00  0.00     0.007 A 
HETATM   31  C21 UNL     1       9.736  21.901   3.017  1.00  0.00     0.007 A 
ENDBRANCH  28  29
ENDBRANCH  25  28
ENDBRANCH  16  17
ENDBRANCH  15  16
ENDBRANCH  10  15
BRANCH   1  32
HETATM   32  C3  UNL     1      18.627  17.953   3.953  1.00  0.00     0.147 C 
BRANCH  32  33
HETATM   33  C2  UNL     1      17.428  18.374   3.256  1.00  0.00     0.153 C 
BRANCH  33  34
HETATM   34  N1  UNL     1      16.085  18.457   3.580  1.00  0.00    -0.360 N 
HETATM   35  C1  UNL     1      15.134  17.409   3.732  1.00  0.00     0.152 C 
BRANCH  34  36
HETATM   36  C24 UNL     1      15.517  19.813   3.814  1.00  0.00     0.086 C 
HETATM   37  C25 UNL     1      14.754  19.877   5.092  1.00  0.00     0.025 C 
HETATM   38  C26 UNL     1      13.295  20.065   4.749  1.00  0.00     0.002 C 
HETATM   39  C27 UNL     1      13.228  20.411   3.294  1.00  0.00     0.002 C 
HETATM   40  C28 UNL     1      14.544  20.045   2.679  1.00  0.00     0.025 C 
ENDBRANCH  34  36
ENDBRANCH  33  34
BRANCH  33  41
HETATM   41  O1  UNL     1      17.743  18.759   2.016  1.00  0.00    -0.345 OA
ATOM     42  H1  UNL     1      18.209  19.584   1.952  1.00  0.00     0.219 HD
ENDBRANCH  33  41
ENDBRANCH  32  33
ENDBRANCH   1  32
TORSDOF 10
ENDMDL
MODEL 4
REMARK VINA RESULT: -9.047516382      6.189     12.322
REMARK  10 active torsions:
REMARK  status: ('A' for Active; 'I' for Inactive)
REMARK    1  A    between atoms: N1_2  and  C2_3 
REMARK    2  A    between atoms: N1_2  and  C24_38 
REMARK    3  A    between atoms: C2_3  and  O1_4 
REMARK    4  A    between atoms: C2_3  and  C3_6 
REMARK    5  A    between atoms: C3_6  and  N2_7 
REMARK    6  A    between atoms: C9_16  and  N4_17 
REMARK    7  A    between atoms: N4_17  and  C10_18 
REMARK    8  A    between atoms: C10_18  and  C11_19 
REMARK    9  A    between atoms: N5_26  and  C18_27 
REMARK   10  A    between atoms: C18_27  and  C19_28 
ROOT
HETATM    1  N2  UNL     1      18.893  16.429   8.434  1.00  0.00    -0.342 N 
HETATM    2  C4  UNL     1      19.820  15.973   9.462  1.00  0.00     0.231 C 
HETATM    3  C5  UNL     1      20.616  14.816   9.044  1.00  0.00     0.240 C 
HETATM    4  O2  UNL     1      21.156  14.069   9.930  1.00  0.00    -0.271 OA
HETATM    5  N3  UNL     1      20.827  14.466   7.690  1.00  0.00    -0.321 N 
ATOM      6  H3  UNL     1      21.521  13.764   7.431  1.00  0.00     0.169 HD
HETATM    7  C6  UNL     1      20.047  15.120   6.703  1.00  0.00     0.101 A 
HETATM    8  C7  UNL     1      19.127  16.056   7.085  1.00  0.00     0.069 A 
HETATM    9  C8  UNL     1      18.392  16.656   6.079  1.00  0.00     0.096 A 
HETATM   10  C9  UNL     1      18.567  16.334   4.718  1.00  0.00     0.181 A 
HETATM   11  N6  UNL     1      19.511  15.386   4.436  1.00  0.00    -0.320 N 
ATOM     12  H6  UNL     1      19.659  15.132   3.459  1.00  0.00     0.169 HD
HETATM   13  C23 UNL     1      20.247  14.774   5.360  1.00  0.00     0.135 A 
HETATM   14 CL1  UNL     1      21.427  13.576   4.884  1.00  0.00    -0.062 Cl
ENDROOT
BRANCH  10  15
HETATM   15  N4  UNL     1      17.944  16.833   3.837  1.00  0.00    -0.404 NA
BRANCH  15  16
HETATM   16  C10 UNL     1      17.260  17.383   2.834  1.00  0.00     0.162 C 
BRANCH  16  17
HETATM   17  C11 UNL     1      16.329  18.474   3.348  1.00  0.00     0.038 C 
HETATM   18  C12 UNL     1      15.715  19.257   2.190  1.00  0.00     0.014 C 
HETATM   19  C13 UNL     1      15.054  20.450   2.811  1.00  0.00     0.041 C 
HETATM   20  C14 UNL     1      14.085  20.151   3.889  1.00  0.00     0.088 C 
HETATM   21  C15 UNL     1      14.144  18.820   4.520  1.00  0.00     0.041 C 
HETATM   22  C17 UNL     1      14.230  21.207   4.966  1.00  0.00     0.166 C 
HETATM   23  O4  UNL     1      12.774  20.410   3.351  1.00  0.00    -0.291 OA
HETATM   24  C16 UNL     1      15.186  17.868   4.085  1.00  0.00     0.014 C 
HETATM   25  N5  UNL     1      12.964  21.889   5.043  1.00  0.00    -0.325 N 
HETATM   26  C22 UNL     1      12.049  21.141   4.256  1.00  0.00     0.363 C 
HETATM   27  O3  UNL     1      10.779  21.165   4.392  1.00  0.00    -0.238 OA
BRANCH  25  28
HETATM   28  C18 UNL     1      12.743  23.093   5.804  1.00  0.00     0.132 C 
BRANCH  28  29
HETATM   29  C19 UNL     1      11.965  22.884   7.070  1.00  0.00     0.004 A 
HETATM   30  C20 UNL     1      10.568  23.416   7.129  1.00  0.00     0.007 A 
HETATM   31  C21 UNL     1      11.676  24.041   7.966  1.00  0.00     0.007 A 
ENDBRANCH  28  29
ENDBRANCH  25  28
ENDBRANCH  16  17
ENDBRANCH  15  16
ENDBRANCH  10  15
BRANCH   1  32
HETATM   32  C3  UNL     1      17.797  17.251   8.842  1.00  0.00     0.147 C 
BRANCH  32  33
HETATM   33  C2  UNL     1      17.951  18.683   9.010  1.00  0.00     0.153 C 
BRANCH  33  34
HETATM   34  N1  UNL     1      17.445  19.804   8.374  1.00  0.00    -0.360 N 
HETATM   35  C1  UNL     1      17.299  20.052   6.979  1.00  0.00     0.152 C 
BRANCH  34  36
HETATM   36  C24 UNL     1      16.974  20.926   9.230  1.00  0.00     0.086 C 
HETATM   37  C25 UNL     1      15.668  20.615   9.877  1.00  0.00     0.025 C 
HETATM   38  C26 UNL     1      14.628  21.530   9.276  1.00  0.00     0.002 C 
HETATM   39  C27 UNL     1      15.361  22.579   8.500  1.00  0.00     0.002 C 
HETATM   40  C28 UNL     1      16.762  22.091   8.288  1.00  0.00     0.025 C 
ENDBRANCH  34  36
ENDBRANCH  33  34
BRANCH  33  41
HETATM   41  O1  UNL     1      18.785  18.927  10.023  1.00  0.00    -0.345 OA
ATOM     42  H1  UNL     1      19.642  18.525   9.951  1.00  0.00     0.219 HD
ENDBRANCH  33  41
ENDBRANCH  32  33
ENDBRANCH   1  32
TORSDOF 10
ENDMDL
MODEL 5
REMARK VINA RESULT: -9.025035245      1.409      2.211
REMARK  10 active torsions:
REMARK  status: ('A' for Active; 'I' for Inactive)
REMARK    1  A    between atoms: N1_2  and  C2_3 
REMARK    2  A    between atoms: N1_2  and  C24_38 
REMARK    3  A    between atoms: C2_3  and  O1_4 
REMARK    4  A    between atoms: C2_3  and  C3_6 
REMARK    5  A    between atoms: C3_6  and  N2_7 
REMARK    6  A    between atoms: C9_16  and  N4_17 
REMARK    7  A    between atoms: N4_17  and  C10_18 
REMARK    8  A    between atoms: C10_18  and  C11_19 
REMARK    9  A    between atoms: N5_26  and  C18_27 
REMARK   10  A    between atoms: C18_27  and  C19_28 
ROOT
HETATM    1  N2  UNL     1       6.330  27.325   6.476  1.00  0.00    -0.342 N 
HETATM    2  C4  UNL     1       5.333  27.381   7.538  1.00  0.00     0.231 C 
HETATM    3  C5  UNL     1       4.003  26.955   7.099  1.00  0.00     0.240 C 
HETATM    4  O2  UNL     1       2.972  27.319   7.762  1.00  0.00    -0.271 OA
HETATM    5  N3  UNL     1       3.781  26.148   5.958  1.00  0.00    -0.321 N 
ATOM      6  H3  UNL     1       2.868  25.730   5.779  1.00  0.00     0.169 HD
HETATM    7  C6  UNL     1       4.867  25.937   5.070  1.00  0.00     0.101 A 
HETATM    8  C7  UNL     1       6.077  26.512   5.340  1.00  0.00     0.069 A 
HETATM    9  C8  UNL     1       7.097  26.275   4.436  1.00  0.00     0.096 A 
HETATM   10  C9  UNL     1       6.919  25.481   3.285  1.00  0.00     0.181 A 
HETATM   11  N6  UNL     1       5.673  24.950   3.102  1.00  0.00    -0.320 N 
ATOM     12  H6  UNL     1       5.514  24.371   2.277  1.00  0.00     0.169 HD
HETATM   13  C23 UNL     1       4.654  25.143   3.936  1.00  0.00     0.135 A 
HETATM   14 CL1  UNL     1       3.103  24.412   3.602  1.00  0.00    -0.062 Cl
ENDROOT
BRANCH  10  15
HETATM   15  N4  UNL     1       7.779  25.269   2.492  1.00  0.00    -0.404 NA
BRANCH  15  16
HETATM   16  C10 UNL     1       8.743  25.053   1.597  1.00  0.00     0.162 C 
BRANCH  16  17
HETATM   17  C11 UNL     1       9.800  24.112   2.158  1.00  0.00     0.038 C 
HETATM   18  C12 UNL     1      10.362  24.646   3.474  1.00  0.00     0.014 C 
HETATM   19  C13 UNL     1      11.560  23.799   3.779  1.00  0.00     0.041 C 
HETATM   20  C14 UNL     1      11.318  22.339   3.800  1.00  0.00     0.088 C 
HETATM   21  C15 UNL     1      10.094  21.834   3.153  1.00  0.00     0.041 C 
HETATM   22  C17 UNL     1      12.517  21.648   3.183  1.00  0.00     0.166 C 
HETATM   23  O4  UNL     1      11.380  21.930   5.180  1.00  0.00    -0.291 OA
HETATM   24  C16 UNL     1       9.194  22.790   2.477  1.00  0.00     0.014 C 
HETATM   25  N5  UNL     1      13.082  20.813   4.210  1.00  0.00    -0.325 N 
HETATM   26  C22 UNL     1      12.153  20.803   5.285  1.00  0.00     0.363 C 
HETATM   27  O3  UNL     1      12.076  19.890   6.175  1.00  0.00    -0.238 OA
BRANCH  25  28
HETATM   28  C18 UNL     1      14.350  20.138   4.093  1.00  0.00     0.132 C 
BRANCH  28  29
HETATM   29  C19 UNL     1      14.377  19.058   3.052  1.00  0.00     0.004 A 
HETATM   30  C20 UNL     1      15.682  18.380   2.780  1.00  0.00     0.007 A 
HETATM   31  C21 UNL     1      15.053  19.301   1.744  1.00  0.00     0.007 A 
ENDBRANCH  28  29
ENDBRANCH  25  28
ENDBRANCH  16  17
ENDBRANCH  15  16
ENDBRANCH  10  15
BRANCH   1  32
HETATM   32  C3  UNL     1       7.528  28.085   6.645  1.00  0.00     0.147 C 
BRANCH  32  33
HETATM   33  C2  UNL     1       8.567  27.660   7.561  1.00  0.00     0.153 C 
BRANCH  33  34
HETATM   34  N1  UNL     1       9.043  26.438   8.004  1.00  0.00    -0.360 N 
HETATM   35  C1  UNL     1       8.814  25.786   9.249  1.00  0.00     0.152 C 
BRANCH  34  36
HETATM   36  C24 UNL     1       9.916  25.664   7.080  1.00  0.00     0.086 C 
HETATM   37  C25 UNL     1       9.508  24.232   7.008  1.00  0.00     0.025 C 
HETATM   38  C26 UNL     1      10.602  23.409   7.645  1.00  0.00     0.002 C 
HETATM   39  C27 UNL     1      11.783  24.311   7.823  1.00  0.00     0.002 C 
HETATM   40  C28 UNL     1      11.301  25.724   7.687  1.00  0.00     0.025 C 
ENDBRANCH  34  36
ENDBRANCH  33  34
BRANCH  33  41
HETATM   41  O1  UNL     1       9.178  28.732   8.074  1.00  0.00    -0.345 OA
ATOM     42  H1  UNL     1       9.024  29.547   7.612  1.00  0.00     0.219 HD
ENDBRANCH  33  41
ENDBRANCH  32  33
ENDBRANCH   1  32
TORSDOF 10
ENDMDL
