MODEL 1
REMARK VINA RESULT: -7.568922241      0.000      0.000
REMARK  7 active torsions:
REMARK  status: ('A' for Active; 'I' for Inactive)
REMARK    1  A    between atoms: C2_2  and  C3_3 
REMARK    2  A    between atoms: C3_3  and  N1_4 
REMARK    3  A    between atoms: N1_4  and  C4_5 
REMARK       I    between atoms: N1_4  and  C6_8 
REMARK    4  A    between atoms: C4_5  and  C5_6 
REMARK       I    between atoms: C6_8  and  N2_10 
REMARK    5  A    between atoms: N2_10  and  C7_12 
REMARK    6  A    between atoms: C21_27  and  C22_28 
REMARK    7  A    between atoms: C22_28  and  N4_29 
ROOT
HETATM    1  C7  UNL     1      18.003  20.010   8.958  1.00  0.00     0.139 C 
HETATM    2  C8  UNL     1      17.973  21.406   9.622  1.00  0.00     0.299 C 
HETATM    3  N3  UNL     1      16.848  22.087   9.011  1.00  0.00     0.093 N 
HETATM    4  C9  UNL     1      16.301  23.080   9.920  1.00  0.00     0.310 C 
HETATM    5  C10 UNL     1      15.927  20.962   8.854  1.00  0.00     0.250 C 
HETATM    6  C11 UNL     1      14.611  21.337   8.339  1.00  0.00     0.065 C 
HETATM    7  C12 UNL     1      14.654  22.678   7.646  1.00  0.00    -0.028 C 
HETATM    8  C13 UNL     1      13.637  23.495   7.554  1.00  0.00    -0.031 C 
HETATM    9  C14 UNL     1      12.279  23.272   8.098  1.00  0.00     0.027 C 
HETATM   10  C15 UNL     1      11.230  23.424   6.988  1.00  0.00     0.004 C 
HETATM   11  C16 UNL     1      11.427  22.309   5.952  1.00  0.00     0.000 C 
HETATM   12  C17 UNL     1      11.818  22.855   4.621  1.00  0.00     0.000 C 
HETATM   13  C18 UNL     1      13.078  22.324   4.041  1.00  0.00     0.000 C 
HETATM   14  C19 UNL     1      13.267  20.842   4.118  1.00  0.00     0.003 C 
HETATM   15  C20 UNL     1      14.742  20.542   4.165  1.00  0.00     0.038 C 
HETATM   16  C21 UNL     1      15.065  19.174   4.727  1.00  0.00     0.171 C 
HETATM   17  O3  UNL     1      16.406  18.994   4.996  1.00  0.00    -0.293 OA
HETATM   18  C27 UNL     1      17.326  19.806   5.582  1.00  0.00     0.361 C 
HETATM   19  O4  UNL     1      18.447  19.922   4.935  1.00  0.00    -0.238 OA
HETATM   20  N5  UNL     1      17.206  20.524   6.793  1.00  0.00    -0.328 N 
ATOM     21  H5  UNL     1      17.451  21.513   6.760  1.00  0.00     0.165 HD
HETATM   22  C28 UNL     1      16.769  20.006   8.083  1.00  0.00     0.144 C 
ENDROOT
BRANCH   1  23
HETATM   23  N2  UNL     1      17.990  19.008  10.005  1.00  0.00    -0.335 N 
HETATM   24  C6  UNL     1      18.460  17.699   9.825  1.00  0.00     0.318 C 
HETATM   25  N1  UNL     1      18.500  16.653  10.765  1.00  0.00    -0.333 N 
HETATM   26  O1  UNL     1      18.904  17.436   8.651  1.00  0.00    -0.247 OA
ATOM     27  H2  UNL     1      17.621  19.267  10.919  1.00  0.00     0.164 HD
BRANCH  25  28
HETATM   28  C3  UNL     1      19.031  15.367  10.348  1.00  0.00     0.127 C 
BRANCH  28  29
HETATM   29  C2  UNL     1      20.372  15.025  10.889  1.00  0.00     0.015 C 
HETATM   30  C1  UNL     1      21.303  14.934   9.663  1.00  0.00     0.006 C 
ENDBRANCH  28  29
ENDBRANCH  25  28
BRANCH  25  31
HETATM   31  C4  UNL     1      18.086  16.761  12.147  1.00  0.00     0.142 C 
BRANCH  31  32
HETATM   32  C5  UNL     1      16.879  15.933  12.455  1.00  0.00     0.134 C 
HETATM   33 CL1  UNL     1      15.586  16.110  11.289  1.00  0.00    -0.129 Cl
ENDBRANCH  31  32
ENDBRANCH  25  31
ENDBRANCH   1  23
BRANCH  16  34
HETATM   34  C22 UNL     1      14.460  18.177   3.800  1.00  0.00     0.090 C 
BRANCH  34  35
HETATM   35  N4  UNL     1      15.294  17.564   2.852  1.00  0.00    -0.387 N 
HETATM   36  C23 UNL     1      16.530  17.020   3.272  1.00  0.00     0.148 C 
HETATM   37  C24 UNL     1      17.602  17.509   2.299  1.00  0.00     0.187 C 
HETATM   38  O2  UNL     1      17.446  18.878   2.094  1.00  0.00    -0.388 OA
HETATM   39  C25 UNL     1      16.295  19.185   1.407  1.00  0.00     0.187 C 
HETATM   40  C26 UNL     1      15.291  18.085   1.532  1.00  0.00     0.148 C 
ENDBRANCH  34  35
ENDBRANCH  16  34
TORSDOF 7
ENDMDL
MODEL 2
REMARK VINA RESULT: -7.320266622      7.538     12.753
REMARK  7 active torsions:
REMARK  status: ('A' for Active; 'I' for Inactive)
REMARK    1  A    between atoms: C2_2  and  C3_3 
REMARK    2  A    between atoms: C3_3  and  N1_4 
REMARK    3  A    between atoms: N1_4  and  C4_5 
REMARK       I    between atoms: N1_4  and  C6_8 
REMARK    4  A    between atoms: C4_5  and  C5_6 
REMARK       I    between atoms: C6_8  and  N2_10 
REMARK    5  A    between atoms: N2_10  and  C7_12 
REMARK    6  A    between atoms: C21_27  and  C22_28 
REMARK    7  A    between atoms: C22_28  and  N4_29 
ROOT
HETATM    1  C7  UNL     1       6.917  24.179   3.010  1.00  0.00     0.139 C 
HETATM    2  C8  UNL     1       7.411  23.462   1.732  1.00  0.00     0.299 C 
HETATM    3  N3  UNL     1       8.777  23.074   2.024  1.00  0.00     0.093 N 
HETATM    4  C9  UNL     1       9.145  21.896   1.257  1.00  0.00     0.310 C 
HETATM    5  C10 UNL     1       8.648  22.750   3.444  1.00  0.00     0.250 C 
HETATM    6  C11 UNL     1       9.867  22.210   4.045  1.00  0.00     0.065 C 
HETATM    7  C12 UNL     1      11.085  22.552   3.220  1.00  0.00    -0.028 C 
HETATM    8  C13 UNL     1      12.174  21.831   3.176  1.00  0.00    -0.031 C 
HETATM    9  C14 UNL     1      12.422  20.569   3.908  1.00  0.00     0.027 C 
HETATM   10  C15 UNL     1      13.713  20.677   4.732  1.00  0.00     0.004 C 
HETATM   11  C16 UNL     1      13.525  21.736   5.827  1.00  0.00     0.000 C 
HETATM   12  C17 UNL     1      14.442  22.896   5.635  1.00  0.00     0.000 C 
HETATM   13  C18 UNL     1      13.797  24.232   5.550  1.00  0.00     0.000 C 
HETATM   14  C19 UNL     1      12.733  24.517   6.560  1.00  0.00     0.003 C 
HETATM   15  C20 UNL     1      11.752  25.497   5.971  1.00  0.00     0.038 C 
HETATM   16  C21 UNL     1      10.405  25.496   6.661  1.00  0.00     0.171 C 
HETATM   17  O3  UNL     1       9.438  26.205   5.978  1.00  0.00    -0.293 OA
HETATM   18  C27 UNL     1       9.121  26.258   4.658  1.00  0.00     0.361 C 
HETATM   19  O4  UNL     1       8.991  27.455   4.172  1.00  0.00    -0.238 OA
HETATM   20  N5  UNL     1       8.920  25.178   3.769  1.00  0.00    -0.328 N 
ATOM     21  H5  UNL     1       9.426  25.218   2.884  1.00  0.00     0.165 HD
HETATM   22  C28 UNL     1       8.069  24.014   3.977  1.00  0.00     0.144 C 
ENDROOT
BRANCH   1  23
HETATM   23  N2  UNL     1       5.687  23.544   3.441  1.00  0.00    -0.335 N 
HETATM   24  C6  UNL     1       4.482  24.238   3.615  1.00  0.00     0.318 C 
HETATM   25  N1  UNL     1       3.235  23.728   4.021  1.00  0.00    -0.333 N 
HETATM   26  O1  UNL     1       4.537  25.496   3.372  1.00  0.00    -0.247 OA
ATOM     27  H2  UNL     1       5.699  22.541   3.627  1.00  0.00     0.164 HD
BRANCH  25  28
HETATM   28  C3  UNL     1       2.115  24.646   4.138  1.00  0.00     0.127 C 
BRANCH  28  29
HETATM   29  C2  UNL     1       1.777  25.064   5.523  1.00  0.00     0.015 C 
HETATM   30  C1  UNL     1       2.035  26.584   5.572  1.00  0.00     0.006 C 
ENDBRANCH  28  29
ENDBRANCH  25  28
BRANCH  25  31
HETATM   31  C4  UNL     1       2.958  22.336   4.301  1.00  0.00     0.142 C 
BRANCH  31  32
HETATM   32  C5  UNL     1       2.248  21.650   3.175  1.00  0.00     0.134 C 
HETATM   33 CL1  UNL     1       2.188  19.910   3.337  1.00  0.00    -0.129 Cl
ENDBRANCH  31  32
ENDBRANCH  25  31
ENDBRANCH   1  23
BRANCH  16  34
HETATM   34  C22 UNL     1      10.644  25.929   8.066  1.00  0.00     0.090 C 
BRANCH  34  35
HETATM   35  N4  UNL     1       9.527  26.189   8.877  1.00  0.00    -0.387 N 
HETATM   36  C23 UNL     1       8.369  25.393   8.729  1.00  0.00     0.148 C 
HETATM   37  C24 UNL     1       7.169  26.337   8.645  1.00  0.00     0.187 C 
HETATM   38  O2  UNL     1       7.458  27.368   7.755  1.00  0.00    -0.388 OA
HETATM   39  C25 UNL     1       8.436  28.214   8.219  1.00  0.00     0.187 C 
HETATM   40  C26 UNL     1       9.280  27.536   9.250  1.00  0.00     0.148 C 
ENDBRANCH  34  35
ENDBRANCH  16  34
TORSDOF 7
ENDMDL
MODEL 3
REMARK VINA RESULT: -7.080749225      6.105      9.324
REMARK  7 active torsions:
REMARK  status: ('A' for Active; 'I' for Inactive)
REMARK    1  A    between atoms: C2_2  and  C3_3 
REMARK    2  A    between atoms: C3_3  and  N1_4 
REMARK    3  A    between atoms: N1_4  and  C4_5 
REMARK       I    between atoms: N1_4  and  C6_8 
REMARK    4  A    between atoms: C4_5  and  C5_6 
REMARK       I    between atoms: C6_8  and  N2_10 
REMARK    5  A    between atoms: N2_10  and  C7_12 
REMARK    6  A    between atoms: C21_27  and  C22_28 
REMARK    7  A    between atoms: C22_28  and  N4_29 
ROOT
HETATM    1  C7  UNL     1      12.436  23.310   3.966  1.00  0.00     0.139 C 
HETATM    2  C8  UNL     1      13.283  24.298   4.800  1.00  0.00     0.299 C 
HETATM    3  N3  UNL     1      12.317  25.107   5.519  1.00  0.00     0.093 N 
HETATM    4  C9  UNL     1      12.891  25.597   6.761  1.00  0.00     0.310 C 
HETATM    5  C10 UNL     1      11.292  24.098   5.782  1.00  0.00     0.250 C 
HETATM    6  C11 UNL     1      10.183  24.578   6.606  1.00  0.00     0.065 C 
HETATM    7  C12 UNL     1      10.101  26.086   6.594  1.00  0.00    -0.028 C 
HETATM    8  C13 UNL     1       9.611  26.807   7.568  1.00  0.00    -0.031 C 
HETATM    9  C14 UNL     1       9.056  26.299   8.843  1.00  0.00     0.027 C 
HETATM   10  C15 UNL     1       7.635  26.840   9.056  1.00  0.00     0.004 C 
HETATM   11  C16 UNL     1       6.711  26.272   7.970  1.00  0.00     0.000 C 
HETATM   12  C17 UNL     1       6.177  27.344   7.083  1.00  0.00     0.000 C 
HETATM   13  C18 UNL     1       6.429  27.176   5.629  1.00  0.00     0.000 C 
HETATM   14  C19 UNL     1       6.185  25.811   5.069  1.00  0.00     0.003 C 
HETATM   15  C20 UNL     1       7.085  25.603   3.881  1.00  0.00     0.038 C 
HETATM   16  C21 UNL     1       7.303  24.146   3.531  1.00  0.00     0.171 C 
HETATM   17  O3  UNL     1       8.309  23.948   2.608  1.00  0.00    -0.293 OA
HETATM   18  C27 UNL     1       9.549  24.493   2.494  1.00  0.00     0.361 C 
HETATM   19  O4  UNL     1       9.848  24.933   1.308  1.00  0.00    -0.238 OA
HETATM   20  N5  UNL     1      10.533  24.633   3.498  1.00  0.00    -0.328 N 
ATOM     21  H5  UNL     1      10.950  25.558   3.599  1.00  0.00     0.165 HD
HETATM   22  C28 UNL     1      11.017  23.601   4.405  1.00  0.00     0.144 C 
ENDROOT
BRANCH   1  23
HETATM   23  N2  UNL     1      12.884  21.964   4.262  1.00  0.00    -0.335 N 
HETATM   24  C6  UNL     1      13.622  21.182   3.363  1.00  0.00     0.318 C 
HETATM   25  N1  UNL     1      14.110  19.875   3.545  1.00  0.00    -0.333 N 
HETATM   26  O1  UNL     1      13.875  21.740   2.236  1.00  0.00    -0.247 OA
ATOM     27  H2  UNL     1      12.650  21.565   5.171  1.00  0.00     0.164 HD
BRANCH  25  28
HETATM   28  C3  UNL     1      14.853  19.256   2.461  1.00  0.00     0.127 C 
BRANCH  28  29
HETATM   29  C2  UNL     1      15.522  17.973   2.799  1.00  0.00     0.015 C 
HETATM   30  C1  UNL     1      16.923  18.054   2.158  1.00  0.00     0.006 C 
ENDBRANCH  28  29
ENDBRANCH  25  28
BRANCH  25  31
HETATM   31  C4  UNL     1      13.965  19.095   4.754  1.00  0.00     0.142 C 
BRANCH  31  32
HETATM   32  C5  UNL     1      14.639  19.725   5.932  1.00  0.00     0.134 C 
HETATM   33 CL1  UNL     1      16.314  20.142   5.647  1.00  0.00    -0.129 Cl
ENDBRANCH  31  32
ENDBRANCH  25  31
ENDBRANCH   1  23
BRANCH  16  34
HETATM   34  C22 UNL     1       5.972  23.594   3.155  1.00  0.00     0.090 C 
BRANCH  34  35
HETATM   35  N4  UNL     1       5.004  24.481   2.658  1.00  0.00    -0.387 N 
HETATM   36  C23 UNL     1       3.781  24.624   3.353  1.00  0.00     0.148 C 
HETATM   37  C24 UNL     1       2.655  24.529   2.324  1.00  0.00     0.187 C 
HETATM   38  O2  UNL     1       2.889  23.442   1.485  1.00  0.00    -0.388 OA
HETATM   39  C25 UNL     1       3.983  23.622   0.673  1.00  0.00     0.187 C 
HETATM   40  C26 UNL     1       4.912  24.641   1.251  1.00  0.00     0.148 C 
ENDBRANCH  34  35
ENDBRANCH  16  34
TORSDOF 7
ENDMDL
MODEL 4
REMARK VINA RESULT: -6.884585406     10.783     15.195
REMARK  7 active torsions:
REMARK  status: ('A' for Active; 'I' for Inactive)
REMARK    1  A    between atoms: C2_2  and  C3_3 
REMARK    2  A    between atoms: C3_3  and  N1_4 
REMARK    3  A    between atoms: N1_4  and  C4_5 
REMARK       I    between atoms: N1_4  and  C6_8 
REMARK    4  A    between atoms: C4_5  and  C5_6 
REMARK       I    between atoms: C6_8  and  N2_10 
REMARK    5  A    between atoms: N2_10  and  C7_12 
REMARK    6  A    between atoms: C21_27  and  C22_28 
REMARK    7  A    between atoms: C22_28  and  N4_29 
ROOT
HETATM    1  C7  UNL     1       4.855  27.761   6.753  1.00  0.00     0.139 C 
HETATM    2  C8  UNL     1       5.852  27.519   7.910  1.00  0.00     0.299 C 
HETATM    3  N3  UNL     1       6.863  26.639   7.355  1.00  0.00     0.093 N 
HETATM    4  C9  UNL     1       8.132  26.832   8.037  1.00  0.00     0.310 C 
HETATM    5  C10 UNL     1       6.923  27.155   5.988  1.00  0.00     0.250 C 
HETATM    6  C11 UNL     1       7.954  26.529   5.161  1.00  0.00     0.065 C 
HETATM    7  C12 UNL     1       8.384  25.199   5.731  1.00  0.00    -0.028 C 
HETATM    8  C13 UNL     1       9.567  24.669   5.561  1.00  0.00    -0.031 C 
HETATM    9  C14 UNL     1      10.689  25.257   4.795  1.00  0.00     0.027 C 
HETATM   10  C15 UNL     1      11.186  24.264   3.734  1.00  0.00     0.004 C 
HETATM   11  C16 UNL     1      10.077  24.039   2.697  1.00  0.00     0.000 C 
HETATM   12  C17 UNL     1       9.593  22.630   2.704  1.00  0.00     0.000 C 
HETATM   13  C18 UNL     1       8.134  22.441   2.914  1.00  0.00     0.000 C 
HETATM   14  C19 UNL     1       7.232  23.341   2.131  1.00  0.00     0.003 C 
HETATM   15  C20 UNL     1       5.952  23.537   2.900  1.00  0.00     0.038 C 
HETATM   16  C21 UNL     1       5.180  24.772   2.488  1.00  0.00     0.171 C 
HETATM   17  O3  UNL     1       4.146  25.084   3.346  1.00  0.00    -0.293 OA
HETATM   18  C27 UNL     1       4.073  25.099   4.703  1.00  0.00     0.361 C 
HETATM   19  O4  UNL     1       3.041  24.490   5.205  1.00  0.00    -0.238 OA
HETATM   20  N5  UNL     1       4.975  25.692   5.615  1.00  0.00    -0.328 N 
ATOM     21  H5  UNL     1       5.296  25.104   6.383  1.00  0.00     0.165 HD
HETATM   22  C28 UNL     1       5.495  27.053   5.579  1.00  0.00     0.144 C 
ENDROOT
BRANCH   1  23
HETATM   23  N2  UNL     1       4.707  29.192   6.572  1.00  0.00    -0.335 N 
HETATM   24  C6  UNL     1       3.584  29.781   5.976  1.00  0.00     0.318 C 
HETATM   25  N1  UNL     1       3.333  31.147   5.756  1.00  0.00    -0.333 N 
HETATM   26  O1  UNL     1       2.679  28.959   5.586  1.00  0.00    -0.247 OA
ATOM     27  H2  UNL     1       5.458  29.801   6.895  1.00  0.00     0.164 HD
BRANCH  25  28
HETATM   28  C3  UNL     1       2.088  31.528   5.109  1.00  0.00     0.127 C 
BRANCH  28  29
HETATM   29  C2  UNL     1       2.236  32.289   3.841  1.00  0.00     0.015 C 
HETATM   30  C1  UNL     1       2.684  31.257   2.787  1.00  0.00     0.006 C 
ENDBRANCH  28  29
ENDBRANCH  25  28
BRANCH  25  31
HETATM   31  C4  UNL     1       4.205  32.228   6.158  1.00  0.00     0.142 C 
BRANCH  31  32
HETATM   32  C5  UNL     1       3.556  33.163   7.130  1.00  0.00     0.134 C 
HETATM   33 CL1  UNL     1       3.953  34.845   6.862  1.00  0.00    -0.129 Cl
ENDBRANCH  31  32
ENDBRANCH  25  31
ENDBRANCH   1  23
BRANCH  16  34
HETATM   34  C22 UNL     1       4.791  24.577   1.063  1.00  0.00     0.090 C 
BRANCH  34  35
HETATM   35  N4  UNL     1       3.423  24.533   0.751  1.00  0.00    -0.387 N 
HETATM   36  C23 UNL     1       2.861  23.320   0.290  1.00  0.00     0.148 C 
HETATM   37  C24 UNL     1       2.024  23.642  -0.948  1.00  0.00     0.187 C 
HETATM   38  O2  UNL     1       2.758  24.468  -1.796  1.00  0.00    -0.388 OA
HETATM   39  C25 UNL     1       2.962  25.723  -1.272  1.00  0.00     0.187 C 
HETATM   40  C26 UNL     1       2.828  25.705   0.217  1.00  0.00     0.148 C 
ENDBRANCH  34  35
ENDBRANCH  16  34
TORSDOF 7
ENDMDL
MODEL 5
REMARK VINA RESULT: -6.641814735      6.134      9.144
REMARK  7 active torsions:
REMARK  status: ('A' for Active; 'I' for Inactive)
REMARK    1  A    between atoms: C2_2  and  C3_3 
REMARK    2  A    between atoms: C3_3  and  N1_4 
REMARK    3  A    between atoms: N1_4  and  C4_5 
REMARK       I    between atoms: N1_4  and  C6_8 
REMARK    4  A    between atoms: C4_5  and  C5_6 
REMARK       I    between atoms: C6_8  and  N2_10 
REMARK    5  A    between atoms: N2_10  and  C7_12 
REMARK    6  A    between atoms: C21_27  and  C22_28 
REMARK    7  A    between atoms: C22_28  and  N4_29 
ROOT
HETATM    1  C7  UNL     1      12.464  23.262   3.910  1.00  0.00     0.139 C 
HETATM    2  C8  UNL     1      13.334  24.211   4.767  1.00  0.00     0.299 C 
HETATM    3  N3  UNL     1      12.388  25.010   5.520  1.00  0.00     0.093 N 
HETATM    4  C9  UNL     1      12.980  25.452   6.772  1.00  0.00     0.310 C 
HETATM    5  C10 UNL     1      11.349  24.009   5.761  1.00  0.00     0.250 C 
HETATM    6  C11 UNL     1      10.256  24.479   6.612  1.00  0.00     0.065 C 
HETATM    7  C12 UNL     1      10.197  25.987   6.648  1.00  0.00    -0.028 C 
HETATM    8  C13 UNL     1       9.728  26.684   7.650  1.00  0.00    -0.031 C 
HETATM    9  C14 UNL     1       9.177  26.145   8.913  1.00  0.00     0.027 C 
HETATM   10  C15 UNL     1       7.766  26.699   9.157  1.00  0.00     0.004 C 
HETATM   11  C16 UNL     1       6.824  26.180   8.063  1.00  0.00     0.000 C 
HETATM   12  C17 UNL     1       6.297  27.288   7.217  1.00  0.00     0.000 C 
HETATM   13  C18 UNL     1       6.532  27.163   5.755  1.00  0.00     0.000 C 
HETATM   14  C19 UNL     1       6.263  25.819   5.155  1.00  0.00     0.003 C 
HETATM   15  C20 UNL     1       7.148  25.636   3.952  1.00  0.00     0.038 C 
HETATM   16  C21 UNL     1       7.340  24.188   3.554  1.00  0.00     0.171 C 
HETATM   17  O3  UNL     1       8.335  24.005   2.615  1.00  0.00    -0.293 OA
HETATM   18  C27 UNL     1       9.582  24.534   2.505  1.00  0.00     0.361 C 
HETATM   19  O4  UNL     1       9.876  25.007   1.332  1.00  0.00    -0.238 OA
HETATM   20  N5  UNL     1      10.577  24.627   3.504  1.00  0.00    -0.328 N 
ATOM     21  H5  UNL     1      11.009  25.542   3.630  1.00  0.00     0.165 HD
HETATM   22  C28 UNL     1      11.054  23.560   4.372  1.00  0.00     0.144 C 
ENDROOT
BRANCH   1  23
HETATM   23  N2  UNL     1      12.894  21.901   4.159  1.00  0.00    -0.335 N 
HETATM   24  C6  UNL     1      14.238  21.530   4.295  1.00  0.00     0.318 C 
HETATM   25  N1  UNL     1      14.767  20.250   4.541  1.00  0.00    -0.333 N 
HETATM   26  O1  UNL     1      15.083  22.489   4.177  1.00  0.00    -0.247 OA
ATOM     27  H2  UNL     1      12.182  21.175   4.238  1.00  0.00     0.164 HD
BRANCH  25  28
HETATM   28  C3  UNL     1      16.209  20.103   4.639  1.00  0.00     0.127 C 
BRANCH  28  29
HETATM   29  C2  UNL     1      16.748  20.027   6.022  1.00  0.00     0.015 C 
HETATM   30  C1  UNL     1      18.219  19.587   5.871  1.00  0.00     0.006 C 
ENDBRANCH  28  29
ENDBRANCH  25  28
BRANCH  25  31
HETATM   31  C4  UNL     1      13.983  19.052   4.745  1.00  0.00     0.142 C 
BRANCH  31  32
HETATM   32  C5  UNL     1      14.546  17.863   4.032  1.00  0.00     0.134 C 
HETATM   33 CL1  UNL     1      14.974  18.180   2.365  1.00  0.00    -0.129 Cl
ENDBRANCH  31  32
ENDBRANCH  25  31
ENDBRANCH   1  23
BRANCH  16  34
HETATM   34  C22 UNL     1       5.998  23.668   3.174  1.00  0.00     0.090 C 
BRANCH  34  35
HETATM   35  N4  UNL     1       5.070  24.568   2.626  1.00  0.00    -0.387 N 
HETATM   36  C23 UNL     1       3.854  24.803   3.307  1.00  0.00     0.148 C 
HETATM   37  C24 UNL     1       2.726  24.701   2.281  1.00  0.00     0.187 C 
HETATM   38  O2  UNL     1       2.912  23.560   1.505  1.00  0.00    -0.388 OA
HETATM   39  C25 UNL     1       4.014  23.647   0.688  1.00  0.00     0.187 C 
HETATM   40  C26 UNL     1       4.987  24.654   1.212  1.00  0.00     0.148 C 
ENDBRANCH  34  35
ENDBRANCH  16  34
TORSDOF 7
ENDMDL
