MODEL 1
REMARK VINA RESULT: -9.795724687      0.000      0.000
REMARK  10 active torsions:
REMARK  status: ('A' for Active; 'I' for Inactive)
REMARK    1  A    between atoms: C2_2  and  C3_3 
REMARK    2  A    between atoms: C3_3  and  N1_4 
REMARK    3  A    between atoms: N1_4  and  C4_6 
REMARK    4  A    between atoms: C5_9  and  N3_10 
REMARK    5  A    between atoms: N3_10  and  C6_12 
REMARK    6  A    between atoms: C6_12  and  C7_13 
REMARK    7  A    between atoms: C13_21  and  N5_22 
REMARK    8  A    between atoms: N5_22  and  C14_24 
REMARK    9  A    between atoms: N6_27  and  C17_28 
REMARK   10  A    between atoms: C17_28  and  C18_29 
ROOT
HETATM    1  C4  UNL     1      10.824  25.471   8.234  1.00  0.00     0.707 A 
HETATM    2  N2  UNL     1      10.404  25.521   6.974  1.00  0.00    -0.022 N 
ATOM      3  H2  UNL     1       9.478  25.903   6.780  1.00  0.00     0.203 HD
HETATM    4  C5  UNL     1      11.151  25.085   5.945  1.00  0.00     0.707 A 
HETATM    5  N4  UNL     1      12.359  24.590   6.238  1.00  0.00    -0.022 N 
ATOM      6  H4  UNL     1      12.956  24.250   5.483  1.00  0.00     0.203 HD
HETATM    7  C13 UNL     1      12.812  24.530   7.530  1.00  0.00     0.707 A 
HETATM    8  N7  UNL     1      12.030  24.976   8.519  1.00  0.00    -0.021 N 
ATOM      9  H7  UNL     1      12.353  24.938   9.485  1.00  0.00     0.203 HD
ENDROOT
BRANCH   7  10
HETATM   10  N5  UNL     1      13.961  24.052   7.737  1.00  0.00    -0.220 N 
ATOM     11  H5  UNL     1      14.750  24.692   7.643  1.00  0.00     0.178 HD
BRANCH  10  12
HETATM   12  C14 UNL     1      14.263  22.708   8.086  1.00  0.00     0.102 C 
HETATM   13  C15 UNL     1      13.590  21.822   7.018  1.00  0.00     0.056 C 
HETATM   14  C16 UNL     1      14.451  21.930   5.798  1.00  0.00     0.275 C 
HETATM   15  N6  UNL     1      15.625  21.051   5.987  1.00  0.00     0.092 N 
HETATM   16  C24 UNL     1      15.998  21.137   7.412  1.00  0.00     0.275 C 
HETATM   17  C25 UNL     1      15.781  22.539   7.867  1.00  0.00     0.056 C 
BRANCH  15  18
HETATM   18  C17 UNL     1      15.211  19.682   5.695  1.00  0.00     0.312 C 
BRANCH  18  19
HETATM   19  C18 UNL     1      15.480  19.360   4.276  1.00  0.00    -0.013 A 
HETATM   20  C19 UNL     1      14.589  19.494   3.241  1.00  0.00     0.010 A 
HETATM   21  C20 UNL     1      14.875  19.134   1.930  1.00  0.00     0.001 A 
HETATM   22  C21 UNL     1      16.102  18.620   1.646  1.00  0.00     0.001 A 
HETATM   23  C22 UNL     1      17.017  18.475   2.667  1.00  0.00     0.019 A 
HETATM   24  C23 UNL     1      16.743  18.826   3.960  1.00  0.00     0.019 A 
HETATM   25 BR1  UNL     1      18.019  18.619   5.368  1.00  0.00    -0.051 Br
ENDBRANCH  18  19
ENDBRANCH  15  18
ENDBRANCH  10  12
ENDBRANCH   7  10
BRANCH   4  26
HETATM   26  N3  UNL     1      10.748  25.126   4.710  1.00  0.00    -0.225 N 
ATOM     27  H3  UNL     1      11.426  25.392   3.997  1.00  0.00     0.177 HD
BRANCH  26  28
HETATM   28  C6  UNL     1       9.421  24.823   4.287  1.00  0.00     0.142 C 
BRANCH  28  29
HETATM   29  C7  UNL     1       9.384  23.736   3.225  1.00  0.00     0.004 C 
HETATM   30  C8  UNL     1      10.687  22.977   3.175  1.00  0.00     0.006 C 
HETATM   31  C9  UNL     1      10.486  21.494   3.387  1.00  0.00     0.000 C 
HETATM   32  C10 UNL     1       9.492  21.030   2.343  1.00  0.00     0.000 C 
HETATM   33  C11 UNL     1       8.160  21.618   2.667  1.00  0.00     0.000 C 
HETATM   34  C12 UNL     1       8.204  22.866   3.490  1.00  0.00     0.006 C 
ENDBRANCH  28  29
ENDBRANCH  26  28
ENDBRANCH   4  26
BRANCH   1  35
HETATM   35  N1  UNL     1      10.022  25.921   9.165  1.00  0.00    -0.222 N 
ATOM     36  H1  UNL     1       9.919  25.376  10.021  1.00  0.00     0.178 HD
BRANCH  35  37
HETATM   37  C3  UNL     1       9.282  27.140   9.042  1.00  0.00     0.164 C 
BRANCH  37  38
HETATM   38  C2  UNL     1       7.819  26.921   9.103  1.00  0.00    -0.017 C 
HETATM   39  C1  UNL     1       7.139  26.588   8.011  1.00  0.00     0.008 C 
ENDBRANCH  37  38
ENDBRANCH  35  37
ENDBRANCH   1  35
TORSDOF 10
ENDMDL
MODEL 2
REMARK VINA RESULT: -9.738546175      1.114      1.489
REMARK  10 active torsions:
REMARK  status: ('A' for Active; 'I' for Inactive)
REMARK    1  A    between atoms: C2_2  and  C3_3 
REMARK    2  A    between atoms: C3_3  and  N1_4 
REMARK    3  A    between atoms: N1_4  and  C4_6 
REMARK    4  A    between atoms: C5_9  and  N3_10 
REMARK    5  A    between atoms: N3_10  and  C6_12 
REMARK    6  A    between atoms: C6_12  and  C7_13 
REMARK    7  A    between atoms: C13_21  and  N5_22 
REMARK    8  A    between atoms: N5_22  and  C14_24 
REMARK    9  A    between atoms: N6_27  and  C17_28 
REMARK   10  A    between atoms: C17_28  and  C18_29 
ROOT
HETATM    1  C4  UNL     1      11.370  25.236   8.292  1.00  0.00     0.707 A 
HETATM    2  N2  UNL     1      10.925  25.336   7.044  1.00  0.00    -0.022 N 
ATOM      3  H2  UNL     1      10.014  25.766   6.880  1.00  0.00     0.203 HD
HETATM    4  C5  UNL     1      11.627  24.891   5.988  1.00  0.00     0.707 A 
HETATM    5  N4  UNL     1      12.817  24.332   6.241  1.00  0.00    -0.022 N 
ATOM      6  H4  UNL     1      13.380  23.983   5.465  1.00  0.00     0.203 HD
HETATM    7  C13 UNL     1      13.295  24.219   7.521  1.00  0.00     0.707 A 
HETATM    8  N7  UNL     1      12.557  24.677   8.537  1.00  0.00    -0.021 N 
ATOM      9  H7  UNL     1      12.900  24.600   9.495  1.00  0.00     0.203 HD
ENDROOT
BRANCH   7  10
HETATM   10  N5  UNL     1      14.425  23.682   7.689  1.00  0.00    -0.220 N 
ATOM     11  H5  UNL     1      15.242  24.283   7.576  1.00  0.00     0.178 HD
BRANCH  10  12
HETATM   12  C14 UNL     1      14.669  22.323   8.020  1.00  0.00     0.102 C 
HETATM   13  C15 UNL     1      13.988  21.481   6.920  1.00  0.00     0.056 C 
HETATM   14  C16 UNL     1      14.881  21.579   5.721  1.00  0.00     0.275 C 
HETATM   15  N6  UNL     1      16.017  20.654   5.920  1.00  0.00     0.092 N 
HETATM   16  C24 UNL     1      16.360  20.700   7.354  1.00  0.00     0.275 C 
HETATM   17  C25 UNL     1      16.184  22.101   7.831  1.00  0.00     0.056 C 
BRANCH  15  18
HETATM   18  C17 UNL     1      15.560  19.307   5.593  1.00  0.00     0.312 C 
BRANCH  18  19
HETATM   19  C18 UNL     1      16.397  18.733   4.515  1.00  0.00    -0.013 A 
HETATM   20  C19 UNL     1      17.605  18.106   4.686  1.00  0.00     0.010 A 
HETATM   21  C20 UNL     1      18.376  17.624   3.636  1.00  0.00     0.001 A 
HETATM   22  C21 UNL     1      17.917  17.778   2.365  1.00  0.00     0.001 A 
HETATM   23  C22 UNL     1      16.705  18.405   2.164  1.00  0.00     0.019 A 
HETATM   24  C23 UNL     1      15.941  18.882   3.192  1.00  0.00     0.019 A 
HETATM   25 BR1  UNL     1      14.263  19.750   2.902  1.00  0.00    -0.051 Br
ENDBRANCH  18  19
ENDBRANCH  15  18
ENDBRANCH  10  12
ENDBRANCH   7  10
BRANCH   4  26
HETATM   26  N3  UNL     1      11.199  24.981   4.764  1.00  0.00    -0.225 N 
ATOM     27  H3  UNL     1      11.885  25.168   4.033  1.00  0.00     0.177 HD
BRANCH  26  28
HETATM   28  C6  UNL     1       9.836  24.835   4.377  1.00  0.00     0.142 C 
BRANCH  28  29
HETATM   29  C7  UNL     1       9.647  23.775   3.303  1.00  0.00     0.004 C 
HETATM   30  C8  UNL     1      10.857  22.880   3.201  1.00  0.00     0.006 C 
HETATM   31  C9  UNL     1      10.502  21.424   3.401  1.00  0.00     0.000 C 
HETATM   32  C10 UNL     1       9.431  21.089   2.384  1.00  0.00     0.000 C 
HETATM   33  C11 UNL     1       8.182  21.812   2.758  1.00  0.00     0.000 C 
HETATM   34  C12 UNL     1       8.387  23.035   3.594  1.00  0.00     0.006 C 
ENDBRANCH  28  29
ENDBRANCH  26  28
ENDBRANCH   4  26
BRANCH   1  35
HETATM   35  N1  UNL     1      10.611  25.699   9.252  1.00  0.00    -0.222 N 
ATOM     36  H1  UNL     1      10.983  26.437   9.851  1.00  0.00     0.178 HD
BRANCH  35  37
HETATM   37  C3  UNL     1       9.285  25.223   9.504  1.00  0.00     0.164 C 
BRANCH  37  38
HETATM   38  C2  UNL     1       8.248  26.193   9.084  1.00  0.00    -0.017 C 
HETATM   39  C1  UNL     1       8.555  27.472   8.896  1.00  0.00     0.008 C 
ENDBRANCH  37  38
ENDBRANCH  35  37
ENDBRANCH   1  35
TORSDOF 10
ENDMDL
MODEL 3
REMARK VINA RESULT: -9.665765625      2.257      5.139
REMARK  10 active torsions:
REMARK  status: ('A' for Active; 'I' for Inactive)
REMARK    1  A    between atoms: C2_2  and  C3_3 
REMARK    2  A    between atoms: C3_3  and  N1_4 
REMARK    3  A    between atoms: N1_4  and  C4_6 
REMARK    4  A    between atoms: C5_9  and  N3_10 
REMARK    5  A    between atoms: N3_10  and  C6_12 
REMARK    6  A    between atoms: C6_12  and  C7_13 
REMARK    7  A    between atoms: C13_21  and  N5_22 
REMARK    8  A    between atoms: N5_22  and  C14_24 
REMARK    9  A    between atoms: N6_27  and  C17_28 
REMARK   10  A    between atoms: C17_28  and  C18_29 
ROOT
HETATM    1  C4  UNL     1       7.195  24.869   4.106  1.00  0.00     0.707 A 
HETATM    2  N2  UNL     1       7.031  25.811   5.030  1.00  0.00    -0.022 N 
ATOM      3  H2  UNL     1       6.086  26.132   5.241  1.00  0.00     0.203 HD
HETATM    4  C5  UNL     1       8.063  26.358   5.695  1.00  0.00     0.707 A 
HETATM    5  N4  UNL     1       9.287  25.912   5.391  1.00  0.00    -0.022 N 
ATOM      6  H4  UNL     1      10.096  26.303   5.876  1.00  0.00     0.203 HD
HETATM    7  C13 UNL     1       9.479  24.940   4.442  1.00  0.00     0.707 A 
HETATM    8  N7  UNL     1       8.419  24.429   3.808  1.00  0.00    -0.021 N 
ATOM      9  H7  UNL     1       8.546  23.706   3.100  1.00  0.00     0.203 HD
ENDROOT
BRANCH   7  10
HETATM   10  N5  UNL     1      10.660  24.566   4.204  1.00  0.00    -0.220 N 
ATOM     11  H5  UNL     1      11.025  24.759   3.272  1.00  0.00     0.178 HD
BRANCH  10  12
HETATM   12  C14 UNL     1      11.530  23.900   5.108  1.00  0.00     0.102 C 
HETATM   13  C15 UNL     1      11.318  22.389   4.879  1.00  0.00     0.056 C 
HETATM   14  C16 UNL     1      12.037  22.066   3.605  1.00  0.00     0.275 C 
HETATM   15  N6  UNL     1      13.480  21.959   3.908  1.00  0.00     0.092 N 
HETATM   16  C24 UNL     1      13.781  22.987   4.923  1.00  0.00     0.275 C 
HETATM   17  C25 UNL     1      12.963  24.196   4.620  1.00  0.00     0.056 C 
BRANCH  15  18
HETATM   18  C17 UNL     1      13.719  20.643   4.492  1.00  0.00     0.312 C 
BRANCH  18  19
HETATM   19  C18 UNL     1      14.751  19.921   3.715  1.00  0.00    -0.013 A 
HETATM   20  C19 UNL     1      14.633  19.514   2.410  1.00  0.00     0.010 A 
HETATM   21  C20 UNL     1      15.615  18.797   1.737  1.00  0.00     0.001 A 
HETATM   22  C21 UNL     1      16.758  18.476   2.400  1.00  0.00     0.001 A 
HETATM   23  C22 UNL     1      16.903  18.871   3.713  1.00  0.00     0.019 A 
HETATM   24  C23 UNL     1      15.942  19.577   4.382  1.00  0.00     0.019 A 
HETATM   25 BR1  UNL     1      16.153  20.120   6.203  1.00  0.00    -0.051 Br
ENDBRANCH  18  19
ENDBRANCH  15  18
ENDBRANCH  10  12
ENDBRANCH   7  10
BRANCH   4  26
HETATM   26  N3  UNL     1       7.914  27.281   6.597  1.00  0.00    -0.225 N 
ATOM     27  H3  UNL     1       8.239  28.222   6.373  1.00  0.00     0.177 HD
BRANCH  26  28
HETATM   28  C6  UNL     1       7.326  27.067   7.877  1.00  0.00     0.142 C 
BRANCH  28  29
HETATM   29  C7  UNL     1       8.334  26.580   8.906  1.00  0.00     0.004 C 
HETATM   30  C8  UNL     1       8.415  25.074   8.920  1.00  0.00     0.006 C 
HETATM   31  C9  UNL     1       9.821  24.580   8.664  1.00  0.00     0.000 C 
HETATM   32  C10 UNL     1      10.711  25.230   9.702  1.00  0.00     0.000 C 
HETATM   33  C11 UNL     1      10.790  26.689   9.409  1.00  0.00     0.000 C 
HETATM   34  C12 UNL     1       9.641  27.239   8.626  1.00  0.00     0.006 C 
ENDBRANCH  28  29
ENDBRANCH  26  28
ENDBRANCH   4  26
BRANCH   1  35
HETATM   35  N1  UNL     1       6.127  24.399   3.514  1.00  0.00    -0.222 N 
ATOM     36  H1  UNL     1       5.220  24.793   3.765  1.00  0.00     0.178 HD
BRANCH  35  37
HETATM   37  C3  UNL     1       6.167  23.358   2.531  1.00  0.00     0.164 C 
BRANCH  37  38
HETATM   38  C2  UNL     1       5.969  23.872   1.157  1.00  0.00    -0.017 C 
HETATM   39  C1  UNL     1       4.832  23.644   0.508  1.00  0.00     0.008 C 
ENDBRANCH  37  38
ENDBRANCH  35  37
ENDBRANCH   1  35
TORSDOF 10
ENDMDL
MODEL 4
REMARK VINA RESULT: -9.651133564      2.334      5.063
REMARK  10 active torsions:
REMARK  status: ('A' for Active; 'I' for Inactive)
REMARK    1  A    between atoms: C2_2  and  C3_3 
REMARK    2  A    between atoms: C3_3  and  N1_4 
REMARK    3  A    between atoms: N1_4  and  C4_6 
REMARK    4  A    between atoms: C5_9  and  N3_10 
REMARK    5  A    between atoms: N3_10  and  C6_12 
REMARK    6  A    between atoms: C6_12  and  C7_13 
REMARK    7  A    between atoms: C13_21  and  N5_22 
REMARK    8  A    between atoms: N5_22  and  C14_24 
REMARK    9  A    between atoms: N6_27  and  C17_28 
REMARK   10  A    between atoms: C17_28  and  C18_29 
ROOT
HETATM    1  C4  UNL     1       7.067  24.588   3.800  1.00  0.00     0.707 A 
HETATM    2  N2  UNL     1       6.836  25.586   4.648  1.00  0.00    -0.022 N 
ATOM      3  H2  UNL     1       5.873  25.881   4.806  1.00  0.00     0.203 HD
HETATM    4  C5  UNL     1       7.822  26.220   5.304  1.00  0.00     0.707 A 
HETATM    5  N4  UNL     1       9.073  25.805   5.071  1.00  0.00    -0.022 N 
ATOM      6  H4  UNL     1       9.849  26.261   5.551  1.00  0.00     0.203 HD
HETATM    7  C13 UNL     1       9.334  24.777   4.201  1.00  0.00     0.707 A 
HETATM    8  N7  UNL     1       8.317  24.179   3.572  1.00  0.00    -0.021 N 
ATOM      9  H7  UNL     1       8.496  23.414   2.922  1.00  0.00     0.203 HD
ENDROOT
BRANCH   7  10
HETATM   10  N5  UNL     1      10.536  24.436   4.027  1.00  0.00    -0.220 N 
ATOM     11  H5  UNL     1      10.938  24.616   3.106  1.00  0.00     0.178 HD
BRANCH  10  12
HETATM   12  C14 UNL     1      11.385  23.824   4.988  1.00  0.00     0.102 C 
HETATM   13  C15 UNL     1      11.268  22.302   4.760  1.00  0.00     0.056 C 
HETATM   14  C16 UNL     1      12.078  22.010   3.535  1.00  0.00     0.275 C 
HETATM   15  N6  UNL     1      13.504  21.983   3.925  1.00  0.00     0.092 N 
HETATM   16  C24 UNL     1      13.688  23.032   4.946  1.00  0.00     0.275 C 
HETATM   17  C25 UNL     1      12.827  24.193   4.583  1.00  0.00     0.056 C 
BRANCH  15  18
HETATM   18  C17 UNL     1      13.777  20.685   4.535  1.00  0.00     0.312 C 
BRANCH  18  19
HETATM   19  C18 UNL     1      14.779  19.947   3.734  1.00  0.00    -0.013 A 
HETATM   20  C19 UNL     1      14.628  19.552   2.428  1.00  0.00     0.010 A 
HETATM   21  C20 UNL     1      15.581  18.819   1.732  1.00  0.00     0.001 A 
HETATM   22  C21 UNL     1      16.729  18.468   2.371  1.00  0.00     0.001 A 
HETATM   23  C22 UNL     1      16.907  18.852   3.683  1.00  0.00     0.019 A 
HETATM   24  C23 UNL     1      15.974  19.573   4.375  1.00  0.00     0.019 A 
HETATM   25 BR1  UNL     1      16.231  20.099   6.195  1.00  0.00    -0.051 Br
ENDBRANCH  18  19
ENDBRANCH  15  18
ENDBRANCH  10  12
ENDBRANCH   7  10
BRANCH   4  26
HETATM   26  N3  UNL     1       7.607  27.198   6.132  1.00  0.00    -0.225 N 
ATOM     27  H3  UNL     1       7.952  28.123   5.876  1.00  0.00     0.177 HD
BRANCH  26  28
HETATM   28  C6  UNL     1       6.921  27.063   7.373  1.00  0.00     0.142 C 
BRANCH  28  29
HETATM   29  C7  UNL     1       7.842  26.628   8.503  1.00  0.00     0.004 C 
HETATM   30  C8  UNL     1       7.824  25.130   8.675  1.00  0.00     0.006 C 
HETATM   31  C9  UNL     1       9.206  24.530   8.552  1.00  0.00     0.000 C 
HETATM   32  C10 UNL     1      10.083  25.232   9.568  1.00  0.00     0.000 C 
HETATM   33  C11 UNL     1      10.271  26.645   9.133  1.00  0.00     0.000 C 
HETATM   34  C12 UNL     1       9.201  27.176   8.232  1.00  0.00     0.006 C 
ENDBRANCH  28  29
ENDBRANCH  26  28
ENDBRANCH   4  26
BRANCH   1  35
HETATM   35  N1  UNL     1       6.039  24.034   3.210  1.00  0.00    -0.222 N 
ATOM     36  H1  UNL     1       5.482  24.602   2.572  1.00  0.00     0.178 HD
BRANCH  35  37
HETATM   37  C3  UNL     1       5.657  22.670   3.416  1.00  0.00     0.164 C 
BRANCH  37  38
HETATM   38  C2  UNL     1       4.204  22.521   3.663  1.00  0.00    -0.017 C 
HETATM   39  C1  UNL     1       3.716  21.391   4.162  1.00  0.00     0.008 C 
ENDBRANCH  37  38
ENDBRANCH  35  37
ENDBRANCH   1  35
TORSDOF 10
ENDMDL
MODEL 5
REMARK VINA RESULT: -9.620650942      0.656      1.105
REMARK  10 active torsions:
REMARK  status: ('A' for Active; 'I' for Inactive)
REMARK    1  A    between atoms: C2_2  and  C3_3 
REMARK    2  A    between atoms: C3_3  and  N1_4 
REMARK    3  A    between atoms: N1_4  and  C4_6 
REMARK    4  A    between atoms: C5_9  and  N3_10 
REMARK    5  A    between atoms: N3_10  and  C6_12 
REMARK    6  A    between atoms: C6_12  and  C7_13 
REMARK    7  A    between atoms: C13_21  and  N5_22 
REMARK    8  A    between atoms: N5_22  and  C14_24 
REMARK    9  A    between atoms: N6_27  and  C17_28 
REMARK   10  A    between atoms: C17_28  and  C18_29 
ROOT
HETATM    1  C4  UNL     1      11.095  25.288   8.362  1.00  0.00     0.707 A 
HETATM    2  N2  UNL     1      10.718  25.400   7.092  1.00  0.00    -0.022 N 
ATOM      3  H2  UNL     1       9.801  25.796   6.885  1.00  0.00     0.203 HD
HETATM    4  C5  UNL     1      11.499  25.011   6.070  1.00  0.00     0.707 A 
HETATM    5  N4  UNL     1      12.695  24.496   6.380  1.00  0.00    -0.022 N 
ATOM      6  H4  UNL     1      13.317  24.190   5.631  1.00  0.00     0.203 HD
HETATM    7  C13 UNL     1      13.103  24.372   7.683  1.00  0.00     0.707 A 
HETATM    8  N7  UNL     1      12.288  24.773   8.664  1.00  0.00    -0.021 N 
ATOM      9  H7  UNL     1      12.578  24.687   9.638  1.00  0.00     0.203 HD
ENDROOT
BRANCH   7  10
HETATM   10  N5  UNL     1      14.243  23.878   7.905  1.00  0.00    -0.220 N 
ATOM     11  H5  UNL     1      15.037  24.518   7.869  1.00  0.00     0.178 HD
BRANCH  10  12
HETATM   12  C14 UNL     1      14.528  22.518   8.201  1.00  0.00     0.102 C 
HETATM   13  C15 UNL     1      13.805  21.682   7.125  1.00  0.00     0.056 C 
HETATM   14  C16 UNL     1      14.630  21.814   5.883  1.00  0.00     0.275 C 
HETATM   15  N6  UNL     1      15.792  20.907   6.006  1.00  0.00     0.092 N 
HETATM   16  C24 UNL     1      16.209  20.937   7.421  1.00  0.00     0.275 C 
HETATM   17  C25 UNL     1      16.034  22.327   7.929  1.00  0.00     0.056 C 
BRANCH  15  18
HETATM   18  C17 UNL     1      15.342  19.557   5.681  1.00  0.00     0.312 C 
BRANCH  18  19
HETATM   19  C18 UNL     1      15.586  19.269   4.251  1.00  0.00    -0.013 A 
HETATM   20  C19 UNL     1      14.686  19.453   3.231  1.00  0.00     0.010 A 
HETATM   21  C20 UNL     1      14.947  19.124   1.907  1.00  0.00     0.001 A 
HETATM   22  C21 UNL     1      16.157  18.588   1.594  1.00  0.00     0.001 A 
HETATM   23  C22 UNL     1      17.081  18.392   2.599  1.00  0.00     0.019 A 
HETATM   24  C23 UNL     1      16.832  18.713   3.904  1.00  0.00     0.019 A 
HETATM   25 BR1  UNL     1      18.119  18.436   5.290  1.00  0.00    -0.051 Br
ENDBRANCH  18  19
ENDBRANCH  15  18
ENDBRANCH  10  12
ENDBRANCH   7  10
BRANCH   4  26
HETATM   26  N3  UNL     1      11.140  25.113   4.825  1.00  0.00    -0.225 N 
ATOM     27  H3  UNL     1      10.821  26.024   4.495  1.00  0.00     0.177 HD
BRANCH  26  28
HETATM   28  C6  UNL     1      11.162  24.038   3.891  1.00  0.00     0.142 C 
BRANCH  28  29
HETATM   29  C7  UNL     1       9.905  23.185   3.957  1.00  0.00     0.004 C 
HETATM   30  C8  UNL     1       8.663  24.037   3.877  1.00  0.00     0.006 C 
HETATM   31  C9  UNL     1       7.770  23.629   2.727  1.00  0.00     0.000 C 
HETATM   32  C10 UNL     1       7.466  22.156   2.907  1.00  0.00     0.000 C 
HETATM   33  C11 UNL     1       8.720  21.384   2.673  1.00  0.00     0.000 C 
HETATM   34  C12 UNL     1       9.985  22.154   2.884  1.00  0.00     0.006 C 
ENDBRANCH  28  29
ENDBRANCH  26  28
ENDBRANCH   4  26
BRANCH   1  35
HETATM   35  N1  UNL     1      10.262  25.696   9.286  1.00  0.00    -0.222 N 
ATOM     36  H1  UNL     1      10.646  26.086  10.146  1.00  0.00     0.178 HD
BRANCH  35  37
HETATM   37  C3  UNL     1       8.839  25.621   9.148  1.00  0.00     0.164 C 
BRANCH  37  38
HETATM   38  C2  UNL     1       8.208  26.958   9.078  1.00  0.00    -0.017 C 
HETATM   39  C1  UNL     1       8.330  27.707   7.986  1.00  0.00     0.008 C 
ENDBRANCH  37  38
ENDBRANCH  35  37
ENDBRANCH   1  35
TORSDOF 10
ENDMDL
