MODEL 1
REMARK VINA RESULT: -10.758242575      0.000      0.000
REMARK  7 active torsions:
REMARK  status: ('A' for Active; 'I' for Inactive)
REMARK    1  A    between atoms: C5_6  and  C6_7 
REMARK    2  A    between atoms: C8_9  and  C9_10 
REMARK       I    between atoms: N1_15  and  C14_17 
REMARK    3  A    between atoms: C14_17  and  C15_19 
REMARK    4  A    between atoms: C19_25  and  S1_26 
REMARK    5  A    between atoms: S1_26  and  N3_29 
REMARK    6  A    between atoms: N3_29  and  C20_31 
REMARK    7  A    between atoms: C24_35  and  C25_36 
ROOT
HETATM    1  C1  UNL     1       9.722  23.202   4.357  1.00  0.00     0.052 C 
HETATM    2  C2  UNL     1      11.029  22.573   4.453  1.00  0.00    -0.017 A 
HETATM    3  C3  UNL     1      11.249  21.411   3.692  1.00  0.00     0.042 A 
HETATM    4 CL1  UNL     1       9.938  20.876   2.643  1.00  0.00    -0.084 Cl
HETATM    5  C4  UNL     1      12.435  20.722   3.764  1.00  0.00     0.038 A 
HETATM    6  C5  UNL     1      13.459  21.130   4.576  1.00  0.00    -0.006 A 
HETATM    7  C18 UNL     1      13.249  22.259   5.315  1.00  0.00     0.039 A 
HETATM    8  C19 UNL     1      12.034  23.000   5.266  1.00  0.00     0.087 A 
ENDROOT
BRANCH   6   9
HETATM    9  C6  UNL     1      14.733  20.416   4.674  1.00  0.00     0.044 A 
HETATM   10  C7  UNL     1      15.379  19.869   3.592  1.00  0.00     0.038 A 
HETATM   11  C8  UNL     1      16.585  19.188   3.661  1.00  0.00    -0.048 A 
HETATM   12  C12 UNL     1      17.163  19.059   4.904  1.00  0.00     0.056 A 
HETATM   13  C13 UNL     1      16.531  19.601   5.999  1.00  0.00     0.108 A 
HETATM   14  N1  UNL     1      17.087  19.470   7.156  1.00  0.00    -0.313 N 
HETATM   15  N2  UNL     1      15.334  20.265   5.865  1.00  0.00    -0.342 N 
HETATM   16  C14 UNL     1      16.567  19.965   8.361  1.00  0.00     0.227 C 
ATOM     17  H1  UNL     1      17.973  18.967   7.198  1.00  0.00     0.170 HD
HETATM   18  O1  UNL     1      15.828  19.248   9.113  1.00  0.00    -0.273 OA
ATOM     19  H2  UNL     1      14.889  20.656   6.696  1.00  0.00     0.167 HD
BRANCH  11  20
HETATM   20  C9  UNL     1      17.224  18.621   2.436  1.00  0.00     0.019 A 
HETATM   21  C10 UNL     1      17.971  17.345   2.514  1.00  0.00     0.010 A 
HETATM   22  C11 UNL     1      16.610  17.339   1.869  1.00  0.00     0.010 A 
ENDBRANCH  11  20
BRANCH  16  23
HETATM   23  C15 UNL     1      16.827  21.354   8.869  1.00  0.00     0.078 A 
HETATM   24  C16 UNL     1      15.763  21.989   9.731  1.00  0.00     0.015 A 
HETATM   25  C17 UNL     1      16.070  22.499   8.339  1.00  0.00     0.015 A 
ENDBRANCH  16  23
ENDBRANCH   6   9
BRANCH   8  26
HETATM   26  S1  UNL     1      11.916  24.464   6.197  1.00  0.00     0.259 S 
HETATM   27  O2  UNL     1      12.752  24.289   7.444  1.00  0.00    -0.201 OA
HETATM   28  O3  UNL     1      12.730  25.530   5.423  1.00  0.00    -0.201 OA
BRANCH  26  29
HETATM   29  N3  UNL     1      10.414  25.098   6.433  1.00  0.00    -0.310 N 
ATOM     30  H3  UNL     1      10.006  25.561   5.620  1.00  0.00     0.172 HD
BRANCH  29  31
HETATM   31  C20 UNL     1       9.630  25.098   7.556  1.00  0.00     0.105 C 
HETATM   32  C21 UNL     1      10.084  25.974   8.707  1.00  0.00     0.027 C 
HETATM   33  C22 UNL     1       8.814  26.166   9.504  1.00  0.00     0.003 C 
HETATM   34  C23 UNL     1       7.644  25.987   8.591  1.00  0.00     0.016 C 
HETATM   35  C24 UNL     1       8.265  25.752   7.222  1.00  0.00     0.098 C 
BRANCH  35  36
HETATM   36  C25 UNL     1       8.372  27.054   6.579  1.00  0.00     0.237 C 
HETATM   37  N4  UNL     1       8.627  27.078   5.186  1.00  0.00    -0.062 NA
HETATM   38  O4  UNL     1       8.255  28.148   7.162  1.00  0.00    -0.276 OA
ENDBRANCH  35  36
ENDBRANCH  29  31
ENDBRANCH  26  29
ENDBRANCH   8  26
TORSDOF 7
ENDMDL
MODEL 2
REMARK VINA RESULT: -10.458122436      1.108      1.651
REMARK  7 active torsions:
REMARK  status: ('A' for Active; 'I' for Inactive)
REMARK    1  A    between atoms: C5_6  and  C6_7 
REMARK    2  A    between atoms: C8_9  and  C9_10 
REMARK       I    between atoms: N1_15  and  C14_17 
REMARK    3  A    between atoms: C14_17  and  C15_19 
REMARK    4  A    between atoms: C19_25  and  S1_26 
REMARK    5  A    between atoms: S1_26  and  N3_29 
REMARK    6  A    between atoms: N3_29  and  C20_31 
REMARK    7  A    between atoms: C24_35  and  C25_36 
ROOT
HETATM    1  C1  UNL     1       9.668  22.994   4.405  1.00  0.00     0.052 C 
HETATM    2  C2  UNL     1      10.990  22.399   4.504  1.00  0.00    -0.017 A 
HETATM    3  C3  UNL     1      11.276  21.305   3.667  1.00  0.00     0.042 A 
HETATM    4 CL1  UNL     1      10.022  20.814   2.530  1.00  0.00    -0.084 Cl
HETATM    5  C4  UNL     1      12.480  20.648   3.733  1.00  0.00     0.038 A 
HETATM    6  C5  UNL     1      13.459  21.024   4.612  1.00  0.00    -0.006 A 
HETATM    7  C18 UNL     1      13.186  22.086   5.425  1.00  0.00     0.039 A 
HETATM    8  C19 UNL     1      11.950  22.792   5.385  1.00  0.00     0.087 A 
ENDROOT
BRANCH   6   9
HETATM    9  C6  UNL     1      14.751  20.342   4.705  1.00  0.00     0.044 A 
HETATM   10  C7  UNL     1      15.406  19.808   3.622  1.00  0.00     0.038 A 
HETATM   11  C8  UNL     1      16.629  19.159   3.687  1.00  0.00    -0.048 A 
HETATM   12  C12 UNL     1      17.216  19.048   4.927  1.00  0.00     0.056 A 
HETATM   13  C13 UNL     1      16.576  19.576   6.024  1.00  0.00     0.108 A 
HETATM   14  N1  UNL     1      17.141  19.463   7.178  1.00  0.00    -0.313 N 
HETATM   15  N2  UNL     1      15.362  20.210   5.894  1.00  0.00    -0.342 N 
HETATM   16  C14 UNL     1      16.615  19.948   8.384  1.00  0.00     0.227 C 
ATOM     17  H1  UNL     1      18.040  18.982   7.217  1.00  0.00     0.170 HD
HETATM   18  O1  UNL     1      15.899  19.214   9.142  1.00  0.00    -0.273 OA
ATOM     19  H2  UNL     1      14.911  20.591   6.726  1.00  0.00     0.167 HD
BRANCH  11  20
HETATM   20  C9  UNL     1      17.276  18.605   2.459  1.00  0.00     0.019 A 
HETATM   21  C10 UNL     1      17.923  17.274   2.501  1.00  0.00     0.010 A 
HETATM   22  C11 UNL     1      16.595  17.401   1.805  1.00  0.00     0.010 A 
ENDBRANCH  11  20
BRANCH  16  23
HETATM   23  C15 UNL     1      16.842  21.344   8.887  1.00  0.00     0.078 A 
HETATM   24  C16 UNL     1      15.773  21.950   9.765  1.00  0.00     0.015 A 
HETATM   25  C17 UNL     1      16.044  22.466   8.368  1.00  0.00     0.015 A 
ENDBRANCH  16  23
ENDBRANCH   6   9
BRANCH   8  26
HETATM   26  S1  UNL     1      11.750  24.177   6.418  1.00  0.00     0.259 S 
HETATM   27  O2  UNL     1      12.846  24.139   7.460  1.00  0.00    -0.201 OA
HETATM   28  O3  UNL     1      12.167  25.405   5.572  1.00  0.00    -0.201 OA
BRANCH  26  29
HETATM   29  N3  UNL     1      10.238  24.489   6.990  1.00  0.00    -0.310 N 
ATOM     30  H3  UNL     1       9.674  23.665   7.199  1.00  0.00     0.172 HD
BRANCH  29  31
HETATM   31  C20 UNL     1       9.622  25.690   7.227  1.00  0.00     0.105 C 
HETATM   32  C21 UNL     1       8.173  25.641   7.668  1.00  0.00     0.027 C 
HETATM   33  C22 UNL     1       7.978  26.984   8.333  1.00  0.00     0.003 C 
HETATM   34  C23 UNL     1       9.306  27.479   8.810  1.00  0.00     0.016 C 
HETATM   35  C24 UNL     1      10.273  26.357   8.466  1.00  0.00     0.098 C 
BRANCH  35  36
HETATM   36  C25 UNL     1      10.348  25.492   9.636  1.00  0.00     0.237 C 
HETATM   37  N4  UNL     1      11.566  25.470  10.357  1.00  0.00    -0.062 NA
HETATM   38  O4  UNL     1       9.420  24.771  10.048  1.00  0.00    -0.276 OA
ENDBRANCH  35  36
ENDBRANCH  29  31
ENDBRANCH  26  29
ENDBRANCH   8  26
TORSDOF 7
ENDMDL
MODEL 3
REMARK VINA RESULT: -10.034899187      1.217      1.498
REMARK  7 active torsions:
REMARK  status: ('A' for Active; 'I' for Inactive)
REMARK    1  A    between atoms: C5_6  and  C6_7 
REMARK    2  A    between atoms: C8_9  and  C9_10 
REMARK       I    between atoms: N1_15  and  C14_17 
REMARK    3  A    between atoms: C14_17  and  C15_19 
REMARK    4  A    between atoms: C19_25  and  S1_26 
REMARK    5  A    between atoms: S1_26  and  N3_29 
REMARK    6  A    between atoms: N3_29  and  C20_31 
REMARK    7  A    between atoms: C24_35  and  C25_36 
ROOT
HETATM    1  C1  UNL     1       8.968  22.941   3.730  1.00  0.00     0.052 C 
HETATM    2  C2  UNL     1      10.311  22.416   3.915  1.00  0.00    -0.017 A 
HETATM    3  C3  UNL     1      10.651  21.239   3.224  1.00  0.00     0.042 A 
HETATM    4 CL1  UNL     1       9.433  20.560   2.146  1.00  0.00    -0.084 Cl
HETATM    5  C4  UNL     1      11.879  20.645   3.383  1.00  0.00     0.038 A 
HETATM    6  C5  UNL     1      12.830  21.166   4.217  1.00  0.00    -0.006 A 
HETATM    7  C18 UNL     1      12.504  22.310   4.888  1.00  0.00     0.039 A 
HETATM    8  C19 UNL     1      11.242  22.954   4.749  1.00  0.00     0.087 A 
ENDROOT
BRANCH   6   9
HETATM    9  C6  UNL     1      14.146  20.554   4.406  1.00  0.00     0.044 A 
HETATM   10  C7  UNL     1      14.877  19.998   3.385  1.00  0.00     0.038 A 
HETATM   11  C8  UNL     1      16.124  19.413   3.541  1.00  0.00    -0.048 A 
HETATM   12  C12 UNL     1      16.655  19.395   4.811  1.00  0.00     0.056 A 
HETATM   13  C13 UNL     1      15.938  19.948   5.847  1.00  0.00     0.108 A 
HETATM   14  N1  UNL     1      16.451  19.922   7.031  1.00  0.00    -0.313 N 
HETATM   15  N2  UNL     1      14.704  20.514   5.627  1.00  0.00    -0.342 N 
HETATM   16  C14 UNL     1      15.845  20.442   8.183  1.00  0.00     0.227 C 
ATOM     17  H1  UNL     1      17.368  19.488   7.137  1.00  0.00     0.170 HD
HETATM   18  O1  UNL     1      15.127  19.715   8.945  1.00  0.00    -0.273 OA
ATOM     19  H2  UNL     1      14.196  20.915   6.416  1.00  0.00     0.167 HD
BRANCH  11  20
HETATM   20  C9  UNL     1      16.855  18.829   2.376  1.00  0.00     0.019 A 
HETATM   21  C10 UNL     1      17.837  17.742   2.589  1.00  0.00     0.010 A 
HETATM   22  C11 UNL     1      16.501  17.391   1.992  1.00  0.00     0.010 A 
ENDBRANCH  11  20
BRANCH  16  23
HETATM   23  C15 UNL     1      15.982  21.872   8.620  1.00  0.00     0.078 A 
HETATM   24  C16 UNL     1      14.858  22.817   8.269  1.00  0.00     0.015 A 
HETATM   25  C17 UNL     1      16.227  22.936   7.634  1.00  0.00     0.015 A 
ENDBRANCH  16  23
ENDBRANCH   6   9
BRANCH   8  26
HETATM   26  S1  UNL     1      10.975  24.448   5.598  1.00  0.00     0.259 S 
HETATM   27  O2  UNL     1      12.298  25.174   5.686  1.00  0.00    -0.201 OA
HETATM   28  O3  UNL     1      10.184  25.358   4.626  1.00  0.00    -0.201 OA
BRANCH  26  29
HETATM   29  N3  UNL     1      10.106  24.384   6.997  1.00  0.00    -0.310 N 
ATOM     30  H3  UNL     1       9.094  24.335   6.877  1.00  0.00     0.172 HD
BRANCH  29  31
HETATM   31  C20 UNL     1      10.538  24.389   8.296  1.00  0.00     0.105 C 
HETATM   32  C21 UNL     1      11.592  25.415   8.663  1.00  0.00     0.027 C 
HETATM   33  C22 UNL     1      11.451  25.519  10.165  1.00  0.00     0.003 C 
HETATM   34  C23 UNL     1      10.062  25.115  10.544  1.00  0.00     0.016 C 
HETATM   35  C24 UNL     1       9.374  24.837   9.216  1.00  0.00     0.098 C 
BRANCH  35  36
HETATM   36  C25 UNL     1       8.735  26.079   8.804  1.00  0.00     0.237 C 
HETATM   37  N4  UNL     1       7.799  26.013   7.743  1.00  0.00    -0.062 NA
HETATM   38  O4  UNL     1       8.950  27.194   9.315  1.00  0.00    -0.276 OA
ENDBRANCH  35  36
ENDBRANCH  29  31
ENDBRANCH  26  29
ENDBRANCH   8  26
TORSDOF 7
ENDMDL
MODEL 4
REMARK VINA RESULT: -9.607961762      3.158      4.001
REMARK  7 active torsions:
REMARK  status: ('A' for Active; 'I' for Inactive)
REMARK    1  A    between atoms: C5_6  and  C6_7 
REMARK    2  A    between atoms: C8_9  and  C9_10 
REMARK       I    between atoms: N1_15  and  C14_17 
REMARK    3  A    between atoms: C14_17  and  C15_19 
REMARK    4  A    between atoms: C19_25  and  S1_26 
REMARK    5  A    between atoms: S1_26  and  N3_29 
REMARK    6  A    between atoms: N3_29  and  C20_31 
REMARK    7  A    between atoms: C24_35  and  C25_36 
ROOT
HETATM    1  C1  UNL     1       9.192  24.692   5.972  1.00  0.00     0.052 C 
HETATM    2  C2  UNL     1      10.203  23.673   5.741  1.00  0.00    -0.017 A 
HETATM    3  C3  UNL     1      11.181  23.490   6.735  1.00  0.00     0.042 A 
HETATM    4 CL1  UNL     1      11.037  24.468   8.194  1.00  0.00    -0.084 Cl
HETATM    5  C4  UNL     1      12.205  22.588   6.575  1.00  0.00     0.038 A 
HETATM    6  C5  UNL     1      12.324  21.825   5.445  1.00  0.00    -0.006 A 
HETATM    7  C18 UNL     1      11.375  21.999   4.479  1.00  0.00     0.039 A 
HETATM    8  C19 UNL     1      10.300  22.923   4.609  1.00  0.00     0.087 A 
ENDROOT
BRANCH   6   9
HETATM    9  C6  UNL     1      13.404  20.857   5.247  1.00  0.00     0.044 A 
HETATM   10  C7  UNL     1      13.598  20.169   4.075  1.00  0.00     0.038 A 
HETATM   11  C8  UNL     1      14.614  19.249   3.865  1.00  0.00    -0.048 A 
HETATM   12  C12 UNL     1      15.479  19.018   4.910  1.00  0.00     0.056 A 
HETATM   13  C13 UNL     1      15.301  19.699   6.092  1.00  0.00     0.108 A 
HETATM   14  N1  UNL     1      16.121  19.470   7.062  1.00  0.00    -0.313 N 
HETATM   15  N2  UNL     1      14.272  20.601   6.239  1.00  0.00    -0.342 N 
HETATM   16  C14 UNL     1      16.069  20.083   8.323  1.00  0.00     0.227 C 
ATOM     17  H1  UNL     1      16.864  18.791   6.900  1.00  0.00     0.170 HD
HETATM   18  O1  UNL     1      15.443  19.552   9.297  1.00  0.00    -0.273 OA
ATOM     19  H2  UNL     1      14.165  21.090   7.128  1.00  0.00     0.167 HD
BRANCH  11  20
HETATM   20  C9  UNL     1      14.757  18.540   2.557  1.00  0.00     0.019 A 
HETATM   21  C10 UNL     1      14.956  19.317   1.313  1.00  0.00     0.010 A 
HETATM   22  C11 UNL     1      16.136  18.586   1.896  1.00  0.00     0.010 A 
ENDBRANCH  11  20
BRANCH  16  23
HETATM   23  C15 UNL     1      16.734  21.393   8.637  1.00  0.00     0.078 A 
HETATM   24  C16 UNL     1      16.022  22.322   9.591  1.00  0.00     0.015 A 
HETATM   25  C17 UNL     1      16.180  22.655   8.123  1.00  0.00     0.015 A 
ENDBRANCH  16  23
ENDBRANCH   6   9
BRANCH   8  26
HETATM   26  S1  UNL     1       9.111  22.999   3.342  1.00  0.00     0.259 S 
HETATM   27  O2  UNL     1       9.499  24.126   2.411  1.00  0.00    -0.201 OA
HETATM   28  O3  UNL     1       9.358  21.758   2.449  1.00  0.00    -0.201 OA
BRANCH  26  29
HETATM   29  N3  UNL     1       7.524  22.955   3.781  1.00  0.00    -0.310 N 
ATOM     30  H3  UNL     1       7.347  23.083   4.778  1.00  0.00     0.172 HD
BRANCH  29  31
HETATM   31  C20 UNL     1       6.408  22.773   3.010  1.00  0.00     0.105 C 
HETATM   32  C21 UNL     1       5.171  22.244   3.710  1.00  0.00     0.027 C 
HETATM   33  C22 UNL     1       4.054  22.657   2.778  1.00  0.00     0.003 C 
HETATM   34  C23 UNL     1       4.506  23.842   1.987  1.00  0.00     0.016 C 
HETATM   35  C24 UNL     1       5.892  24.154   2.529  1.00  0.00     0.098 C 
BRANCH  35  36
HETATM   36  C25 UNL     1       5.718  25.128   3.599  1.00  0.00     0.237 C 
HETATM   37  N4  UNL     1       6.877  25.775   4.091  1.00  0.00    -0.062 NA
HETATM   38  O4  UNL     1       4.625  25.434   4.111  1.00  0.00    -0.276 OA
ENDBRANCH  35  36
ENDBRANCH  29  31
ENDBRANCH  26  29
ENDBRANCH   8  26
TORSDOF 7
ENDMDL
MODEL 5
REMARK VINA RESULT: -9.582284944      3.180      9.478
REMARK  7 active torsions:
REMARK  status: ('A' for Active; 'I' for Inactive)
REMARK    1  A    between atoms: C5_6  and  C6_7 
REMARK    2  A    between atoms: C8_9  and  C9_10 
REMARK       I    between atoms: N1_15  and  C14_17 
REMARK    3  A    between atoms: C14_17  and  C15_19 
REMARK    4  A    between atoms: C19_25  and  S1_26 
REMARK    5  A    between atoms: S1_26  and  N3_29 
REMARK    6  A    between atoms: N3_29  and  C20_31 
REMARK    7  A    between atoms: C24_35  and  C25_36 
ROOT
HETATM    1  C1  UNL     1      17.384  19.085   5.315  1.00  0.00     0.052 C 
HETATM    2  C2  UNL     1      16.283  19.974   5.650  1.00  0.00    -0.017 A 
HETATM    3  C3  UNL     1      15.336  20.242   4.645  1.00  0.00     0.042 A 
HETATM    4 CL1  UNL     1      15.542  19.414   3.103  1.00  0.00    -0.084 Cl
HETATM    5  C4  UNL     1      14.295  21.112   4.857  1.00  0.00     0.038 A 
HETATM    6  C5  UNL     1      14.126  21.758   6.052  1.00  0.00    -0.006 A 
HETATM    7  C18 UNL     1      15.044  21.499   7.029  1.00  0.00     0.039 A 
HETATM    8  C19 UNL     1      16.135  20.603   6.847  1.00  0.00     0.087 A 
ENDROOT
BRANCH   6   9
HETATM    9  C6  UNL     1      13.027  22.691   6.306  1.00  0.00     0.044 A 
HETATM   10  C7  UNL     1      13.007  23.567   7.364  1.00  0.00     0.038 A 
HETATM   11  C8  UNL     1      11.978  24.459   7.624  1.00  0.00    -0.048 A 
HETATM   12  C12 UNL     1      10.909  24.456   6.756  1.00  0.00     0.056 A 
HETATM   13  C13 UNL     1      10.912  23.586   5.690  1.00  0.00     0.108 A 
HETATM   14  N1  UNL     1       9.903  23.596   4.886  1.00  0.00    -0.313 N 
HETATM   15  N2  UNL     1      11.965  22.724   5.486  1.00  0.00    -0.342 N 
HETATM   16  C14 UNL     1       9.760  22.772   3.760  1.00  0.00     0.227 C 
ATOM     17  H1  UNL     1       9.149  24.254   5.085  1.00  0.00     0.170 HD
HETATM   18  O1  UNL     1       9.150  21.655   3.824  1.00  0.00    -0.273 OA
ATOM     19  H2  UNL     1      11.938  22.090   4.687  1.00  0.00     0.167 HD
BRANCH  11  20
HETATM   20  C9  UNL     1      12.031  25.380   8.798  1.00  0.00     0.019 A 
HETATM   21  C10 UNL     1      10.910  26.312   9.060  1.00  0.00     0.010 A 
HETATM   22  C11 UNL     1      11.052  25.099   9.940  1.00  0.00     0.010 A 
ENDBRANCH  11  20
BRANCH  16  23
HETATM   23  C15 UNL     1      10.300  23.121   2.402  1.00  0.00     0.078 A 
HETATM   24  C16 UNL     1      11.504  24.030   2.346  1.00  0.00     0.015 A 
HETATM   25  C17 UNL     1      10.142  24.480   1.861  1.00  0.00     0.015 A 
ENDBRANCH  16  23
ENDBRANCH   6   9
BRANCH   8  26
HETATM   26  S1  UNL     1      17.193  20.297   8.193  1.00  0.00     0.259 S 
HETATM   27  O2  UNL     1      18.498  21.013   7.929  1.00  0.00    -0.201 OA
HETATM   28  O3  UNL     1      16.623  21.113   9.379  1.00  0.00    -0.201 OA
BRANCH  26  29
HETATM   29  N3  UNL     1      17.331  18.740   8.715  1.00  0.00    -0.310 N 
ATOM     30  H3  UNL     1      17.140  18.028   8.010  1.00  0.00     0.172 HD
BRANCH  29  31
HETATM   31  C20 UNL     1      17.663  18.259   9.953  1.00  0.00     0.105 C 
HETATM   32  C21 UNL     1      16.633  17.393  10.650  1.00  0.00     0.027 C 
HETATM   33  C22 UNL     1      17.461  16.628  11.657  1.00  0.00     0.003 C 
HETATM   34  C23 UNL     1      18.871  16.562  11.164  1.00  0.00     0.016 C 
HETATM   35  C24 UNL     1      18.831  17.249   9.808  1.00  0.00     0.098 C 
BRANCH  35  36
HETATM   36  C25 UNL     1      18.597  16.210   8.815  1.00  0.00     0.237 C 
HETATM   37  N4  UNL     1      18.815  16.541   7.456  1.00  0.00    -0.062 NA
HETATM   38  O4  UNL     1      18.219  15.051   9.073  1.00  0.00    -0.276 OA
ENDBRANCH  35  36
ENDBRANCH  29  31
ENDBRANCH  26  29
ENDBRANCH   8  26
TORSDOF 7
ENDMDL
