MODEL 1
REMARK VINA RESULT: -10.103036545      0.000      0.000
REMARK  7 active torsions:
REMARK  status: ('A' for Active; 'I' for Inactive)
REMARK    1  A    between atoms: C6_6  and  C7_7 
REMARK    2  A    between atoms: C7_7  and  N1_8 
REMARK       I    between atoms: N1_8  and  C8_10 
REMARK    3  A    between atoms: C8_10  and  C9_12 
REMARK    4  A    between atoms: C9_12  and  C10_13 
REMARK    5  A    between atoms: C19_23  and  O2_24 
REMARK    6  A    between atoms: O2_24  and  C20_25 
REMARK    7  A    between atoms: C20_25  and  C21_26 
ROOT
HETATM    1  C10 UNL     1      10.166  25.136   5.629  1.00  0.00    -0.062 C 
HETATM    2  C11 UNL     1      10.385  24.832   7.068  1.00  0.00     0.000 C 
HETATM    3  C12 UNL     1      10.699  23.559   7.219  1.00  0.00    -0.020 C 
HETATM    4  C13 UNL     1      10.723  22.876   5.880  1.00  0.00     0.025 C 
HETATM    5  C14 UNL     1      12.115  22.427   5.662  1.00  0.00     0.002 C 
HETATM    6  C15 UNL     1      13.160  23.395   6.162  1.00  0.00     0.047 C 
HETATM    7  C16 UNL     1      14.476  22.703   6.173  1.00  0.00     0.200 C 
HETATM    8  F1  UNL     1      14.706  22.238   7.461  1.00  0.00    -0.245 F 
HETATM    9  C17 UNL     1      14.600  21.614   5.169  1.00  0.00    -0.039 C 
HETATM   10  C18 UNL     1      15.634  20.780   5.298  1.00  0.00     0.011 C 
HETATM   11  C19 UNL     1      15.948  19.645   4.426  1.00  0.00     0.145 C 
HETATM   12  C22 UNL     1      14.734  19.130   3.678  1.00  0.00     0.037 C 
HETATM   13  C23 UNL     1      13.481  19.858   3.997  1.00  0.00     0.017 C 
HETATM   14  C24 UNL     1      13.670  21.384   4.061  1.00  0.00    -0.014 C 
HETATM   15  C25 UNL     1      14.197  21.782   2.702  1.00  0.00     0.020 C 
HETATM   16  C26 UNL     1      12.325  22.026   4.249  1.00  0.00     0.003 C 
HETATM   17  C27 UNL     1      12.143  23.248   3.395  1.00  0.00     0.007 C 
HETATM   18  C28 UNL     1      10.884  23.975   3.589  1.00  0.00     0.015 C 
HETATM   19  C29 UNL     1      10.151  23.838   4.877  1.00  0.00    -0.013 C 
HETATM   20  C30 UNL     1       8.764  23.321   4.533  1.00  0.00     0.021 C 
ENDROOT
BRANCH   1  21
HETATM   21  C9  UNL     1       9.201  26.178   5.320  1.00  0.00     0.137 C 
BRANCH  21  22
HETATM   22  C8  UNL     1       8.382  26.740   6.416  1.00  0.00     0.221 C 
HETATM   23  N1  UNL     1       7.093  26.161   6.598  1.00  0.00    -0.359 N 
ATOM     24  H1  UNL     1       6.850  25.415   5.947  1.00  0.00     0.162 HD
HETATM   25  O1  UNL     1       8.739  27.655   7.163  1.00  0.00    -0.273 OA
BRANCH  23  26
HETATM   26  C7  UNL     1       6.107  26.481   7.557  1.00  0.00     0.155 C 
BRANCH  26  27
HETATM   27  C6  UNL     1       5.020  27.419   7.203  1.00  0.00     0.207 C 
HETATM   28  C4  UNL     1       3.690  26.744   7.560  1.00  0.00     0.016 C 
HETATM   29  C3  UNL     1       3.337  26.103   6.237  1.00  0.00     0.039 C 
HETATM   30  C5  UNL     1       2.667  27.728   8.043  1.00  0.00     0.012 C 
HETATM   31  C2  UNL     1       3.828  27.121   5.237  1.00  0.00     0.182 C 
HETATM   32  C1  UNL     1       2.690  27.999   4.770  1.00  0.00     0.040 C 
HETATM   33  N3  UNL     1       4.887  27.850   5.865  1.00  0.00    -0.065 N 
ATOM     34  H32 UNL     1       5.764  27.782   5.348  1.00  0.00     0.278 HD
ATOM     35  H31 UNL     1       4.756  28.859   5.795  1.00  0.00     0.278 HD
ENDBRANCH  26  27
ENDBRANCH  23  26
ENDBRANCH  21  22
ENDBRANCH   1  21
BRANCH  11  36
HETATM   36  O2  UNL     1      16.507  18.632   5.185  1.00  0.00    -0.373 OA
BRANCH  36  37
HETATM   37  C20 UNL     1      17.841  18.419   5.039  1.00  0.00     0.268 C 
BRANCH  37  38
HETATM   38  C21 UNL     1      18.309  17.638   3.910  1.00  0.00     0.254 C 
HETATM   39  N2  UNL     1      18.706  16.288   4.148  1.00  0.00    -0.060 NA
HETATM   40  O3  UNL     1      18.390  18.063   2.747  1.00  0.00    -0.275 OA
ENDBRANCH  37  38
ENDBRANCH  36  37
ENDBRANCH  11  36
TORSDOF 7
ENDMDL
MODEL 2
REMARK VINA RESULT: -9.891454200      1.531      2.263
REMARK  7 active torsions:
REMARK  status: ('A' for Active; 'I' for Inactive)
REMARK    1  A    between atoms: C6_6  and  C7_7 
REMARK    2  A    between atoms: C7_7  and  N1_8 
REMARK       I    between atoms: N1_8  and  C8_10 
REMARK    3  A    between atoms: C8_10  and  C9_12 
REMARK    4  A    between atoms: C9_12  and  C10_13 
REMARK    5  A    between atoms: C19_23  and  O2_24 
REMARK    6  A    between atoms: O2_24  and  C20_25 
REMARK    7  A    between atoms: C20_25  and  C21_26 
ROOT
HETATM    1  C10 UNL     1      10.070  26.042   7.806  1.00  0.00    -0.062 C 
HETATM    2  C11 UNL     1      11.345  26.189   8.557  1.00  0.00     0.000 C 
HETATM    3  C12 UNL     1      11.971  25.028   8.616  1.00  0.00    -0.020 C 
HETATM    4  C13 UNL     1      11.168  23.977   7.902  1.00  0.00     0.025 C 
HETATM    5  C14 UNL     1      11.992  23.521   6.762  1.00  0.00     0.002 C 
HETATM    6  C15 UNL     1      12.775  24.623   6.089  1.00  0.00     0.047 C 
HETATM    7  C16 UNL     1      13.781  24.001   5.187  1.00  0.00     0.200 C 
HETATM    8  F1  UNL     1      14.991  23.950   5.865  1.00  0.00    -0.245 F 
HETATM    9  C17 UNL     1      13.389  22.666   4.665  1.00  0.00    -0.039 C 
HETATM   10  C18 UNL     1      14.341  21.937   4.078  1.00  0.00     0.011 C 
HETATM   11  C19 UNL     1      14.177  20.603   3.496  1.00  0.00     0.145 C 
HETATM   12  C22 UNL     1      12.992  19.855   4.075  1.00  0.00     0.037 C 
HETATM   13  C23 UNL     1      12.260  20.610   5.121  1.00  0.00     0.017 C 
HETATM   14  C24 UNL     1      12.046  22.090   4.757  1.00  0.00    -0.014 C 
HETATM   15  C25 UNL     1      11.274  22.078   3.458  1.00  0.00     0.020 C 
HETATM   16  C26 UNL     1      11.180  22.722   5.811  1.00  0.00     0.003 C 
HETATM   17  C27 UNL     1      10.132  23.627   5.231  1.00  0.00     0.007 C 
HETATM   18  C28 UNL     1       9.304  24.344   6.206  1.00  0.00     0.015 C 
HETATM   19  C29 UNL     1       9.829  24.579   7.579  1.00  0.00    -0.013 C 
HETATM   20  C30 UNL     1       8.834  23.945   8.537  1.00  0.00     0.021 C 
ENDROOT
BRANCH   1  21
HETATM   21  C9  UNL     1       8.977  26.918   8.195  1.00  0.00     0.137 C 
BRANCH  21  22
HETATM   22  C8  UNL     1       7.887  27.172   7.229  1.00  0.00     0.221 C 
HETATM   23  N1  UNL     1       6.594  26.705   7.603  1.00  0.00    -0.359 N 
ATOM     24  H1  UNL     1       6.541  26.230   8.504  1.00  0.00     0.162 HD
HETATM   25  O1  UNL     1       8.027  27.747   6.146  1.00  0.00    -0.273 OA
BRANCH  23  26
HETATM   26  C7  UNL     1       5.376  26.812   6.895  1.00  0.00     0.155 C 
BRANCH  26  27
HETATM   27  C6  UNL     1       4.122  27.069   7.634  1.00  0.00     0.207 C 
HETATM   28  C4  UNL     1       2.961  26.559   6.770  1.00  0.00     0.016 C 
HETATM   29  C3  UNL     1       2.585  27.822   6.031  1.00  0.00     0.039 C 
HETATM   30  C5  UNL     1       1.846  25.992   7.598  1.00  0.00     0.012 C 
HETATM   31  C2  UNL     1       2.801  28.892   7.074  1.00  0.00     0.182 C 
HETATM   32  C1  UNL     1       1.495  29.254   7.742  1.00  0.00     0.040 C 
HETATM   33  N3  UNL     1       3.786  28.395   7.986  1.00  0.00    -0.065 N 
ATOM     34  H32 UNL     1       4.606  29.001   8.038  1.00  0.00     0.278 HD
ATOM     35  H31 UNL     1       3.487  28.473   8.958  1.00  0.00     0.278 HD
ENDBRANCH  26  27
ENDBRANCH  23  26
ENDBRANCH  21  22
ENDBRANCH   1  21
BRANCH  11  36
HETATM   36  O2  UNL     1      15.340  19.879   3.690  1.00  0.00    -0.373 OA
BRANCH  36  37
HETATM   37  C20 UNL     1      15.710  19.031   2.694  1.00  0.00     0.268 C 
BRANCH  37  38
HETATM   38  C21 UNL     1      17.059  18.500   2.688  1.00  0.00     0.254 C 
HETATM   39  N2  UNL     1      17.881  18.745   3.829  1.00  0.00    -0.060 NA
HETATM   40  O3  UNL     1      17.553  17.844   1.757  1.00  0.00    -0.275 OA
ENDBRANCH  37  38
ENDBRANCH  36  37
ENDBRANCH  11  36
TORSDOF 7
ENDMDL
MODEL 3
REMARK VINA RESULT: -9.819661036      1.861      2.260
REMARK  7 active torsions:
REMARK  status: ('A' for Active; 'I' for Inactive)
REMARK    1  A    between atoms: C6_6  and  C7_7 
REMARK    2  A    between atoms: C7_7  and  N1_8 
REMARK       I    between atoms: N1_8  and  C8_10 
REMARK    3  A    between atoms: C8_10  and  C9_12 
REMARK    4  A    between atoms: C9_12  and  C10_13 
REMARK    5  A    between atoms: C19_23  and  O2_24 
REMARK    6  A    between atoms: O2_24  and  C20_25 
REMARK    7  A    between atoms: C20_25  and  C21_26 
ROOT
HETATM    1  C10 UNL     1      10.226  25.336   6.233  1.00  0.00    -0.062 C 
HETATM    2  C11 UNL     1      10.179  25.064   7.695  1.00  0.00     0.000 C 
HETATM    3  C12 UNL     1      10.546  23.819   7.935  1.00  0.00    -0.020 C 
HETATM    4  C13 UNL     1      10.880  23.125   6.643  1.00  0.00     0.025 C 
HETATM    5  C14 UNL     1      12.315  22.778   6.713  1.00  0.00     0.002 C 
HETATM    6  C15 UNL     1      13.172  23.825   7.383  1.00  0.00     0.047 C 
HETATM    7  C16 UNL     1      14.505  23.231   7.667  1.00  0.00     0.200 C 
HETATM    8  F1  UNL     1      14.510  22.798   8.987  1.00  0.00    -0.245 F 
HETATM    9  C17 UNL     1      14.900  22.144   6.734  1.00  0.00    -0.039 C 
HETATM   10  C18 UNL     1      15.944  21.389   7.083  1.00  0.00     0.011 C 
HETATM   11  C19 UNL     1      16.502  20.272   6.317  1.00  0.00     0.145 C 
HETATM   12  C22 UNL     1      15.497  19.661   5.360  1.00  0.00     0.037 C 
HETATM   13  C23 UNL     1      14.158  20.298   5.410  1.00  0.00     0.017 C 
HETATM   14  C24 UNL     1      14.224  21.834   5.472  1.00  0.00    -0.014 C 
HETATM   15  C25 UNL     1      14.978  22.256   4.233  1.00  0.00     0.020 C 
HETATM   16  C26 UNL     1      12.826  22.379   5.378  1.00  0.00     0.003 C 
HETATM   17  C27 UNL     1      12.731  23.575   4.475  1.00  0.00     0.007 C 
HETATM   18  C28 UNL     1      11.411  24.209   4.402  1.00  0.00     0.015 C 
HETATM   19  C29 UNL     1      10.451  24.032   5.525  1.00  0.00    -0.013 C 
HETATM   20  C30 UNL     1       9.197  23.412   4.930  1.00  0.00     0.021 C 
ENDROOT
BRANCH   1  21
HETATM   21  C9  UNL     1       9.270  26.301   5.717  1.00  0.00     0.137 C 
BRANCH  21  22
HETATM   22  C8  UNL     1       8.323  26.940   6.656  1.00  0.00     0.221 C 
HETATM   23  N1  UNL     1       7.069  26.287   6.824  1.00  0.00    -0.359 N 
ATOM     24  H1  UNL     1       6.936  25.439   6.273  1.00  0.00     0.162 HD
HETATM   25  O1  UNL     1       8.549  27.977   7.285  1.00  0.00    -0.273 OA
BRANCH  23  26
HETATM   26  C7  UNL     1       5.984  26.654   7.651  1.00  0.00     0.155 C 
BRANCH  26  27
HETATM   27  C6  UNL     1       4.852  27.412   7.078  1.00  0.00     0.207 C 
HETATM   28  C4  UNL     1       3.566  26.642   7.403  1.00  0.00     0.016 C 
HETATM   29  C3  UNL     1       3.416  25.804   6.153  1.00  0.00     0.039 C 
HETATM   30  C5  UNL     1       2.405  27.557   7.654  1.00  0.00     0.012 C 
HETATM   31  C2  UNL     1       3.904  26.738   5.071  1.00  0.00     0.182 C 
HETATM   32  C1  UNL     1       2.739  27.417   4.390  1.00  0.00     0.040 C 
HETATM   33  N3  UNL     1       4.815  27.654   5.687  1.00  0.00    -0.065 N 
ATOM     34  H32 UNL     1       5.743  27.621   5.264  1.00  0.00     0.278 HD
ATOM     35  H31 UNL     1       4.592  28.625   5.469  1.00  0.00     0.278 HD
ENDBRANCH  26  27
ENDBRANCH  23  26
ENDBRANCH  21  22
ENDBRANCH   1  21
BRANCH  11  36
HETATM   36  O2  UNL     1      16.970  19.311   7.195  1.00  0.00    -0.373 OA
BRANCH  36  37
HETATM   37  C20 UNL     1      17.518  19.754   8.357  1.00  0.00     0.268 C 
BRANCH  37  38
HETATM   38  C21 UNL     1      17.451  18.908   9.534  1.00  0.00     0.254 C 
HETATM   39  N2  UNL     1      18.642  18.236   9.943  1.00  0.00    -0.060 NA
HETATM   40  O3  UNL     1      16.429  18.727  10.213  1.00  0.00    -0.275 OA
ENDBRANCH  37  38
ENDBRANCH  36  37
ENDBRANCH  11  36
TORSDOF 7
ENDMDL
MODEL 4
REMARK VINA RESULT: -9.702604376      3.141     12.212
REMARK  7 active torsions:
REMARK  status: ('A' for Active; 'I' for Inactive)
REMARK    1  A    between atoms: C6_6  and  C7_7 
REMARK    2  A    between atoms: C7_7  and  N1_8 
REMARK       I    between atoms: N1_8  and  C8_10 
REMARK    3  A    between atoms: C8_10  and  C9_12 
REMARK    4  A    between atoms: C9_12  and  C10_13 
REMARK    5  A    between atoms: C19_23  and  O2_24 
REMARK    6  A    between atoms: O2_24  and  C20_25 
REMARK    7  A    between atoms: C20_25  and  C21_26 
ROOT
HETATM    1  C10 UNL     1      16.042  19.873   5.004  1.00  0.00    -0.062 C 
HETATM    2  C11 UNL     1      15.115  18.791   4.575  1.00  0.00     0.000 C 
HETATM    3  C12 UNL     1      13.916  18.995   5.089  1.00  0.00    -0.020 C 
HETATM    4  C13 UNL     1      13.921  20.247   5.921  1.00  0.00     0.025 C 
HETATM    5  C14 UNL     1      12.986  21.188   5.268  1.00  0.00     0.002 C 
HETATM    6  C15 UNL     1      13.024  21.148   3.760  1.00  0.00     0.047 C 
HETATM    7  C16 UNL     1      11.845  21.889   3.239  1.00  0.00     0.200 C 
HETATM    8  F1  UNL     1      10.850  20.965   2.951  1.00  0.00    -0.245 F 
HETATM    9  C17 UNL     1      11.351  22.960   4.143  1.00  0.00    -0.039 C 
HETATM   10  C18 UNL     1      10.150  23.479   3.875  1.00  0.00     0.011 C 
HETATM   11  C19 UNL     1       9.475  24.538   4.629  1.00  0.00     0.145 C 
HETATM   12  C22 UNL     1       9.971  24.644   6.058  1.00  0.00     0.037 C 
HETATM   13  C23 UNL     1      11.012  23.647   6.406  1.00  0.00     0.017 C 
HETATM   14  C24 UNL     1      12.075  23.477   5.306  1.00  0.00    -0.014 C 
HETATM   15  C25 UNL     1      12.681  24.848   5.114  1.00  0.00     0.020 C 
HETATM   16  C26 UNL     1      13.149  22.557   5.816  1.00  0.00     0.003 C 
HETATM   17  C27 UNL     1      14.530  23.030   5.463  1.00  0.00     0.007 C 
HETATM   18  C28 UNL     1      15.625  22.137   5.856  1.00  0.00     0.015 C 
HETATM   19  C29 UNL     1      15.351  20.688   6.056  1.00  0.00    -0.013 C 
HETATM   20  C30 UNL     1      15.764  20.362   7.482  1.00  0.00     0.021 C 
ENDROOT
BRANCH   1  21
HETATM   21  C9  UNL     1      17.443  19.513   5.151  1.00  0.00     0.137 C 
BRANCH  21  22
HETATM   22  C8  UNL     1      17.996  18.437   4.301  1.00  0.00     0.221 C 
HETATM   23  N1  UNL     1      18.348  17.228   4.968  1.00  0.00    -0.359 N 
ATOM     24  H1  UNL     1      18.193  17.220   5.976  1.00  0.00     0.162 HD
HETATM   25  O1  UNL     1      18.166  18.520   3.082  1.00  0.00    -0.273 OA
BRANCH  23  26
HETATM   26  C7  UNL     1      18.883  16.040   4.422  1.00  0.00     0.155 C 
BRANCH  26  27
HETATM   27  C6  UNL     1      18.743  14.768   5.162  1.00  0.00     0.207 C 
HETATM   28  C4  UNL     1      19.491  14.920   6.493  1.00  0.00     0.016 C 
HETATM   29  C3  UNL     1      20.843  14.356   6.120  1.00  0.00     0.039 C 
HETATM   30  C5  UNL     1      18.818  14.177   7.608  1.00  0.00     0.012 C 
HETATM   31  C2  UNL     1      20.484  13.236   5.173  1.00  0.00     0.182 C 
HETATM   32  C1  UNL     1      20.469  11.911   5.899  1.00  0.00     0.040 C 
HETATM   33  N3  UNL     1      19.225  13.574   4.582  1.00  0.00    -0.065 N 
ATOM     34  H32 UNL     1      19.278  13.632   3.565  1.00  0.00     0.278 HD
ATOM     35  H31 UNL     1      18.550  12.812   4.648  1.00  0.00     0.278 HD
ENDBRANCH  26  27
ENDBRANCH  23  26
ENDBRANCH  21  22
ENDBRANCH   1  21
BRANCH  11  36
HETATM   36  O2  UNL     1       8.112  24.306   4.612  1.00  0.00    -0.373 OA
BRANCH  36  37
HETATM   37  C20 UNL     1       7.612  23.655   3.529  1.00  0.00     0.268 C 
BRANCH  37  38
HETATM   38  C21 UNL     1       6.690  24.351   2.653  1.00  0.00     0.254 C 
HETATM   39  N2  UNL     1       5.383  24.639   3.149  1.00  0.00    -0.060 NA
HETATM   40  O3  UNL     1       6.957  24.716   1.497  1.00  0.00    -0.275 OA
ENDBRANCH  37  38
ENDBRANCH  36  37
ENDBRANCH  11  36
TORSDOF 7
ENDMDL
MODEL 5
REMARK VINA RESULT: -9.626728518      2.813      4.030
REMARK  7 active torsions:
REMARK  status: ('A' for Active; 'I' for Inactive)
REMARK    1  A    between atoms: C6_6  and  C7_7 
REMARK    2  A    between atoms: C7_7  and  N1_8 
REMARK       I    between atoms: N1_8  and  C8_10 
REMARK    3  A    between atoms: C8_10  and  C9_12 
REMARK    4  A    between atoms: C9_12  and  C10_13 
REMARK    5  A    between atoms: C19_23  and  O2_24 
REMARK    6  A    between atoms: O2_24  and  C20_25 
REMARK    7  A    between atoms: C20_25  and  C21_26 
ROOT
HETATM    1  C10 UNL     1       9.225  23.311   3.386  1.00  0.00    -0.062 C 
HETATM    2  C11 UNL     1       9.226  21.862   3.051  1.00  0.00     0.000 C 
HETATM    3  C12 UNL     1      10.464  21.403   3.035  1.00  0.00    -0.020 C 
HETATM    4  C13 UNL     1      11.425  22.512   3.361  1.00  0.00     0.025 C 
HETATM    5  C14 UNL     1      12.090  22.132   4.626  1.00  0.00     0.002 C 
HETATM    6  C15 UNL     1      11.181  21.451   5.620  1.00  0.00     0.047 C 
HETATM    7  C16 UNL     1      12.020  20.849   6.690  1.00  0.00     0.200 C 
HETATM    8  F1  UNL     1      12.212  19.509   6.383  1.00  0.00    -0.245 F 
HETATM    9  C17 UNL     1      13.312  21.548   6.917  1.00  0.00    -0.039 C 
HETATM   10  C18 UNL     1      14.225  20.918   7.659  1.00  0.00     0.011 C 
HETATM   11  C19 UNL     1      15.556  21.419   8.008  1.00  0.00     0.145 C 
HETATM   12  C22 UNL     1      16.061  22.464   7.032  1.00  0.00     0.037 C 
HETATM   13  C23 UNL     1      15.123  22.745   5.917  1.00  0.00     0.017 C 
HETATM   14  C24 UNL     1      13.659  22.865   6.379  1.00  0.00    -0.014 C 
HETATM   15  C25 UNL     1      13.646  23.985   7.393  1.00  0.00     0.020 C 
HETATM   16  C26 UNL     1      12.820  23.287   5.205  1.00  0.00     0.003 C 
HETATM   17  C27 UNL     1      11.806  24.335   5.566  1.00  0.00     0.007 C 
HETATM   18  C28 UNL     1      10.896  24.733   4.488  1.00  0.00     0.015 C 
HETATM   19  C29 UNL     1      10.644  23.796   3.359  1.00  0.00    -0.013 C 
HETATM   20  C30 UNL     1      11.038  24.532   2.089  1.00  0.00     0.021 C 
ENDROOT
BRANCH   1  21
HETATM   21  C9  UNL     1       8.160  24.115   2.808  1.00  0.00     0.137 C 
BRANCH  21  22
HETATM   22  C8  UNL     1       7.296  24.907   3.709  1.00  0.00     0.221 C 
HETATM   23  N1  UNL     1       7.936  25.497   4.836  1.00  0.00    -0.359 N 
ATOM     24  H1  UNL     1       8.935  25.312   4.922  1.00  0.00     0.162 HD
HETATM   25  O1  UNL     1       6.085  25.082   3.547  1.00  0.00    -0.273 OA
BRANCH  23  26
HETATM   26  C7  UNL     1       7.374  26.305   5.850  1.00  0.00     0.155 C 
BRANCH  26  27
HETATM   27  C6  UNL     1       7.584  25.948   7.269  1.00  0.00     0.207 C 
HETATM   28  C4  UNL     1       8.276  27.136   7.949  1.00  0.00     0.016 C 
HETATM   29  C3  UNL     1       9.727  26.733   7.810  1.00  0.00     0.039 C 
HETATM   30  C5  UNL     1       7.836  27.310   9.372  1.00  0.00     0.012 C 
HETATM   31  C2  UNL     1       9.671  25.234   7.987  1.00  0.00     0.182 C 
HETATM   32  C1  UNL     1      10.016  24.854   9.408  1.00  0.00     0.040 C 
HETATM   33  N3  UNL     1       8.362  24.813   7.589  1.00  0.00    -0.065 N 
ATOM     34  H32 UNL     1       8.389  24.135   6.827  1.00  0.00     0.278 HD
ATOM     35  H31 UNL     1       7.916  24.224   8.291  1.00  0.00     0.278 HD
ENDBRANCH  26  27
ENDBRANCH  23  26
ENDBRANCH  21  22
ENDBRANCH   1  21
BRANCH  11  36
HETATM   36  O2  UNL     1      16.439  20.355   8.068  1.00  0.00    -0.373 OA
BRANCH  36  37
HETATM   37  C20 UNL     1      17.568  20.450   7.319  1.00  0.00     0.268 C 
BRANCH  37  38
HETATM   38  C21 UNL     1      17.923  19.353   6.439  1.00  0.00     0.254 C 
HETATM   39  N2  UNL     1      17.883  19.583   5.031  1.00  0.00    -0.060 NA
HETATM   40  O3  UNL     1      18.260  18.223   6.826  1.00  0.00    -0.275 OA
ENDBRANCH  37  38
ENDBRANCH  36  37
ENDBRANCH  11  36
TORSDOF 7
ENDMDL
