MODEL 1
REMARK VINA RESULT: -9.457989568      0.000      0.000
REMARK  7 active torsions:
REMARK  status: ('A' for Active; 'I' for Inactive)
REMARK    1  A    between atoms: C4_9  and  C5_10 
REMARK    2  A    between atoms: N4_13  and  C8_14 
REMARK    3  A    between atoms: C8_14  and  C9_15 
REMARK    4  A    between atoms: C9_15  and  C10_16 
REMARK    5  A    between atoms: C12_18  and  C13_19 
REMARK    6  A    between atoms: C20_27  and  C21_28 
REMARK       I    between atoms: N6_31  and  C22_32 
REMARK    7  A    between atoms: C22_32  and  C23_34 
ROOT
HETATM    1  N1  UNL     1      13.644  21.327  10.259  1.00  0.00    -0.191 NA
HETATM    2  C1  UNL     1      14.438  21.200   9.425  1.00  0.00     0.103 C 
HETATM    3  C2  UNL     1      15.452  21.055   8.395  1.00  0.00     0.085 A 
HETATM    4  C3  UNL     1      16.815  20.886   8.631  1.00  0.00     0.131 A 
HETATM    5  N2  UNL     1      17.411  20.800   7.449  1.00  0.00    -0.310 N 
ATOM      6  H2  UNL     1      18.411  20.673   7.295  1.00  0.00     0.186 HD
HETATM    7  N3  UNL     1      16.489  20.907   6.497  1.00  0.00    -0.303 N 
ATOM      8  H3  UNL     1      16.684  20.873   5.497  1.00  0.00     0.186 HD
HETATM    9  C4  UNL     1      15.260  21.066   7.032  1.00  0.00     0.052 A 
ENDROOT
BRANCH   9  10
HETATM   10  C5  UNL     1      13.961  21.212   6.308  1.00  0.00     0.042 C 
HETATM   11  C6  UNL     1      13.630  22.631   5.968  1.00  0.00     0.041 C 
HETATM   12  C7  UNL     1      13.178  22.770   4.507  1.00  0.00     0.273 C 
HETATM   13  N4  UNL     1      12.206  21.765   4.267  1.00  0.00     0.088 N 
HETATM   14  C28 UNL     1      12.840  20.491   4.173  1.00  0.00     0.273 C 
HETATM   15  C29 UNL     1      14.069  20.363   5.043  1.00  0.00     0.041 C 
BRANCH  13  16
HETATM   16  C8  UNL     1      11.323  21.990   3.144  1.00  0.00     0.274 C 
BRANCH  16  17
HETATM   17  C9  UNL     1       9.956  22.276   3.639  1.00  0.00     0.055 C 
BRANCH  17  18
HETATM   18  C10 UNL     1       9.543  23.702   3.732  1.00  0.00     0.090 C 
HETATM   19  C11 UNL     1      10.236  24.449   4.825  1.00  0.00     0.033 C 
HETATM   20  C12 UNL     1       9.279  25.487   5.268  1.00  0.00     0.025 C 
HETATM   21  C20 UNL     1       8.100  25.403   4.400  1.00  0.00     0.193 C 
HETATM   22  N6  UNL     1       8.183  24.034   3.848  1.00  0.00    -0.332 N 
HETATM   23  C22 UNL     1       7.046  23.266   3.498  1.00  0.00     0.225 C 
HETATM   24  O3  UNL     1       7.181  22.119   2.950  1.00  0.00    -0.273 OA
BRANCH  20  25
HETATM   25  C13 UNL     1       9.051  25.549   6.736  1.00  0.00    -0.001 C 
HETATM   26  C14 UNL     1      10.355  25.652   7.525  1.00  0.00     0.036 C 
HETATM   27  C15 UNL     1       9.939  25.288   8.959  1.00  0.00     0.272 C 
HETATM   28  N5  UNL     1       8.855  26.125   9.418  1.00  0.00     0.088 N 
HETATM   29  C16 UNL     1       9.280  27.504   9.198  1.00  0.00     0.273 C 
HETATM   30  C19 UNL     1       7.641  25.972   8.630  1.00  0.00     0.277 C 
HETATM   31  C17 UNL     1       8.757  27.818   7.820  1.00  0.00     0.037 C 
HETATM   32  C18 UNL     1       8.127  26.555   7.280  1.00  0.00     0.020 C 
ENDBRANCH  20  25
BRANCH  21  33
HETATM   33  C21 UNL     1       8.264  26.358   3.284  1.00  0.00     0.197 C 
HETATM   34  O1  UNL     1       8.336  27.592   3.602  1.00  0.00    -0.646 OA
HETATM   35  O2  UNL     1       8.337  25.966   1.970  1.00  0.00    -0.646 OA
ENDBRANCH  21  33
BRANCH  23  36
HETATM   36  C23 UNL     1       5.642  23.681   3.719  1.00  0.00     0.081 C 
HETATM   37  C24 UNL     1       5.072  24.425   2.566  1.00  0.00     0.017 C 
HETATM   38  C25 UNL     1       3.667  23.866   2.309  1.00  0.00     0.038 C 
HETATM   39  C26 UNL     1       3.824  22.434   2.720  1.00  0.00     0.171 C 
HETATM   40  F1  UNL     1       2.620  21.851   3.064  1.00  0.00    -0.249 F 
HETATM   41  C27 UNL     1       4.785  22.451   3.888  1.00  0.00     0.051 C 
ENDBRANCH  23  36
ENDBRANCH  17  18
ENDBRANCH  16  17
ENDBRANCH  13  16
ENDBRANCH   9  10
TORSDOF 7
ENDMDL
MODEL 2
REMARK VINA RESULT: -9.363045588      2.144      2.896
REMARK  7 active torsions:
REMARK  status: ('A' for Active; 'I' for Inactive)
REMARK    1  A    between atoms: C4_9  and  C5_10 
REMARK    2  A    between atoms: N4_13  and  C8_14 
REMARK    3  A    between atoms: C8_14  and  C9_15 
REMARK    4  A    between atoms: C9_15  and  C10_16 
REMARK    5  A    between atoms: C12_18  and  C13_19 
REMARK    6  A    between atoms: C20_27  and  C21_28 
REMARK       I    between atoms: N6_31  and  C22_32 
REMARK    7  A    between atoms: C22_32  and  C23_34 
ROOT
HETATM    1  N1  UNL     1      18.163  18.518   6.180  1.00  0.00    -0.191 NA
HETATM    2  C1  UNL     1      17.701  18.496   5.118  1.00  0.00     0.103 C 
HETATM    3  C2  UNL     1      17.147  18.470   3.775  1.00  0.00     0.085 A 
HETATM    4  C3  UNL     1      17.755  17.881   2.669  1.00  0.00     0.131 A 
HETATM    5  N2  UNL     1      16.952  18.071   1.630  1.00  0.00    -0.310 N 
ATOM      6  H2  UNL     1      17.127  17.753   0.678  1.00  0.00     0.186 HD
HETATM    7  N3  UNL     1      15.881  18.745   2.037  1.00  0.00    -0.303 N 
ATOM      8  H3  UNL     1      15.107  19.020   1.433  1.00  0.00     0.186 HD
HETATM    9  C4  UNL     1      15.954  19.015   3.357  1.00  0.00     0.052 A 
ENDROOT
BRANCH   9  10
HETATM   10  C5  UNL     1      14.954  19.741   4.198  1.00  0.00     0.042 C 
HETATM   11  C6  UNL     1      15.444  21.067   4.687  1.00  0.00     0.041 C 
HETATM   12  C7  UNL     1      14.397  22.170   4.470  1.00  0.00     0.273 C 
HETATM   13  N4  UNL     1      13.157  21.678   4.956  1.00  0.00     0.088 N 
HETATM   14  C28 UNL     1      12.635  20.708   4.051  1.00  0.00     0.273 C 
HETATM   15  C29 UNL     1      13.702  19.908   3.339  1.00  0.00     0.041 C 
BRANCH  13  16
HETATM   16  C8  UNL     1      12.162  22.674   5.281  1.00  0.00     0.274 C 
BRANCH  16  17
HETATM   17  C9  UNL     1      11.046  22.594   4.309  1.00  0.00     0.055 C 
BRANCH  17  18
HETATM   18  C10 UNL     1      10.269  23.836   4.052  1.00  0.00     0.090 C 
HETATM   19  C11 UNL     1      10.408  24.856   5.135  1.00  0.00     0.033 C 
HETATM   20  C12 UNL     1       9.130  25.602   5.147  1.00  0.00     0.025 C 
HETATM   21  C20 UNL     1       8.306  25.090   4.047  1.00  0.00     0.193 C 
HETATM   22  N6  UNL     1       8.894  23.760   3.776  1.00  0.00    -0.332 N 
HETATM   23  C22 UNL     1       8.141  22.660   3.298  1.00  0.00     0.225 C 
HETATM   24  O3  UNL     1       8.717  21.557   3.005  1.00  0.00    -0.273 OA
BRANCH  20  25
HETATM   25  C13 UNL     1       8.490  25.735   6.482  1.00  0.00    -0.001 C 
HETATM   26  C14 UNL     1       9.364  25.180   7.605  1.00  0.00     0.036 C 
HETATM   27  C15 UNL     1       8.388  25.031   8.783  1.00  0.00     0.272 C 
HETATM   28  N5  UNL     1       7.712  26.275   9.064  1.00  0.00     0.088 N 
HETATM   29  C16 UNL     1       8.757  27.284   9.214  1.00  0.00     0.273 C 
HETATM   30  C19 UNL     1       6.890  26.743   7.958  1.00  0.00     0.277 C 
HETATM   31  C17 UNL     1       8.912  27.841   7.823  1.00  0.00     0.037 C 
HETATM   32  C18 UNL     1       7.996  27.050   6.918  1.00  0.00     0.020 C 
ENDBRANCH  20  25
BRANCH  21  33
HETATM   33  C21 UNL     1       8.525  25.939   2.856  1.00  0.00     0.197 C 
HETATM   34  O1  UNL     1       8.433  27.199   3.036  1.00  0.00    -0.646 OA
HETATM   35  O2  UNL     1       8.810  25.425   1.615  1.00  0.00    -0.646 OA
ENDBRANCH  21  33
BRANCH  23  36
HETATM   36  C23 UNL     1       6.673  22.660   3.097  1.00  0.00     0.081 C 
HETATM   37  C24 UNL     1       5.995  23.778   3.803  1.00  0.00     0.017 C 
HETATM   38  C25 UNL     1       4.981  24.387   2.827  1.00  0.00     0.038 C 
HETATM   39  C26 UNL     1       5.655  24.173   1.506  1.00  0.00     0.171 C 
HETATM   40  F1  UNL     1       4.759  24.164   0.454  1.00  0.00    -0.249 F 
HETATM   41  C27 UNL     1       6.377  22.850   1.631  1.00  0.00     0.051 C 
ENDBRANCH  23  36
ENDBRANCH  17  18
ENDBRANCH  16  17
ENDBRANCH  13  16
ENDBRANCH   9  10
TORSDOF 7
ENDMDL
MODEL 3
REMARK VINA RESULT: -8.953697859      1.293      2.003
REMARK  7 active torsions:
REMARK  status: ('A' for Active; 'I' for Inactive)
REMARK    1  A    between atoms: C4_9  and  C5_10 
REMARK    2  A    between atoms: N4_13  and  C8_14 
REMARK    3  A    between atoms: C8_14  and  C9_15 
REMARK    4  A    between atoms: C9_15  and  C10_16 
REMARK    5  A    between atoms: C12_18  and  C13_19 
REMARK    6  A    between atoms: C20_27  and  C21_28 
REMARK       I    between atoms: N6_31  and  C22_32 
REMARK    7  A    between atoms: C22_32  and  C23_34 
ROOT
HETATM    1  N1  UNL     1      17.416  18.512   3.435  1.00  0.00    -0.191 NA
HETATM    2  C1  UNL     1      17.074  19.061   4.396  1.00  0.00     0.103 C 
HETATM    3  C2  UNL     1      16.662  19.733   5.616  1.00  0.00     0.085 A 
HETATM    4  C3  UNL     1      17.456  19.896   6.749  1.00  0.00     0.131 A 
HETATM    5  N2  UNL     1      16.730  20.546   7.649  1.00  0.00    -0.310 N 
ATOM      6  H2  UNL     1      17.041  20.813   8.583  1.00  0.00     0.186 HD
HETATM    7  N3  UNL     1      15.531  20.794   7.131  1.00  0.00    -0.303 N 
ATOM      8  H3  UNL     1      14.781  21.284   7.619  1.00  0.00     0.186 HD
HETATM    9  C4  UNL     1      15.439  20.311   5.875  1.00  0.00     0.052 A 
ENDROOT
BRANCH   9  10
HETATM   10  C5  UNL     1      14.269  20.390   4.949  1.00  0.00     0.042 C 
HETATM   11  C6  UNL     1      12.955  20.198   5.638  1.00  0.00     0.041 C 
HETATM   12  C7  UNL     1      11.937  21.269   5.219  1.00  0.00     0.273 C 
HETATM   13  N4  UNL     1      11.961  21.344   3.802  1.00  0.00     0.088 N 
HETATM   14  C28 UNL     1      13.150  22.003   3.373  1.00  0.00     0.273 C 
HETATM   15  C29 UNL     1      14.335  21.762   4.280  1.00  0.00     0.041 C 
BRANCH  13  16
HETATM   16  C8  UNL     1      10.792  21.922   3.177  1.00  0.00     0.274 C 
BRANCH  16  17
HETATM   17  C9  UNL     1       9.884  22.453   4.222  1.00  0.00     0.055 C 
BRANCH  17  18
HETATM   18  C10 UNL     1       9.472  23.878   4.112  1.00  0.00     0.090 C 
HETATM   19  C11 UNL     1       9.966  24.725   5.240  1.00  0.00     0.033 C 
HETATM   20  C12 UNL     1       8.953  25.790   5.413  1.00  0.00     0.025 C 
HETATM   21  C20 UNL     1       7.945  25.618   4.361  1.00  0.00     0.193 C 
HETATM   22  N6  UNL     1       8.115  24.207   3.956  1.00  0.00    -0.332 N 
HETATM   23  C22 UNL     1       7.053  23.400   3.481  1.00  0.00     0.225 C 
HETATM   24  O3  UNL     1       7.274  22.211   3.070  1.00  0.00    -0.273 OA
BRANCH  20  25
HETATM   25  C13 UNL     1       8.469  25.980   6.805  1.00  0.00    -0.001 C 
HETATM   26  C14 UNL     1       9.225  25.111   7.808  1.00  0.00     0.036 C 
HETATM   27  C15 UNL     1       8.329  25.138   9.057  1.00  0.00     0.272 C 
HETATM   28  N5  UNL     1       8.055  26.492   9.476  1.00  0.00     0.088 N 
HETATM   29  C16 UNL     1       9.350  27.155   9.594  1.00  0.00     0.273 C 
HETATM   30  C19 UNL     1       7.325  27.263   8.479  1.00  0.00     0.277 C 
HETATM   31  C17 UNL     1       9.561  27.764   8.233  1.00  0.00     0.037 C 
HETATM   32  C18 UNL     1       8.399  27.338   7.366  1.00  0.00     0.020 C 
ENDBRANCH  20  25
BRANCH  21  33
HETATM   33  C21 UNL     1       8.310  26.472   3.210  1.00  0.00     0.197 C 
HETATM   34  O1  UNL     1       8.494  27.710   3.461  1.00  0.00    -0.646 OA
HETATM   35  O2  UNL     1       8.450  25.986   1.934  1.00  0.00    -0.646 OA
ENDBRANCH  21  33
BRANCH  23  36
HETATM   36  C23 UNL     1       5.634  23.821   3.413  1.00  0.00     0.081 C 
HETATM   37  C24 UNL     1       5.209  24.193   2.039  1.00  0.00     0.017 C 
HETATM   38  C25 UNL     1       3.841  23.545   1.791  1.00  0.00     0.038 C 
HETATM   39  C26 UNL     1       3.941  22.291   2.606  1.00  0.00     0.171 C 
HETATM   40  F1  UNL     1       2.701  21.795   2.961  1.00  0.00    -0.249 F 
HETATM   41  C27 UNL     1       4.757  22.664   3.823  1.00  0.00     0.051 C 
ENDBRANCH  23  36
ENDBRANCH  17  18
ENDBRANCH  16  17
ENDBRANCH  13  16
ENDBRANCH   9  10
TORSDOF 7
ENDMDL
MODEL 4
REMARK VINA RESULT: -8.939818144      5.322     10.788
REMARK  7 active torsions:
REMARK  status: ('A' for Active; 'I' for Inactive)
REMARK    1  A    between atoms: C4_9  and  C5_10 
REMARK    2  A    between atoms: N4_13  and  C8_14 
REMARK    3  A    between atoms: C8_14  and  C9_15 
REMARK    4  A    between atoms: C9_15  and  C10_16 
REMARK    5  A    between atoms: C12_18  and  C13_19 
REMARK    6  A    between atoms: C20_27  and  C21_28 
REMARK       I    between atoms: N6_31  and  C22_32 
REMARK    7  A    between atoms: C22_32  and  C23_34 
ROOT
HETATM    1  N1  UNL     1       8.864  27.364   9.325  1.00  0.00    -0.191 NA
HETATM    2  C1  UNL     1       8.993  26.999   8.234  1.00  0.00     0.103 C 
HETATM    3  C2  UNL     1       9.130  26.549   6.859  1.00  0.00     0.085 A 
HETATM    4  C3  UNL     1       8.494  27.124   5.761  1.00  0.00     0.131 A 
HETATM    5  N2  UNL     1       8.859  26.434   4.688  1.00  0.00    -0.310 N 
ATOM      6  H2  UNL     1       8.556  26.616   3.732  1.00  0.00     0.186 HD
HETATM    7  N3  UNL     1       9.685  25.464   5.066  1.00  0.00    -0.303 N 
ATOM      8  H3  UNL     1      10.112  24.788   4.433  1.00  0.00     0.186 HD
HETATM    9  C4  UNL     1       9.885  25.493   6.401  1.00  0.00     0.052 A 
ENDROOT
BRANCH   9  10
HETATM   10  C5  UNL     1      10.748  24.585   7.215  1.00  0.00     0.042 C 
HETATM   11  C6  UNL     1      10.203  23.196   7.329  1.00  0.00     0.041 C 
HETATM   12  C7  UNL     1      11.285  22.142   7.052  1.00  0.00     0.273 C 
HETATM   13  N4  UNL     1      12.426  22.494   7.819  1.00  0.00     0.088 N 
HETATM   14  C28 UNL     1      13.074  23.621   7.233  1.00  0.00     0.273 C 
HETATM   15  C29 UNL     1      12.122  24.575   6.548  1.00  0.00     0.041 C 
BRANCH  13  16
HETATM   16  C8  UNL     1      13.370  21.430   8.078  1.00  0.00     0.274 C 
BRANCH  16  17
HETATM   17  C9  UNL     1      14.690  22.011   8.419  1.00  0.00     0.055 C 
BRANCH  17  18
HETATM   18  C10 UNL     1      15.870  21.534   7.651  1.00  0.00     0.090 C 
HETATM   19  C11 UNL     1      15.647  21.516   6.173  1.00  0.00     0.033 C 
HETATM   20  C12 UNL     1      16.487  20.413   5.656  1.00  0.00     0.025 C 
HETATM   21  C20 UNL     1      17.243  19.863   6.786  1.00  0.00     0.193 C 
HETATM   22  N6  UNL     1      16.457  20.296   7.961  1.00  0.00    -0.332 N 
HETATM   23  C22 UNL     1      16.379  19.550   9.162  1.00  0.00     0.225 C 
HETATM   24  O3  UNL     1      15.750  20.012  10.174  1.00  0.00    -0.273 OA
BRANCH  20  25
HETATM   25  C13 UNL     1      15.787  19.453   4.763  1.00  0.00    -0.001 C 
HETATM   26  C14 UNL     1      15.012  20.152   3.648  1.00  0.00     0.036 C 
HETATM   27  C15 UNL     1      14.064  19.060   3.127  1.00  0.00     0.272 C 
HETATM   28  N5  UNL     1      14.792  17.873   2.743  1.00  0.00     0.088 N 
HETATM   29  C16 UNL     1      15.837  18.314   1.824  1.00  0.00     0.273 C 
HETATM   30  C19 UNL     1      15.499  17.251   3.853  1.00  0.00     0.277 C 
HETATM   31  C17 UNL     1      17.013  18.576   2.728  1.00  0.00     0.037 C 
HETATM   32  C18 UNL     1      16.547  18.354   4.148  1.00  0.00     0.020 C 
ENDBRANCH  20  25
BRANCH  21  33
HETATM   33  C21 UNL     1      18.561  20.531   6.845  1.00  0.00     0.197 C 
HETATM   34  O1  UNL     1      19.305  20.403   5.816  1.00  0.00    -0.646 OA
HETATM   35  O2  UNL     1      18.983  21.254   7.932  1.00  0.00    -0.646 OA
ENDBRANCH  21  33
BRANCH  23  36
HETATM   36  C23 UNL     1      16.986  18.215   9.372  1.00  0.00     0.081 C 
HETATM   37  C24 UNL     1      18.371  18.288   9.903  1.00  0.00     0.017 C 
HETATM   38  C25 UNL     1      18.484  17.255  11.031  1.00  0.00     0.038 C 
HETATM   39  C26 UNL     1      17.094  17.255  11.591  1.00  0.00     0.171 C 
HETATM   40  F1  UNL     1      16.797  16.081  12.257  1.00  0.00    -0.249 F 
HETATM   41  C27 UNL     1      16.181  17.465  10.404  1.00  0.00     0.051 C 
ENDBRANCH  23  36
ENDBRANCH  17  18
ENDBRANCH  16  17
ENDBRANCH  13  16
ENDBRANCH   9  10
TORSDOF 7
ENDMDL
MODEL 5
REMARK VINA RESULT: -8.913834206      2.148      3.101
REMARK  7 active torsions:
REMARK  status: ('A' for Active; 'I' for Inactive)
REMARK    1  A    between atoms: C4_9  and  C5_10 
REMARK    2  A    between atoms: N4_13  and  C8_14 
REMARK    3  A    between atoms: C8_14  and  C9_15 
REMARK    4  A    between atoms: C9_15  and  C10_16 
REMARK    5  A    between atoms: C12_18  and  C13_19 
REMARK    6  A    between atoms: C20_27  and  C21_28 
REMARK       I    between atoms: N6_31  and  C22_32 
REMARK    7  A    between atoms: C22_32  and  C23_34 
ROOT
HETATM    1  N1  UNL     1      16.119  17.610   0.944  1.00  0.00    -0.191 NA
HETATM    2  C1  UNL     1      16.533  17.907   1.983  1.00  0.00     0.103 C 
HETATM    3  C2  UNL     1      17.062  18.255   3.291  1.00  0.00     0.085 A 
HETATM    4  C3  UNL     1      18.219  17.721   3.855  1.00  0.00     0.131 A 
HETATM    5  N2  UNL     1      18.365  18.276   5.051  1.00  0.00    -0.310 N 
ATOM      6  H2  UNL     1      19.122  18.084   5.706  1.00  0.00     0.186 HD
HETATM    7  N3  UNL     1      17.362  19.124   5.254  1.00  0.00    -0.303 N 
ATOM      8  H3  UNL     1      17.239  19.682   6.099  1.00  0.00     0.186 HD
HETATM    9  C4  UNL     1      16.529  19.147   4.194  1.00  0.00     0.052 A 
ENDROOT
BRANCH   9  10
HETATM   10  C5  UNL     1      15.293  19.970   4.020  1.00  0.00     0.042 C 
HETATM   11  C6  UNL     1      14.053  19.284   4.498  1.00  0.00     0.041 C 
HETATM   12  C7  UNL     1      13.199  20.209   5.377  1.00  0.00     0.273 C 
HETATM   13  N4  UNL     1      13.075  21.447   4.693  1.00  0.00     0.088 N 
HETATM   14  C28 UNL     1      14.306  22.164   4.763  1.00  0.00     0.273 C 
HETATM   15  C29 UNL     1      15.525  21.270   4.790  1.00  0.00     0.041 C 
BRANCH  13  16
HETATM   16  C8  UNL     1      11.964  22.282   5.089  1.00  0.00     0.274 C 
BRANCH  16  17
HETATM   17  C9  UNL     1      11.000  22.388   3.968  1.00  0.00     0.055 C 
BRANCH  17  18
HETATM   18  C10 UNL     1      10.249  23.663   3.826  1.00  0.00     0.090 C 
HETATM   19  C11 UNL     1      10.491  24.621   4.947  1.00  0.00     0.033 C 
HETATM   20  C12 UNL     1       9.242  25.402   5.083  1.00  0.00     0.025 C 
HETATM   21  C20 UNL     1       8.332  24.972   4.016  1.00  0.00     0.193 C 
HETATM   22  N6  UNL     1       8.857  23.642   3.640  1.00  0.00    -0.332 N 
HETATM   23  C22 UNL     1       8.039  22.591   3.159  1.00  0.00     0.225 C 
HETATM   24  O3  UNL     1       8.558  21.489   2.773  1.00  0.00    -0.273 OA
BRANCH  20  25
HETATM   25  C13 UNL     1       8.695  25.484   6.462  1.00  0.00    -0.001 C 
HETATM   26  C14 UNL     1       9.670  24.945   7.508  1.00  0.00     0.036 C 
HETATM   27  C15 UNL     1       8.788  24.734   8.749  1.00  0.00     0.272 C 
HETATM   28  N5  UNL     1       8.086  25.944   9.105  1.00  0.00     0.088 N 
HETATM   29  C16 UNL     1       9.098  26.992   9.201  1.00  0.00     0.273 C 
HETATM   30  C19 UNL     1       7.168  26.398   8.071  1.00  0.00     0.277 C 
HETATM   31  C17 UNL     1       9.130  27.580   7.815  1.00  0.00     0.037 C 
HETATM   32  C18 UNL     1       8.183  26.769   6.961  1.00  0.00     0.020 C 
ENDBRANCH  20  25
BRANCH  21  33
HETATM   33  C21 UNL     1       8.499  25.876   2.857  1.00  0.00     0.197 C 
HETATM   34  O1  UNL     1       8.377  27.124   3.092  1.00  0.00    -0.646 OA
HETATM   35  O2  UNL     1       8.770  25.422   1.590  1.00  0.00    -0.646 OA
ENDBRANCH  21  33
BRANCH  23  36
HETATM   36  C23 UNL     1       6.562  22.645   3.057  1.00  0.00     0.081 C 
HETATM   37  C24 UNL     1       5.966  23.727   3.883  1.00  0.00     0.017 C 
HETATM   38  C25 UNL     1       4.910  24.431   3.021  1.00  0.00     0.038 C 
HETATM   39  C26 UNL     1       5.491  24.294   1.647  1.00  0.00     0.171 C 
HETATM   40  F1  UNL     1       4.528  24.383   0.659  1.00  0.00    -0.249 F 
HETATM   41  C27 UNL     1       6.177  22.946   1.631  1.00  0.00     0.051 C 
ENDBRANCH  23  36
ENDBRANCH  17  18
ENDBRANCH  16  17
ENDBRANCH  13  16
ENDBRANCH   9  10
TORSDOF 7
ENDMDL
