MODEL 1
REMARK VINA RESULT: -8.969954127      0.000      0.000
REMARK  9 active torsions:
REMARK  status: ('A' for Active; 'I' for Inactive)
REMARK    1  A    between atoms: C3_3  and  N1_4 
REMARK    2  A    between atoms: C7_9  and  N2_10 
REMARK       I    between atoms: N2_10  and  C8_12 
REMARK    3  A    between atoms: C8_12  and  C9_14 
REMARK    4  A    between atoms: N3_17  and  S1_18 
REMARK    5  A    between atoms: S1_18  and  C12_21 
REMARK    6  A    between atoms: C17_28  and  C18_29 
REMARK    7  A    between atoms: C18_29  and  O5_31 
REMARK    8  A    between atoms: O5_31  and  C19_32 
REMARK    9  A    between atoms: C23_36  and  C24_37 
ROOT
HETATM    1  C1  UNL     1      15.914  19.076   9.663  1.00  0.00     0.014 C 
HETATM    2  C2  UNL     1      16.446  19.834   8.889  1.00  0.00    -0.097 C 
HETATM    3  C3  UNL     1      17.088  20.751   7.919  1.00  0.00     0.221 C 
ENDROOT
BRANCH   3   4
HETATM    4  N1  UNL     1      16.254  20.779   6.764  1.00  0.00    -0.339 N 
HETATM    5  C4  UNL     1      16.389  20.013   5.671  1.00  0.00     0.033 A 
HETATM    6  C5  UNL     1      17.405  18.974   5.385  1.00  0.00     0.070 C 
HETATM    7  C6  UNL     1      15.382  20.330   4.757  1.00  0.00     0.085 A 
HETATM    8 CL1  UNL     1      15.105  19.627   3.177  1.00  0.00    -0.080 Cl
HETATM    9  C7  UNL     1      14.623  21.328   5.343  1.00  0.00     0.081 A 
HETATM   10  C23 UNL     1      15.187  21.571   6.563  1.00  0.00     0.041 A 
BRANCH   9  11
HETATM   11  N2  UNL     1      13.500  21.966   4.766  1.00  0.00    -0.324 N 
HETATM   12  C8  UNL     1      12.213  21.445   4.976  1.00  0.00     0.226 C 
HETATM   13  O1  UNL     1      12.043  20.411   5.672  1.00  0.00    -0.273 OA
ATOM     14  H2  UNL     1      13.624  22.804   4.198  1.00  0.00     0.169 HD
BRANCH  12  15
HETATM   15  C9  UNL     1      10.999  22.081   4.395  1.00  0.00     0.080 C 
HETATM   16  C10 UNL     1      11.508  23.093   3.359  1.00  0.00     0.029 C 
HETATM   17  C11 UNL     1      10.276  23.687   2.732  1.00  0.00     0.108 C 
HETATM   18  N3  UNL     1       9.392  24.318   3.618  1.00  0.00    -0.206 NA
HETATM   19  C21 UNL     1       9.173  23.726   4.887  1.00  0.00     0.108 C 
HETATM   20  C22 UNL     1      10.271  22.880   5.421  1.00  0.00     0.029 C 
BRANCH  18  21
HETATM   21  S1  UNL     1       7.910  24.655   2.793  1.00  0.00     0.246 S 
HETATM   22  O2  UNL     1       8.205  25.700   1.755  1.00  0.00    -0.206 OA
HETATM   23  O3  UNL     1       7.453  23.418   2.049  1.00  0.00    -0.206 OA
BRANCH  21  24
HETATM   24  C12 UNL     1       6.653  25.167   3.897  1.00  0.00     0.115 A 
HETATM   25  C13 UNL     1       5.422  24.565   4.033  1.00  0.00     0.029 A 
HETATM   26  C14 UNL     1       4.814  23.409   3.365  1.00  0.00     0.070 C 
HETATM   27  N4  UNL     1       4.753  25.268   4.992  1.00  0.00    -0.361 N 
HETATM   28  C15 UNL     1       5.537  26.274   5.439  1.00  0.00     0.023 A 
ATOM     29  H4  UNL     1       3.809  25.066   5.320  1.00  0.00     0.165 HD
HETATM   30  C16 UNL     1       5.173  27.267   6.485  1.00  0.00     0.069 C 
HETATM   31  C17 UNL     1       6.737  26.237   4.771  1.00  0.00     0.086 A 
BRANCH  31  32
HETATM   32  C18 UNL     1       7.873  27.109   4.914  1.00  0.00     0.296 C 
HETATM   33  O4  UNL     1       8.412  27.704   3.919  1.00  0.00    -0.259 OA
BRANCH  32  34
HETATM   34  O5  UNL     1       8.477  27.375   6.150  1.00  0.00    -0.318 OA
BRANCH  34  35
HETATM   35  C19 UNL     1       8.944  26.305   6.979  1.00  0.00     0.174 C 
HETATM   36  C20 UNL     1       8.312  26.416   8.326  1.00  0.00     0.034 C 
ENDBRANCH  34  35
ENDBRANCH  32  34
ENDBRANCH  31  32
ENDBRANCH  21  24
ENDBRANCH  18  21
ENDBRANCH  12  15
ENDBRANCH   9  11
BRANCH  10  37
HETATM   37  C24 UNL     1      14.721  22.567   7.545  1.00  0.00     0.055 C 
HETATM   38  C25 UNL     1      13.583  22.082   8.377  1.00  0.00     0.011 C 
ENDBRANCH  10  37
ENDBRANCH   3   4
TORSDOF 9
ENDMDL
MODEL 2
REMARK VINA RESULT: -8.822385390      1.970      3.187
REMARK  9 active torsions:
REMARK  status: ('A' for Active; 'I' for Inactive)
REMARK    1  A    between atoms: C3_3  and  N1_4 
REMARK    2  A    between atoms: C7_9  and  N2_10 
REMARK       I    between atoms: N2_10  and  C8_12 
REMARK    3  A    between atoms: C8_12  and  C9_14 
REMARK    4  A    between atoms: N3_17  and  S1_18 
REMARK    5  A    between atoms: S1_18  and  C12_21 
REMARK    6  A    between atoms: C17_28  and  C18_29 
REMARK    7  A    between atoms: C18_29  and  O5_31 
REMARK    8  A    between atoms: O5_31  and  C19_32 
REMARK    9  A    between atoms: C23_36  and  C24_37 
ROOT
HETATM    1  C1  UNL     1      15.914  19.103   9.649  1.00  0.00     0.014 C 
HETATM    2  C2  UNL     1      16.343  19.813   8.773  1.00  0.00    -0.097 C 
HETATM    3  C3  UNL     1      16.853  20.675   7.681  1.00  0.00     0.221 C 
ENDROOT
BRANCH   3   4
HETATM    4  N1  UNL     1      15.786  20.834   6.750  1.00  0.00    -0.339 N 
HETATM    5  C4  UNL     1      15.669  20.212   5.566  1.00  0.00     0.033 A 
HETATM    6  C5  UNL     1      16.583  19.232   4.938  1.00  0.00     0.070 C 
HETATM    7  C6  UNL     1      14.490  20.626   4.943  1.00  0.00     0.085 A 
HETATM    8 CL1  UNL     1      13.863  20.122   3.387  1.00  0.00    -0.080 Cl
HETATM    9  C7  UNL     1      13.891  21.533   5.800  1.00  0.00     0.081 A 
HETATM   10  C23 UNL     1      14.713  21.630   6.888  1.00  0.00     0.041 A 
BRANCH   9  11
HETATM   11  N2  UNL     1      12.677  22.222   5.568  1.00  0.00    -0.324 N 
HETATM   12  C8  UNL     1      12.699  23.523   5.040  1.00  0.00     0.226 C 
HETATM   13  O1  UNL     1      13.790  24.090   4.772  1.00  0.00    -0.273 OA
ATOM     14  H2  UNL     1      11.787  21.773   5.783  1.00  0.00     0.169 HD
BRANCH  12  15
HETATM   15  C9  UNL     1      11.450  24.288   4.774  1.00  0.00     0.080 C 
HETATM   16  C10 UNL     1      11.128  25.035   6.076  1.00  0.00     0.029 C 
HETATM   17  C11 UNL     1       9.901  25.854   5.781  1.00  0.00     0.108 C 
HETATM   18  N3  UNL     1       8.778  25.128   5.359  1.00  0.00    -0.206 NA
HETATM   19  C21 UNL     1       8.974  24.034   4.481  1.00  0.00     0.108 C 
HETATM   20  C22 UNL     1      10.302  23.368   4.537  1.00  0.00     0.029 C 
BRANCH  18  21
HETATM   21  S1  UNL     1       7.582  26.230   4.770  1.00  0.00     0.246 S 
HETATM   22  O2  UNL     1       8.307  27.433   4.238  1.00  0.00    -0.206 OA
HETATM   23  O3  UNL     1       6.855  25.606   3.598  1.00  0.00    -0.206 OA
BRANCH  21  24
HETATM   24  C12 UNL     1       6.426  26.658   6.011  1.00  0.00     0.115 A 
HETATM   25  C13 UNL     1       6.726  27.316   7.183  1.00  0.00     0.029 A 
HETATM   26  C14 UNL     1       7.990  27.825   7.728  1.00  0.00     0.070 C 
HETATM   27  N4  UNL     1       5.550  27.452   7.861  1.00  0.00    -0.361 N 
HETATM   28  C15 UNL     1       4.550  26.901   7.139  1.00  0.00     0.023 A 
ATOM     29  H4  UNL     1       5.443  27.901   8.770  1.00  0.00     0.165 HD
HETATM   30  C16 UNL     1       3.117  26.844   7.532  1.00  0.00     0.069 C 
HETATM   31  C17 UNL     1       5.068  26.393   5.972  1.00  0.00     0.086 A 
BRANCH  31  32
HETATM   32  C18 UNL     1       4.381  25.717   4.903  1.00  0.00     0.296 C 
HETATM   33  O4  UNL     1       3.865  26.343   3.915  1.00  0.00    -0.259 OA
BRANCH  32  34
HETATM   34  O5  UNL     1       4.225  24.326   4.858  1.00  0.00    -0.318 OA
BRANCH  34  35
HETATM   35  C19 UNL     1       2.928  23.742   4.692  1.00  0.00     0.174 C 
HETATM   36  C20 UNL     1       3.080  22.324   4.254  1.00  0.00     0.034 C 
ENDBRANCH  34  35
ENDBRANCH  32  34
ENDBRANCH  31  32
ENDBRANCH  21  24
ENDBRANCH  18  21
ENDBRANCH  12  15
ENDBRANCH   9  11
BRANCH  10  37
HETATM   37  C24 UNL     1      14.486  22.489   8.064  1.00  0.00     0.055 C 
HETATM   38  C25 UNL     1      13.438  21.961   8.983  1.00  0.00     0.011 C 
ENDBRANCH  10  37
ENDBRANCH   3   4
TORSDOF 9
ENDMDL
MODEL 3
REMARK VINA RESULT: -8.821726454      1.425      2.423
REMARK  9 active torsions:
REMARK  status: ('A' for Active; 'I' for Inactive)
REMARK    1  A    between atoms: C3_3  and  N1_4 
REMARK    2  A    between atoms: C7_9  and  N2_10 
REMARK       I    between atoms: N2_10  and  C8_12 
REMARK    3  A    between atoms: C8_12  and  C9_14 
REMARK    4  A    between atoms: N3_17  and  S1_18 
REMARK    5  A    between atoms: S1_18  and  C12_21 
REMARK    6  A    between atoms: C17_28  and  C18_29 
REMARK    7  A    between atoms: C18_29  and  O5_31 
REMARK    8  A    between atoms: O5_31  and  C19_32 
REMARK    9  A    between atoms: C23_36  and  C24_37 
ROOT
HETATM    1  C1  UNL     1      17.601  16.467   5.003  1.00  0.00     0.014 C 
HETATM    2  C2  UNL     1      17.714  17.664   4.904  1.00  0.00    -0.097 C 
HETATM    3  C3  UNL     1      17.829  19.136   4.778  1.00  0.00     0.221 C 
ENDROOT
BRANCH   3   4
HETATM    4  N1  UNL     1      16.580  19.683   5.193  1.00  0.00    -0.339 N 
HETATM    5  C4  UNL     1      16.275  20.116   6.426  1.00  0.00     0.033 A 
HETATM    6  C5  UNL     1      17.126  20.140   7.638  1.00  0.00     0.070 C 
HETATM    7  C6  UNL     1      14.959  20.582   6.440  1.00  0.00     0.085 A 
HETATM    8 CL1  UNL     1      14.070  21.251   7.792  1.00  0.00    -0.080 Cl
HETATM    9  C7  UNL     1      14.471  20.412   5.156  1.00  0.00     0.081 A 
HETATM   10  C23 UNL     1      15.489  19.863   4.429  1.00  0.00     0.041 A 
BRANCH   9  11
HETATM   11  N2  UNL     1      13.167  20.735   4.712  1.00  0.00    -0.324 N 
HETATM   12  C8  UNL     1      12.849  22.061   4.374  1.00  0.00     0.226 C 
HETATM   13  O1  UNL     1      13.713  22.972   4.464  1.00  0.00    -0.273 OA
ATOM     14  H2  UNL     1      12.457  20.006   4.637  1.00  0.00     0.169 HD
BRANCH  12  15
HETATM   15  C9  UNL     1      11.494  22.452   3.899  1.00  0.00     0.080 C 
HETATM   16  C10 UNL     1      11.683  23.758   3.116  1.00  0.00     0.029 C 
HETATM   17  C11 UNL     1      10.321  24.115   2.586  1.00  0.00     0.108 C 
HETATM   18  N3  UNL     1       9.321  24.281   3.555  1.00  0.00    -0.206 NA
HETATM   19  C21 UNL     1       9.303  23.399   4.663  1.00  0.00     0.108 C 
HETATM   20  C22 UNL     1      10.604  22.789   5.045  1.00  0.00     0.029 C 
BRANCH  18  21
HETATM   21  S1  UNL     1       7.783  24.371   2.769  1.00  0.00     0.246 S 
HETATM   22  O2  UNL     1       7.947  25.254   1.566  1.00  0.00    -0.206 OA
HETATM   23  O3  UNL     1       7.398  23.000   2.255  1.00  0.00    -0.206 OA
BRANCH  21  24
HETATM   24  C12 UNL     1       6.536  24.959   3.847  1.00  0.00     0.115 A 
HETATM   25  C13 UNL     1       5.254  24.463   3.923  1.00  0.00     0.029 A 
HETATM   26  C14 UNL     1       4.572  23.385   3.198  1.00  0.00     0.070 C 
HETATM   27  N4  UNL     1       4.614  25.194   4.881  1.00  0.00    -0.361 N 
HETATM   28  C15 UNL     1       5.465  26.113   5.387  1.00  0.00     0.023 A 
ATOM     29  H4  UNL     1       3.645  25.066   5.171  1.00  0.00     0.165 HD
HETATM   30  C16 UNL     1       5.151  27.103   6.451  1.00  0.00     0.069 C 
HETATM   31  C17 UNL     1       6.681  25.991   4.757  1.00  0.00     0.086 A 
BRANCH  31  32
HETATM   32  C18 UNL     1       7.883  26.755   4.966  1.00  0.00     0.296 C 
HETATM   33  O4  UNL     1       8.251  27.686   4.172  1.00  0.00    -0.259 OA
BRANCH  32  34
HETATM   34  O5  UNL     1       8.741  26.541   6.052  1.00  0.00    -0.318 OA
BRANCH  34  35
HETATM   35  C19 UNL     1       8.560  27.258   7.279  1.00  0.00     0.174 C 
HETATM   36  C20 UNL     1       8.295  26.288   8.381  1.00  0.00     0.034 C 
ENDBRANCH  34  35
ENDBRANCH  32  34
ENDBRANCH  31  32
ENDBRANCH  21  24
ENDBRANCH  18  21
ENDBRANCH  12  15
ENDBRANCH   9  11
BRANCH  10  37
HETATM   37  C24 UNL     1      15.429  19.495   3.003  1.00  0.00     0.055 C 
HETATM   38  C25 UNL     1      14.790  18.170   2.765  1.00  0.00     0.011 C 
ENDBRANCH  10  37
ENDBRANCH   3   4
TORSDOF 9
ENDMDL
MODEL 4
REMARK VINA RESULT: -8.647852586      1.534      3.248
REMARK  9 active torsions:
REMARK  status: ('A' for Active; 'I' for Inactive)
REMARK    1  A    between atoms: C3_3  and  N1_4 
REMARK    2  A    between atoms: C7_9  and  N2_10 
REMARK       I    between atoms: N2_10  and  C8_12 
REMARK    3  A    between atoms: C8_12  and  C9_14 
REMARK    4  A    between atoms: N3_17  and  S1_18 
REMARK    5  A    between atoms: S1_18  and  C12_21 
REMARK    6  A    between atoms: C17_28  and  C18_29 
REMARK    7  A    between atoms: C18_29  and  O5_31 
REMARK    8  A    between atoms: O5_31  and  C19_32 
REMARK    9  A    between atoms: C23_36  and  C24_37 
ROOT
HETATM    1  C1  UNL     1      16.121  18.848   9.590  1.00  0.00     0.014 C 
HETATM    2  C2  UNL     1      16.584  19.558   8.732  1.00  0.00    -0.097 C 
HETATM    3  C3  UNL     1      17.135  20.421   7.661  1.00  0.00     0.221 C 
ENDROOT
BRANCH   3   4
HETATM    4  N1  UNL     1      16.074  20.664   6.741  1.00  0.00    -0.339 N 
HETATM    5  C4  UNL     1      15.910  20.072   5.547  1.00  0.00     0.033 A 
HETATM    6  C5  UNL     1      16.758  19.049   4.894  1.00  0.00     0.070 C 
HETATM    7  C6  UNL     1      14.756  20.570   4.940  1.00  0.00     0.085 A 
HETATM    8 CL1  UNL     1      14.089  20.135   3.380  1.00  0.00    -0.080 Cl
HETATM    9  C7  UNL     1      14.220  21.496   5.819  1.00  0.00     0.081 A 
HETATM   10  C23 UNL     1      15.053  21.522   6.902  1.00  0.00     0.041 A 
BRANCH   9  11
HETATM   11  N2  UNL     1      13.050  22.263   5.608  1.00  0.00    -0.324 N 
HETATM   12  C8  UNL     1      13.140  23.529   5.007  1.00  0.00     0.226 C 
HETATM   13  O1  UNL     1      14.254  23.996   4.654  1.00  0.00    -0.273 OA
ATOM     14  H2  UNL     1      12.141  21.897   5.892  1.00  0.00     0.169 HD
BRANCH  12  15
HETATM   15  C9  UNL     1      11.939  24.373   4.761  1.00  0.00     0.080 C 
HETATM   16  C10 UNL     1      11.205  24.466   6.106  1.00  0.00     0.029 C 
HETATM   17  C11 UNL     1      10.027  25.370   5.865  1.00  0.00     0.108 C 
HETATM   18  N3  UNL     1       9.138  24.949   4.866  1.00  0.00    -0.206 NA
HETATM   19  C21 UNL     1       9.671  24.359   3.693  1.00  0.00     0.108 C 
HETATM   20  C22 UNL     1      10.994  23.696   3.828  1.00  0.00     0.029 C 
BRANCH  18  21
HETATM   21  S1  UNL     1       8.040  26.237   4.507  1.00  0.00     0.246 S 
HETATM   22  O2  UNL     1       8.462  27.424   5.325  1.00  0.00    -0.206 OA
HETATM   23  O3  UNL     1       8.186  26.633   3.054  1.00  0.00    -0.206 OA
BRANCH  21  24
HETATM   24  C12 UNL     1       6.381  25.783   4.823  1.00  0.00     0.115 A 
HETATM   25  C13 UNL     1       5.598  26.289   5.837  1.00  0.00     0.029 A 
HETATM   26  C14 UNL     1       5.868  27.277   6.887  1.00  0.00     0.070 C 
HETATM   27  N4  UNL     1       4.383  25.677   5.728  1.00  0.00    -0.361 N 
HETATM   28  C15 UNL     1       4.405  24.820   4.684  1.00  0.00     0.023 A 
ATOM     29  H4  UNL     1       3.584  25.841   6.340  1.00  0.00     0.165 HD
HETATM   30  C16 UNL     1       3.277  23.961   4.235  1.00  0.00     0.069 C 
HETATM   31  C17 UNL     1       5.646  24.863   4.095  1.00  0.00     0.086 A 
BRANCH  31  32
HETATM   32  C18 UNL     1       6.127  24.124   2.958  1.00  0.00     0.296 C 
HETATM   33  O4  UNL     1       6.664  22.969   3.067  1.00  0.00    -0.259 OA
BRANCH  32  34
HETATM   34  O5  UNL     1       6.047  24.609   1.646  1.00  0.00    -0.318 OA
BRANCH  34  35
HETATM   35  C19 UNL     1       5.238  23.944   0.670  1.00  0.00     0.174 C 
HETATM   36  C20 UNL     1       3.869  24.537   0.680  1.00  0.00     0.034 C 
ENDBRANCH  34  35
ENDBRANCH  32  34
ENDBRANCH  31  32
ENDBRANCH  21  24
ENDBRANCH  18  21
ENDBRANCH  12  15
ENDBRANCH   9  11
BRANCH  10  37
HETATM   37  C24 UNL     1      14.888  22.371   8.095  1.00  0.00     0.055 C 
HETATM   38  C25 UNL     1      13.852  21.862   9.038  1.00  0.00     0.011 C 
ENDBRANCH  10  37
ENDBRANCH   3   4
TORSDOF 9
ENDMDL
MODEL 5
REMARK VINA RESULT: -8.644932885      1.605      3.094
REMARK  9 active torsions:
REMARK  status: ('A' for Active; 'I' for Inactive)
REMARK    1  A    between atoms: C3_3  and  N1_4 
REMARK    2  A    between atoms: C7_9  and  N2_10 
REMARK       I    between atoms: N2_10  and  C8_12 
REMARK    3  A    between atoms: C8_12  and  C9_14 
REMARK    4  A    between atoms: N3_17  and  S1_18 
REMARK    5  A    between atoms: S1_18  and  C12_21 
REMARK    6  A    between atoms: C17_28  and  C18_29 
REMARK    7  A    between atoms: C18_29  and  O5_31 
REMARK    8  A    between atoms: O5_31  and  C19_32 
REMARK    9  A    between atoms: C23_36  and  C24_37 
ROOT
HETATM    1  C1  UNL     1      16.110  18.831   9.667  1.00  0.00     0.014 C 
HETATM    2  C2  UNL     1      16.570  19.557   8.820  1.00  0.00    -0.097 C 
HETATM    3  C3  UNL     1      17.116  20.441   7.764  1.00  0.00     0.221 C 
ENDROOT
BRANCH   3   4
HETATM    4  N1  UNL     1      16.035  20.756   6.891  1.00  0.00    -0.339 N 
HETATM    5  C4  UNL     1      15.826  20.240   5.670  1.00  0.00     0.033 A 
HETATM    6  C5  UNL     1      16.635  19.242   4.933  1.00  0.00     0.070 C 
HETATM    7  C6  UNL     1      14.664  20.793   5.127  1.00  0.00     0.085 A 
HETATM    8 CL1  UNL     1      13.946  20.463   3.565  1.00  0.00    -0.080 Cl
HETATM    9  C7  UNL     1      14.172  21.674   6.074  1.00  0.00     0.081 A 
HETATM   10  C23 UNL     1      15.035  21.621   7.132  1.00  0.00     0.041 A 
BRANCH   9  11
HETATM   11  N2  UNL     1      13.011  22.473   5.943  1.00  0.00    -0.324 N 
HETATM   12  C8  UNL     1      13.080  23.707   5.278  1.00  0.00     0.226 C 
HETATM   13  O1  UNL     1      14.168  24.118   4.796  1.00  0.00    -0.273 OA
ATOM     14  H2  UNL     1      12.124  22.152   6.332  1.00  0.00     0.169 HD
BRANCH  12  15
HETATM   15  C9  UNL     1      11.888  24.582   5.111  1.00  0.00     0.080 C 
HETATM   16  C10 UNL     1      11.072  24.435   6.403  1.00  0.00     0.029 C 
HETATM   17  C11 UNL     1       9.902  25.368   6.253  1.00  0.00     0.108 C 
HETATM   18  N3  UNL     1       9.080  25.132   5.143  1.00  0.00    -0.206 NA
HETATM   19  C21 UNL     1       9.690  24.760   3.919  1.00  0.00     0.108 C 
HETATM   20  C22 UNL     1      11.009  24.083   4.016  1.00  0.00     0.029 C 
BRANCH  18  21
HETATM   21  S1  UNL     1       7.993  26.464   4.950  1.00  0.00     0.246 S 
HETATM   22  O2  UNL     1       8.373  27.500   5.969  1.00  0.00    -0.206 OA
HETATM   23  O3  UNL     1       8.201  27.092   3.590  1.00  0.00    -0.206 OA
BRANCH  21  24
HETATM   24  C12 UNL     1       6.323  25.968   5.113  1.00  0.00     0.115 A 
HETATM   25  C13 UNL     1       5.450  26.424   6.075  1.00  0.00     0.029 A 
HETATM   26  C14 UNL     1       5.612  27.380   7.176  1.00  0.00     0.070 C 
HETATM   27  N4  UNL     1       4.262  25.793   5.847  1.00  0.00    -0.361 N 
HETATM   28  C15 UNL     1       4.387  24.974   4.781  1.00  0.00     0.023 A 
ATOM     29  H4  UNL     1       3.412  25.921   6.396  1.00  0.00     0.165 HD
HETATM   30  C16 UNL     1       3.317  24.110   4.212  1.00  0.00     0.069 C 
HETATM   31  C17 UNL     1       5.670  25.060   4.298  1.00  0.00     0.086 A 
BRANCH  31  32
HETATM   32  C18 UNL     1       6.259  24.370   3.180  1.00  0.00     0.296 C 
HETATM   33  O4  UNL     1       6.327  24.887   2.013  1.00  0.00    -0.259 OA
BRANCH  32  34
HETATM   34  O5  UNL     1       6.801  23.083   3.281  1.00  0.00    -0.318 OA
BRANCH  34  35
HETATM   35  C19 UNL     1       7.422  22.461   2.150  1.00  0.00     0.174 C 
HETATM   36  C20 UNL     1       8.598  21.666   2.610  1.00  0.00     0.034 C 
ENDBRANCH  34  35
ENDBRANCH  32  34
ENDBRANCH  31  32
ENDBRANCH  21  24
ENDBRANCH  18  21
ENDBRANCH  12  15
ENDBRANCH   9  11
BRANCH  10  37
HETATM   37  C24 UNL     1      14.920  22.400   8.377  1.00  0.00     0.055 C 
HETATM   38  C25 UNL     1      13.972  21.801   9.359  1.00  0.00     0.011 C 
ENDBRANCH  10  37
ENDBRANCH   3   4
TORSDOF 9
ENDMDL
