MODEL 1
REMARK VINA RESULT: -8.404659145      0.000      0.000
REMARK  10 active torsions:
REMARK  status: ('A' for Active; 'I' for Inactive)
REMARK    1  A    between atoms: C2_2  and  C3_3 
REMARK    2  A    between atoms: C3_3  and  C4_4 
REMARK       I    between atoms: C4_4  and  N1_6 
REMARK    3  A    between atoms: N1_6  and  C5_8 
REMARK    4  A    between atoms: C5_8  and  C6_9 
REMARK       I    between atoms: C6_9  and  N2_11 
REMARK    5  A    between atoms: N2_11  and  C7_13 
REMARK       I    between atoms: N3_15  and  C9_16 
REMARK    6  A    between atoms: C9_16  and  O4_18 
REMARK    7  A    between atoms: O4_18  and  C10_19 
REMARK    8  A    between atoms: C17_27  and  C18_28 
REMARK    9  A    between atoms: C18_28  and  O6_30 
REMARK   10  A    between atoms: O6_30  and  C19_31 
ROOT
HETATM    1  C7  UNL     1      11.137  23.028   5.715  1.00  0.00     0.082 A 
HETATM    2  C8  UNL     1      12.224  23.371   4.716  1.00  0.00     0.162 A 
HETATM    3  N3  UNL     1      12.516  21.967   4.482  1.00  0.00    -0.318 N 
HETATM    4  C9  UNL     1      13.418  21.289   3.639  1.00  0.00     0.363 C 
HETATM    5  O3  UNL     1      14.213  21.945   2.885  1.00  0.00    -0.238 OA
HETATM    6  C13 UNL     1      11.517  21.598   5.461  1.00  0.00     0.121 A 
HETATM    7  C14 UNL     1      12.128  20.883   6.630  1.00  0.00     0.044 C 
HETATM    8  C15 UNL     1      13.138  21.629   7.411  1.00  0.00     0.060 C 
HETATM    9 BR1  UNL     1      14.957  21.268   6.802  1.00  0.00    -0.091 Br
HETATM   10  C16 UNL     1      12.885  23.090   7.528  1.00  0.00     0.033 C 
HETATM   11  C17 UNL     1      11.443  23.380   7.126  1.00  0.00     0.118 C 
ENDROOT
BRANCH   1  12
HETATM   12  N2  UNL     1       9.824  23.429   5.322  1.00  0.00    -0.345 N 
HETATM   13  C6  UNL     1       9.490  24.101   4.128  1.00  0.00     0.246 C 
HETATM   14  O2  UNL     1      10.403  24.371   3.318  1.00  0.00    -0.271 OA
ATOM     15  H2  UNL     1       9.060  23.211   5.962  1.00  0.00     0.163 HD
BRANCH  13  16
HETATM   16  C5  UNL     1       8.129  24.515   3.752  1.00  0.00     0.113 A 
HETATM   17  C21 UNL     1       8.069  25.305   2.484  1.00  0.00     0.041 A 
HETATM   18  C22 UNL     1       7.307  24.516   1.455  1.00  0.00     0.003 A 
HETATM   19  C23 UNL     1       6.815  23.275   2.109  1.00  0.00     0.003 A 
HETATM   20  C24 UNL     1       7.318  23.284   3.497  1.00  0.00     0.041 A 
BRANCH  16  21
HETATM   21  N1  UNL     1       7.558  25.291   4.851  1.00  0.00    -0.343 N 
HETATM   22  C4  UNL     1       7.680  26.687   4.980  1.00  0.00     0.218 C 
HETATM   23  O1  UNL     1       8.296  27.345   4.117  1.00  0.00    -0.274 OA
ATOM     24  H1  UNL     1       7.038  24.789   5.570  1.00  0.00     0.163 HD
BRANCH  22  25
HETATM   25  C3  UNL     1       7.067  27.354   6.153  1.00  0.00     0.102 C 
BRANCH  25  26
HETATM   26  C2  UNL     1       5.580  27.272   6.199  1.00  0.00     0.005 C 
HETATM   27  C1  UNL     1       5.067  26.940   7.596  1.00  0.00     0.005 C 
ENDBRANCH  25  26
ENDBRANCH  22  25
ENDBRANCH  16  21
ENDBRANCH  13  16
ENDBRANCH   1  12
BRANCH  11  28
HETATM   28  C18 UNL     1      11.272  24.842   7.431  1.00  0.00     0.265 C 
HETATM   29  O5  UNL     1      12.276  25.542   7.674  1.00  0.00    -0.265 OA
BRANCH  28  30
HETATM   30  O6  UNL     1      10.038  25.435   7.455  1.00  0.00    -0.321 OA
BRANCH  30  31
HETATM   31  C19 UNL     1       9.209  25.612   8.561  1.00  0.00     0.174 C 
HETATM   32  C20 UNL     1       9.390  26.895   9.301  1.00  0.00     0.034 C 
ENDBRANCH  30  31
ENDBRANCH  28  30
ENDBRANCH  11  28
BRANCH   4  33
HETATM   33  O4  UNL     1      13.522  19.917   3.553  1.00  0.00    -0.298 OA
BRANCH  33  34
HETATM   34  C10 UNL     1      14.758  19.235   3.539  1.00  0.00     0.134 A 
HETATM   35  C11 UNL     1      15.077  18.267   2.463  1.00  0.00     0.035 A 
HETATM   36  C12 UNL     1      14.629  17.734   3.770  1.00  0.00     0.035 A 
ENDBRANCH  33  34
ENDBRANCH   4  33
TORSDOF 10
ENDMDL
MODEL 2
REMARK VINA RESULT: -8.315207719      1.049      1.088
REMARK  10 active torsions:
REMARK  status: ('A' for Active; 'I' for Inactive)
REMARK    1  A    between atoms: C2_2  and  C3_3 
REMARK    2  A    between atoms: C3_3  and  C4_4 
REMARK       I    between atoms: C4_4  and  N1_6 
REMARK    3  A    between atoms: N1_6  and  C5_8 
REMARK    4  A    between atoms: C5_8  and  C6_9 
REMARK       I    between atoms: C6_9  and  N2_11 
REMARK    5  A    between atoms: N2_11  and  C7_13 
REMARK       I    between atoms: N3_15  and  C9_16 
REMARK    6  A    between atoms: C9_16  and  O4_18 
REMARK    7  A    between atoms: O4_18  and  C10_19 
REMARK    8  A    between atoms: C17_27  and  C18_28 
REMARK    9  A    between atoms: C18_28  and  O6_30 
REMARK   10  A    between atoms: O6_30  and  C19_31 
ROOT
HETATM    1  C7  UNL     1      11.017  23.983   5.973  1.00  0.00     0.082 A 
HETATM    2  C8  UNL     1      12.401  24.308   5.443  1.00  0.00     0.162 A 
HETATM    3  N3  UNL     1      12.607  22.935   5.011  1.00  0.00    -0.318 N 
HETATM    4  C9  UNL     1      13.660  22.272   4.352  1.00  0.00     0.363 C 
HETATM    5  O3  UNL     1      14.720  22.907   4.030  1.00  0.00    -0.238 OA
HETATM    6  C13 UNL     1      11.311  22.575   5.544  1.00  0.00     0.121 A 
HETATM    7  C14 UNL     1      11.431  21.579   6.660  1.00  0.00     0.044 C 
HETATM    8  C15 UNL     1      12.202  22.004   7.848  1.00  0.00     0.060 C 
HETATM    9 BR1  UNL     1      14.073  21.457   7.749  1.00  0.00    -0.091 Br
HETATM   10  C16 UNL     1      12.075  23.445   8.195  1.00  0.00     0.033 C 
HETATM   11  C17 UNL     1      10.881  24.033   7.452  1.00  0.00     0.118 C 
ENDROOT
BRANCH   1  12
HETATM   12  N2  UNL     1       9.953  24.657   5.301  1.00  0.00    -0.345 N 
HETATM   13  C6  UNL     1       8.920  24.041   4.565  1.00  0.00     0.246 C 
HETATM   14  O2  UNL     1       8.905  22.793   4.487  1.00  0.00    -0.271 OA
ATOM     15  H2  UNL     1       9.939  25.676   5.358  1.00  0.00     0.163 HD
BRANCH  13  16
HETATM   16  C5  UNL     1       7.841  24.760   3.870  1.00  0.00     0.113 A 
HETATM   17  C21 UNL     1       8.321  25.644   2.765  1.00  0.00     0.041 A 
HETATM   18  C22 UNL     1       7.795  25.118   1.457  1.00  0.00     0.003 A 
HETATM   19  C23 UNL     1       6.914  23.959   1.757  1.00  0.00     0.003 A 
HETATM   20  C24 UNL     1       6.949  23.751   3.218  1.00  0.00     0.041 A 
BRANCH  16  21
HETATM   21  N1  UNL     1       7.099  25.546   4.852  1.00  0.00    -0.343 N 
HETATM   22  C4  UNL     1       7.448  26.851   5.246  1.00  0.00     0.218 C 
HETATM   23  O1  UNL     1       8.440  27.415   4.740  1.00  0.00    -0.274 OA
ATOM     24  H1  UNL     1       6.276  25.123   5.279  1.00  0.00     0.163 HD
BRANCH  22  25
HETATM   25  C3  UNL     1       6.619  27.537   6.267  1.00  0.00     0.102 C 
BRANCH  25  26
HETATM   26  C2  UNL     1       5.954  26.621   7.235  1.00  0.00     0.005 C 
HETATM   27  C1  UNL     1       4.460  26.902   7.356  1.00  0.00     0.005 C 
ENDBRANCH  25  26
ENDBRANCH  22  25
ENDBRANCH  16  21
ENDBRANCH  13  16
ENDBRANCH   1  12
BRANCH  11  28
HETATM   28  C18 UNL     1      10.770  25.429   7.998  1.00  0.00     0.265 C 
HETATM   29  O5  UNL     1      11.730  25.924   8.624  1.00  0.00    -0.265 OA
BRANCH  28  30
HETATM   30  O6  UNL     1       9.639  26.181   7.833  1.00  0.00    -0.321 OA
BRANCH  30  31
HETATM   31  C19 UNL     1       9.396  27.459   8.332  1.00  0.00     0.174 C 
HETATM   32  C20 UNL     1       8.757  27.512   9.680  1.00  0.00     0.034 C 
ENDBRANCH  30  31
ENDBRANCH  28  30
ENDBRANCH  11  28
BRANCH   4  33
HETATM   33  O4  UNL     1      13.645  20.938   4.009  1.00  0.00    -0.298 OA
BRANCH  33  34
HETATM   34  C10 UNL     1      14.795  20.235   3.584  1.00  0.00     0.134 A 
HETATM   35  C11 UNL     1      14.770  19.417   2.349  1.00  0.00     0.035 A 
HETATM   36  C12 UNL     1      14.643  18.721   3.650  1.00  0.00     0.035 A 
ENDBRANCH  33  34
ENDBRANCH   4  33
TORSDOF 10
ENDMDL
MODEL 3
REMARK VINA RESULT: -8.111826764      3.950      9.554
REMARK  10 active torsions:
REMARK  status: ('A' for Active; 'I' for Inactive)
REMARK    1  A    between atoms: C2_2  and  C3_3 
REMARK    2  A    between atoms: C3_3  and  C4_4 
REMARK       I    between atoms: C4_4  and  N1_6 
REMARK    3  A    between atoms: N1_6  and  C5_8 
REMARK    4  A    between atoms: C5_8  and  C6_9 
REMARK       I    between atoms: C6_9  and  N2_11 
REMARK    5  A    between atoms: N2_11  and  C7_13 
REMARK       I    between atoms: N3_15  and  C9_16 
REMARK    6  A    between atoms: C9_16  and  O4_18 
REMARK    7  A    between atoms: O4_18  and  C10_19 
REMARK    8  A    between atoms: C17_27  and  C18_28 
REMARK    9  A    between atoms: C18_28  and  O6_30 
REMARK   10  A    between atoms: O6_30  and  C19_31 
ROOT
HETATM    1  C7  UNL     1      14.061  21.348   5.293  1.00  0.00     0.082 A 
HETATM    2  C8  UNL     1      14.258  22.654   4.548  1.00  0.00     0.162 A 
HETATM    3  N3  UNL     1      13.161  23.282   5.264  1.00  0.00    -0.318 N 
HETATM    4  C9  UNL     1      12.602  24.574   5.246  1.00  0.00     0.363 C 
HETATM    5  O3  UNL     1      13.064  25.465   4.457  1.00  0.00    -0.238 OA
HETATM    6  C13 UNL     1      12.911  22.041   5.966  1.00  0.00     0.121 A 
HETATM    7  C14 UNL     1      11.555  21.488   5.642  1.00  0.00     0.044 C 
HETATM    8  C15 UNL     1      11.294  21.159   4.224  1.00  0.00     0.060 C 
HETATM    9 BR1  UNL     1      10.436  22.630   3.270  1.00  0.00    -0.091 Br
HETATM   10  C16 UNL     1      12.468  20.637   3.475  1.00  0.00     0.033 C 
HETATM   11  C17 UNL     1      13.549  20.224   4.468  1.00  0.00     0.118 C 
ENDROOT
BRANCH   1  12
HETATM   12  N2  UNL     1      15.161  20.966   6.118  1.00  0.00    -0.345 N 
HETATM   13  C6  UNL     1      15.108  20.735   7.509  1.00  0.00     0.246 C 
HETATM   14  O2  UNL     1      14.010  20.857   8.093  1.00  0.00    -0.271 OA
ATOM     15  H2  UNL     1      16.066  20.851   5.662  1.00  0.00     0.163 HD
BRANCH  13  16
HETATM   16  C5  UNL     1      16.261  20.354   8.340  1.00  0.00     0.113 A 
HETATM   17  C21 UNL     1      17.508  20.098   7.558  1.00  0.00     0.041 A 
HETATM   18  C22 UNL     1      18.536  21.132   7.928  1.00  0.00     0.003 A 
HETATM   19  C23 UNL     1      17.959  21.978   9.005  1.00  0.00     0.003 A 
HETATM   20  C24 UNL     1      16.583  21.499   9.247  1.00  0.00     0.041 A 
BRANCH  16  21
HETATM   21  N1  UNL     1      15.904  19.168   9.114  1.00  0.00    -0.343 N 
HETATM   22  C4  UNL     1      16.833  18.363   9.800  1.00  0.00     0.218 C 
HETATM   23  O1  UNL     1      18.046  18.652   9.783  1.00  0.00    -0.274 OA
ATOM     24  H1  UNL     1      14.920  18.906   9.160  1.00  0.00     0.163 HD
BRANCH  22  25
HETATM   25  C3  UNL     1      16.342  17.174  10.538  1.00  0.00     0.102 C 
BRANCH  25  26
HETATM   26  C2  UNL     1      17.188  15.959  10.376  1.00  0.00     0.005 C 
HETATM   27  C1  UNL     1      17.137  15.058  11.606  1.00  0.00     0.005 C 
ENDBRANCH  25  26
ENDBRANCH  22  25
ENDBRANCH  16  21
ENDBRANCH  13  16
ENDBRANCH   1  12
BRANCH  11  28
HETATM   28  C18 UNL     1      14.600  19.581   3.608  1.00  0.00     0.265 C 
HETATM   29  O5  UNL     1      14.589  19.773   2.374  1.00  0.00    -0.265 OA
BRANCH  28  30
HETATM   30  O6  UNL     1      15.578  18.783   4.137  1.00  0.00    -0.321 OA
BRANCH  30  31
HETATM   31  C19 UNL     1      16.942  18.824   3.859  1.00  0.00     0.174 C 
HETATM   32  C20 UNL     1      17.434  17.797   2.895  1.00  0.00     0.034 C 
ENDBRANCH  30  31
ENDBRANCH  28  30
ENDBRANCH  11  28
BRANCH   4  33
HETATM   33  O4  UNL     1      11.551  24.979   6.041  1.00  0.00    -0.298 OA
BRANCH  33  34
HETATM   34  C10 UNL     1      11.654  25.125   7.442  1.00  0.00     0.134 A 
HETATM   35  C11 UNL     1      10.972  24.177   8.356  1.00  0.00     0.035 A 
HETATM   36  C12 UNL     1      10.338  25.493   8.115  1.00  0.00     0.035 A 
ENDBRANCH  33  34
ENDBRANCH   4  33
TORSDOF 10
ENDMDL
MODEL 4
REMARK VINA RESULT: -7.966205851      3.392      9.784
REMARK  10 active torsions:
REMARK  status: ('A' for Active; 'I' for Inactive)
REMARK    1  A    between atoms: C2_2  and  C3_3 
REMARK    2  A    between atoms: C3_3  and  C4_4 
REMARK       I    between atoms: C4_4  and  N1_6 
REMARK    3  A    between atoms: N1_6  and  C5_8 
REMARK    4  A    between atoms: C5_8  and  C6_9 
REMARK       I    between atoms: C6_9  and  N2_11 
REMARK    5  A    between atoms: N2_11  and  C7_13 
REMARK       I    between atoms: N3_15  and  C9_16 
REMARK    6  A    between atoms: C9_16  and  O4_18 
REMARK    7  A    between atoms: O4_18  and  C10_19 
REMARK    8  A    between atoms: C17_27  and  C18_28 
REMARK    9  A    between atoms: C18_28  and  O6_30 
REMARK   10  A    between atoms: O6_30  and  C19_31 
ROOT
HETATM    1  C7  UNL     1      14.314  21.327   5.009  1.00  0.00     0.082 A 
HETATM    2  C8  UNL     1      14.327  22.701   4.369  1.00  0.00     0.162 A 
HETATM    3  N3  UNL     1      13.365  23.210   5.331  1.00  0.00    -0.318 N 
HETATM    4  C9  UNL     1      12.772  24.469   5.540  1.00  0.00     0.363 C 
HETATM    5  O3  UNL     1      13.049  25.448   4.768  1.00  0.00    -0.238 OA
HETATM    6  C13 UNL     1      13.291  21.901   5.945  1.00  0.00     0.121 A 
HETATM    7  C14 UNL     1      11.915  21.314   5.826  1.00  0.00     0.044 C 
HETATM    8  C15 UNL     1      11.403  21.097   4.456  1.00  0.00     0.060 C 
HETATM    9 BR1  UNL     1      10.336  22.604   3.820  1.00  0.00    -0.091 Br
HETATM   10  C16 UNL     1      12.431  20.701   3.457  1.00  0.00     0.033 C 
HETATM   11  C17 UNL     1      13.692  20.255   4.190  1.00  0.00     0.118 C 
ENDROOT
BRANCH   1  12
HETATM   12  N2  UNL     1      15.562  20.928   5.578  1.00  0.00    -0.345 N 
HETATM   13  C6  UNL     1      15.734  20.286   6.822  1.00  0.00     0.246 C 
HETATM   14  O2  UNL     1      14.719  20.020   7.503  1.00  0.00    -0.271 OA
ATOM     15  H2  UNL     1      16.404  21.124   5.037  1.00  0.00     0.163 HD
BRANCH  13  16
HETATM   16  C5  UNL     1      17.033  19.896   7.392  1.00  0.00     0.113 A 
HETATM   17  C21 UNL     1      18.096  20.934   7.233  1.00  0.00     0.041 A 
HETATM   18  C22 UNL     1      18.494  21.436   8.594  1.00  0.00     0.003 A 
HETATM   19  C23 UNL     1      17.744  20.646   9.605  1.00  0.00     0.003 A 
HETATM   20  C24 UNL     1      16.863  19.718   8.868  1.00  0.00     0.041 A 
BRANCH  16  21
HETATM   21  N1  UNL     1      17.458  18.646   6.768  1.00  0.00    -0.343 N 
HETATM   22  C4  UNL     1      18.142  18.568   5.540  1.00  0.00     0.218 C 
HETATM   23  O1  UNL     1      18.434  19.610   4.918  1.00  0.00    -0.274 OA
ATOM     24  H1  UNL     1      17.247  17.774   7.252  1.00  0.00     0.163 HD
BRANCH  22  25
HETATM   25  C3  UNL     1      18.504  17.234   5.005  1.00  0.00     0.102 C 
BRANCH  25  26
HETATM   26  C2  UNL     1      18.483  16.140   6.016  1.00  0.00     0.005 C 
HETATM   27  C1  UNL     1      18.857  14.792   5.410  1.00  0.00     0.005 C 
ENDBRANCH  25  26
ENDBRANCH  22  25
ENDBRANCH  16  21
ENDBRANCH  13  16
ENDBRANCH   1  12
BRANCH  11  28
HETATM   28  C18 UNL     1      14.582  19.742   3.093  1.00  0.00     0.265 C 
HETATM   29  O5  UNL     1      14.396  20.123   1.919  1.00  0.00    -0.265 OA
BRANCH  28  30
HETATM   30  O6  UNL     1      15.600  18.861   3.342  1.00  0.00    -0.321 OA
BRANCH  30  31
HETATM   31  C19 UNL     1      15.778  17.599   2.781  1.00  0.00     0.174 C 
HETATM   32  C20 UNL     1      16.777  17.520   1.675  1.00  0.00     0.034 C 
ENDBRANCH  30  31
ENDBRANCH  28  30
ENDBRANCH  11  28
BRANCH   4  33
HETATM   33  O4  UNL     1      11.878  24.751   6.550  1.00  0.00    -0.298 OA
BRANCH  33  34
HETATM   34  C10 UNL     1      10.534  25.117   6.314  1.00  0.00     0.134 A 
HETATM   35  C11 UNL     1       9.779  25.914   7.310  1.00  0.00     0.035 A 
HETATM   36  C12 UNL     1       9.545  24.452   7.263  1.00  0.00     0.035 A 
ENDBRANCH  33  34
ENDBRANCH   4  33
TORSDOF 10
ENDMDL
MODEL 5
REMARK VINA RESULT: -7.869187433      2.865      7.964
REMARK  10 active torsions:
REMARK  status: ('A' for Active; 'I' for Inactive)
REMARK    1  A    between atoms: C2_2  and  C3_3 
REMARK    2  A    between atoms: C3_3  and  C4_4 
REMARK       I    between atoms: C4_4  and  N1_6 
REMARK    3  A    between atoms: N1_6  and  C5_8 
REMARK    4  A    between atoms: C5_8  and  C6_9 
REMARK       I    between atoms: C6_9  and  N2_11 
REMARK    5  A    between atoms: N2_11  and  C7_13 
REMARK       I    between atoms: N3_15  and  C9_16 
REMARK    6  A    between atoms: C9_16  and  O4_18 
REMARK    7  A    between atoms: O4_18  and  C10_19 
REMARK    8  A    between atoms: C17_27  and  C18_28 
REMARK    9  A    between atoms: C18_28  and  O6_30 
REMARK   10  A    between atoms: O6_30  and  C19_31 
ROOT
HETATM    1  C7  UNL     1      12.832  22.375   5.601  1.00  0.00     0.082 A 
HETATM    2  C8  UNL     1      11.459  21.755   5.433  1.00  0.00     0.162 A 
HETATM    3  N3  UNL     1      11.111  22.697   4.383  1.00  0.00    -0.318 N 
HETATM    4  C9  UNL     1       9.974  22.873   3.573  1.00  0.00     0.363 C 
HETATM    5  O3  UNL     1       8.959  22.111   3.712  1.00  0.00    -0.238 OA
HETATM    6  C13 UNL     1      12.395  23.345   4.542  1.00  0.00     0.121 A 
HETATM    7  C14 UNL     1      12.243  24.765   5.002  1.00  0.00     0.044 C 
HETATM    8  C15 UNL     1      11.572  24.974   6.302  1.00  0.00     0.060 C 
HETATM    9 BR1  UNL     1       9.657  25.297   6.102  1.00  0.00    -0.091 Br
HETATM   10  C16 UNL     1      11.841  23.925   7.322  1.00  0.00     0.033 C 
HETATM   11  C17 UNL     1      13.044  23.099   6.881  1.00  0.00     0.118 C 
ENDROOT
BRANCH   1  12
HETATM   12  N2  UNL     1      13.917  21.506   5.276  1.00  0.00    -0.345 N 
HETATM   13  C6  UNL     1      13.869  20.431   4.364  1.00  0.00     0.246 C 
HETATM   14  O2  UNL     1      12.796  20.204   3.764  1.00  0.00    -0.271 OA
ATOM     15  H2  UNL     1      14.807  21.677   5.746  1.00  0.00     0.163 HD
BRANCH  13  16
HETATM   16  C5  UNL     1      15.000  19.541   4.056  1.00  0.00     0.113 A 
HETATM   17  C21 UNL     1      14.635  18.092   4.026  1.00  0.00     0.041 A 
HETATM   18  C22 UNL     1      14.816  17.574   2.625  1.00  0.00     0.003 A 
HETATM   19  C23 UNL     1      15.379  18.677   1.804  1.00  0.00     0.003 A 
HETATM   20  C24 UNL     1      15.486  19.862   2.678  1.00  0.00     0.041 A 
BRANCH  16  21
HETATM   21  N1  UNL     1      16.054  19.770   5.041  1.00  0.00    -0.343 N 
HETATM   22  C4  UNL     1      17.392  19.368   4.875  1.00  0.00     0.218 C 
HETATM   23  O1  UNL     1      17.747  18.787   3.829  1.00  0.00    -0.274 OA
ATOM     24  H1  UNL     1      15.804  20.253   5.904  1.00  0.00     0.163 HD
BRANCH  22  25
HETATM   25  C3  UNL     1      18.364  19.646   5.959  1.00  0.00     0.102 C 
BRANCH  25  26
HETATM   26  C2  UNL     1      17.748  19.843   7.301  1.00  0.00     0.005 C 
HETATM   27  C1  UNL     1      18.189  21.152   7.949  1.00  0.00     0.005 C 
ENDBRANCH  25  26
ENDBRANCH  22  25
ENDBRANCH  16  21
ENDBRANCH  13  16
ENDBRANCH   1  12
BRANCH  11  28
HETATM   28  C18 UNL     1      13.304  22.190   8.050  1.00  0.00     0.265 C 
HETATM   29  O5  UNL     1      12.473  22.130   8.980  1.00  0.00    -0.265 OA
BRANCH  28  30
HETATM   30  O6  UNL     1      14.434  21.422   8.130  1.00  0.00    -0.321 OA
BRANCH  30  31
HETATM   31  C19 UNL     1      14.860  20.661   9.217  1.00  0.00     0.174 C 
HETATM   32  C20 UNL     1      15.316  21.437  10.407  1.00  0.00     0.034 C 
ENDBRANCH  30  31
ENDBRANCH  28  30
ENDBRANCH  11  28
BRANCH   4  33
HETATM   33  O4  UNL     1       9.854  23.840   2.598  1.00  0.00    -0.298 OA
BRANCH  33  34
HETATM   34  C10 UNL     1       8.895  24.876   2.648  1.00  0.00     0.134 A 
HETATM   35  C11 UNL     1       7.547  24.691   2.061  1.00  0.00     0.035 A 
HETATM   36  C12 UNL     1       8.549  25.454   1.282  1.00  0.00     0.035 A 
ENDBRANCH  33  34
ENDBRANCH   4  33
TORSDOF 10
ENDMDL
