MODEL 1
REMARK VINA RESULT: -9.529089649      0.000      0.000
REMARK  10 active torsions:
REMARK  status: ('A' for Active; 'I' for Inactive)
REMARK    1  A    between atoms: C6_9  and  S1_10 
REMARK    2  A    between atoms: S1_10  and  N3_13 
REMARK    3  A    between atoms: N3_13  and  C7_15 
REMARK    4  A    between atoms: C7_15  and  C8_16 
REMARK    5  A    between atoms: C11_19  and  C12_20 
REMARK       I    between atoms: C12_20  and  N4_22 
REMARK    6  A    between atoms: N4_22  and  C13_24 
REMARK    7  A    between atoms: C13_24  and  C14_25 
REMARK    8  A    between atoms: N5_28  and  C17_29 
REMARK    9  A    between atoms: C17_29  and  C18_30 
REMARK   10  A    between atoms: C19_31  and  C20_32 
ROOT
HETATM    1  C8  UNL     1      16.818  20.955   9.162  1.00  0.00     0.004 C 
HETATM    2  C9  UNL     1      16.793  21.943   8.047  1.00  0.00     0.007 C 
HETATM    3  C10 UNL     1      15.607  22.869   8.079  1.00  0.00     0.014 C 
HETATM    4  C11 UNL     1      14.368  21.975   8.068  1.00  0.00     0.078 C 
HETATM    5  C25 UNL     1      14.341  21.317   9.428  1.00  0.00     0.014 C 
HETATM    6  C26 UNL     1      15.530  20.426   9.630  1.00  0.00     0.007 C 
ENDROOT
BRANCH   4   7
HETATM    7  C12 UNL     1      13.142  22.775   7.833  1.00  0.00     0.221 C 
HETATM    8  O3  UNL     1      12.032  22.233   8.069  1.00  0.00    -0.273 OA
HETATM    9  N4  UNL     1      13.198  24.091   7.362  1.00  0.00    -0.360 N 
ATOM     10  H4  UNL     1      14.102  24.525   7.172  1.00  0.00     0.162 HD
BRANCH   9  11
HETATM   11  C13 UNL     1      11.973  24.845   7.141  1.00  0.00     0.127 C 
BRANCH  11  12
HETATM   12  C14 UNL     1      11.668  24.835   5.671  1.00  0.00     0.007 C 
HETATM   13  C15 UNL     1      10.555  23.871   5.378  1.00  0.00     0.036 C 
HETATM   14  C16 UNL     1      10.543  23.562   3.914  1.00  0.00     0.274 C 
HETATM   15  N5  UNL     1      11.701  22.768   3.513  1.00  0.00     0.099 N 
HETATM   16  C23 UNL     1      12.836  23.045   4.385  1.00  0.00     0.274 C 
HETATM   17  C24 UNL     1      12.854  24.491   4.826  1.00  0.00     0.036 C 
BRANCH  15  18
HETATM   18  C17 UNL     1      11.358  21.382   3.681  1.00  0.00     0.365 C 
BRANCH  18  19
HETATM   19  C18 UNL     1      12.595  20.604   3.617  1.00  0.00    -0.074 C 
HETATM   20  C19 UNL     1      13.615  19.948   3.545  1.00  0.00    -0.079 C 
BRANCH  20  21
HETATM   21  C20 UNL     1      14.852  19.152   3.432  1.00  0.00     0.093 C 
HETATM   22  C21 UNL     1      14.604  17.720   3.862  1.00  0.00     0.046 C 
HETATM   23  C22 UNL     1      15.284  19.072   1.961  1.00  0.00     0.046 C 
HETATM   24 CL1  UNL     1      16.085  19.942   4.421  1.00  0.00    -0.106 Cl
ENDBRANCH  20  21
ENDBRANCH  18  19
ENDBRANCH  15  18
ENDBRANCH  11  12
ENDBRANCH   9  11
ENDBRANCH   4   7
BRANCH   1  25
HETATM   25  C7  UNL     1      17.718  19.807   8.751  1.00  0.00     0.136 C 
BRANCH  25  26
HETATM   26  N3  UNL     1      17.023  18.562   8.796  1.00  0.00    -0.315 N 
ATOM     27  H3  UNL     1      16.169  18.384   8.267  1.00  0.00     0.172 HD
BRANCH  26  28
HETATM   28  S1  UNL     1      17.740  17.399   9.807  1.00  0.00     0.262 S 
HETATM   29  O1  UNL     1      19.043  17.974  10.347  1.00  0.00    -0.200 OA
HETATM   30  O2  UNL     1      16.802  17.087  10.939  1.00  0.00    -0.200 OA
BRANCH  28  31
HETATM   31  C6  UNL     1      18.159  15.983   8.889  1.00  0.00     0.126 A 
HETATM   32  C2  UNL     1      18.243  14.688   9.356  1.00  0.00     0.047 A 
HETATM   33  C1  UNL     1      17.995  14.280  10.755  1.00  0.00     0.071 C 
HETATM   34  N1  UNL     1      18.580  13.894   8.346  1.00  0.00    -0.302 N 
HETATM   35  N2  UNL     1      18.710  14.642   7.260  1.00  0.00    -0.299 N 
ATOM     36  H1  UNL     1      18.716  12.884   8.397  1.00  0.00     0.186 HD
HETATM   37  C3  UNL     1      19.074  14.111   5.961  1.00  0.00     0.177 C 
HETATM   38  C4  UNL     1      18.459  15.934   7.553  1.00  0.00     0.049 A 
HETATM   39  C5  UNL     1      18.516  17.013   6.548  1.00  0.00     0.071 C 
ENDBRANCH  28  31
ENDBRANCH  26  28
ENDBRANCH  25  26
ENDBRANCH   1  25
TORSDOF 10
ENDMDL
MODEL 2
REMARK VINA RESULT: -9.388941196      4.632      6.926
REMARK  10 active torsions:
REMARK  status: ('A' for Active; 'I' for Inactive)
REMARK    1  A    between atoms: C6_9  and  S1_10 
REMARK    2  A    between atoms: S1_10  and  N3_13 
REMARK    3  A    between atoms: N3_13  and  C7_15 
REMARK    4  A    between atoms: C7_15  and  C8_16 
REMARK    5  A    between atoms: C11_19  and  C12_20 
REMARK       I    between atoms: C12_20  and  N4_22 
REMARK    6  A    between atoms: N4_22  and  C13_24 
REMARK    7  A    between atoms: C13_24  and  C14_25 
REMARK    8  A    between atoms: N5_28  and  C17_29 
REMARK    9  A    between atoms: C17_29  and  C18_30 
REMARK   10  A    between atoms: C19_31  and  C20_32 
ROOT
HETATM    1  C8  UNL     1      16.296  21.534   8.539  1.00  0.00     0.004 C 
HETATM    2  C9  UNL     1      15.903  22.313   7.331  1.00  0.00     0.007 C 
HETATM    3  C10 UNL     1      14.542  22.949   7.431  1.00  0.00     0.014 C 
HETATM    4  C11 UNL     1      13.561  21.812   7.715  1.00  0.00     0.078 C 
HETATM    5  C25 UNL     1      13.855  21.377   9.132  1.00  0.00     0.014 C 
HETATM    6  C26 UNL     1      15.237  20.812   9.257  1.00  0.00     0.007 C 
ENDROOT
BRANCH   4   7
HETATM    7  C12 UNL     1      12.160  22.276   7.574  1.00  0.00     0.221 C 
HETATM    8  O3  UNL     1      11.327  21.486   7.061  1.00  0.00    -0.273 OA
HETATM    9  N4  UNL     1      11.758  23.550   7.991  1.00  0.00    -0.360 N 
ATOM     10  H4  UNL     1      12.439  24.187   8.406  1.00  0.00     0.162 HD
BRANCH   9  11
HETATM   11  C13 UNL     1      10.375  23.972   7.835  1.00  0.00     0.127 C 
BRANCH  11  12
HETATM   12  C14 UNL     1      10.347  25.466   7.688  1.00  0.00     0.007 C 
HETATM   13  C15 UNL     1       9.795  26.101   8.930  1.00  0.00     0.036 C 
HETATM   14  C16 UNL     1       9.388  27.509   8.626  1.00  0.00     0.274 C 
HETATM   15  N5  UNL     1       8.219  27.563   7.753  1.00  0.00     0.099 N 
HETATM   16  C23 UNL     1       8.167  26.385   6.895  1.00  0.00     0.274 C 
HETATM   17  C24 UNL     1       9.553  25.925   6.505  1.00  0.00     0.036 C 
BRANCH  15  18
HETATM   18  C17 UNL     1       7.049  27.538   8.589  1.00  0.00     0.365 C 
BRANCH  18  19
HETATM   19  C18 UNL     1       5.902  27.209   7.743  1.00  0.00    -0.074 C 
HETATM   20  C19 UNL     1       4.936  26.938   7.058  1.00  0.00    -0.079 C 
BRANCH  20  21
HETATM   21  C20 UNL     1       3.748  26.628   6.240  1.00  0.00     0.093 C 
HETATM   22  C21 UNL     1       3.394  27.803   5.350  1.00  0.00     0.046 C 
HETATM   23  C22 UNL     1       4.064  25.469   5.285  1.00  0.00     0.046 C 
HETATM   24 CL1  UNL     1       2.435  26.210   7.345  1.00  0.00    -0.106 Cl
ENDBRANCH  20  21
ENDBRANCH  18  19
ENDBRANCH  15  18
ENDBRANCH  11  12
ENDBRANCH   9  11
ENDBRANCH   4   7
BRANCH   1  25
HETATM   25  C7  UNL     1      17.389  20.566   8.136  1.00  0.00     0.136 C 
BRANCH  25  26
HETATM   26  N3  UNL     1      16.889  19.555   7.261  1.00  0.00    -0.315 N 
ATOM     27  H3  UNL     1      15.931  19.209   7.305  1.00  0.00     0.172 HD
BRANCH  26  28
HETATM   28  S1  UNL     1      18.027  18.979   6.137  1.00  0.00     0.262 S 
HETATM   29  O1  UNL     1      19.028  20.093   5.859  1.00  0.00    -0.200 OA
HETATM   30  O2  UNL     1      18.728  17.784   6.717  1.00  0.00    -0.200 OA
BRANCH  28  31
HETATM   31  C6  UNL     1      17.246  18.617   4.626  1.00  0.00     0.126 A 
HETATM   32  C2  UNL     1      17.543  17.580   3.768  1.00  0.00     0.047 A 
HETATM   33  C1  UNL     1      18.612  16.582   3.992  1.00  0.00     0.071 C 
HETATM   34  N1  UNL     1      16.717  17.637   2.729  1.00  0.00    -0.302 N 
HETATM   35  N2  UNL     1      15.910  18.674   2.904  1.00  0.00    -0.299 N 
ATOM     36  H1  UNL     1      16.706  16.996   1.937  1.00  0.00     0.186 HD
HETATM   37  C3  UNL     1      14.873  19.047   1.961  1.00  0.00     0.177 C 
HETATM   38  C4  UNL     1      16.204  19.303   4.059  1.00  0.00     0.049 A 
HETATM   39  C5  UNL     1      15.473  20.493   4.536  1.00  0.00     0.071 C 
ENDBRANCH  28  31
ENDBRANCH  26  28
ENDBRANCH  25  26
ENDBRANCH   1  25
TORSDOF 10
ENDMDL
MODEL 3
REMARK VINA RESULT: -9.350043446      4.478      6.801
REMARK  10 active torsions:
REMARK  status: ('A' for Active; 'I' for Inactive)
REMARK    1  A    between atoms: C6_9  and  S1_10 
REMARK    2  A    between atoms: S1_10  and  N3_13 
REMARK    3  A    between atoms: N3_13  and  C7_15 
REMARK    4  A    between atoms: C7_15  and  C8_16 
REMARK    5  A    between atoms: C11_19  and  C12_20 
REMARK       I    between atoms: C12_20  and  N4_22 
REMARK    6  A    between atoms: N4_22  and  C13_24 
REMARK    7  A    between atoms: C13_24  and  C14_25 
REMARK    8  A    between atoms: N5_28  and  C17_29 
REMARK    9  A    between atoms: C17_29  and  C18_30 
REMARK   10  A    between atoms: C19_31  and  C20_32 
ROOT
HETATM    1  C8  UNL     1      16.252  21.655   8.542  1.00  0.00     0.004 C 
HETATM    2  C9  UNL     1      15.856  22.533   7.406  1.00  0.00     0.007 C 
HETATM    3  C10 UNL     1      14.479  23.127   7.544  1.00  0.00     0.014 C 
HETATM    4  C11 UNL     1      13.522  21.948   7.706  1.00  0.00     0.078 C 
HETATM    5  C25 UNL     1      13.807  21.389   9.081  1.00  0.00     0.014 C 
HETATM    6  C26 UNL     1      15.201  20.845   9.173  1.00  0.00     0.007 C 
ENDROOT
BRANCH   4   7
HETATM    7  C12 UNL     1      12.112  22.392   7.587  1.00  0.00     0.221 C 
HETATM    8  O3  UNL     1      11.291  21.605   7.051  1.00  0.00    -0.273 OA
HETATM    9  N4  UNL     1      11.691  23.643   8.051  1.00  0.00    -0.360 N 
ATOM     10  H4  UNL     1      12.363  24.277   8.485  1.00  0.00     0.162 HD
BRANCH   9  11
HETATM   11  C13 UNL     1      10.299  24.045   7.916  1.00  0.00     0.127 C 
BRANCH  11  12
HETATM   12  C14 UNL     1      10.251  25.535   7.732  1.00  0.00     0.007 C 
HETATM   13  C15 UNL     1       9.548  26.180   8.890  1.00  0.00     0.036 C 
HETATM   14  C16 UNL     1       9.142  27.569   8.510  1.00  0.00     0.274 C 
HETATM   15  N5  UNL     1       8.077  27.574   7.512  1.00  0.00     0.099 N 
HETATM   16  C23 UNL     1       8.151  26.378   6.681  1.00  0.00     0.274 C 
HETATM   17  C24 UNL     1       9.583  25.948   6.458  1.00  0.00     0.036 C 
BRANCH  15  18
HETATM   18  C17 UNL     1       6.823  27.534   8.213  1.00  0.00     0.365 C 
BRANCH  18  19
HETATM   19  C18 UNL     1       5.800  27.072   7.274  1.00  0.00    -0.074 C 
HETATM   20  C19 UNL     1       4.940  26.706   6.498  1.00  0.00    -0.079 C 
BRANCH  20  21
HETATM   21  C20 UNL     1       3.892  26.288   5.548  1.00  0.00     0.093 C 
HETATM   22  C21 UNL     1       2.728  25.656   6.285  1.00  0.00     0.046 C 
HETATM   23  C22 UNL     1       3.311  27.521   4.841  1.00  0.00     0.046 C 
HETATM   24 CL1  UNL     1       4.633  25.176   4.393  1.00  0.00    -0.106 Cl
ENDBRANCH  20  21
ENDBRANCH  18  19
ENDBRANCH  15  18
ENDBRANCH  11  12
ENDBRANCH   9  11
ENDBRANCH   4   7
BRANCH   1  25
HETATM   25  C7  UNL     1      17.373  20.752   8.068  1.00  0.00     0.136 C 
BRANCH  25  26
HETATM   26  N3  UNL     1      16.872  19.681   7.268  1.00  0.00    -0.315 N 
ATOM     27  H3  UNL     1      15.930  19.304   7.375  1.00  0.00     0.172 HD
BRANCH  26  28
HETATM   28  S1  UNL     1      17.978  19.087   6.123  1.00  0.00     0.262 S 
HETATM   29  O1  UNL     1      19.045  20.150   5.896  1.00  0.00    -0.200 OA
HETATM   30  O2  UNL     1      18.604  17.828   6.651  1.00  0.00    -0.200 OA
BRANCH  28  31
HETATM   31  C6  UNL     1      17.184  18.839   4.596  1.00  0.00     0.126 A 
HETATM   32  C2  UNL     1      16.097  19.530   4.105  1.00  0.00     0.047 A 
HETATM   33  C1  UNL     1      15.400  20.620   4.821  1.00  0.00     0.071 C 
HETATM   34  N1  UNL     1      15.796  19.051   2.903  1.00  0.00    -0.302 N 
HETATM   35  N2  UNL     1      16.656  18.084   2.620  1.00  0.00    -0.299 N 
ATOM     36  H1  UNL     1      15.036  19.372   2.304  1.00  0.00     0.186 HD
HETATM   37  C3  UNL     1      16.629  17.328   1.382  1.00  0.00     0.177 C 
HETATM   38  C4  UNL     1      17.526  17.922   3.637  1.00  0.00     0.049 A 
HETATM   39  C5  UNL     1      18.612  16.923   3.615  1.00  0.00     0.071 C 
ENDBRANCH  28  31
ENDBRANCH  26  28
ENDBRANCH  25  26
ENDBRANCH   1  25
TORSDOF 10
ENDMDL
MODEL 4
REMARK VINA RESULT: -9.317756842      3.734      5.600
REMARK  10 active torsions:
REMARK  status: ('A' for Active; 'I' for Inactive)
REMARK    1  A    between atoms: C6_9  and  S1_10 
REMARK    2  A    between atoms: S1_10  and  N3_13 
REMARK    3  A    between atoms: N3_13  and  C7_15 
REMARK    4  A    between atoms: C7_15  and  C8_16 
REMARK    5  A    between atoms: C11_19  and  C12_20 
REMARK       I    between atoms: C12_20  and  N4_22 
REMARK    6  A    between atoms: N4_22  and  C13_24 
REMARK    7  A    between atoms: C13_24  and  C14_25 
REMARK    8  A    between atoms: N5_28  and  C17_29 
REMARK    9  A    between atoms: C17_29  and  C18_30 
REMARK   10  A    between atoms: C19_31  and  C20_32 
ROOT
HETATM    1  C8  UNL     1      16.121  21.723   8.397  1.00  0.00     0.004 C 
HETATM    2  C9  UNL     1      15.675  22.463   7.184  1.00  0.00     0.007 C 
HETATM    3  C10 UNL     1      14.305  23.074   7.311  1.00  0.00     0.014 C 
HETATM    4  C11 UNL     1      13.357  21.926   7.653  1.00  0.00     0.078 C 
HETATM    5  C25 UNL     1      13.704  21.532   9.070  1.00  0.00     0.014 C 
HETATM    6  C26 UNL     1      15.101  20.997   9.165  1.00  0.00     0.007 C 
ENDROOT
BRANCH   4   7
HETATM    7  C12 UNL     1      11.943  22.359   7.545  1.00  0.00     0.221 C 
HETATM    8  O3  UNL     1      11.138  21.595   6.955  1.00  0.00    -0.273 OA
HETATM    9  N4  UNL     1      11.500  23.575   8.077  1.00  0.00    -0.360 N 
ATOM     10  H4  UNL     1      12.159  24.190   8.555  1.00  0.00     0.162 HD
BRANCH   9  11
HETATM   11  C13 UNL     1      10.105  23.967   7.951  1.00  0.00     0.127 C 
BRANCH  11  12
HETATM   12  C14 UNL     1      10.052  25.375   7.430  1.00  0.00     0.007 C 
HETATM   13  C15 UNL     1       8.751  26.020   7.806  1.00  0.00     0.036 C 
HETATM   14  C16 UNL     1       8.535  27.230   6.953  1.00  0.00     0.274 C 
HETATM   15  N5  UNL     1       8.269  26.878   5.561  1.00  0.00     0.099 N 
HETATM   16  C23 UNL     1       8.917  25.616   5.221  1.00  0.00     0.274 C 
HETATM   17  C24 UNL     1      10.234  25.460   5.947  1.00  0.00     0.036 C 
BRANCH  15  18
HETATM   18  C17 UNL     1       6.851  26.683   5.425  1.00  0.00     0.365 C 
BRANCH  18  19
HETATM   19  C18 UNL     1       6.640  25.562   4.507  1.00  0.00    -0.074 C 
HETATM   20  C19 UNL     1       6.477  24.620   3.759  1.00  0.00    -0.079 C 
BRANCH  20  21
HETATM   21  C20 UNL     1       6.280  23.458   2.871  1.00  0.00     0.093 C 
HETATM   22  C21 UNL     1       5.919  23.914   1.472  1.00  0.00     0.046 C 
HETATM   23  C22 UNL     1       7.598  22.686   2.725  1.00  0.00     0.046 C 
HETATM   24 CL1  UNL     1       5.020  22.448   3.589  1.00  0.00    -0.106 Cl
ENDBRANCH  20  21
ENDBRANCH  18  19
ENDBRANCH  15  18
ENDBRANCH  11  12
ENDBRANCH   9  11
ENDBRANCH   4   7
BRANCH   1  25
HETATM   25  C7  UNL     1      17.221  20.766   7.983  1.00  0.00     0.136 C 
BRANCH  25  26
HETATM   26  N3  UNL     1      16.726  19.756   7.104  1.00  0.00    -0.315 N 
ATOM     27  H3  UNL     1      15.744  19.481   7.075  1.00  0.00     0.172 HD
BRANCH  26  28
HETATM   28  S1  UNL     1      17.911  19.053   6.110  1.00  0.00     0.262 S 
HETATM   29  O1  UNL     1      19.011  20.080   5.880  1.00  0.00    -0.200 OA
HETATM   30  O2  UNL     1      18.470  17.838   6.796  1.00  0.00    -0.200 OA
BRANCH  28  31
HETATM   31  C6  UNL     1      17.240  18.678   4.551  1.00  0.00     0.126 A 
HETATM   32  C2  UNL     1      17.642  17.675   3.695  1.00  0.00     0.047 A 
HETATM   33  C1  UNL     1      18.749  16.732   3.965  1.00  0.00     0.071 C 
HETATM   34  N1  UNL     1      16.876  17.708   2.611  1.00  0.00    -0.302 N 
HETATM   35  N2  UNL     1      16.005  18.696   2.754  1.00  0.00    -0.299 N 
ATOM     36  H1  UNL     1      16.945  17.083   1.808  1.00  0.00     0.186 HD
HETATM   37  C3  UNL     1      15.004  19.031   1.758  1.00  0.00     0.177 C 
HETATM   38  C4  UNL     1      16.197  19.317   3.935  1.00  0.00     0.049 A 
HETATM   39  C5  UNL     1      15.375  20.457   4.387  1.00  0.00     0.071 C 
ENDBRANCH  28  31
ENDBRANCH  26  28
ENDBRANCH  25  26
ENDBRANCH   1  25
TORSDOF 10
ENDMDL
MODEL 5
REMARK VINA RESULT: -9.314320709      3.273      5.103
REMARK  10 active torsions:
REMARK  status: ('A' for Active; 'I' for Inactive)
REMARK    1  A    between atoms: C6_9  and  S1_10 
REMARK    2  A    between atoms: S1_10  and  N3_13 
REMARK    3  A    between atoms: N3_13  and  C7_15 
REMARK    4  A    between atoms: C7_15  and  C8_16 
REMARK    5  A    between atoms: C11_19  and  C12_20 
REMARK       I    between atoms: C12_20  and  N4_22 
REMARK    6  A    between atoms: N4_22  and  C13_24 
REMARK    7  A    between atoms: C13_24  and  C14_25 
REMARK    8  A    between atoms: N5_28  and  C17_29 
REMARK    9  A    between atoms: C17_29  and  C18_30 
REMARK   10  A    between atoms: C19_31  and  C20_32 
ROOT
HETATM    1  C8  UNL     1      16.542  20.936   9.006  1.00  0.00     0.004 C 
HETATM    2  C9  UNL     1      16.528  21.949   7.914  1.00  0.00     0.007 C 
HETATM    3  C10 UNL     1      15.351  22.886   7.965  1.00  0.00     0.014 C 
HETATM    4  C11 UNL     1      14.104  22.004   7.934  1.00  0.00     0.078 C 
HETATM    5  C25 UNL     1      14.069  21.316   9.279  1.00  0.00     0.014 C 
HETATM    6  C26 UNL     1      15.249  20.409   9.462  1.00  0.00     0.007 C 
ENDROOT
BRANCH   4   7
HETATM    7  C12 UNL     1      12.885  22.820   7.716  1.00  0.00     0.221 C 
HETATM    8  O3  UNL     1      11.777  22.320   8.036  1.00  0.00    -0.273 OA
HETATM    9  N4  UNL     1      12.947  24.108   7.172  1.00  0.00    -0.360 N 
ATOM     10  H4  UNL     1      13.850  24.508   6.914  1.00  0.00     0.162 HD
BRANCH   9  11
HETATM   11  C13 UNL     1      11.730  24.880   6.971  1.00  0.00     0.127 C 
BRANCH  11  12
HETATM   12  C14 UNL     1      11.496  25.022   5.494  1.00  0.00     0.007 C 
HETATM   13  C15 UNL     1      10.105  24.581   5.144  1.00  0.00     0.036 C 
HETATM   14  C16 UNL     1      10.022  24.332   3.671  1.00  0.00     0.274 C 
HETATM   15  N5  UNL     1      10.786  23.154   3.272  1.00  0.00     0.099 N 
HETATM   16  C23 UNL     1      11.908  22.942   4.179  1.00  0.00     0.274 C 
HETATM   17  C24 UNL     1      12.479  24.255   4.667  1.00  0.00     0.036 C 
BRANCH  15  18
HETATM   18  C17 UNL     1       9.920  22.013   3.386  1.00  0.00     0.365 C 
BRANCH  18  19
HETATM   19  C18 UNL     1       8.544  22.477   3.207  1.00  0.00    -0.074 C 
HETATM   20  C19 UNL     1       7.402  22.872   3.078  1.00  0.00    -0.079 C 
BRANCH  20  21
HETATM   21  C20 UNL     1       6.023  23.375   2.935  1.00  0.00     0.093 C 
HETATM   22  C21 UNL     1       5.042  22.435   3.605  1.00  0.00     0.046 C 
HETATM   23  C22 UNL     1       5.879  24.714   3.671  1.00  0.00     0.046 C 
HETATM   24 CL1  UNL     1       5.699  23.555   1.207  1.00  0.00    -0.106 Cl
ENDBRANCH  20  21
ENDBRANCH  18  19
ENDBRANCH  15  18
ENDBRANCH  11  12
ENDBRANCH   9  11
ENDBRANCH   4   7
BRANCH   1  25
HETATM   25  C7  UNL     1      17.432  19.789   8.570  1.00  0.00     0.136 C 
BRANCH  25  26
HETATM   26  N3  UNL     1      16.902  19.131   7.420  1.00  0.00    -0.315 N 
ATOM     27  H3  UNL     1      15.922  18.857   7.341  1.00  0.00     0.172 HD
BRANCH  26  28
HETATM   28  S1  UNL     1      18.042  18.843   6.192  1.00  0.00     0.262 S 
HETATM   29  O1  UNL     1      18.942  20.066   6.081  1.00  0.00    -0.200 OA
HETATM   30  O2  UNL     1      18.854  17.631   6.551  1.00  0.00    -0.200 OA
BRANCH  28  31
HETATM   31  C6  UNL     1      17.240  18.669   4.659  1.00  0.00     0.126 A 
HETATM   32  C2  UNL     1      17.513  17.734   3.683  1.00  0.00     0.047 A 
HETATM   33  C1  UNL     1      18.569  16.703   3.776  1.00  0.00     0.071 C 
HETATM   34  N1  UNL     1      16.677  17.923   2.668  1.00  0.00    -0.302 N 
HETATM   35  N2  UNL     1      15.887  18.943   2.971  1.00  0.00    -0.299 N 
ATOM     36  H1  UNL     1      16.648  17.379   1.806  1.00  0.00     0.186 HD
HETATM   37  C3  UNL     1      14.845  19.437   2.091  1.00  0.00     0.177 C 
HETATM   38  C4  UNL     1      16.202  19.429   4.188  1.00  0.00     0.049 A 
HETATM   39  C5  UNL     1      15.493  20.565   4.809  1.00  0.00     0.071 C 
ENDBRANCH  28  31
ENDBRANCH  26  28
ENDBRANCH  25  26
ENDBRANCH   1  25
TORSDOF 10
ENDMDL
