MODEL 1
REMARK VINA RESULT: -9.784009017      0.000      0.000
REMARK  8 active torsions:
REMARK  status: ('A' for Active; 'I' for Inactive)
REMARK    1  A    between atoms: C4_9  and  C5_10 
REMARK    2  A    between atoms: C5_10  and  C6_11 
REMARK    3  A    between atoms: C12_18  and  O2_19 
REMARK    4  A    between atoms: O2_19  and  C13_20 
REMARK    5  A    between atoms: C13_20  and  C14_21 
REMARK    6  A    between atoms: C14_21  and  C15_22 
REMARK    7  A    between atoms: C15_22  and  N3_23 
REMARK    8  A    between atoms: C21_30  and  C22_31 
ROOT
HETATM    1  C6  UNL     1      15.983  20.489   6.014  1.00  0.00    -0.041 A 
HETATM    2  C7  UNL     1      16.801  20.104   7.093  1.00  0.00     0.010 A 
HETATM    3  C8  UNL     1      16.461  20.266   8.400  1.00  0.00     0.025 A 
HETATM    4  C9  UNL     1      15.270  20.827   8.709  1.00  0.00     0.045 A 
HETATM    5 CL1  UNL     1      14.777  21.054  10.393  1.00  0.00    -0.083 Cl
HETATM    6  C10 UNL     1      14.421  21.229   7.702  1.00  0.00    -0.000 A 
HETATM    7  C11 UNL     1      13.202  21.803   8.048  1.00  0.00     0.051 A 
HETATM    8  C12 UNL     1      12.340  22.212   7.092  1.00  0.00     0.084 A 
HETATM    9  C21 UNL     1      12.683  22.054   5.778  1.00  0.00     0.048 A 
HETATM   10  C27 UNL     1      13.902  21.482   5.351  1.00  0.00    -0.034 A 
HETATM   11  C28 UNL     1      14.231  21.419   3.940  1.00  0.00     0.050 C 
HETATM   12  C29 UNL     1      14.764  21.068   6.342  1.00  0.00    -0.011 A 
ENDROOT
BRANCH   8  13
HETATM   13  O2  UNL     1      11.129  22.780   7.440  1.00  0.00    -0.350 OA
BRANCH  13  14
HETATM   14  C13 UNL     1      11.046  24.089   8.015  1.00  0.00     0.177 C 
BRANCH  14  15
HETATM   15  C14 UNL     1       9.643  24.587   7.864  1.00  0.00     0.057 C 
BRANCH  15  16
HETATM   16  C15 UNL     1       9.229  25.163   6.586  1.00  0.00     0.274 C 
BRANCH  16  17
HETATM   17  N3  UNL     1       9.113  26.571   6.420  1.00  0.00     0.091 N 
HETATM   18  C16 UNL     1       8.292  26.881   5.235  1.00  0.00     0.302 C 
HETATM   19  C17 UNL     1       6.847  26.573   5.421  1.00  0.00     0.302 C 
HETATM   20  N4  UNL     1       6.260  27.437   6.453  1.00  0.00     0.087 N 
HETATM   21  C18 UNL     1       5.395  26.703   7.338  1.00  0.00     0.310 C 
HETATM   22  C19 UNL     1       7.322  28.117   7.156  1.00  0.00     0.302 C 
HETATM   23  C20 UNL     1       8.455  27.187   7.558  1.00  0.00     0.302 C 
ENDBRANCH  16  17
ENDBRANCH  15  16
ENDBRANCH  14  15
ENDBRANCH  13  14
ENDBRANCH   8  13
BRANCH   9  24
HETATM   24  C22 UNL     1      11.723  22.497   4.765  1.00  0.00     0.112 C 
HETATM   25  N5  UNL     1      10.813  21.699   4.336  1.00  0.00    -0.376 N 
HETATM   26  C23 UNL     1       9.828  22.040   3.346  1.00  0.00     0.123 C 
ATOM     27  H5  UNL     1      10.787  20.757   4.727  1.00  0.00     0.161 HD
HETATM   28  C24 UNL     1      10.393  23.068   2.385  1.00  0.00     0.039 C 
HETATM   29  C25 UNL     1      10.899  24.214   3.207  1.00  0.00     0.125 C 
HETATM   30  N6  UNL     1      11.795  23.814   4.264  1.00  0.00    -0.371 N 
HETATM   31  C26 UNL     1      12.746  24.801   4.779  1.00  0.00     0.151 C 
ENDBRANCH   9  24
BRANCH   1  32
HETATM   32  C5  UNL     1      16.368  20.249   4.646  1.00  0.00     0.098 C 
BRANCH  32  33
HETATM   33  C4  UNL     1      16.883  18.811   4.599  1.00  0.00     0.040 A 
HETATM   34  C2  UNL     1      16.157  17.668   4.241  1.00  0.00     0.033 A 
HETATM   35  C1  UNL     1      14.720  17.676   3.860  1.00  0.00     0.070 C 
HETATM   36  N1  UNL     1      16.963  16.590   4.300  1.00  0.00    -0.311 N 
HETATM   37  C3  UNL     1      18.177  17.019   4.685  1.00  0.00     0.324 A 
ATOM     38  H1  UNL     1      16.700  15.627   4.092  1.00  0.00     0.170 HD
HETATM   39  O1  UNL     1      19.219  16.338   4.864  1.00  0.00    -0.247 OA
HETATM   40  N2  UNL     1      18.116  18.343   4.859  1.00  0.00    -0.310 N 
ATOM     41  H2  UNL     1      18.903  18.923   5.151  1.00  0.00     0.170 HD
ENDBRANCH  32  33
ENDBRANCH   1  32
TORSDOF 8
ENDMDL
MODEL 2
REMARK VINA RESULT: -9.684632896      2.761     10.094
REMARK  8 active torsions:
REMARK  status: ('A' for Active; 'I' for Inactive)
REMARK    1  A    between atoms: C4_9  and  C5_10 
REMARK    2  A    between atoms: C5_10  and  C6_11 
REMARK    3  A    between atoms: C12_18  and  O2_19 
REMARK    4  A    between atoms: O2_19  and  C13_20 
REMARK    5  A    between atoms: C13_20  and  C14_21 
REMARK    6  A    between atoms: C14_21  and  C15_22 
REMARK    7  A    between atoms: C15_22  and  N3_23 
REMARK    8  A    between atoms: C21_30  and  C22_31 
ROOT
HETATM    1  C6  UNL     1       9.532  24.998   5.172  1.00  0.00    -0.041 A 
HETATM    2  C7  UNL     1       8.444  25.060   4.282  1.00  0.00     0.010 A 
HETATM    3  C8  UNL     1       8.123  24.074   3.404  1.00  0.00     0.025 A 
HETATM    4  C9  UNL     1       8.880  22.954   3.361  1.00  0.00     0.045 A 
HETATM    5 CL1  UNL     1       8.502  21.637   2.242  1.00  0.00    -0.083 Cl
HETATM    6  C10 UNL     1       9.962  22.827   4.203  1.00  0.00    -0.000 A 
HETATM    7  C11 UNL     1      10.724  21.665   4.140  1.00  0.00     0.051 A 
HETATM    8  C12 UNL     1      11.795  21.500   4.946  1.00  0.00     0.084 A 
HETATM    9  C21 UNL     1      12.120  22.494   5.827  1.00  0.00     0.048 A 
HETATM   10  C27 UNL     1      11.396  23.701   5.947  1.00  0.00    -0.034 A 
HETATM   11  C28 UNL     1      11.848  24.743   6.848  1.00  0.00     0.050 C 
HETATM   12  C29 UNL     1      10.306  23.847   5.118  1.00  0.00    -0.011 A 
ENDROOT
BRANCH   8  13
HETATM   13  O2  UNL     1      12.547  20.343   4.881  1.00  0.00    -0.350 OA
BRANCH  13  14
HETATM   14  C13 UNL     1      13.448  20.088   3.798  1.00  0.00     0.177 C 
BRANCH  14  15
HETATM   15  C14 UNL     1      14.408  19.019   4.219  1.00  0.00     0.057 C 
BRANCH  15  16
HETATM   16  C15 UNL     1      15.635  19.403   4.915  1.00  0.00     0.274 C 
BRANCH  16  17
HETATM   17  N3  UNL     1      16.882  19.449   4.231  1.00  0.00     0.091 N 
HETATM   18  C16 UNL     1      17.995  19.485   5.197  1.00  0.00     0.302 C 
HETATM   19  C17 UNL     1      18.197  18.196   5.913  1.00  0.00     0.302 C 
HETATM   20  N4  UNL     1      18.617  17.143   4.979  1.00  0.00     0.087 N 
HETATM   21  C18 UNL     1      17.933  15.902   5.228  1.00  0.00     0.310 C 
HETATM   22  C19 UNL     1      18.433  17.615   3.626  1.00  0.00     0.302 C 
HETATM   23  C20 UNL     1      17.079  18.270   3.408  1.00  0.00     0.302 C 
ENDBRANCH  16  17
ENDBRANCH  15  16
ENDBRANCH  14  15
ENDBRANCH  13  14
ENDBRANCH   8  13
BRANCH   9  24
HETATM   24  C22 UNL     1      13.280  22.283   6.695  1.00  0.00     0.112 C 
HETATM   25  N5  UNL     1      13.146  21.696   7.829  1.00  0.00    -0.376 N 
HETATM   26  C23 UNL     1      14.220  21.443   8.751  1.00  0.00     0.123 C 
ATOM     27  H5  UNL     1      12.210  21.387   8.096  1.00  0.00     0.161 HD
HETATM   28  C24 UNL     1      15.281  22.519   8.619  1.00  0.00     0.039 C 
HETATM   29  C25 UNL     1      15.675  22.580   7.175  1.00  0.00     0.125 C 
HETATM   30  N6  UNL     1      14.555  22.719   6.277  1.00  0.00    -0.371 N 
HETATM   31  C26 UNL     1      14.791  23.306   4.957  1.00  0.00     0.151 C 
ENDBRANCH   9  24
BRANCH   1  32
HETATM   32  C5  UNL     1       9.799  26.051   6.119  1.00  0.00     0.098 C 
BRANCH  32  33
HETATM   33  C4  UNL     1       8.445  26.439   6.712  1.00  0.00     0.040 A 
HETATM   34  C2  UNL     1       7.892  25.985   7.917  1.00  0.00     0.033 A 
HETATM   35  C1  UNL     1       8.552  25.009   8.824  1.00  0.00     0.070 C 
HETATM   36  N1  UNL     1       6.694  26.570   8.107  1.00  0.00    -0.311 N 
HETATM   37  C3  UNL     1       6.474  27.380   7.057  1.00  0.00     0.324 A 
ATOM     38  H1  UNL     1       6.070  26.426   8.900  1.00  0.00     0.170 HD
HETATM   39  O1  UNL     1       5.474  28.112   6.839  1.00  0.00    -0.247 OA
HETATM   40  N2  UNL     1       7.524  27.293   6.234  1.00  0.00    -0.310 N 
ATOM     41  H2  UNL     1       7.614  27.807   5.358  1.00  0.00     0.170 HD
ENDBRANCH  32  33
ENDBRANCH   1  32
TORSDOF 8
ENDMDL
MODEL 3
REMARK VINA RESULT: -9.389564195      2.811     10.072
REMARK  8 active torsions:
REMARK  status: ('A' for Active; 'I' for Inactive)
REMARK    1  A    between atoms: C4_9  and  C5_10 
REMARK    2  A    between atoms: C5_10  and  C6_11 
REMARK    3  A    between atoms: C12_18  and  O2_19 
REMARK    4  A    between atoms: O2_19  and  C13_20 
REMARK    5  A    between atoms: C13_20  and  C14_21 
REMARK    6  A    between atoms: C14_21  and  C15_22 
REMARK    7  A    between atoms: C15_22  and  N3_23 
REMARK    8  A    between atoms: C21_30  and  C22_31 
ROOT
HETATM    1  C6  UNL     1       9.493  25.248   5.642  1.00  0.00    -0.041 A 
HETATM    2  C7  UNL     1       8.377  25.405   4.800  1.00  0.00     0.010 A 
HETATM    3  C8  UNL     1       8.019  24.514   3.837  1.00  0.00     0.025 A 
HETATM    4  C9  UNL     1       8.765  23.400   3.657  1.00  0.00     0.045 A 
HETATM    5 CL1  UNL     1       8.340  22.205   2.424  1.00  0.00    -0.083 Cl
HETATM    6  C10 UNL     1       9.873  23.184   4.446  1.00  0.00    -0.000 A 
HETATM    7  C11 UNL     1      10.622  22.030   4.241  1.00  0.00     0.051 A 
HETATM    8  C12 UNL     1      11.717  21.779   4.990  1.00  0.00     0.084 A 
HETATM    9  C21 UNL     1      12.079  22.678   5.955  1.00  0.00     0.048 A 
HETATM   10  C27 UNL     1      11.370  23.870   6.220  1.00  0.00    -0.034 A 
HETATM   11  C28 UNL     1      11.859  24.814   7.207  1.00  0.00     0.050 C 
HETATM   12  C29 UNL     1      10.255  24.104   5.447  1.00  0.00    -0.011 A 
ENDROOT
BRANCH   8  13
HETATM   13  O2  UNL     1      12.457  20.631   4.785  1.00  0.00    -0.350 OA
BRANCH  13  14
HETATM   14  C13 UNL     1      12.815  20.188   3.470  1.00  0.00     0.177 C 
BRANCH  14  15
HETATM   15  C14 UNL     1      14.304  20.054   3.402  1.00  0.00     0.057 C 
BRANCH  15  16
HETATM   16  C15 UNL     1      14.897  19.282   2.313  1.00  0.00     0.274 C 
BRANCH  16  17
HETATM   17  N3  UNL     1      15.287  17.927   2.502  1.00  0.00     0.091 N 
HETATM   18  C16 UNL     1      16.609  17.685   1.896  1.00  0.00     0.302 C 
HETATM   19  C17 UNL     1      17.726  18.329   2.640  1.00  0.00     0.302 C 
HETATM   20  N4  UNL     1      17.872  17.735   3.976  1.00  0.00     0.087 N 
HETATM   21  C18 UNL     1      18.090  18.736   4.986  1.00  0.00     0.310 C 
HETATM   22  C19 UNL     1      16.717  16.912   4.252  1.00  0.00     0.302 C 
HETATM   23  C20 UNL     1      15.406  17.601   3.911  1.00  0.00     0.302 C 
ENDBRANCH  16  17
ENDBRANCH  15  16
ENDBRANCH  14  15
ENDBRANCH  13  14
ENDBRANCH   8  13
BRANCH   9  24
HETATM   24  C22 UNL     1      13.265  22.374   6.760  1.00  0.00     0.112 C 
HETATM   25  N5  UNL     1      13.153  21.740   7.870  1.00  0.00    -0.376 N 
HETATM   26  C23 UNL     1      14.254  21.395   8.729  1.00  0.00     0.123 C 
ATOM     27  H5  UNL     1      12.217  21.460   8.165  1.00  0.00     0.161 HD
HETATM   28  C24 UNL     1      15.357  22.428   8.599  1.00  0.00     0.039 C 
HETATM   29  C25 UNL     1      15.689  22.542   7.142  1.00  0.00     0.125 C 
HETATM   30  N6  UNL     1      14.539  22.772   6.304  1.00  0.00    -0.371 N 
HETATM   31  C26 UNL     1      14.744  23.412   5.003  1.00  0.00     0.151 C 
ENDBRANCH   9  24
BRANCH   1  32
HETATM   32  C5  UNL     1       9.800  26.199   6.681  1.00  0.00     0.098 C 
BRANCH  32  33
HETATM   33  C4  UNL     1       8.464  26.561   7.329  1.00  0.00     0.040 A 
HETATM   34  C2  UNL     1       8.267  27.098   8.608  1.00  0.00     0.033 A 
HETATM   35  C1  UNL     1       9.362  27.391   9.570  1.00  0.00     0.070 C 
HETATM   36  N1  UNL     1       6.950  27.300   8.809  1.00  0.00    -0.311 N 
HETATM   37  C3  UNL     1       6.310  26.905   7.696  1.00  0.00     0.324 A 
ATOM     38  H1  UNL     1       6.519  27.682   9.651  1.00  0.00     0.170 HD
HETATM   39  O1  UNL     1       5.074  26.923   7.465  1.00  0.00    -0.247 OA
HETATM   40  N2  UNL     1       7.223  26.467   6.822  1.00  0.00    -0.310 N 
ATOM     41  H2  UNL     1       7.005  26.108   5.893  1.00  0.00     0.170 HD
ENDBRANCH  32  33
ENDBRANCH   1  32
TORSDOF 8
ENDMDL
MODEL 4
REMARK VINA RESULT: -9.251887581      0.824      1.223
REMARK  8 active torsions:
REMARK  status: ('A' for Active; 'I' for Inactive)
REMARK    1  A    between atoms: C4_9  and  C5_10 
REMARK    2  A    between atoms: C5_10  and  C6_11 
REMARK    3  A    between atoms: C12_18  and  O2_19 
REMARK    4  A    between atoms: O2_19  and  C13_20 
REMARK    5  A    between atoms: C13_20  and  C14_21 
REMARK    6  A    between atoms: C14_21  and  C15_22 
REMARK    7  A    between atoms: C15_22  and  N3_23 
REMARK    8  A    between atoms: C21_30  and  C22_31 
ROOT
HETATM    1  C6  UNL     1      16.178  20.419   5.940  1.00  0.00    -0.041 A 
HETATM    2  C7  UNL     1      17.023  20.046   7.001  1.00  0.00     0.010 A 
HETATM    3  C8  UNL     1      16.727  20.244   8.313  1.00  0.00     0.025 A 
HETATM    4  C9  UNL     1      15.556  20.833   8.646  1.00  0.00     0.045 A 
HETATM    5 CL1  UNL     1      15.119  21.107  10.338  1.00  0.00    -0.083 Cl
HETATM    6  C10 UNL     1      14.682  21.225   7.656  1.00  0.00    -0.000 A 
HETATM    7  C11 UNL     1      13.484  21.828   8.025  1.00  0.00     0.051 A 
HETATM    8  C12 UNL     1      12.599  22.229   7.088  1.00  0.00     0.084 A 
HETATM    9  C21 UNL     1      12.898  22.034   5.768  1.00  0.00     0.048 A 
HETATM   10  C27 UNL     1      14.094  21.432   5.317  1.00  0.00    -0.034 A 
HETATM   11  C28 UNL     1      14.377  21.330   3.899  1.00  0.00     0.050 C 
HETATM   12  C29 UNL     1      14.980  21.026   6.290  1.00  0.00    -0.011 A 
ENDROOT
BRANCH   8  13
HETATM   13  O2  UNL     1      11.409  22.825   7.459  1.00  0.00    -0.350 OA
BRANCH  13  14
HETATM   14  C13 UNL     1      11.366  23.905   8.398  1.00  0.00     0.177 C 
BRANCH  14  15
HETATM   15  C14 UNL     1      10.647  25.056   7.767  1.00  0.00     0.057 C 
BRANCH  15  16
HETATM   16  C15 UNL     1      10.305  26.214   8.589  1.00  0.00     0.274 C 
BRANCH  16  17
HETATM   17  N3  UNL     1       9.020  26.336   9.187  1.00  0.00     0.091 N 
HETATM   18  C16 UNL     1       8.534  27.724   9.080  1.00  0.00     0.302 C 
HETATM   19  C17 UNL     1       8.156  28.112   7.693  1.00  0.00     0.302 C 
HETATM   20  N4  UNL     1       7.001  27.330   7.232  1.00  0.00     0.087 N 
HETATM   21  C18 UNL     1       7.168  26.877   5.877  1.00  0.00     0.310 C 
HETATM   22  C19 UNL     1       6.770  26.244   8.155  1.00  0.00     0.302 C 
HETATM   23  C20 UNL     1       8.042  25.497   8.519  1.00  0.00     0.302 C 
ENDBRANCH  16  17
ENDBRANCH  15  16
ENDBRANCH  14  15
ENDBRANCH  13  14
ENDBRANCH   8  13
BRANCH   9  24
HETATM   24  C22 UNL     1      11.915  22.469   4.774  1.00  0.00     0.112 C 
HETATM   25  N5  UNL     1      10.995  21.668   4.373  1.00  0.00    -0.376 N 
HETATM   26  C23 UNL     1       9.987  22.001   3.404  1.00  0.00     0.123 C 
ATOM     27  H5  UNL     1      10.979  20.728   4.771  1.00  0.00     0.161 HD
HETATM   28  C24 UNL     1      10.528  23.022   2.422  1.00  0.00     0.039 C 
HETATM   29  C25 UNL     1      11.053  24.174   3.224  1.00  0.00     0.125 C 
HETATM   30  N6  UNL     1      11.974  23.783   4.262  1.00  0.00    -0.371 N 
HETATM   31  C26 UNL     1      12.936  24.773   4.748  1.00  0.00     0.151 C 
ENDBRANCH   9  24
BRANCH   1  32
HETATM   32  C5  UNL     1      16.517  20.141   4.566  1.00  0.00     0.098 C 
BRANCH  32  33
HETATM   33  C4  UNL     1      16.998  18.691   4.536  1.00  0.00     0.040 A 
HETATM   34  C2  UNL     1      16.235  17.557   4.228  1.00  0.00     0.033 A 
HETATM   35  C1  UNL     1      14.788  17.589   3.892  1.00  0.00     0.070 C 
HETATM   36  N1  UNL     1      17.019  16.462   4.287  1.00  0.00    -0.311 N 
HETATM   37  C3  UNL     1      18.254  16.872   4.623  1.00  0.00     0.324 A 
ATOM     38  H1  UNL     1      16.728  15.501   4.109  1.00  0.00     0.170 HD
HETATM   39  O1  UNL     1      19.286  16.171   4.785  1.00  0.00    -0.247 OA
HETATM   40  N2  UNL     1      18.228  18.201   4.768  1.00  0.00    -0.310 N 
ATOM     41  H2  UNL     1      19.036  18.769   5.022  1.00  0.00     0.170 HD
ENDBRANCH  32  33
ENDBRANCH   1  32
TORSDOF 8
ENDMDL
MODEL 5
REMARK VINA RESULT: -9.082021702      2.840      9.897
REMARK  8 active torsions:
REMARK  status: ('A' for Active; 'I' for Inactive)
REMARK    1  A    between atoms: C4_9  and  C5_10 
REMARK    2  A    between atoms: C5_10  and  C6_11 
REMARK    3  A    between atoms: C12_18  and  O2_19 
REMARK    4  A    between atoms: O2_19  and  C13_20 
REMARK    5  A    between atoms: C13_20  and  C14_21 
REMARK    6  A    between atoms: C14_21  and  C15_22 
REMARK    7  A    between atoms: C15_22  and  N3_23 
REMARK    8  A    between atoms: C21_30  and  C22_31 
ROOT
HETATM    1  C6  UNL     1       9.846  24.248   6.463  1.00  0.00    -0.041 A 
HETATM    2  C7  UNL     1       8.867  24.678   5.549  1.00  0.00     0.010 A 
HETATM    3  C8  UNL     1       9.012  24.627   4.198  1.00  0.00     0.025 A 
HETATM    4  C9  UNL     1      10.159  24.137   3.674  1.00  0.00     0.045 A 
HETATM    5 CL1  UNL     1      10.398  24.041   1.924  1.00  0.00    -0.083 Cl
HETATM    6  C10 UNL     1      11.162  23.699   4.512  1.00  0.00    -0.000 A 
HETATM    7  C11 UNL     1      12.331  23.199   3.948  1.00  0.00     0.051 A 
HETATM    8  C12 UNL     1      13.339  22.761   4.732  1.00  0.00     0.084 A 
HETATM    9  C21 UNL     1      13.194  22.817   6.091  1.00  0.00     0.048 A 
HETATM   10  C27 UNL     1      12.039  23.313   6.734  1.00  0.00    -0.034 A 
HETATM   11  C28 UNL     1      11.989  23.414   8.180  1.00  0.00     0.050 C 
HETATM   12  C29 UNL     1      11.021  23.750   5.916  1.00  0.00    -0.011 A 
ENDROOT
BRANCH   8  13
HETATM   13  O2  UNL     1      14.498  22.263   4.168  1.00  0.00    -0.350 OA
BRANCH  13  14
HETATM   14  C13 UNL     1      14.503  21.644   2.876  1.00  0.00     0.177 C 
BRANCH  14  15
HETATM   15  C14 UNL     1      14.296  20.172   3.054  1.00  0.00     0.057 C 
BRANCH  15  16
HETATM   16  C15 UNL     1      14.752  19.262   2.006  1.00  0.00     0.274 C 
BRANCH  16  17
HETATM   17  N3  UNL     1      15.138  17.926   2.311  1.00  0.00     0.091 N 
HETATM   18  C16 UNL     1      16.497  17.658   1.807  1.00  0.00     0.302 C 
HETATM   19  C17 UNL     1      17.561  18.363   2.574  1.00  0.00     0.302 C 
HETATM   20  N4  UNL     1      17.625  17.863   3.954  1.00  0.00     0.087 N 
HETATM   21  C18 UNL     1      17.773  18.932   4.905  1.00  0.00     0.310 C 
HETATM   22  C19 UNL     1      16.461  17.048   4.213  1.00  0.00     0.302 C 
HETATM   23  C20 UNL     1      15.169  17.698   3.744  1.00  0.00     0.302 C 
ENDBRANCH  16  17
ENDBRANCH  15  16
ENDBRANCH  14  15
ENDBRANCH  13  14
ENDBRANCH   8  13
BRANCH   9  24
HETATM   24  C22 UNL     1      14.300  22.325   6.915  1.00  0.00     0.112 C 
HETATM   25  N5  UNL     1      15.077  23.148   7.521  1.00  0.00    -0.376 N 
HETATM   26  C23 UNL     1      16.187  22.765   8.350  1.00  0.00     0.123 C 
ATOM     27  H5  UNL     1      14.894  24.146   7.405  1.00  0.00     0.161 HD
HETATM   28  C24 UNL     1      16.770  21.452   7.863  1.00  0.00     0.039 C 
HETATM   29  C25 UNL     1      15.646  20.464   7.797  1.00  0.00     0.125 C 
HETATM   30  N6  UNL     1      14.505  20.936   7.052  1.00  0.00    -0.371 N 
HETATM   31  C26 UNL     1      13.599  19.946   6.467  1.00  0.00     0.151 C 
ENDBRANCH   9  24
BRANCH   1  32
HETATM   32  C5  UNL     1       9.621  24.277   7.886  1.00  0.00     0.098 C 
BRANCH  32  33
HETATM   33  C4  UNL     1       8.774  25.520   8.154  1.00  0.00     0.040 A 
HETATM   34  C2  UNL     1       9.179  26.692   8.806  1.00  0.00     0.033 A 
HETATM   35  C1  UNL     1      10.537  26.905   9.374  1.00  0.00     0.070 C 
HETATM   36  N1  UNL     1       8.156  27.568   8.828  1.00  0.00    -0.311 N 
HETATM   37  C3  UNL     1       7.116  26.983   8.209  1.00  0.00     0.324 A 
ATOM     38  H1  UNL     1       8.169  28.501   9.238  1.00  0.00     0.170 HD
HETATM   39  O1  UNL     1       5.967  27.455   8.012  1.00  0.00    -0.247 OA
HETATM   40  N2  UNL     1       7.497  25.764   7.813  1.00  0.00    -0.310 N 
ATOM     41  H2  UNL     1       6.896  25.107   7.316  1.00  0.00     0.170 HD
ENDBRANCH  32  33
ENDBRANCH   1  32
TORSDOF 8
ENDMDL
