MODEL 1
REMARK VINA RESULT: -7.485808945      0.000      0.000
REMARK  6 active torsions:
REMARK  status: ('A' for Active; 'I' for Inactive)
REMARK    1  A    between atoms: C2_2  and  N1_3 
REMARK    2  A    between atoms: N1_3  and  C3_5 
REMARK    3  A    between atoms: C4_8  and  O1_9 
REMARK    4  A    between atoms: O1_9  and  C5_10 
REMARK    5  A    between atoms: N3_14  and  C9_15 
REMARK    6  A    between atoms: C16_23  and  N5_24 
ROOT
HETATM    1  C3  UNL     1       1.787  37.132   0.740  1.00  0.00     0.681 A 
HETATM    2  N2  UNL     1       1.265  36.954   1.955  1.00  0.00    -0.169 N 
ATOM      3  H2  UNL     1       1.897  36.954   2.756  1.00  0.00     0.186 HD
HETATM    4  C4  UNL     1      -0.072  36.770   2.187  1.00  0.00     0.183 A 
HETATM    5  C14 UNL     1      -0.904  36.771   1.106  1.00  0.00     0.140 A 
HETATM    6  C15 UNL     1      -2.305  36.559   1.223  1.00  0.00     0.107 C 
HETATM    7  N4  UNL     1      -3.441  36.366   1.302  1.00  0.00    -0.191 NA
HETATM    8  C16 UNL     1      -0.395  36.957  -0.196  1.00  0.00     0.140 A 
HETATM    9  N6  UNL     1       0.927  37.130  -0.324  1.00  0.00    -0.175 N 
ATOM     10  H6  UNL     1       1.310  37.265  -1.259  1.00  0.00     0.186 HD
ENDROOT
BRANCH   4  11
HETATM   11  O1  UNL     1      -0.507  36.595   3.447  1.00  0.00    -0.323 OA
BRANCH  11  12
HETATM   12  C5  UNL     1      -0.404  35.509   4.310  1.00  0.00     0.069 C 
HETATM   13  C6  UNL     1       0.977  34.997   4.514  1.00  0.00     0.047 C 
HETATM   14  C7  UNL     1      -0.906  36.002   5.668  1.00  0.00     0.068 C 
HETATM   15  C8  UNL     1      -2.037  35.139   6.200  1.00  0.00     0.276 C 
HETATM   16  N3  UNL     1      -1.541  33.803   6.268  1.00  0.00     0.092 N 
HETATM   17  C12 UNL     1      -1.303  33.307   4.952  1.00  0.00     0.276 C 
HETATM   18  C13 UNL     1      -1.290  34.356   3.887  1.00  0.00     0.068 C 
BRANCH  16  19
HETATM   19  C9  UNL     1      -2.255  32.912   7.117  1.00  0.00     0.215 C 
HETATM   20  C10 UNL     1      -2.663  33.477   8.443  1.00  0.00     0.042 C 
HETATM   21  C11 UNL     1      -1.557  31.613   7.338  1.00  0.00     0.042 C 
ENDBRANCH  16  19
ENDBRANCH  11  12
ENDBRANCH   4  11
BRANCH   8  22
HETATM   22  N5  UNL     1      -1.185  36.959  -1.210  1.00  0.00    -0.384 N 
ATOM     23  H52 UNL     1      -2.199  36.988  -1.106  1.00  0.00     0.157 HD
ATOM     24  H51 UNL     1      -0.809  36.929  -2.157  1.00  0.00     0.157 HD
ENDBRANCH   8  22
BRANCH   1  25
HETATM   25  N1  UNL     1       3.025  37.308   0.485  1.00  0.00    -0.226 N 
ATOM     26  H1  UNL     1       3.295  38.276   0.310  1.00  0.00     0.177 HD
BRANCH  25  27
HETATM   27  C2  UNL     1       4.080  36.372   0.409  1.00  0.00     0.133 C 
HETATM   28  C1  UNL     1       4.874  36.252   1.699  1.00  0.00     0.027 C 
ENDBRANCH  25  27
ENDBRANCH   1  25
TORSDOF 6
ENDMDL
MODEL 2
REMARK VINA RESULT: -7.460939308      1.428      1.928
REMARK  6 active torsions:
REMARK  status: ('A' for Active; 'I' for Inactive)
REMARK    1  A    between atoms: C2_2  and  N1_3 
REMARK    2  A    between atoms: N1_3  and  C3_5 
REMARK    3  A    between atoms: C4_8  and  O1_9 
REMARK    4  A    between atoms: O1_9  and  C5_10 
REMARK    5  A    between atoms: N3_14  and  C9_15 
REMARK    6  A    between atoms: C16_23  and  N5_24 
ROOT
HETATM    1  C3  UNL     1       2.510  36.991   1.992  1.00  0.00     0.681 A 
HETATM    2  N2  UNL     1       1.709  36.836   3.048  1.00  0.00    -0.169 N 
ATOM      3  H2  UNL     1       2.139  36.733   3.968  1.00  0.00     0.186 HD
HETATM    4  C4  UNL     1       0.343  36.807   2.968  1.00  0.00     0.183 A 
HETATM    5  C14 UNL     1      -0.216  36.944   1.731  1.00  0.00     0.140 A 
HETATM    6  C15 UNL     1      -1.622  36.898   1.522  1.00  0.00     0.107 C 
HETATM    7  N4  UNL     1      -2.760  36.841   1.336  1.00  0.00    -0.191 NA
HETATM    8  C16 UNL     1       0.592  37.111   0.588  1.00  0.00     0.140 A 
HETATM    9  N6  UNL     1       1.919  37.128   0.766  1.00  0.00    -0.175 N 
ATOM     10  H6  UNL     1       2.517  37.248  -0.051  1.00  0.00     0.186 HD
ENDROOT
BRANCH   4  11
HETATM   11  O1  UNL     1      -0.383  36.643   4.087  1.00  0.00    -0.323 OA
BRANCH  11  12
HETATM   12  C5  UNL     1      -0.579  35.530   4.898  1.00  0.00     0.069 C 
HETATM   13  C6  UNL     1      -0.750  35.829   6.344  1.00  0.00     0.047 C 
HETATM   14  C7  UNL     1      -1.879  34.883   4.416  1.00  0.00     0.068 C 
HETATM   15  C8  UNL     1      -1.679  33.424   4.042  1.00  0.00     0.276 C 
HETATM   16  N3  UNL     1      -1.153  32.770   5.195  1.00  0.00     0.092 N 
HETATM   17  C12 UNL     1       0.163  33.251   5.468  1.00  0.00     0.276 C 
HETATM   18  C13 UNL     1       0.526  34.506   4.743  1.00  0.00     0.068 C 
BRANCH  16  19
HETATM   19  C9  UNL     1      -1.283  31.353   5.226  1.00  0.00     0.215 C 
HETATM   20  C10 UNL     1      -0.520  30.663   6.314  1.00  0.00     0.042 C 
HETATM   21  C11 UNL     1      -0.967  30.699   3.923  1.00  0.00     0.042 C 
ENDBRANCH  16  19
ENDBRANCH  11  12
ENDBRANCH   4  11
BRANCH   8  22
HETATM   22  N5  UNL     1       0.057  37.242  -0.574  1.00  0.00    -0.384 N 
ATOM     23  H52 UNL     1       0.471  36.829  -1.410  1.00  0.00     0.157 HD
ATOM     24  H51 UNL     1      -0.807  37.771  -0.688  1.00  0.00     0.157 HD
ENDBRANCH   8  22
BRANCH   1  25
HETATM   25  N1  UNL     1       3.785  37.025   2.029  1.00  0.00    -0.226 N 
ATOM     26  H1  UNL     1       4.194  37.954   1.925  1.00  0.00     0.177 HD
BRANCH  25  27
HETATM   27  C2  UNL     1       4.718  35.978   2.192  1.00  0.00     0.133 C 
HETATM   28  C1  UNL     1       5.935  36.109   1.292  1.00  0.00     0.027 C 
ENDBRANCH  25  27
ENDBRANCH   1  25
TORSDOF 6
ENDMDL
MODEL 3
REMARK VINA RESULT: -7.420148918      2.913      6.257
REMARK  6 active torsions:
REMARK  status: ('A' for Active; 'I' for Inactive)
REMARK    1  A    between atoms: C2_2  and  N1_3 
REMARK    2  A    between atoms: N1_3  and  C3_5 
REMARK    3  A    between atoms: C4_8  and  O1_9 
REMARK    4  A    between atoms: O1_9  and  C5_10 
REMARK    5  A    between atoms: N3_14  and  C9_15 
REMARK    6  A    between atoms: C16_23  and  N5_24 
ROOT
HETATM    1  C3  UNL     1      -2.809  33.069   0.259  1.00  0.00     0.681 A 
HETATM    2  N2  UNL     1      -2.630  34.271   0.812  1.00  0.00    -0.169 N 
ATOM      3  H2  UNL     1      -2.621  35.086   0.199  1.00  0.00     0.186 HD
HETATM    4  C4  UNL     1      -2.457  34.471   2.155  1.00  0.00     0.183 A 
HETATM    5  C14 UNL     1      -2.470  33.370   2.961  1.00  0.00     0.140 A 
HETATM    6  C15 UNL     1      -2.269  33.453   4.366  1.00  0.00     0.107 C 
HETATM    7  N4  UNL     1      -2.086  33.505   5.505  1.00  0.00    -0.191 NA
HETATM    8  C16 UNL     1      -2.656  32.082   2.419  1.00  0.00     0.140 A 
HETATM    9  N6  UNL     1      -2.818  31.985   1.094  1.00  0.00    -0.175 N 
ATOM     10  H6  UNL     1      -2.953  31.060   0.687  1.00  0.00     0.186 HD
ENDROOT
BRANCH   4  11
HETATM   11  O1  UNL     1      -2.282  35.719   2.621  1.00  0.00    -0.323 OA
BRANCH  11  12
HETATM   12  C5  UNL     1      -1.184  36.573   2.564  1.00  0.00     0.069 C 
HETATM   13  C6  UNL     1      -1.497  38.011   2.771  1.00  0.00     0.047 C 
HETATM   14  C7  UNL     1      -0.260  36.145   3.706  1.00  0.00     0.068 C 
HETATM   15  C8  UNL     1       1.137  35.817   3.209  1.00  0.00     0.276 C 
HETATM   16  N3  UNL     1       1.621  36.980   2.538  1.00  0.00     0.092 N 
HETATM   17  C12 UNL     1       0.864  37.204   1.349  1.00  0.00     0.276 C 
HETATM   18  C13 UNL     1      -0.411  36.427   1.271  1.00  0.00     0.068 C 
BRANCH  16  19
HETATM   19  C9  UNL     1       3.031  37.063   2.365  1.00  0.00     0.215 C 
HETATM   20  C10 UNL     1       3.493  37.276   0.956  1.00  0.00     0.042 C 
HETATM   21  C11 UNL     1       3.771  35.906   2.947  1.00  0.00     0.042 C 
ENDBRANCH  16  19
ENDBRANCH  11  12
ENDBRANCH   4  11
BRANCH   8  22
HETATM   22  N5  UNL     1      -2.668  31.049   3.186  1.00  0.00    -0.384 N 
ATOM     23  H52 UNL     1      -3.537  30.631   3.517  1.00  0.00     0.157 HD
ATOM     24  H51 UNL     1      -1.794  30.618   3.485  1.00  0.00     0.157 HD
ENDBRANCH   8  22
BRANCH   1  25
HETATM   25  N1  UNL     1      -2.974  32.845  -0.986  1.00  0.00    -0.226 N 
ATOM     26  H1  UNL     1      -2.350  33.364  -1.603  1.00  0.00     0.177 HD
BRANCH  25  27
HETATM   27  C2  UNL     1      -3.886  31.990  -1.643  1.00  0.00     0.133 C 
HETATM   28  C1  UNL     1      -3.213  30.970  -2.546  1.00  0.00     0.027 C 
ENDBRANCH  25  27
ENDBRANCH   1  25
TORSDOF 6
ENDMDL
MODEL 4
REMARK VINA RESULT: -7.194244955      1.951      2.558
REMARK  6 active torsions:
REMARK  status: ('A' for Active; 'I' for Inactive)
REMARK    1  A    between atoms: C2_2  and  N1_3 
REMARK    2  A    between atoms: N1_3  and  C3_5 
REMARK    3  A    between atoms: C4_8  and  O1_9 
REMARK    4  A    between atoms: O1_9  and  C5_10 
REMARK    5  A    between atoms: N3_14  and  C9_15 
REMARK    6  A    between atoms: C16_23  and  N5_24 
ROOT
HETATM    1  C3  UNL     1       1.631  36.997   2.119  1.00  0.00     0.681 A 
HETATM    2  N2  UNL     1       0.764  36.467   2.984  1.00  0.00    -0.169 N 
ATOM      3  H2  UNL     1       1.106  36.204   3.908  1.00  0.00     0.186 HD
HETATM    4  C4  UNL     1      -0.559  36.257   2.702  1.00  0.00     0.183 A 
HETATM    5  C14 UNL     1      -1.001  36.614   1.461  1.00  0.00     0.140 A 
HETATM    6  C15 UNL     1      -2.346  36.414   1.046  1.00  0.00     0.107 C 
HETATM    7  N4  UNL     1      -3.430  36.237   0.689  1.00  0.00    -0.191 NA
HETATM    8  C16 UNL     1      -0.120  37.177   0.516  1.00  0.00     0.140 A 
HETATM    9  N6  UNL     1       1.157  37.345   0.883  1.00  0.00    -0.175 N 
ATOM     10  H6  UNL     1       1.806  37.751   0.211  1.00  0.00     0.186 HD
ENDROOT
BRANCH   4  11
HETATM   11  O1  UNL     1      -1.357  35.716   3.637  1.00  0.00    -0.323 OA
BRANCH  11  12
HETATM   12  C5  UNL     1      -1.348  35.822   5.025  1.00  0.00     0.069 C 
HETATM   13  C6  UNL     1      -0.175  35.201   5.694  1.00  0.00     0.047 C 
HETATM   14  C7  UNL     1      -1.299  37.320   5.331  1.00  0.00     0.068 C 
HETATM   15  C8  UNL     1      -2.445  37.751   6.229  1.00  0.00     0.276 C 
HETATM   16  N3  UNL     1      -2.362  36.962   7.414  1.00  0.00     0.092 N 
HETATM   17  C12 UNL     1      -2.643  35.597   7.108  1.00  0.00     0.276 C 
HETATM   18  C13 UNL     1      -2.611  35.269   5.650  1.00  0.00     0.068 C 
BRANCH  16  19
HETATM   19  C9  UNL     1      -3.049  37.466   8.553  1.00  0.00     0.215 C 
HETATM   20  C10 UNL     1      -3.566  38.866   8.422  1.00  0.00     0.042 C 
HETATM   21  C11 UNL     1      -2.267  37.355   9.818  1.00  0.00     0.042 C 
ENDBRANCH  16  19
ENDBRANCH  11  12
ENDBRANCH   4  11
BRANCH   8  22
HETATM   22  N5  UNL     1      -0.544  37.512  -0.651  1.00  0.00    -0.384 N 
ATOM     23  H52 UNL     1      -0.434  36.904  -1.462  1.00  0.00     0.157 HD
ATOM     24  H51 UNL     1      -1.008  38.409  -0.793  1.00  0.00     0.157 HD
ENDBRANCH   8  22
BRANCH   1  25
HETATM   25  N1  UNL     1       2.868  37.208   2.347  1.00  0.00    -0.226 N 
ATOM     26  H1  UNL     1       3.076  37.600   3.265  1.00  0.00     0.177 HD
BRANCH  25  27
HETATM   27  C2  UNL     1       3.996  36.985   1.526  1.00  0.00     0.133 C 
HETATM   28  C1  UNL     1       4.904  35.880   2.037  1.00  0.00     0.027 C 
ENDBRANCH  25  27
ENDBRANCH   1  25
TORSDOF 6
ENDMDL
MODEL 5
REMARK VINA RESULT: -7.064222974      1.523      2.046
REMARK  6 active torsions:
REMARK  status: ('A' for Active; 'I' for Inactive)
REMARK    1  A    between atoms: C2_2  and  N1_3 
REMARK    2  A    between atoms: N1_3  and  C3_5 
REMARK    3  A    between atoms: C4_8  and  O1_9 
REMARK    4  A    between atoms: O1_9  and  C5_10 
REMARK    5  A    between atoms: N3_14  and  C9_15 
REMARK    6  A    between atoms: C16_23  and  N5_24 
ROOT
HETATM    1  C3  UNL     1       1.902  37.042   2.221  1.00  0.00     0.681 A 
HETATM    2  N2  UNL     1       1.169  36.423   3.149  1.00  0.00    -0.169 N 
ATOM      3  H2  UNL     1       1.615  36.185   4.035  1.00  0.00     0.186 HD
HETATM    4  C4  UNL     1      -0.148  36.090   2.979  1.00  0.00     0.183 A 
HETATM    5  C14 UNL     1      -0.729  36.414   1.788  1.00  0.00     0.140 A 
HETATM    6  C15 UNL     1      -2.080  36.089   1.487  1.00  0.00     0.107 C 
HETATM    7  N4  UNL     1      -3.170  35.812   1.222  1.00  0.00    -0.191 NA
HETATM    8  C16 UNL     1       0.008  37.068   0.780  1.00  0.00     0.140 A 
HETATM    9  N6  UNL     1       1.290  37.355   1.038  1.00  0.00    -0.175 N 
ATOM     10  H6  UNL     1       1.837  37.828   0.318  1.00  0.00     0.186 HD
ENDROOT
BRANCH   4  11
HETATM   11  O1  UNL     1      -0.806  35.465   3.970  1.00  0.00    -0.323 OA
BRANCH  11  12
HETATM   12  C5  UNL     1      -1.293  35.935   5.186  1.00  0.00     0.069 C 
HETATM   13  C6  UNL     1      -1.676  37.371   5.196  1.00  0.00     0.047 C 
HETATM   14  C7  UNL     1      -2.563  35.129   5.469  1.00  0.00     0.068 C 
HETATM   15  C8  UNL     1      -2.501  34.432   6.817  1.00  0.00     0.276 C 
HETATM   16  N3  UNL     1      -2.282  35.446   7.797  1.00  0.00     0.092 N 
HETATM   17  C12 UNL     1      -0.983  36.011   7.629  1.00  0.00     0.276 C 
HETATM   18  C13 UNL     1      -0.329  35.683   6.325  1.00  0.00     0.068 C 
BRANCH  16  19
HETATM   19  C9  UNL     1      -2.608  35.100   9.138  1.00  0.00     0.215 C 
HETATM   20  C10 UNL     1      -2.422  36.194  10.145  1.00  0.00     0.042 C 
HETATM   21  C11 UNL     1      -1.912  33.874   9.623  1.00  0.00     0.042 C 
ENDBRANCH  16  19
ENDBRANCH  11  12
ENDBRANCH   4  11
BRANCH   8  22
HETATM   22  N5  UNL     1      -0.547  37.372  -0.340  1.00  0.00    -0.384 N 
ATOM     23  H52 UNL     1      -1.274  36.791  -0.759  1.00  0.00     0.157 HD
ATOM     24  H51 UNL     1      -0.268  38.214  -0.843  1.00  0.00     0.157 HD
ENDBRANCH   8  22
BRANCH   1  25
HETATM   25  N1  UNL     1       3.129  37.370   2.345  1.00  0.00    -0.226 N 
ATOM     26  H1  UNL     1       3.328  38.008   3.114  1.00  0.00     0.177 HD
BRANCH  25  27
HETATM   27  C2  UNL     1       4.254  36.985   1.582  1.00  0.00     0.133 C 
HETATM   28  C1  UNL     1       4.927  35.723   2.095  1.00  0.00     0.027 C 
ENDBRANCH  25  27
ENDBRANCH   1  25
TORSDOF 6
ENDMDL
