MODEL 1
REMARK VINA RESULT: -7.635205177      0.000      0.000
REMARK  6 active torsions:
REMARK  status: ('A' for Active; 'I' for Inactive)
REMARK       I    between atoms: N2_5  and  C4_6 
REMARK    1  A    between atoms: C4_6  and  C5_8 
REMARK    2  A    between atoms: C5_8  and  C6_9 
REMARK    3  A    between atoms: C6_9  and  C7_10 
REMARK    4  A    between atoms: C7_10  and  C8_11 
REMARK    5  A    between atoms: C8_11  and  O2_12 
REMARK    6  A    between atoms: N3_14  and  O3_16 
ROOT
HETATM    1  N1  UNL     1      -2.274  34.389   1.940  1.00  0.00    -0.197 NA
HETATM    2  C1  UNL     1      -1.937  35.154   2.760  1.00  0.00     0.066 C 
HETATM    3  C2  UNL     1      -1.541  36.123   3.782  1.00  0.00     0.119 C 
HETATM    4  C3  UNL     1      -0.660  37.154   3.105  1.00  0.00     0.145 C 
HETATM    5  N2  UNL     1       0.622  36.614   2.710  1.00  0.00    -0.351 N 
HETATM    6  C4  UNL     1       1.161  36.948   1.441  1.00  0.00     0.219 C 
HETATM    7  O1  UNL     1       0.521  37.709   0.672  1.00  0.00    -0.273 OA
HETATM    8  C9  UNL     1       1.311  35.749   3.632  1.00  0.00     0.126 C 
HETATM    9  C10 UNL     1       0.393  34.722   4.237  1.00  0.00     0.031 C 
HETATM   10  C11 UNL     1      -0.819  35.398   4.898  1.00  0.00    -0.018 C 
HETATM   11  C12 UNL     1      -1.713  34.269   5.354  1.00  0.00     0.030 C 
HETATM   12  C13 UNL     1      -2.842  34.866   6.140  1.00  0.00     0.114 C 
HETATM   13  N4  UNL     1      -2.294  35.451   7.319  1.00  0.00    -0.421 N 
ATOM     14  H4  UNL     1      -2.567  35.143   8.252  1.00  0.00     0.153 HD
HETATM   15  C14 UNL     1      -1.350  36.482   7.117  1.00  0.00     0.114 C 
HETATM   16  C15 UNL     1      -0.390  36.300   5.993  1.00  0.00     0.030 C 
ENDROOT
BRANCH   6  17
HETATM   17  C5  UNL     1       2.473  36.429   0.970  1.00  0.00     0.103 C 
BRANCH  17  18
HETATM   18  C6  UNL     1       3.578  37.215   1.572  1.00  0.00     0.017 C 
BRANCH  18  19
HETATM   19  C7  UNL     1       4.942  36.638   1.473  1.00  0.00     0.086 C 
BRANCH  19  20
HETATM   20  C8  UNL     1       5.168  35.354   2.124  1.00  0.00     0.135 C 
HETATM   21  N3  UNL     1       5.846  34.449   1.532  1.00  0.00    -0.251 N 
ATOM     22  H3  UNL     1       6.232  34.618   0.604  1.00  0.00     0.196 HD
BRANCH  20  23
HETATM   23  O2  UNL     1       4.660  35.096   3.377  1.00  0.00    -0.348 OA
ATOM     24  H2  UNL     1       3.860  34.596   3.486  1.00  0.00     0.219 HD
ENDBRANCH  20  23
BRANCH  21  25
HETATM   25  O3  UNL     1       6.050  33.248   2.156  1.00  0.00    -0.288 OA
ATOM     26  H3  UNL     1       6.891  33.070   2.561  1.00  0.00     0.244 HD
ENDBRANCH  21  25
ENDBRANCH  19  20
ENDBRANCH  18  19
ENDBRANCH  17  18
ENDBRANCH   6  17
TORSDOF 6
ENDMDL
MODEL 2
REMARK VINA RESULT: -7.302529708      7.883     10.305
REMARK  6 active torsions:
REMARK  status: ('A' for Active; 'I' for Inactive)
REMARK       I    between atoms: N2_5  and  C4_6 
REMARK    1  A    between atoms: C4_6  and  C5_8 
REMARK    2  A    between atoms: C5_8  and  C6_9 
REMARK    3  A    between atoms: C6_9  and  C7_10 
REMARK    4  A    between atoms: C7_10  and  C8_11 
REMARK    5  A    between atoms: C8_11  and  O2_12 
REMARK    6  A    between atoms: N3_14  and  O3_16 
ROOT
HETATM    1  N1  UNL     1      -6.130  28.005  -2.371  1.00  0.00    -0.197 NA
HETATM    2  C1  UNL     1      -4.977  27.832  -2.266  1.00  0.00     0.066 C 
HETATM    3  C2  UNL     1      -3.541  27.594  -2.121  1.00  0.00     0.119 C 
HETATM    4  C3  UNL     1      -3.026  28.579  -1.091  1.00  0.00     0.145 C 
HETATM    5  N2  UNL     1      -3.042  29.942  -1.570  1.00  0.00    -0.351 N 
HETATM    6  C4  UNL     1      -3.487  30.981  -0.712  1.00  0.00     0.219 C 
HETATM    7  O1  UNL     1      -3.861  30.708   0.456  1.00  0.00    -0.273 OA
HETATM    8  C9  UNL     1      -2.601  30.197  -2.917  1.00  0.00     0.126 C 
HETATM    9  C10 UNL     1      -3.179  29.213  -3.897  1.00  0.00     0.031 C 
HETATM   10  C11 UNL     1      -2.871  27.770  -3.467  1.00  0.00    -0.018 C 
HETATM   11  C12 UNL     1      -3.600  26.889  -4.452  1.00  0.00     0.030 C 
HETATM   12  C13 UNL     1      -3.214  25.468  -4.171  1.00  0.00     0.114 C 
HETATM   13  N4  UNL     1      -1.824  25.328  -4.454  1.00  0.00    -0.421 N 
ATOM     14  H4  UNL     1      -1.479  24.678  -5.160  1.00  0.00     0.153 HD
HETATM   15  C14 UNL     1      -0.954  26.143  -3.696  1.00  0.00     0.114 C 
HETATM   16  C15 UNL     1      -1.408  27.534  -3.422  1.00  0.00     0.030 C 
ENDROOT
BRANCH   6  17
HETATM   17  C5  UNL     1      -3.530  32.405  -1.140  1.00  0.00     0.103 C 
BRANCH  17  18
HETATM   18  C6  UNL     1      -2.347  33.131  -0.616  1.00  0.00     0.017 C 
BRANCH  18  19
HETATM   19  C7  UNL     1      -2.597  34.151   0.433  1.00  0.00     0.086 C 
BRANCH  19  20
HETATM   20  C8  UNL     1      -2.344  35.542   0.080  1.00  0.00     0.135 C 
HETATM   21  N3  UNL     1      -1.529  35.823  -0.861  1.00  0.00    -0.251 N 
ATOM     22  H3  UNL     1      -1.051  35.079  -1.369  1.00  0.00     0.196 HD
BRANCH  20  23
HETATM   23  O2  UNL     1      -2.973  36.568   0.748  1.00  0.00    -0.348 OA
ATOM     24  H2  UNL     1      -2.498  37.116   1.361  1.00  0.00     0.219 HD
ENDBRANCH  20  23
BRANCH  21  25
HETATM   25  O3  UNL     1      -1.301  37.134  -1.181  1.00  0.00    -0.288 OA
ATOM     26  H3  UNL     1      -0.659  37.346  -1.849  1.00  0.00     0.244 HD
ENDBRANCH  21  25
ENDBRANCH  19  20
ENDBRANCH  18  19
ENDBRANCH  17  18
ENDBRANCH   6  17
TORSDOF 6
ENDMDL
MODEL 3
REMARK VINA RESULT: -7.187413205      1.771      1.950
REMARK  6 active torsions:
REMARK  status: ('A' for Active; 'I' for Inactive)
REMARK       I    between atoms: N2_5  and  C4_6 
REMARK    1  A    between atoms: C4_6  and  C5_8 
REMARK    2  A    between atoms: C5_8  and  C6_9 
REMARK    3  A    between atoms: C6_9  and  C7_10 
REMARK    4  A    between atoms: C7_10  and  C8_11 
REMARK    5  A    between atoms: C8_11  and  O2_12 
REMARK    6  A    between atoms: N3_14  and  O3_16 
ROOT
HETATM    1  N1  UNL     1      -2.331  33.837   2.765  1.00  0.00    -0.197 NA
HETATM    2  C1  UNL     1      -1.992  34.582   3.602  1.00  0.00     0.066 C 
HETATM    3  C2  UNL     1      -1.593  35.522   4.649  1.00  0.00     0.119 C 
HETATM    4  C3  UNL     1      -0.819  36.639   3.977  1.00  0.00     0.145 C 
HETATM    5  N2  UNL     1       0.467  36.201   3.481  1.00  0.00    -0.351 N 
HETATM    6  C4  UNL     1       0.906  36.630   2.202  1.00  0.00     0.219 C 
HETATM    7  O1  UNL     1       0.176  37.385   1.512  1.00  0.00    -0.273 OA
HETATM    8  C9  UNL     1       1.262  35.337   4.315  1.00  0.00     0.126 C 
HETATM    9  C10 UNL     1       0.447  34.226   4.917  1.00  0.00     0.031 C 
HETATM   10  C11 UNL     1      -0.762  34.791   5.682  1.00  0.00    -0.018 C 
HETATM   11  C12 UNL     1      -1.557  33.587   6.129  1.00  0.00     0.030 C 
HETATM   12  C13 UNL     1      -2.669  34.073   7.010  1.00  0.00     0.114 C 
HETATM   13  N4  UNL     1      -2.086  34.633   8.183  1.00  0.00    -0.421 N 
ATOM     14  H4  UNL     1      -2.283  34.263   9.113  1.00  0.00     0.153 HD
HETATM   15  C14 UNL     1      -1.220  35.730   7.981  1.00  0.00     0.114 C 
HETATM   16  C15 UNL     1      -0.321  35.664   6.796  1.00  0.00     0.030 C 
ENDROOT
BRANCH   6  17
HETATM   17  C5  UNL     1       2.216  36.219   1.629  1.00  0.00     0.103 C 
BRANCH  17  18
HETATM   18  C6  UNL     1       2.744  37.287   0.746  1.00  0.00     0.017 C 
BRANCH  18  19
HETATM   19  C7  UNL     1       3.036  36.911  -0.661  1.00  0.00     0.086 C 
BRANCH  19  20
HETATM   20  C8  UNL     1       4.312  36.256  -0.921  1.00  0.00     0.135 C 
HETATM   21  N3  UNL     1       5.120  36.028   0.040  1.00  0.00    -0.251 N 
ATOM     22  H3  UNL     1       4.878  36.301   0.992  1.00  0.00     0.196 HD
BRANCH  20  23
HETATM   23  O2  UNL     1       4.664  35.876  -2.196  1.00  0.00    -0.348 OA
ATOM     24  H2  UNL     1       5.505  36.122  -2.564  1.00  0.00     0.219 HD
ENDBRANCH  20  23
BRANCH  21  25
HETATM   25  O3  UNL     1       6.314  35.412  -0.220  1.00  0.00    -0.288 OA
ATOM     26  H3  UNL     1       7.122  35.823   0.067  1.00  0.00     0.244 HD
ENDBRANCH  21  25
ENDBRANCH  19  20
ENDBRANCH  18  19
ENDBRANCH  17  18
ENDBRANCH   6  17
TORSDOF 6
ENDMDL
MODEL 4
REMARK VINA RESULT: -6.838931535      9.344     11.739
REMARK  6 active torsions:
REMARK  status: ('A' for Active; 'I' for Inactive)
REMARK       I    between atoms: N2_5  and  C4_6 
REMARK    1  A    between atoms: C4_6  and  C5_8 
REMARK    2  A    between atoms: C5_8  and  C6_9 
REMARK    3  A    between atoms: C6_9  and  C7_10 
REMARK    4  A    between atoms: C7_10  and  C8_11 
REMARK    5  A    between atoms: C8_11  and  O2_12 
REMARK    6  A    between atoms: N3_14  and  O3_16 
ROOT
HETATM    1  N1  UNL     1      -1.711  25.191  -1.981  1.00  0.00    -0.197 NA
HETATM    2  C1  UNL     1      -1.862  25.865  -2.927  1.00  0.00     0.066 C 
HETATM    3  C2  UNL     1      -2.027  26.699  -4.118  1.00  0.00     0.119 C 
HETATM    4  C3  UNL     1      -1.682  28.120  -3.721  1.00  0.00     0.145 C 
HETATM    5  N2  UNL     1      -2.661  28.700  -2.829  1.00  0.00    -0.351 N 
HETATM    6  C4  UNL     1      -2.227  29.465  -1.716  1.00  0.00     0.219 C 
HETATM    7  O1  UNL     1      -0.998  29.632  -1.514  1.00  0.00    -0.273 OA
HETATM    8  C9  UNL     1      -4.056  28.476  -3.110  1.00  0.00     0.126 C 
HETATM    9  C10 UNL     1      -4.340  27.040  -3.454  1.00  0.00     0.031 C 
HETATM   10  C11 UNL     1      -3.450  26.573  -4.617  1.00  0.00    -0.018 C 
HETATM   11  C12 UNL     1      -3.741  25.100  -4.783  1.00  0.00     0.030 C 
HETATM   12  C13 UNL     1      -3.012  24.623  -6.003  1.00  0.00     0.114 C 
HETATM   13  N4  UNL     1      -3.576  25.278  -7.136  1.00  0.00    -0.421 N 
ATOM     14  H4  UNL     1      -4.013  24.759  -7.897  1.00  0.00     0.153 HD
HETATM   15  C14 UNL     1      -3.494  26.688  -7.140  1.00  0.00     0.114 C 
HETATM   16  C15 UNL     1      -3.710  27.375  -5.836  1.00  0.00     0.030 C 
ENDROOT
BRANCH   6  17
HETATM   17  C5  UNL     1      -3.178  30.089  -0.758  1.00  0.00     0.103 C 
BRANCH  17  18
HETATM   18  C6  UNL     1      -3.528  31.459  -1.206  1.00  0.00     0.017 C 
BRANCH  18  19
HETATM   19  C7  UNL     1      -2.524  32.524  -0.953  1.00  0.00     0.086 C 
BRANCH  19  20
HETATM   20  C8  UNL     1      -2.720  33.352   0.230  1.00  0.00     0.135 C 
HETATM   21  N3  UNL     1      -2.793  34.621   0.117  1.00  0.00    -0.251 N 
ATOM     22  H3  UNL     1      -2.715  35.061  -0.800  1.00  0.00     0.196 HD
BRANCH  20  23
HETATM   23  O2  UNL     1      -2.828  32.785   1.480  1.00  0.00    -0.348 OA
ATOM     24  H2  UNL     1      -3.364  32.014   1.622  1.00  0.00     0.219 HD
ENDBRANCH  20  23
BRANCH  21  25
HETATM   25  O3  UNL     1      -2.976  35.385   1.237  1.00  0.00    -0.288 OA
ATOM     26  H3  UNL     1      -3.458  36.201   1.170  1.00  0.00     0.244 HD
ENDBRANCH  21  25
ENDBRANCH  19  20
ENDBRANCH  18  19
ENDBRANCH  17  18
ENDBRANCH   6  17
TORSDOF 6
ENDMDL
MODEL 5
REMARK VINA RESULT: -6.821481306      3.014      4.936
REMARK  6 active torsions:
REMARK  status: ('A' for Active; 'I' for Inactive)
REMARK       I    between atoms: N2_5  and  C4_6 
REMARK    1  A    between atoms: C4_6  and  C5_8 
REMARK    2  A    between atoms: C5_8  and  C6_9 
REMARK    3  A    between atoms: C6_9  and  C7_10 
REMARK    4  A    between atoms: C7_10  and  C8_11 
REMARK    5  A    between atoms: C8_11  and  O2_12 
REMARK    6  A    between atoms: N3_14  and  O3_16 
ROOT
HETATM    1  N1  UNL     1      -0.925  34.828   8.956  1.00  0.00    -0.197 NA
HETATM    2  C1  UNL     1      -1.776  35.297   8.303  1.00  0.00     0.066 C 
HETATM    3  C2  UNL     1      -2.856  35.866   7.497  1.00  0.00     0.119 C 
HETATM    4  C3  UNL     1      -2.650  35.390   6.073  1.00  0.00     0.145 C 
HETATM    5  N2  UNL     1      -1.488  35.984   5.452  1.00  0.00    -0.351 N 
HETATM    6  C4  UNL     1      -0.623  35.178   4.668  1.00  0.00     0.219 C 
HETATM    7  O1  UNL     1      -0.874  33.955   4.520  1.00  0.00    -0.273 OA
HETATM    8  C9  UNL     1      -1.250  37.390   5.656  1.00  0.00     0.126 C 
HETATM    9  C10 UNL     1      -1.429  37.791   7.094  1.00  0.00     0.031 C 
HETATM   10  C11 UNL     1      -2.817  37.375   7.608  1.00  0.00    -0.018 C 
HETATM   11  C12 UNL     1      -2.825  37.719   9.078  1.00  0.00     0.030 C 
HETATM   12  C13 UNL     1      -4.209  37.472   9.600  1.00  0.00     0.114 C 
HETATM   13  N4  UNL     1      -5.088  38.395   8.962  1.00  0.00    -0.421 N 
ATOM     14  H4  UNL     1      -5.630  39.078   9.491  1.00  0.00     0.153 HD
HETATM   15  C14 UNL     1      -5.163  38.307   7.555  1.00  0.00     0.114 C 
HETATM   16  C15 UNL     1      -3.889  38.042   6.831  1.00  0.00     0.030 C 
ENDROOT
BRANCH   6  17
HETATM   17  C5  UNL     1       0.590  35.723   4.002  1.00  0.00     0.103 C 
BRANCH  17  18
HETATM   18  C6  UNL     1       0.234  36.287   2.678  1.00  0.00     0.017 C 
BRANCH  18  19
HETATM   19  C7  UNL     1       1.359  36.642   1.776  1.00  0.00     0.086 C 
BRANCH  19  20
HETATM   20  C8  UNL     1       1.016  37.103   0.436  1.00  0.00     0.135 C 
HETATM   21  N3  UNL     1      -0.145  37.580   0.204  1.00  0.00    -0.251 N 
ATOM     22  H3  UNL     1      -0.836  37.642   0.951  1.00  0.00     0.196 HD
BRANCH  20  23
HETATM   23  O2  UNL     1       1.928  37.033  -0.592  1.00  0.00    -0.348 OA
ATOM     24  H2  UNL     1       1.710  36.601  -1.410  1.00  0.00     0.219 HD
ENDBRANCH  20  23
BRANCH  21  25
HETATM   25  O3  UNL     1      -0.453  38.009  -1.059  1.00  0.00    -0.288 OA
ATOM     26  H3  UNL     1      -1.349  38.250  -1.263  1.00  0.00     0.244 HD
ENDBRANCH  21  25
ENDBRANCH  19  20
ENDBRANCH  18  19
ENDBRANCH  17  18
ENDBRANCH   6  17
TORSDOF 6
ENDMDL
