MODEL 1
REMARK VINA RESULT: -9.171724288      0.000      0.000
REMARK  3 active torsions:
REMARK  status: ('A' for Active; 'I' for Inactive)
REMARK    1  A    between atoms: C1_2  and  C2_5 
REMARK    2  A    between atoms: C9_14  and  O1_15 
REMARK    3  A    between atoms: O1_15  and  C10_16 
ROOT
HETATM    1  C2  UNL     1      -5.424  -2.733  22.952  1.00  0.00     0.083 A 
HETATM    2  C3  UNL     1      -6.622  -3.019  22.346  1.00  0.00     0.049 A 
HETATM    3  C4  UNL     1      -6.914  -4.237  21.766  1.00  0.00     0.045 A 
HETATM    4  N1  UNL     1      -7.984  -4.748  21.128  1.00  0.00    -0.342 N 
ATOM      5  H1  UNL     1      -8.848  -4.232  20.964  1.00  0.00     0.167 HD
HETATM    6  C5  UNL     1      -7.786  -6.000  20.739  1.00  0.00     0.108 A 
HETATM    7  C6  UNL     1      -6.505  -6.362  21.135  1.00  0.00    -0.002 A 
HETATM    8  C7  UNL     1      -5.978  -5.252  21.773  1.00  0.00     0.003 A 
HETATM    9  C8  UNL     1      -4.763  -4.966  22.385  1.00  0.00     0.052 A 
HETATM   10  C9  UNL     1      -4.466  -3.754  22.965  1.00  0.00     0.085 A 
HETATM   11  C15 UNL     1      -5.902  -7.673  20.891  1.00  0.00     0.045 C 
HETATM   12  C16 UNL     1      -6.693  -8.490  19.922  1.00  0.00     0.024 C 
HETATM   13  C17 UNL     1      -8.177  -8.382  20.275  1.00  0.00     0.121 C 
HETATM   14  N2  UNL     1      -8.544  -6.999  20.048  1.00  0.00    -0.376 N 
ATOM     15  H2  UNL     1      -9.311  -6.748  19.423  1.00  0.00     0.161 HD
ENDROOT
BRANCH  10  16
HETATM   16  O1  UNL     1      -3.277  -3.441  23.577  1.00  0.00    -0.345 OA
BRANCH  16  17
HETATM   17  C10 UNL     1      -1.995  -3.569  23.039  1.00  0.00     0.129 C 
HETATM   18  C11 UNL     1      -2.027  -4.169  21.632  1.00  0.00     0.032 C 
HETATM   19  C12 UNL     1      -0.792  -3.620  20.954  1.00  0.00     0.002 C 
HETATM   20  C13 UNL     1      -0.802  -2.191  21.419  1.00  0.00     0.002 C 
HETATM   21  C14 UNL     1      -1.318  -2.234  22.820  1.00  0.00     0.032 C 
ENDBRANCH  16  17
ENDBRANCH  10  16
BRANCH   1  22
HETATM   22  C1  UNL     1      -5.138  -1.411  23.570  1.00  0.00     0.420 C 
HETATM   23  F1  UNL     1      -4.761  -1.613  24.877  1.00  0.00    -0.166 F 
HETATM   24  F2  UNL     1      -4.200  -0.765  22.828  1.00  0.00    -0.166 F 
HETATM   25  F3  UNL     1      -6.272  -0.605  23.595  1.00  0.00    -0.166 F 
ENDBRANCH   1  22
TORSDOF 3
ENDMDL
MODEL 2
REMARK VINA RESULT: -7.806309067      2.971      6.132
REMARK  3 active torsions:
REMARK  status: ('A' for Active; 'I' for Inactive)
REMARK    1  A    between atoms: C1_2  and  C2_5 
REMARK    2  A    between atoms: C9_14  and  O1_15 
REMARK    3  A    between atoms: O1_15  and  C10_16 
ROOT
HETATM    1  C2  UNL     1      -5.590  -3.984  23.420  1.00  0.00     0.083 A 
HETATM    2  C3  UNL     1      -4.414  -3.410  23.833  1.00  0.00     0.049 A 
HETATM    3  C4  UNL     1      -3.380  -3.088  22.977  1.00  0.00     0.045 A 
HETATM    4  N1  UNL     1      -2.162  -2.534  23.132  1.00  0.00    -0.342 N 
ATOM      5  H1  UNL     1      -1.784  -2.235  24.031  1.00  0.00     0.167 HD
HETATM    6  C5  UNL     1      -1.511  -2.422  21.982  1.00  0.00     0.108 A 
HETATM    7  C6  UNL     1      -2.335  -2.930  20.986  1.00  0.00    -0.002 A 
HETATM    8  C7  UNL     1      -3.493  -3.339  21.624  1.00  0.00     0.003 A 
HETATM    9  C8  UNL     1      -4.684  -3.920  21.202  1.00  0.00     0.052 A 
HETATM   10  C9  UNL     1      -5.718  -4.244  22.050  1.00  0.00     0.085 A 
HETATM   11  C15 UNL     1      -1.979  -2.987  19.567  1.00  0.00     0.045 C 
HETATM   12  C16 UNL     1      -0.530  -2.710  19.334  1.00  0.00     0.024 C 
HETATM   13  C17 UNL     1      -0.110  -1.508  20.182  1.00  0.00     0.121 C 
HETATM   14  N2  UNL     1      -0.234  -1.928  21.562  1.00  0.00    -0.376 N 
ATOM     15  H2  UNL     1       0.554  -1.874  22.208  1.00  0.00     0.161 HD
ENDROOT
BRANCH  10  16
HETATM   16  O1  UNL     1      -6.904  -4.818  21.666  1.00  0.00    -0.345 OA
BRANCH  16  17
HETATM   17  C10 UNL     1      -7.104  -5.714  20.613  1.00  0.00     0.129 C 
HETATM   18  C11 UNL     1      -6.313  -7.008  20.813  1.00  0.00     0.032 C 
HETATM   19  C12 UNL     1      -7.110  -8.060  20.074  1.00  0.00     0.002 C 
HETATM   20  C13 UNL     1      -8.517  -7.694  20.452  1.00  0.00     0.002 C 
HETATM   21  C14 UNL     1      -8.533  -6.202  20.525  1.00  0.00     0.032 C 
ENDBRANCH  16  17
ENDBRANCH  10  16
BRANCH   1  22
HETATM   22  C1  UNL     1      -6.688  -4.320  24.366  1.00  0.00     0.420 C 
HETATM   23  F1  UNL     1      -7.878  -4.303  23.676  1.00  0.00    -0.166 F 
HETATM   24  F2  UNL     1      -6.420  -5.516  24.955  1.00  0.00    -0.166 F 
HETATM   25  F3  UNL     1      -6.793  -3.374  25.381  1.00  0.00    -0.166 F 
ENDBRANCH   1  22
TORSDOF 3
ENDMDL
MODEL 3
REMARK VINA RESULT: -7.777581691      2.977      5.847
REMARK  3 active torsions:
REMARK  status: ('A' for Active; 'I' for Inactive)
REMARK    1  A    between atoms: C1_2  and  C2_5 
REMARK    2  A    between atoms: C9_14  and  O1_15 
REMARK    3  A    between atoms: O1_15  and  C10_16 
ROOT
HETATM    1  C2  UNL     1      -5.518  -3.858  23.492  1.00  0.00     0.083 A 
HETATM    2  C3  UNL     1      -4.329  -3.277  23.854  1.00  0.00     0.049 A 
HETATM    3  C4  UNL     1      -3.321  -2.979  22.959  1.00  0.00     0.045 A 
HETATM    4  N1  UNL     1      -2.098  -2.425  23.063  1.00  0.00    -0.342 N 
ATOM      5  H1  UNL     1      -1.692  -2.104  23.942  1.00  0.00     0.167 HD
HETATM    6  C5  UNL     1      -1.482  -2.345  21.891  1.00  0.00     0.108 A 
HETATM    7  C6  UNL     1      -2.337  -2.876  20.934  1.00  0.00    -0.002 A 
HETATM    8  C7  UNL     1      -3.475  -3.265  21.618  1.00  0.00     0.003 A 
HETATM    9  C8  UNL     1      -4.679  -3.854  21.247  1.00  0.00     0.052 A 
HETATM   10  C9  UNL     1      -5.688  -4.153  22.134  1.00  0.00     0.085 A 
HETATM   11  C15 UNL     1      -2.024  -2.971  19.507  1.00  0.00     0.045 C 
HETATM   12  C16 UNL     1      -0.582  -2.705  19.223  1.00  0.00     0.024 C 
HETATM   13  C17 UNL     1      -0.134  -1.482  20.026  1.00  0.00     0.121 C 
HETATM   14  N2  UNL     1      -0.217  -1.865  21.420  1.00  0.00    -0.376 N 
ATOM     15  H2  UNL     1       0.590  -1.796  22.040  1.00  0.00     0.161 HD
ENDROOT
BRANCH  10  16
HETATM   16  O1  UNL     1      -6.886  -4.734  21.801  1.00  0.00    -0.345 OA
BRANCH  16  17
HETATM   17  C10 UNL     1      -7.099  -6.056  21.403  1.00  0.00     0.129 C 
HETATM   18  C11 UNL     1      -7.076  -6.200  19.880  1.00  0.00     0.032 C 
HETATM   19  C12 UNL     1      -6.622  -7.621  19.637  1.00  0.00     0.002 C 
HETATM   20  C13 UNL     1      -5.530  -7.768  20.660  1.00  0.00     0.002 C 
HETATM   21  C14 UNL     1      -5.990  -6.985  21.845  1.00  0.00     0.032 C 
ENDBRANCH  16  17
ENDBRANCH  10  16
BRANCH   1  22
HETATM   22  C1  UNL     1      -6.587  -4.167  24.480  1.00  0.00     0.420 C 
HETATM   23  F1  UNL     1      -6.346  -5.415  25.006  1.00  0.00    -0.166 F 
HETATM   24  F2  UNL     1      -6.629  -3.182  25.416  1.00  0.00    -0.166 F 
HETATM   25  F3  UNL     1      -7.839  -4.216  23.875  1.00  0.00    -0.166 F 
ENDBRANCH   1  22
TORSDOF 3
ENDMDL
MODEL 4
REMARK VINA RESULT: -7.489822590      0.805      1.267
REMARK  3 active torsions:
REMARK  status: ('A' for Active; 'I' for Inactive)
REMARK    1  A    between atoms: C1_2  and  C2_5 
REMARK    2  A    between atoms: C9_14  and  O1_15 
REMARK    3  A    between atoms: O1_15  and  C10_16 
ROOT
HETATM    1  C2  UNL     1      -5.880  -2.257  22.897  1.00  0.00     0.083 A 
HETATM    2  C3  UNL     1      -7.058  -2.816  22.470  1.00  0.00     0.049 A 
HETATM    3  C4  UNL     1      -7.140  -4.051  21.859  1.00  0.00     0.045 A 
HETATM    4  N1  UNL     1      -8.147  -4.797  21.364  1.00  0.00    -0.342 N 
ATOM      5  H1  UNL     1      -9.126  -4.509  21.376  1.00  0.00     0.167 HD
HETATM    6  C5  UNL     1      -7.721  -5.947  20.861  1.00  0.00     0.108 A 
HETATM    7  C6  UNL     1      -6.342  -5.986  21.023  1.00  0.00    -0.002 A 
HETATM    8  C7  UNL     1      -5.999  -4.799  21.646  1.00  0.00     0.003 A 
HETATM    9  C8  UNL     1      -4.804  -4.235  22.077  1.00  0.00     0.052 A 
HETATM   10  C9  UNL     1      -4.714  -3.005  22.686  1.00  0.00     0.085 A 
HETATM   11  C15 UNL     1      -5.490  -7.097  20.595  1.00  0.00     0.045 C 
HETATM   12  C16 UNL     1      -6.213  -8.058  19.708  1.00  0.00     0.024 C 
HETATM   13  C17 UNL     1      -7.596  -8.336  20.299  1.00  0.00     0.121 C 
HETATM   14  N2  UNL     1      -8.321  -7.084  20.231  1.00  0.00    -0.376 N 
ATOM     15  H2  UNL     1      -9.220  -7.015  19.754  1.00  0.00     0.161 HD
ENDROOT
BRANCH  10  16
HETATM   16  O1  UNL     1      -3.551  -2.421  23.123  1.00  0.00    -0.345 OA
BRANCH  16  17
HETATM   17  C10 UNL     1      -2.361  -2.279  22.406  1.00  0.00     0.129 C 
HETATM   18  C11 UNL     1      -1.390  -3.428  22.688  1.00  0.00     0.032 C 
HETATM   19  C12 UNL     1      -0.554  -3.538  21.432  1.00  0.00     0.002 C 
HETATM   20  C13 UNL     1      -1.594  -3.362  20.361  1.00  0.00     0.002 C 
HETATM   21  C14 UNL     1      -2.565  -2.370  20.911  1.00  0.00     0.032 C 
ENDBRANCH  16  17
ENDBRANCH  10  16
BRANCH   1  22
HETATM   22  C1  UNL     1      -5.822  -0.923  23.553  1.00  0.00     0.420 C 
HETATM   23  F1  UNL     1      -4.928  -0.138  22.864  1.00  0.00    -0.166 F 
HETATM   24  F2  UNL     1      -7.075  -0.398  23.609  1.00  0.00    -0.166 F 
HETATM   25  F3  UNL     1      -5.355  -1.019  24.860  1.00  0.00    -0.166 F 
ENDBRANCH   1  22
TORSDOF 3
ENDMDL
MODEL 5
REMARK VINA RESULT: -7.117949287      2.231      3.765
REMARK  3 active torsions:
REMARK  status: ('A' for Active; 'I' for Inactive)
REMARK    1  A    between atoms: C1_2  and  C2_5 
REMARK    2  A    between atoms: C9_14  and  O1_15 
REMARK    3  A    between atoms: O1_15  and  C10_16 
ROOT
HETATM    1  C2  UNL     1      -2.732  -4.027  21.831  1.00  0.00     0.083 A 
HETATM    2  C3  UNL     1      -2.771  -5.395  21.739  1.00  0.00     0.049 A 
HETATM    3  C4  UNL     1      -3.917  -6.109  21.450  1.00  0.00     0.045 A 
HETATM    4  N1  UNL     1      -4.206  -7.416  21.309  1.00  0.00    -0.342 N 
ATOM      5  H1  UNL     1      -3.520  -8.165  21.410  1.00  0.00     0.167 HD
HETATM    6  C5  UNL     1      -5.485  -7.621  21.023  1.00  0.00     0.108 A 
HETATM    7  C6  UNL     1      -6.102  -6.378  20.967  1.00  0.00    -0.002 A 
HETATM    8  C7  UNL     1      -5.111  -5.450  21.235  1.00  0.00     0.003 A 
HETATM    9  C8  UNL     1      -5.075  -4.063  21.327  1.00  0.00     0.052 A 
HETATM   10  C9  UNL     1      -3.937  -3.345  21.615  1.00  0.00     0.085 A 
HETATM   11  C15 UNL     1      -7.522  -6.172  20.675  1.00  0.00     0.045 C 
HETATM   12  C16 UNL     1      -8.303  -7.444  20.728  1.00  0.00     0.024 C 
HETATM   13  C17 UNL     1      -7.522  -8.538  19.998  1.00  0.00     0.121 C 
HETATM   14  N2  UNL     1      -6.319  -8.758  20.774  1.00  0.00    -0.376 N 
ATOM     15  H2  UNL     1      -6.076  -9.683  21.129  1.00  0.00     0.161 HD
ENDROOT
BRANCH  10  16
HETATM   16  O1  UNL     1      -3.868  -1.978  21.713  1.00  0.00    -0.345 OA
BRANCH  16  17
HETATM   17  C10 UNL     1      -4.483  -1.171  22.673  1.00  0.00     0.129 C 
HETATM   18  C11 UNL     1      -5.993  -1.076  22.450  1.00  0.00     0.032 C 
HETATM   19  C12 UNL     1      -6.567  -0.821  23.826  1.00  0.00     0.002 C 
HETATM   20  C13 UNL     1      -5.751  -1.758  24.671  1.00  0.00     0.002 C 
HETATM   21  C14 UNL     1      -4.385  -1.746  24.069  1.00  0.00     0.032 C 
ENDBRANCH  16  17
ENDBRANCH  10  16
BRANCH   1  22
HETATM   22  C1  UNL     1      -1.481  -3.284  22.143  1.00  0.00     0.420 C 
HETATM   23  F1  UNL     1      -1.401  -3.122  23.507  1.00  0.00    -0.166 F 
HETATM   24  F2  UNL     1      -0.422  -3.950  21.613  1.00  0.00    -0.166 F 
HETATM   25  F3  UNL     1      -1.492  -2.011  21.583  1.00  0.00    -0.166 F 
ENDBRANCH   1  22
TORSDOF 3
ENDMDL
