MODEL 1
REMARK VINA RESULT: -6.876179705      0.000      0.000
REMARK  3 active torsions:
REMARK  status: ('A' for Active; 'I' for Inactive)
REMARK    1  A    between atoms: C7_7  and  N1_8 
REMARK       I    between atoms: N1_8  and  C8_10 
REMARK       I    between atoms: C8_10  and  N2_12 
REMARK    2  A    between atoms: N2_12  and  C9_14 
REMARK    3  A    between atoms: C11_16  and  C12_17 
ROOT
HETATM    1  N1  UNL     1      -3.617  -5.491  21.163  1.00  0.00    -0.338 N 
ATOM      2  H1  UNL     1      -3.328  -5.726  20.214  1.00  0.00     0.164 HD
HETATM    3  C8  UNL     1      -4.709  -6.258  21.463  1.00  0.00     0.321 C 
HETATM    4  O1  UNL     1      -5.331  -6.213  22.555  1.00  0.00    -0.247 OA
HETATM    5  N2  UNL     1      -5.230  -7.191  20.520  1.00  0.00    -0.303 N 
ATOM      6  H2  UNL     1      -4.804  -7.184  19.593  1.00  0.00     0.171 HD
ENDROOT
BRANCH   1   7
HETATM    7  C7  UNL     1      -2.757  -4.534  21.628  1.00  0.00     0.090 C 
HETATM    8  C5  UNL     1      -1.667  -4.041  20.699  1.00  0.00     0.004 C 
HETATM    9  C4  UNL     1      -0.718  -3.136  21.501  1.00  0.00     0.007 C 
HETATM   10  C6  UNL     1      -2.046  -3.324  19.482  1.00  0.00     0.012 C 
HETATM   11  C3  UNL     1      -1.453  -2.040  22.215  1.00  0.00     0.005 C 
HETATM   12  C2  UNL     1      -2.452  -2.661  23.160  1.00  0.00    -0.017 C 
HETATM   13  C1  UNL     1      -3.152  -1.670  24.048  1.00  0.00     0.010 C 
HETATM   14  C14 UNL     1      -3.474  -3.371  22.264  1.00  0.00     0.029 C 
ENDBRANCH   1   7
BRANCH   5  15
HETATM   15  C9  UNL     1      -6.267  -8.123  20.724  1.00  0.00     0.078 A 
HETATM   16  C10 UNL     1      -6.287  -9.407  21.224  1.00  0.00     0.054 A 
HETATM   17  C11 UNL     1      -7.450 -10.060  21.258  1.00  0.00     0.057 A 
HETATM   18  C13 UNL     1      -8.567  -9.407  20.790  1.00  0.00     0.068 A 
HETATM   19  S1  UNL     1      -7.946  -7.892  20.315  1.00  0.00    -0.083 SA
BRANCH  17  20
HETATM   20  C12 UNL     1      -7.598 -11.505  21.730  1.00  0.00     0.418 C 
HETATM   21  F1  UNL     1      -8.780 -11.544  22.476  1.00  0.00    -0.166 F 
HETATM   22  F2  UNL     1      -7.689 -12.389  20.704  1.00  0.00    -0.166 F 
HETATM   23  F3  UNL     1      -6.575 -11.867  22.560  1.00  0.00    -0.166 F 
ENDBRANCH  17  20
ENDBRANCH   5  15
TORSDOF 3
ENDMDL
MODEL 2
REMARK VINA RESULT: -6.308362176      0.725      1.177
REMARK  3 active torsions:
REMARK  status: ('A' for Active; 'I' for Inactive)
REMARK    1  A    between atoms: C7_7  and  N1_8 
REMARK       I    between atoms: N1_8  and  C8_10 
REMARK       I    between atoms: C8_10  and  N2_12 
REMARK    2  A    between atoms: N2_12  and  C9_14 
REMARK    3  A    between atoms: C11_16  and  C12_17 
ROOT
HETATM    1  N1  UNL     1      -3.760  -5.398  21.800  1.00  0.00    -0.338 N 
ATOM      2  H1  UNL     1      -3.061  -5.881  21.237  1.00  0.00     0.164 HD
HETATM    3  C8  UNL     1      -4.905  -6.146  21.766  1.00  0.00     0.321 C 
HETATM    4  O1  UNL     1      -5.976  -5.832  22.346  1.00  0.00    -0.247 OA
HETATM    5  N2  UNL     1      -4.958  -7.372  21.041  1.00  0.00    -0.303 N 
ATOM      6  H2  UNL     1      -4.135  -7.605  20.485  1.00  0.00     0.171 HD
ENDROOT
BRANCH   1   7
HETATM    7  C7  UNL     1      -3.178  -4.260  22.289  1.00  0.00     0.090 C 
HETATM    8  C5  UNL     1      -1.773  -3.925  21.833  1.00  0.00     0.004 C 
HETATM    9  C4  UNL     1      -1.266  -2.733  22.662  1.00  0.00     0.007 C 
HETATM   10  C6  UNL     1      -1.542  -3.618  20.422  1.00  0.00     0.012 C 
HETATM   11  C3  UNL     1      -2.215  -1.572  22.621  1.00  0.00     0.005 C 
HETATM   12  C2  UNL     1      -3.549  -2.015  23.167  1.00  0.00    -0.017 C 
HETATM   13  C1  UNL     1      -4.549  -0.902  23.319  1.00  0.00     0.010 C 
HETATM   14  C14 UNL     1      -4.074  -3.054  22.168  1.00  0.00     0.029 C 
ENDBRANCH   1   7
BRANCH   5  15
HETATM   15  C9  UNL     1      -6.018  -8.299  21.007  1.00  0.00     0.078 A 
HETATM   16  C10 UNL     1      -6.184  -9.552  21.555  1.00  0.00     0.054 A 
HETATM   17  C11 UNL     1      -7.316 -10.212  21.308  1.00  0.00     0.057 A 
HETATM   18  C13 UNL     1      -8.258  -9.596  20.516  1.00  0.00     0.068 A 
HETATM   19  S1  UNL     1      -7.520  -8.105  20.143  1.00  0.00    -0.083 SA
BRANCH  17  20
HETATM   20  C12 UNL     1      -7.599 -11.629  21.802  1.00  0.00     0.418 C 
HETATM   21  F1  UNL     1      -6.477 -12.005  22.547  1.00  0.00    -0.166 F 
HETATM   22  F2  UNL     1      -8.701 -11.704  22.590  1.00  0.00    -0.166 F 
HETATM   23  F3  UNL     1      -7.715 -12.508  20.763  1.00  0.00    -0.166 F 
ENDBRANCH  17  20
ENDBRANCH   5  15
TORSDOF 3
ENDMDL
MODEL 3
REMARK VINA RESULT: -6.060742026      0.776      1.878
REMARK  3 active torsions:
REMARK  status: ('A' for Active; 'I' for Inactive)
REMARK    1  A    between atoms: C7_7  and  N1_8 
REMARK       I    between atoms: N1_8  and  C8_10 
REMARK       I    between atoms: C8_10  and  N2_12 
REMARK    2  A    between atoms: N2_12  and  C9_14 
REMARK    3  A    between atoms: C11_16  and  C12_17 
ROOT
HETATM    1  N1  UNL     1      -4.061  -5.084  21.006  1.00  0.00    -0.338 N 
ATOM      2  H1  UNL     1      -3.453  -5.566  20.343  1.00  0.00     0.164 HD
HETATM    3  C8  UNL     1      -5.163  -5.870  21.199  1.00  0.00     0.321 C 
HETATM    4  O1  UNL     1      -6.126  -5.571  21.951  1.00  0.00    -0.247 OA
HETATM    5  N2  UNL     1      -5.296  -7.124  20.534  1.00  0.00    -0.303 N 
ATOM      6  H2  UNL     1      -4.576  -7.350  19.847  1.00  0.00     0.171 HD
ENDROOT
BRANCH   1   7
HETATM    7  C7  UNL     1      -3.446  -3.911  21.348  1.00  0.00     0.090 C 
HETATM    8  C5  UNL     1      -3.946  -3.173  22.572  1.00  0.00     0.004 C 
HETATM    9  C4  UNL     1      -3.249  -1.805  22.633  1.00  0.00     0.007 C 
HETATM   10  C6  UNL     1      -3.805  -3.804  23.884  1.00  0.00     0.012 C 
HETATM   11  C3  UNL     1      -1.756  -1.927  22.562  1.00  0.00     0.005 C 
HETATM   12  C2  UNL     1      -1.385  -2.609  21.268  1.00  0.00    -0.017 C 
HETATM   13  C1  UNL     1       0.094  -2.660  21.005  1.00  0.00     0.010 C 
HETATM   14  C14 UNL     1      -1.944  -4.032  21.382  1.00  0.00     0.029 C 
ENDBRANCH   1   7
BRANCH   5  15
HETATM   15  C9  UNL     1      -6.308  -8.085  20.718  1.00  0.00     0.078 A 
HETATM   16  C10 UNL     1      -6.303  -9.365  21.229  1.00  0.00     0.054 A 
HETATM   17  C11 UNL     1      -7.445 -10.054  21.237  1.00  0.00     0.057 A 
HETATM   18  C13 UNL     1      -8.568  -9.441  20.732  1.00  0.00     0.068 A 
HETATM   19  S1  UNL     1      -7.981  -7.911  20.260  1.00  0.00    -0.083 SA
BRANCH  17  20
HETATM   20  C12 UNL     1      -7.561 -11.499  21.718  1.00  0.00     0.418 C 
HETATM   21  F1  UNL     1      -8.724 -11.551  22.493  1.00  0.00    -0.166 F 
HETATM   22  F2  UNL     1      -7.665 -12.389  20.698  1.00  0.00    -0.166 F 
HETATM   23  F3  UNL     1      -6.513 -11.843  22.524  1.00  0.00    -0.166 F 
ENDBRANCH  17  20
ENDBRANCH   5  15
TORSDOF 3
ENDMDL
MODEL 4
REMARK VINA RESULT: -5.138778071      0.834      2.089
REMARK  3 active torsions:
REMARK  status: ('A' for Active; 'I' for Inactive)
REMARK    1  A    between atoms: C7_7  and  N1_8 
REMARK       I    between atoms: N1_8  and  C8_10 
REMARK       I    between atoms: C8_10  and  N2_12 
REMARK    2  A    between atoms: N2_12  and  C9_14 
REMARK    3  A    between atoms: C11_16  and  C12_17 
ROOT
HETATM    1  N1  UNL     1      -4.156  -4.979  20.653  1.00  0.00    -0.338 N 
ATOM      2  H1  UNL     1      -3.773  -5.354  19.785  1.00  0.00     0.164 HD
HETATM    3  C8  UNL     1      -5.201  -5.781  21.021  1.00  0.00     0.321 C 
HETATM    4  O1  UNL     1      -5.911  -5.599  22.043  1.00  0.00    -0.247 OA
HETATM    5  N2  UNL     1      -5.564  -6.917  20.239  1.00  0.00    -0.303 N 
ATOM      6  H2  UNL     1      -5.067  -7.037  19.357  1.00  0.00     0.171 HD
ENDROOT
BRANCH   1   7
HETATM    7  C7  UNL     1      -3.420  -3.874  20.983  1.00  0.00     0.090 C 
HETATM    8  C5  UNL     1      -3.218  -3.564  22.452  1.00  0.00     0.004 C 
HETATM    9  C4  UNL     1      -2.546  -2.187  22.568  1.00  0.00     0.007 C 
HETATM   10  C6  UNL     1      -2.458  -4.503  23.275  1.00  0.00     0.012 C 
HETATM   11  C3  UNL     1      -1.293  -2.099  21.749  1.00  0.00     0.005 C 
HETATM   12  C2  UNL     1      -1.640  -2.353  20.303  1.00  0.00    -0.017 C 
HETATM   13  C1  UNL     1      -0.493  -2.146  19.353  1.00  0.00     0.010 C 
HETATM   14  C14 UNL     1      -2.107  -3.812  20.246  1.00  0.00     0.029 C 
ENDBRANCH   1   7
BRANCH   5  15
HETATM   15  C9  UNL     1      -6.532  -7.892  20.549  1.00  0.00     0.078 A 
HETATM   16  C10 UNL     1      -6.444  -9.175  21.043  1.00  0.00     0.054 A 
HETATM   17  C11 UNL     1      -7.568  -9.878  21.198  1.00  0.00     0.057 A 
HETATM   18  C13 UNL     1      -8.755  -9.274  20.854  1.00  0.00     0.068 A 
HETATM   19  S1  UNL     1      -8.254  -7.734  20.322  1.00  0.00    -0.083 SA
BRANCH  17  20
HETATM   20  C12 UNL     1      -7.603 -11.328  21.676  1.00  0.00     0.418 C 
HETATM   21  F1  UNL     1      -6.407 -11.530  22.371  1.00  0.00    -0.166 F 
HETATM   22  F2  UNL     1      -8.647 -11.586  22.504  1.00  0.00    -0.166 F 
HETATM   23  F3  UNL     1      -7.621 -12.201  20.626  1.00  0.00    -0.166 F 
ENDBRANCH  17  20
ENDBRANCH   5  15
TORSDOF 3
ENDMDL
MODEL 5
REMARK VINA RESULT: -4.751697588      1.349      2.373
REMARK  3 active torsions:
REMARK  status: ('A' for Active; 'I' for Inactive)
REMARK    1  A    between atoms: C7_7  and  N1_8 
REMARK       I    between atoms: N1_8  and  C8_10 
REMARK       I    between atoms: C8_10  and  N2_12 
REMARK    2  A    between atoms: N2_12  and  C9_14 
REMARK    3  A    between atoms: C11_16  and  C12_17 
ROOT
HETATM    1  N1  UNL     1      -4.656  -4.894  21.751  1.00  0.00    -0.338 N 
ATOM      2  H1  UNL     1      -3.782  -5.341  21.476  1.00  0.00     0.164 HD
HETATM    3  C8  UNL     1      -5.656  -5.815  21.597  1.00  0.00     0.321 C 
HETATM    4  O1  UNL     1      -6.870  -5.592  21.835  1.00  0.00    -0.247 OA
HETATM    5  N2  UNL     1      -5.372  -7.135  21.138  1.00  0.00    -0.303 N 
ATOM      6  H2  UNL     1      -4.411  -7.316  20.849  1.00  0.00     0.171 HD
ENDROOT
BRANCH   1   7
HETATM    7  C7  UNL     1      -4.361  -3.612  22.128  1.00  0.00     0.090 C 
HETATM    8  C5  UNL     1      -5.441  -2.804  22.816  1.00  0.00     0.004 C 
HETATM    9  C4  UNL     1      -4.948  -1.354  22.954  1.00  0.00     0.007 C 
HETATM   10  C6  UNL     1      -5.921  -3.238  24.128  1.00  0.00     0.012 C 
HETATM   11  C3  UNL     1      -3.607  -1.275  23.621  1.00  0.00     0.005 C 
HETATM   12  C2  UNL     1      -2.609  -2.055  22.801  1.00  0.00    -0.017 C 
HETATM   13  C1  UNL     1      -1.191  -1.931  23.283  1.00  0.00     0.010 C 
HETATM   14  C14 UNL     1      -3.064  -3.517  22.889  1.00  0.00     0.029 C 
ENDBRANCH   1   7
BRANCH   5  15
HETATM   15  C9  UNL     1      -6.269  -8.216  21.040  1.00  0.00     0.078 A 
HETATM   16  C10 UNL     1      -6.316  -9.452  21.648  1.00  0.00     0.054 A 
HETATM   17  C11 UNL     1      -7.296 -10.292  21.311  1.00  0.00     0.057 A 
HETATM   18  C13 UNL     1      -8.209  -9.869  20.372  1.00  0.00     0.068 A 
HETATM   19  S1  UNL     1      -7.659  -8.301  19.991  1.00  0.00    -0.083 SA
BRANCH  17  20
HETATM   20  C12 UNL     1      -7.426 -11.710  21.863  1.00  0.00     0.418 C 
HETATM   21  F1  UNL     1      -7.704 -12.524  20.761  1.00  0.00    -0.166 F 
HETATM   22  F2  UNL     1      -6.292 -12.148  22.466  1.00  0.00    -0.166 F 
HETATM   23  F3  UNL     1      -8.478 -11.815  22.728  1.00  0.00    -0.166 F 
ENDBRANCH  17  20
ENDBRANCH   5  15
TORSDOF 3
ENDMDL
