MODEL 1
REMARK VINA RESULT: -7.377996348      0.000      0.000
REMARK  3 active torsions:
REMARK  status: ('A' for Active; 'I' for Inactive)
REMARK    1  A    between atoms: N1_1  and  C1_4 
REMARK    2  A    between atoms: C2_7  and  N3_8 
REMARK    3  A    between atoms: N3_8  and  C3_10 
ROOT
HETATM    1  C1  UNL     1      -4.438  -2.459  23.356  1.00  0.00     0.113 A 
HETATM    2  N2  UNL     1      -5.552  -3.185  23.017  1.00  0.00    -0.328 N 
ATOM      3  H2  UNL     1      -6.325  -3.224  23.681  1.00  0.00     0.169 HD
HETATM    4  C2  UNL     1      -5.677  -3.843  21.863  1.00  0.00     0.108 A 
HETATM    5  C9  UNL     1      -4.560  -3.736  21.007  1.00  0.00     0.063 A 
HETATM    6  C10 UNL     1      -3.428  -3.035  21.285  1.00  0.00     0.005 A 
HETATM    7  C11 UNL     1      -2.235  -2.806  20.593  1.00  0.00     0.022 A 
HETATM    8  N4  UNL     1      -1.491  -2.038  21.369  1.00  0.00    -0.358 N 
HETATM    9  C12 UNL     1      -2.143  -1.759  22.523  1.00  0.00     0.107 A 
HETATM   10  C13 UNL     1      -3.371  -2.379  22.496  1.00  0.00     0.035 A 
HETATM   11  C14 UNL     1      -0.221  -1.774  20.672  1.00  0.00     0.128 C 
HETATM   12  C15 UNL     1      -0.444  -2.136  19.241  1.00  0.00     0.026 C 
HETATM   13  C16 UNL     1      -1.572  -3.147  19.303  1.00  0.00     0.059 C 
ENDROOT
BRANCH   4  14
HETATM   14  N3  UNL     1      -6.760  -4.653  21.473  1.00  0.00    -0.340 N 
ATOM     15  H3  UNL     1      -7.643  -4.145  21.429  1.00  0.00     0.167 HD
BRANCH  14  16
HETATM   16  C3  UNL     1      -6.888  -5.990  21.135  1.00  0.00     0.075 A 
HETATM   17  C4  UNL     1      -5.925  -6.929  21.368  1.00  0.00     0.078 A 
HETATM   18  C5  UNL     1      -6.159  -8.266  21.070  1.00  0.00     0.157 A 
HETATM   19  F1  UNL     1      -5.186  -9.186  21.309  1.00  0.00    -0.203 F 
HETATM   20  C6  UNL     1      -7.342  -8.681  20.542  1.00  0.00     0.157 A 
HETATM   21  F2  UNL     1      -7.616  -9.958  20.238  1.00  0.00    -0.203 F 
HETATM   22  C7  UNL     1      -8.322  -7.733  20.306  1.00  0.00     0.090 A 
HETATM   23  C8  UNL     1      -8.118  -6.429  20.586  1.00  0.00     0.146 A 
HETATM   24  F3  UNL     1      -9.075  -5.521  20.349  1.00  0.00    -0.204 F 
ENDBRANCH  14  16
ENDBRANCH   4  14
BRANCH   1  25
HETATM   25  N1  UNL     1      -4.431  -1.871  24.485  1.00  0.00    -0.385 N 
ATOM     26  H12 UNL     1      -3.649  -1.285  24.777  1.00  0.00     0.157 HD
ATOM     27  H11 UNL     1      -5.237  -2.000  25.096  1.00  0.00     0.157 HD
ENDBRANCH   1  25
TORSDOF 3
ENDMDL
MODEL 2
REMARK VINA RESULT: -6.660917897      1.037      2.009
REMARK  3 active torsions:
REMARK  status: ('A' for Active; 'I' for Inactive)
REMARK    1  A    between atoms: N1_1  and  C1_4 
REMARK    2  A    between atoms: C2_7  and  N3_8 
REMARK    3  A    between atoms: N3_8  and  C3_10 
ROOT
HETATM    1  C1  UNL     1      -3.443  -2.351  23.678  1.00  0.00     0.113 A 
HETATM    2  N2  UNL     1      -4.541  -3.169  23.764  1.00  0.00    -0.328 N 
ATOM      3  H2  UNL     1      -5.081  -3.163  24.629  1.00  0.00     0.169 HD
HETATM    4  C2  UNL     1      -4.940  -3.971  22.776  1.00  0.00     0.108 A 
HETATM    5  C9  UNL     1      -4.133  -3.916  21.619  1.00  0.00     0.063 A 
HETATM    6  C10 UNL     1      -3.033  -3.129  21.471  1.00  0.00     0.005 A 
HETATM    7  C11 UNL     1      -2.118  -2.928  20.434  1.00  0.00     0.022 A 
HETATM    8  N4  UNL     1      -1.248  -2.032  20.868  1.00  0.00    -0.358 N 
HETATM    9  C12 UNL     1      -1.558  -1.645  22.128  1.00  0.00     0.107 A 
HETATM   10  C13 UNL     1      -2.684  -2.324  22.534  1.00  0.00     0.035 A 
HETATM   11  C14 UNL     1      -0.263  -1.794  19.800  1.00  0.00     0.128 C 
HETATM   12  C15 UNL     1      -0.861  -2.342  18.547  1.00  0.00     0.026 C 
HETATM   13  C16 UNL     1      -1.832  -3.394  19.048  1.00  0.00     0.059 C 
ENDROOT
BRANCH   4  14
HETATM   14  N3  UNL     1      -6.016  -4.878  22.814  1.00  0.00    -0.340 N 
ATOM     15  H3  UNL     1      -6.562  -4.813  23.673  1.00  0.00     0.167 HD
BRANCH  14  16
HETATM   16  C3  UNL     1      -6.495  -5.839  21.939  1.00  0.00     0.075 A 
HETATM   17  C4  UNL     1      -7.598  -5.672  21.155  1.00  0.00     0.078 A 
HETATM   18  C5  UNL     1      -7.971  -6.654  20.246  1.00  0.00     0.157 A 
HETATM   19  F1  UNL     1      -9.076  -6.469  19.474  1.00  0.00    -0.203 F 
HETATM   20  C6  UNL     1      -7.258  -7.803  20.106  1.00  0.00     0.157 A 
HETATM   21  F2  UNL     1      -7.576  -8.780  19.245  1.00  0.00    -0.203 F 
HETATM   22  C7  UNL     1      -6.135  -7.977  20.898  1.00  0.00     0.090 A 
HETATM   23  C8  UNL     1      -5.754  -7.038  21.789  1.00  0.00     0.146 A 
HETATM   24  F3  UNL     1      -4.667  -7.220  22.552  1.00  0.00    -0.204 F 
ENDBRANCH  14  16
ENDBRANCH   4  14
BRANCH   1  25
HETATM   25  N1  UNL     1      -3.159  -1.626  24.684  1.00  0.00    -0.385 N 
ATOM     26  H12 UNL     1      -2.490  -0.859  24.619  1.00  0.00     0.157 HD
ATOM     27  H11 UNL     1      -3.623  -1.833  25.569  1.00  0.00     0.157 HD
ENDBRANCH   1  25
TORSDOF 3
ENDMDL
MODEL 3
REMARK VINA RESULT: -6.500424315      3.520      7.701
REMARK  3 active torsions:
REMARK  status: ('A' for Active; 'I' for Inactive)
REMARK    1  A    between atoms: N1_1  and  C1_4 
REMARK    2  A    between atoms: C2_7  and  N3_8 
REMARK    3  A    between atoms: N3_8  and  C3_10 
ROOT
HETATM    1  C1  UNL     1      -6.572  -6.099  20.050  1.00  0.00     0.113 A 
HETATM    2  N2  UNL     1      -5.451  -5.460  20.520  1.00  0.00    -0.328 N 
ATOM      3  H2  UNL     1      -5.297  -4.491  20.246  1.00  0.00     0.169 HD
HETATM    4  C2  UNL     1      -4.554  -6.041  21.318  1.00  0.00     0.108 A 
HETATM    5  C9  UNL     1      -4.847  -7.383  21.644  1.00  0.00     0.063 A 
HETATM    6  C10 UNL     1      -5.937  -8.072  21.211  1.00  0.00     0.005 A 
HETATM    7  C11 UNL     1      -6.403  -9.374  21.412  1.00  0.00     0.022 A 
HETATM    8  N4  UNL     1      -7.532  -9.479  20.731  1.00  0.00    -0.358 N 
HETATM    9  C12 UNL     1      -7.815  -8.313  20.104  1.00  0.00     0.107 A 
HETATM   10  C13 UNL     1      -6.822  -7.405  20.391  1.00  0.00     0.035 A 
HETATM   11  C14 UNL     1      -8.055 -10.843  20.917  1.00  0.00     0.128 C 
HETATM   12  C15 UNL     1      -7.333 -11.412  22.094  1.00  0.00     0.026 C 
HETATM   13  C16 UNL     1      -6.036 -10.628  22.127  1.00  0.00     0.059 C 
ENDROOT
BRANCH   4  14
HETATM   14  N3  UNL     1      -3.357  -5.471  21.789  1.00  0.00    -0.340 N 
ATOM     15  H3  UNL     1      -2.992  -5.939  22.619  1.00  0.00     0.167 HD
BRANCH  14  16
HETATM   16  C3  UNL     1      -2.565  -4.414  21.372  1.00  0.00     0.075 A 
HETATM   17  C4  UNL     1      -2.426  -4.036  20.069  1.00  0.00     0.078 A 
HETATM   18  C5  UNL     1      -1.674  -2.916  19.737  1.00  0.00     0.157 A 
HETATM   19  F1  UNL     1      -1.546  -2.557  18.431  1.00  0.00    -0.203 F 
HETATM   20  C6  UNL     1      -1.059  -2.164  20.689  1.00  0.00     0.157 A 
HETATM   21  F2  UNL     1      -0.323  -1.076  20.421  1.00  0.00    -0.203 F 
HETATM   22  C7  UNL     1      -1.199  -2.542  22.013  1.00  0.00     0.090 A 
HETATM   23  C8  UNL     1      -1.923  -3.626  22.360  1.00  0.00     0.146 A 
HETATM   24  F3  UNL     1      -2.048  -3.983  23.646  1.00  0.00    -0.204 F 
ENDBRANCH  14  16
ENDBRANCH   4  14
BRANCH   1  25
HETATM   25  N1  UNL     1      -7.360  -5.443  19.296  1.00  0.00    -0.385 N 
ATOM     26  H12 UNL     1      -7.539  -4.450  19.445  1.00  0.00     0.157 HD
ATOM     27  H11 UNL     1      -7.812  -5.941  18.530  1.00  0.00     0.157 HD
ENDBRANCH   1  25
TORSDOF 3
ENDMDL
MODEL 4
REMARK VINA RESULT: -6.481626994      3.424      7.092
REMARK  3 active torsions:
REMARK  status: ('A' for Active; 'I' for Inactive)
REMARK    1  A    between atoms: N1_1  and  C1_4 
REMARK    2  A    between atoms: C2_7  and  N3_8 
REMARK    3  A    between atoms: N3_8  and  C3_10 
ROOT
HETATM    1  C1  UNL     1      -7.360  -3.386  21.054  1.00  0.00     0.113 A 
HETATM    2  N2  UNL     1      -6.247  -2.748  21.540  1.00  0.00    -0.328 N 
ATOM      3  H2  UNL     1      -6.284  -1.736  21.662  1.00  0.00     0.169 HD
HETATM    4  C2  UNL     1      -5.118  -3.381  21.863  1.00  0.00     0.108 A 
HETATM    5  C9  UNL     1      -5.156  -4.778  21.660  1.00  0.00     0.063 A 
HETATM    6  C10 UNL     1      -6.226  -5.469  21.181  1.00  0.00     0.005 A 
HETATM    7  C11 UNL     1      -6.466  -6.819  20.912  1.00  0.00     0.022 A 
HETATM    8  N4  UNL     1      -7.704  -6.898  20.455  1.00  0.00    -0.358 N 
HETATM    9  C12 UNL     1      -8.272  -5.669  20.418  1.00  0.00     0.107 A 
HETATM   10  C13 UNL     1      -7.358  -4.747  20.872  1.00  0.00     0.035 A 
HETATM   11  C14 UNL     1      -7.995  -8.311  20.159  1.00  0.00     0.128 C 
HETATM   12  C15 UNL     1      -6.945  -9.111  20.856  1.00  0.00     0.026 C 
HETATM   13  C16 UNL     1      -5.785  -8.143  20.980  1.00  0.00     0.059 C 
ENDROOT
BRANCH   4  14
HETATM   14  N3  UNL     1      -3.922  -2.790  22.309  1.00  0.00    -0.340 N 
ATOM     15  H3  UNL     1      -4.019  -2.326  23.212  1.00  0.00     0.167 HD
BRANCH  14  16
HETATM   16  C3  UNL     1      -2.641  -2.700  21.789  1.00  0.00     0.075 A 
HETATM   17  C4  UNL     1      -2.366  -2.612  20.456  1.00  0.00     0.078 A 
HETATM   18  C5  UNL     1      -1.058  -2.447  20.016  1.00  0.00     0.157 A 
HETATM   19  F1  UNL     1      -0.805  -2.362  18.683  1.00  0.00    -0.203 F 
HETATM   20  C6  UNL     1      -0.019  -2.368  20.889  1.00  0.00     0.157 A 
HETATM   21  F2  UNL     1       1.259  -2.209  20.516  1.00  0.00    -0.203 F 
HETATM   22  C7  UNL     1      -0.293  -2.455  22.244  1.00  0.00     0.090 A 
HETATM   23  C8  UNL     1      -1.555  -2.616  22.694  1.00  0.00     0.146 A 
HETATM   24  F3  UNL     1      -1.806  -2.703  24.008  1.00  0.00    -0.204 F 
ENDBRANCH  14  16
ENDBRANCH   4  14
BRANCH   1  25
HETATM   25  N1  UNL     1      -8.382  -2.678  20.782  1.00  0.00    -0.385 N 
ATOM     26  H12 UNL     1      -8.676  -1.909  21.385  1.00  0.00     0.157 HD
ATOM     27  H11 UNL     1      -8.906  -2.900  19.936  1.00  0.00     0.157 HD
ENDBRANCH   1  25
TORSDOF 3
ENDMDL
MODEL 5
REMARK VINA RESULT: -5.892585306      3.347      7.049
REMARK  3 active torsions:
REMARK  status: ('A' for Active; 'I' for Inactive)
REMARK    1  A    between atoms: N1_1  and  C1_4 
REMARK    2  A    between atoms: C2_7  and  N3_8 
REMARK    3  A    between atoms: N3_8  and  C3_10 
ROOT
HETATM    1  C1  UNL     1      -7.054  -3.743  21.256  1.00  0.00     0.113 A 
HETATM    2  N2  UNL     1      -5.808  -3.249  21.556  1.00  0.00    -0.328 N 
ATOM      3  H2  UNL     1      -5.711  -2.246  21.712  1.00  0.00     0.169 HD
HETATM    4  C2  UNL     1      -4.719  -4.012  21.654  1.00  0.00     0.108 A 
HETATM    5  C9  UNL     1      -4.946  -5.385  21.420  1.00  0.00     0.063 A 
HETATM    6  C10 UNL     1      -6.154  -5.936  21.118  1.00  0.00     0.005 A 
HETATM    7  C11 UNL     1      -6.585  -7.240  20.857  1.00  0.00     0.022 A 
HETATM    8  N4  UNL     1      -7.884  -7.167  20.625  1.00  0.00    -0.358 N 
HETATM    9  C12 UNL     1      -8.310  -5.885  20.726  1.00  0.00     0.107 A 
HETATM   10  C13 UNL     1      -7.234  -5.086  21.037  1.00  0.00     0.035 A 
HETATM   11  C14 UNL     1      -8.378  -8.525  20.344  1.00  0.00     0.128 C 
HETATM   12  C15 UNL     1      -7.318  -9.464  20.819  1.00  0.00     0.026 C 
HETATM   13  C16 UNL     1      -6.054  -8.629  20.763  1.00  0.00     0.059 C 
ENDROOT
BRANCH   4  14
HETATM   14  N3  UNL     1      -3.405  -3.571  21.897  1.00  0.00    -0.340 N 
ATOM     15  H3  UNL     1      -3.130  -3.659  22.875  1.00  0.00     0.167 HD
BRANCH  14  16
HETATM   16  C3  UNL     1      -2.404  -3.043  21.098  1.00  0.00     0.075 A 
HETATM   17  C4  UNL     1      -1.183  -2.654  21.567  1.00  0.00     0.078 A 
HETATM   18  C5  UNL     1      -0.203  -2.206  20.690  1.00  0.00     0.157 A 
HETATM   19  F1  UNL     1       1.008  -1.822  21.177  1.00  0.00    -0.203 F 
HETATM   20  C6  UNL     1      -0.423  -2.140  19.349  1.00  0.00     0.157 A 
HETATM   21  F2  UNL     1       0.489  -1.716  18.463  1.00  0.00    -0.203 F 
HETATM   22  C7  UNL     1      -1.659  -2.536  18.869  1.00  0.00     0.090 A 
HETATM   23  C8  UNL     1      -2.627  -2.974  19.701  1.00  0.00     0.146 A 
HETATM   24  F3  UNL     1      -3.821  -3.350  19.222  1.00  0.00    -0.204 F 
ENDBRANCH  14  16
ENDBRANCH   4  14
BRANCH   1  25
HETATM   25  N1  UNL     1      -8.022  -2.919  21.192  1.00  0.00    -0.385 N 
ATOM     26  H12 UNL     1      -8.703  -2.835  21.946  1.00  0.00     0.157 HD
ATOM     27  H11 UNL     1      -8.100  -2.339  20.357  1.00  0.00     0.157 HD
ENDBRANCH   1  25
TORSDOF 3
ENDMDL
