MODEL 1
REMARK VINA RESULT: -6.815927545      0.000      0.000
REMARK  4 active torsions:
REMARK  status: ('A' for Active; 'I' for Inactive)
REMARK    1  A    between atoms: C2_2  and  C3_3 
REMARK       I    between atoms: C3_3  and  N1_5 
REMARK    2  A    between atoms: N1_5  and  C4_7 
REMARK    3  A    between atoms: C9_14  and  C10_15 
REMARK    4  A    between atoms: C10_15  and  C13_18 
ROOT
HETATM    1  C4  UNL     1      -6.235  -5.871  20.911  1.00  0.00     0.078 A 
HETATM    2  C5  UNL     1      -6.325  -4.834  21.796  1.00  0.00     0.052 A 
HETATM    3  C6  UNL     1      -5.300  -3.967  21.842  1.00  0.00     0.008 A 
HETATM    4  C7  UNL     1      -4.932  -2.797  22.539  1.00  0.00     0.017 A 
HETATM    5  C8  UNL     1      -5.691  -2.073  23.591  1.00  0.00     0.069 C 
HETATM    6  N2  UNL     1      -3.725  -2.384  22.105  1.00  0.00    -0.360 N 
ATOM      7  H2  UNL     1      -3.231  -1.560  22.447  1.00  0.00     0.165 HD
HETATM    8  C9  UNL     1      -3.267  -3.216  21.156  1.00  0.00     0.044 A 
HETATM    9  C14 UNL     1      -4.243  -4.193  20.996  1.00  0.00     0.043 A 
HETATM   10  S1  UNL     1      -4.722  -5.608  20.169  1.00  0.00    -0.070 SA
ENDROOT
BRANCH   8  11
HETATM   11  C10 UNL     1      -1.985  -3.110  20.443  1.00  0.00     0.094 C 
HETATM   12  C11 UNL     1      -1.202  -1.964  21.048  1.00  0.00     0.031 C 
HETATM   13  C12 UNL     1      -1.178  -4.387  20.704  1.00  0.00     0.031 C 
BRANCH  11  14
HETATM   14  C13 UNL     1      -2.112  -2.882  18.961  1.00  0.00     0.400 C 
HETATM   15  F1  UNL     1      -3.387  -2.512  18.647  1.00  0.00    -0.170 F 
HETATM   16  F2  UNL     1      -1.833  -4.062  18.282  1.00  0.00    -0.170 F 
HETATM   17  F3  UNL     1      -1.179  -1.926  18.540  1.00  0.00    -0.170 F 
ENDBRANCH  11  14
ENDBRANCH   8  11
BRANCH   1  18
HETATM   18  N1  UNL     1      -7.201  -6.924  20.678  1.00  0.00    -0.318 N 
HETATM   19  C3  UNL     1      -6.797  -8.262  20.801  1.00  0.00     0.245 C 
HETATM   20  O1  UNL     1      -5.611  -8.525  21.111  1.00  0.00    -0.268 OA
ATOM     21  H1  UNL     1      -8.163  -6.696  20.427  1.00  0.00     0.169 HD
BRANCH  19  22
HETATM   22  C2  UNL     1      -7.760  -9.326  20.570  1.00  0.00     0.064 C 
HETATM   23  C1  UNL     1      -7.618 -10.486  21.167  1.00  0.00     0.017 C 
ENDBRANCH  19  22
ENDBRANCH   1  18
TORSDOF 4
ENDMDL
MODEL 2
REMARK VINA RESULT: -6.736304251      2.554      3.739
REMARK  4 active torsions:
REMARK  status: ('A' for Active; 'I' for Inactive)
REMARK    1  A    between atoms: C2_2  and  C3_3 
REMARK       I    between atoms: C3_3  and  N1_5 
REMARK    2  A    between atoms: N1_5  and  C4_7 
REMARK    3  A    between atoms: C9_14  and  C10_15 
REMARK    4  A    between atoms: C10_15  and  C13_18 
ROOT
HETATM    1  C4  UNL     1      -6.428  -6.065  20.639  1.00  0.00     0.078 A 
HETATM    2  C5  UNL     1      -5.398  -5.533  19.916  1.00  0.00     0.052 A 
HETATM    3  C6  UNL     1      -4.791  -4.443  20.413  1.00  0.00     0.008 A 
HETATM    4  C7  UNL     1      -3.736  -3.569  20.073  1.00  0.00     0.017 A 
HETATM    5  C8  UNL     1      -2.858  -3.606  18.876  1.00  0.00     0.069 C 
HETATM    6  N2  UNL     1      -3.612  -2.630  21.032  1.00  0.00    -0.360 N 
ATOM      7  H2  UNL     1      -2.924  -1.877  21.027  1.00  0.00     0.165 HD
HETATM    8  C9  UNL     1      -4.527  -2.829  21.993  1.00  0.00     0.044 A 
HETATM    9  C14 UNL     1      -5.254  -3.951  21.608  1.00  0.00     0.043 A 
HETATM   10  S1  UNL     1      -6.520  -5.031  21.991  1.00  0.00    -0.070 SA
ENDROOT
BRANCH   8  11
HETATM   11  C10 UNL     1      -4.720  -2.015  23.202  1.00  0.00     0.094 C 
HETATM   12  C11 UNL     1      -5.344  -2.892  24.268  1.00  0.00     0.031 C 
HETATM   13  C12 UNL     1      -3.343  -1.590  23.725  1.00  0.00     0.031 C 
BRANCH  11  14
HETATM   14  C13 UNL     1      -5.587  -0.801  23.006  1.00  0.00     0.400 C 
HETATM   15  F1  UNL     1      -4.829   0.334  23.047  1.00  0.00    -0.170 F 
HETATM   16  F2  UNL     1      -6.521  -0.724  24.032  1.00  0.00    -0.170 F 
HETATM   17  F3  UNL     1      -6.295  -0.904  21.802  1.00  0.00    -0.170 F 
ENDBRANCH  11  14
ENDBRANCH   8  11
BRANCH   1  18
HETATM   18  N1  UNL     1      -7.231  -7.226  20.315  1.00  0.00    -0.318 N 
HETATM   19  C3  UNL     1      -6.801  -8.494  20.734  1.00  0.00     0.245 C 
HETATM   20  O1  UNL     1      -5.733  -8.603  21.381  1.00  0.00    -0.268 OA
ATOM     21  H1  UNL     1      -8.098  -7.123  19.789  1.00  0.00     0.169 HD
BRANCH  19  22
HETATM   22  C2  UNL     1      -7.601  -9.665  20.415  1.00  0.00     0.064 C 
HETATM   23  C1  UNL     1      -7.610 -10.699  21.223  1.00  0.00     0.017 C 
ENDBRANCH  19  22
ENDBRANCH   1  18
TORSDOF 4
ENDMDL
MODEL 3
REMARK VINA RESULT: -6.672579561      3.200      6.292
REMARK  4 active torsions:
REMARK  status: ('A' for Active; 'I' for Inactive)
REMARK    1  A    between atoms: C2_2  and  C3_3 
REMARK       I    between atoms: C3_3  and  N1_5 
REMARK    2  A    between atoms: N1_5  and  C4_7 
REMARK    3  A    between atoms: C9_14  and  C10_15 
REMARK    4  A    between atoms: C10_15  and  C13_18 
ROOT
HETATM    1  C4  UNL     1      -3.534  -3.062  21.663  1.00  0.00     0.078 A 
HETATM    2  C5  UNL     1      -4.346  -3.029  22.761  1.00  0.00     0.052 A 
HETATM    3  C6  UNL     1      -5.506  -3.702  22.694  1.00  0.00     0.008 A 
HETATM    4  C7  UNL     1      -6.625  -3.969  23.511  1.00  0.00     0.017 A 
HETATM    5  C8  UNL     1      -6.886  -3.505  24.898  1.00  0.00     0.069 C 
HETATM    6  N2  UNL     1      -7.492  -4.750  22.835  1.00  0.00    -0.360 N 
ATOM      7  H2  UNL     1      -8.382  -5.087  23.200  1.00  0.00     0.165 HD
HETATM    8  C9  UNL     1      -7.011  -5.018  21.611  1.00  0.00     0.044 A 
HETATM    9  C14 UNL     1      -5.784  -4.370  21.527  1.00  0.00     0.043 A 
HETATM   10  S1  UNL     1      -4.412  -4.031  20.568  1.00  0.00    -0.070 SA
ENDROOT
BRANCH   8  11
HETATM   11  C10 UNL     1      -7.663  -5.829  20.572  1.00  0.00     0.094 C 
HETATM   12  C11 UNL     1      -9.134  -5.943  20.917  1.00  0.00     0.031 C 
HETATM   13  C12 UNL     1      -7.575  -5.074  19.241  1.00  0.00     0.031 C 
BRANCH  11  14
HETATM   14  C13 UNL     1      -7.095  -7.213  20.411  1.00  0.00     0.400 C 
HETATM   15  F1  UNL     1      -8.101  -8.134  20.357  1.00  0.00    -0.170 F 
HETATM   16  F2  UNL     1      -6.296  -7.519  21.506  1.00  0.00    -0.170 F 
HETATM   17  F3  UNL     1      -6.283  -7.270  19.271  1.00  0.00    -0.170 F 
ENDBRANCH  11  14
ENDBRANCH   8  11
BRANCH   1  18
HETATM   18  N1  UNL     1      -2.246  -2.423  21.493  1.00  0.00    -0.318 N 
HETATM   19  C3  UNL     1      -1.148  -3.193  21.085  1.00  0.00     0.245 C 
HETATM   20  O1  UNL     1      -1.297  -4.420  20.873  1.00  0.00    -0.268 OA
ATOM     21  H1  UNL     1      -2.138  -1.423  21.668  1.00  0.00     0.169 HD
BRANCH  19  22
HETATM   22  C2  UNL     1       0.149  -2.560  20.910  1.00  0.00     0.064 C 
HETATM   23  C1  UNL     1       0.268  -1.496  20.151  1.00  0.00     0.017 C 
ENDBRANCH  19  22
ENDBRANCH   1  18
TORSDOF 4
ENDMDL
MODEL 4
REMARK VINA RESULT: -6.644198733      1.314      1.779
REMARK  4 active torsions:
REMARK  status: ('A' for Active; 'I' for Inactive)
REMARK    1  A    between atoms: C2_2  and  C3_3 
REMARK       I    between atoms: C3_3  and  N1_5 
REMARK    2  A    between atoms: N1_5  and  C4_7 
REMARK    3  A    between atoms: C9_14  and  C10_15 
REMARK    4  A    between atoms: C10_15  and  C13_18 
ROOT
HETATM    1  C4  UNL     1      -6.152  -5.450  20.957  1.00  0.00     0.078 A 
HETATM    2  C5  UNL     1      -6.154  -4.393  21.821  1.00  0.00     0.052 A 
HETATM    3  C6  UNL     1      -5.054  -3.624  21.864  1.00  0.00     0.008 A 
HETATM    4  C7  UNL     1      -4.586  -2.480  22.543  1.00  0.00     0.017 A 
HETATM    5  C8  UNL     1      -5.284  -1.669  23.573  1.00  0.00     0.069 C 
HETATM    6  N2  UNL     1      -3.341  -2.188  22.115  1.00  0.00    -0.360 N 
ATOM      7  H2  UNL     1      -2.776  -1.407  22.449  1.00  0.00     0.165 HD
HETATM    8  C9  UNL     1      -2.953  -3.077  21.187  1.00  0.00     0.044 A 
HETATM    9  C14 UNL     1      -4.014  -3.963  21.034  1.00  0.00     0.043 A 
HETATM   10  S1  UNL     1      -4.615  -5.342  20.227  1.00  0.00    -0.070 SA
ENDROOT
BRANCH   8  11
HETATM   11  C10 UNL     1      -1.661  -3.105  20.487  1.00  0.00     0.094 C 
HETATM   12  C11 UNL     1      -1.139  -4.527  20.515  1.00  0.00     0.031 C 
HETATM   13  C12 UNL     1      -1.898  -2.746  19.016  1.00  0.00     0.031 C 
BRANCH  11  14
HETATM   14  C13 UNL     1      -0.614  -2.194  21.070  1.00  0.00     0.400 C 
HETATM   15  F1  UNL     1      -0.653  -0.975  20.457  1.00  0.00    -0.170 F 
HETATM   16  F2  UNL     1       0.647  -2.737  20.858  1.00  0.00    -0.170 F 
HETATM   17  F3  UNL     1      -0.793  -2.080  22.455  1.00  0.00    -0.170 F 
ENDBRANCH  11  14
ENDBRANCH   8  11
BRANCH   1  18
HETATM   18  N1  UNL     1      -7.209  -6.414  20.732  1.00  0.00    -0.318 N 
HETATM   19  C3  UNL     1      -6.894  -7.780  20.699  1.00  0.00     0.245 C 
HETATM   20  O1  UNL     1      -5.706  -8.146  20.866  1.00  0.00    -0.268 OA
ATOM     21  H1  UNL     1      -8.172  -6.103  20.598  1.00  0.00     0.169 HD
BRANCH  19  22
HETATM   22  C2  UNL     1      -7.949  -8.755  20.475  1.00  0.00     0.064 C 
HETATM   23  C1  UNL     1      -7.798  -9.996  20.877  1.00  0.00     0.017 C 
ENDBRANCH  19  22
ENDBRANCH   1  18
TORSDOF 4
ENDMDL
MODEL 5
REMARK VINA RESULT: -6.630177847      2.512      3.409
REMARK  4 active torsions:
REMARK  status: ('A' for Active; 'I' for Inactive)
REMARK    1  A    between atoms: C2_2  and  C3_3 
REMARK       I    between atoms: C3_3  and  N1_5 
REMARK    2  A    between atoms: N1_5  and  C4_7 
REMARK    3  A    between atoms: C9_14  and  C10_15 
REMARK    4  A    between atoms: C10_15  and  C13_18 
ROOT
HETATM    1  C4  UNL     1      -5.825  -5.681  20.605  1.00  0.00     0.078 A 
HETATM    2  C5  UNL     1      -5.065  -5.060  19.654  1.00  0.00     0.052 A 
HETATM    3  C6  UNL     1      -4.110  -4.217  20.078  1.00  0.00     0.008 A 
HETATM    4  C7  UNL     1      -3.113  -3.382  19.530  1.00  0.00     0.017 A 
HETATM    5  C8  UNL     1      -2.785  -3.157  18.099  1.00  0.00     0.069 C 
HETATM    6  N2  UNL     1      -2.448  -2.770  20.530  1.00  0.00    -0.360 N 
ATOM      7  H2  UNL     1      -1.678  -2.113  20.403  1.00  0.00     0.165 HD
HETATM    8  C9  UNL     1      -2.947  -3.152  21.716  1.00  0.00     0.044 A 
HETATM    9  C14 UNL     1      -3.973  -4.046  21.434  1.00  0.00     0.043 A 
HETATM   10  S1  UNL     1      -5.186  -5.070  22.063  1.00  0.00    -0.070 SA
ENDROOT
BRANCH   8  11
HETATM   11  C10 UNL     1      -2.496  -2.701  23.041  1.00  0.00     0.094 C 
HETATM   12  C11 UNL     1      -2.225  -3.927  23.889  1.00  0.00     0.031 C 
HETATM   13  C12 UNL     1      -1.159  -1.969  22.876  1.00  0.00     0.031 C 
BRANCH  11  14
HETATM   14  C13 UNL     1      -3.474  -1.817  23.766  1.00  0.00     0.400 C 
HETATM   15  F1  UNL     1      -2.835  -1.098  24.734  1.00  0.00    -0.170 F 
HETATM   16  F2  UNL     1      -4.439  -2.601  24.387  1.00  0.00    -0.170 F 
HETATM   17  F3  UNL     1      -4.136  -0.983  22.857  1.00  0.00    -0.170 F 
ENDBRANCH  11  14
ENDBRANCH   8  11
BRANCH   1  18
HETATM   18  N1  UNL     1      -6.906  -6.623  20.400  1.00  0.00    -0.318 N 
HETATM   19  C3  UNL     1      -6.675  -7.988  20.625  1.00  0.00     0.245 C 
HETATM   20  O1  UNL     1      -5.541  -8.371  20.999  1.00  0.00    -0.268 OA
ATOM     21  H1  UNL     1      -7.824  -6.298  20.096  1.00  0.00     0.169 HD
BRANCH  19  22
HETATM   22  C2  UNL     1      -7.753  -8.941  20.423  1.00  0.00     0.064 C 
HETATM   23  C1  UNL     1      -7.706 -10.123  20.992  1.00  0.00     0.017 C 
ENDBRANCH  19  22
ENDBRANCH   1  18
TORSDOF 4
ENDMDL
