MODEL 1
REMARK VINA RESULT: -6.224432064      0.000      0.000
REMARK  9 active torsions:
REMARK  status: ('A' for Active; 'I' for Inactive)
REMARK    1  A    between atoms: C2_2  and  N1_3 
REMARK    2  A    between atoms: C5_6  and  N2_7 
REMARK    3  A    between atoms: N2_7  and  C6_9 
REMARK    4  A    between atoms: C6_9  and  C7_10 
REMARK    5  A    between atoms: C7_10  and  C8_11 
REMARK    6  A    between atoms: C8_11  and  S1_12 
REMARK    7  A    between atoms: S1_12  and  C9_13 
REMARK    8  A    between atoms: C9_13  and  N3_15 
REMARK    9  A    between atoms: N3_15  and  C10_17 
ROOT
HETATM    1  C10 UNL     1     -17.568  19.763  -6.313  1.00  0.00     0.186 C 
HETATM    2  C11 UNL     1     -17.840  19.016  -7.603  1.00  0.00     0.048 C 
HETATM    3  C12 UNL     1     -16.332  19.212  -5.765  1.00  0.00     0.084 C 
HETATM    4  N4  UNL     1     -15.343  18.766  -5.345  1.00  0.00    -0.195 NA
ENDROOT
BRANCH   1   5
HETATM    5  N3  UNL     1     -17.373  21.175  -6.632  1.00  0.00    -0.359 N 
ATOM      6  H3  UNL     1     -16.884  21.436  -7.488  1.00  0.00     0.162 HD
BRANCH   5   7
HETATM    7  C9  UNL     1     -17.854  22.183  -5.769  1.00  0.00     0.135 C 
HETATM    8  S2  UNL     1     -19.080  23.122  -6.254  1.00  0.00    -0.053 SA
BRANCH   7   9
HETATM    9  S1  UNL     1     -17.144  22.441  -4.172  1.00  0.00    -0.101 SA
BRANCH   9  10
HETATM   10  C8  UNL     1     -18.077  23.644  -3.210  1.00  0.00     0.083 C 
BRANCH  10  11
HETATM   11  C7  UNL     1     -17.404  23.841  -1.879  1.00  0.00     0.030 C 
BRANCH  11  12
HETATM   12  C6  UNL     1     -15.974  23.281  -1.908  1.00  0.00     0.115 C 
BRANCH  12  13
HETATM   13  N2  UNL     1     -15.209  24.013  -0.975  1.00  0.00    -0.417 N 
ATOM     14  H2  UNL     1     -15.086  25.022  -1.062  1.00  0.00     0.153 HD
BRANCH  13  15
HETATM   15  C5  UNL     1     -14.619  23.288   0.089  1.00  0.00     0.079 C 
HETATM   16  C4  UNL     1     -13.487  24.015   0.789  1.00  0.00     0.055 C 
HETATM   17  C3  UNL     1     -12.813  22.947   1.650  1.00  0.00     0.274 C 
HETATM   18  N1  UNL     1     -13.689  22.451   2.682  1.00  0.00     0.088 N 
HETATM   19  C14 UNL     1     -14.973  22.023   2.191  1.00  0.00     0.274 C 
HETATM   20  C13 UNL     1     -15.604  22.937   1.195  1.00  0.00     0.055 C 
BRANCH  18  21
HETATM   21  C2  UNL     1     -13.028  21.280   3.229  1.00  0.00     0.268 C 
HETATM   22  C1  UNL     1     -11.597  21.481   3.582  1.00  0.00     0.037 C 
ENDBRANCH  18  21
ENDBRANCH  13  15
ENDBRANCH  12  13
ENDBRANCH  11  12
ENDBRANCH  10  11
ENDBRANCH   9  10
ENDBRANCH   7   9
ENDBRANCH   5   7
ENDBRANCH   1   5
TORSDOF 9
ENDMDL
MODEL 2
REMARK VINA RESULT: -6.188501337      5.937      8.956
REMARK  9 active torsions:
REMARK  status: ('A' for Active; 'I' for Inactive)
REMARK    1  A    between atoms: C2_2  and  N1_3 
REMARK    2  A    between atoms: C5_6  and  N2_7 
REMARK    3  A    between atoms: N2_7  and  C6_9 
REMARK    4  A    between atoms: C6_9  and  C7_10 
REMARK    5  A    between atoms: C7_10  and  C8_11 
REMARK    6  A    between atoms: C8_11  and  S1_12 
REMARK    7  A    between atoms: S1_12  and  C9_13 
REMARK    8  A    between atoms: C9_13  and  N3_15 
REMARK    9  A    between atoms: N3_15  and  C10_17 
ROOT
HETATM    1  C10 UNL     1     -17.558  19.832  -6.295  1.00  0.00     0.186 C 
HETATM    2  C11 UNL     1     -17.776  19.127  -7.618  1.00  0.00     0.048 C 
HETATM    3  C12 UNL     1     -16.313  19.306  -5.742  1.00  0.00     0.084 C 
HETATM    4  N4  UNL     1     -15.316  18.880  -5.320  1.00  0.00    -0.195 NA
ENDROOT
BRANCH   1   5
HETATM    5  N3  UNL     1     -17.410  21.262  -6.555  1.00  0.00    -0.359 N 
ATOM      6  H3  UNL     1     -16.783  21.577  -7.295  1.00  0.00     0.162 HD
BRANCH   5   7
HETATM    7  C9  UNL     1     -18.124  22.212  -5.794  1.00  0.00     0.135 C 
HETATM    8  S2  UNL     1     -17.570  22.633  -4.332  1.00  0.00    -0.053 SA
BRANCH   7   9
HETATM    9  S1  UNL     1     -19.609  22.948  -6.402  1.00  0.00    -0.101 SA
BRANCH   9  10
HETATM   10  C8  UNL     1     -21.028  21.854  -6.209  1.00  0.00     0.083 C 
BRANCH  10  11
HETATM   11  C7  UNL     1     -22.286  22.616  -6.528  1.00  0.00     0.030 C 
BRANCH  11  12
HETATM   12  C6  UNL     1     -23.279  22.535  -5.359  1.00  0.00     0.115 C 
BRANCH  12  13
HETATM   13  N2  UNL     1     -24.344  21.699  -5.760  1.00  0.00    -0.417 N 
ATOM     14  H2  UNL     1     -24.909  21.915  -6.581  1.00  0.00     0.153 HD
BRANCH  13  15
HETATM   15  C5  UNL     1     -24.594  20.549  -4.973  1.00  0.00     0.079 C 
HETATM   16  C4  UNL     1     -24.733  19.266  -5.769  1.00  0.00     0.055 C 
HETATM   17  C3  UNL     1     -25.306  18.253  -4.778  1.00  0.00     0.274 C 
HETATM   18  N1  UNL     1     -24.392  17.975  -3.699  1.00  0.00     0.088 N 
HETATM   19  C14 UNL     1     -23.897  19.157  -3.043  1.00  0.00     0.274 C 
HETATM   20  C13 UNL     1     -23.495  20.264  -3.959  1.00  0.00     0.055 C 
BRANCH  18  21
HETATM   21  C2  UNL     1     -25.160  17.231  -2.716  1.00  0.00     0.268 C 
HETATM   22  C1  UNL     1     -24.385  16.792  -1.524  1.00  0.00     0.037 C 
ENDBRANCH  18  21
ENDBRANCH  13  15
ENDBRANCH  12  13
ENDBRANCH  11  12
ENDBRANCH  10  11
ENDBRANCH   9  10
ENDBRANCH   7   9
ENDBRANCH   5   7
ENDBRANCH   1   5
TORSDOF 9
ENDMDL
MODEL 3
REMARK VINA RESULT: -6.160993806      1.423      1.979
REMARK  9 active torsions:
REMARK  status: ('A' for Active; 'I' for Inactive)
REMARK    1  A    between atoms: C2_2  and  N1_3 
REMARK    2  A    between atoms: C5_6  and  N2_7 
REMARK    3  A    between atoms: N2_7  and  C6_9 
REMARK    4  A    between atoms: C6_9  and  C7_10 
REMARK    5  A    between atoms: C7_10  and  C8_11 
REMARK    6  A    between atoms: C8_11  and  S1_12 
REMARK    7  A    between atoms: S1_12  and  C9_13 
REMARK    8  A    between atoms: C9_13  and  N3_15 
REMARK    9  A    between atoms: N3_15  and  C10_17 
ROOT
HETATM    1  C10 UNL     1     -17.571  19.575  -6.507  1.00  0.00     0.186 C 
HETATM    2  C11 UNL     1     -17.524  18.978  -7.898  1.00  0.00     0.048 C 
HETATM    3  C12 UNL     1     -16.352  19.144  -5.827  1.00  0.00     0.084 C 
HETATM    4  N4  UNL     1     -15.373  18.797  -5.303  1.00  0.00    -0.195 NA
ENDROOT
BRANCH   1   5
HETATM    5  N3  UNL     1     -17.570  21.031  -6.631  1.00  0.00    -0.359 N 
ATOM      6  H3  UNL     1     -16.894  21.484  -7.245  1.00  0.00     0.162 HD
BRANCH   5   7
HETATM    7  C9  UNL     1     -18.495  21.817  -5.911  1.00  0.00     0.135 C 
HETATM    8  S2  UNL     1     -20.060  21.779  -6.328  1.00  0.00    -0.053 SA
BRANCH   7   9
HETATM    9  S1  UNL     1     -17.981  22.841  -4.567  1.00  0.00    -0.101 SA
BRANCH   9  10
HETATM   10  C8  UNL     1     -19.131  24.197  -4.280  1.00  0.00     0.083 C 
BRANCH  10  11
HETATM   11  C7  UNL     1     -18.949  24.710  -2.877  1.00  0.00     0.030 C 
BRANCH  11  12
HETATM   12  C6  UNL     1     -17.868  23.903  -2.142  1.00  0.00     0.115 C 
BRANCH  12  13
HETATM   13  N2  UNL     1     -17.459  24.657  -1.021  1.00  0.00    -0.417 N 
ATOM     14  H2  UNL     1     -18.025  25.427  -0.663  1.00  0.00     0.153 HD
BRANCH  13  15
HETATM   15  C5  UNL     1     -16.232  24.299  -0.413  1.00  0.00     0.079 C 
HETATM   16  C4  UNL     1     -15.133  23.932  -1.391  1.00  0.00     0.055 C 
HETATM   17  C3  UNL     1     -14.046  23.287  -0.532  1.00  0.00     0.274 C 
HETATM   18  N1  UNL     1     -13.473  24.220   0.406  1.00  0.00     0.088 N 
HETATM   19  C14 UNL     1     -14.452  24.915   1.200  1.00  0.00     0.274 C 
HETATM   20  C13 UNL     1     -15.640  25.409   0.445  1.00  0.00     0.055 C 
BRANCH  18  21
HETATM   21  C2  UNL     1     -12.674  23.419   1.317  1.00  0.00     0.268 C 
HETATM   22  C1  UNL     1     -13.349  22.193   1.823  1.00  0.00     0.037 C 
ENDBRANCH  18  21
ENDBRANCH  13  15
ENDBRANCH  12  13
ENDBRANCH  11  12
ENDBRANCH  10  11
ENDBRANCH   9  10
ENDBRANCH   7   9
ENDBRANCH   5   7
ENDBRANCH   1   5
TORSDOF 9
ENDMDL
MODEL 4
REMARK VINA RESULT: -6.127937860      1.092      1.278
REMARK  9 active torsions:
REMARK  status: ('A' for Active; 'I' for Inactive)
REMARK    1  A    between atoms: C2_2  and  N1_3 
REMARK    2  A    between atoms: C5_6  and  N2_7 
REMARK    3  A    between atoms: N2_7  and  C6_9 
REMARK    4  A    between atoms: C6_9  and  C7_10 
REMARK    5  A    between atoms: C7_10  and  C8_11 
REMARK    6  A    between atoms: C8_11  and  S1_12 
REMARK    7  A    between atoms: S1_12  and  C9_13 
REMARK    8  A    between atoms: C9_13  and  N3_15 
REMARK    9  A    between atoms: N3_15  and  C10_17 
ROOT
HETATM    1  C10 UNL     1     -17.559  19.734  -6.307  1.00  0.00     0.186 C 
HETATM    2  C11 UNL     1     -17.642  19.199  -7.721  1.00  0.00     0.048 C 
HETATM    3  C12 UNL     1     -16.295  19.254  -5.753  1.00  0.00     0.084 C 
HETATM    4  N4  UNL     1     -15.282  18.868  -5.330  1.00  0.00    -0.195 NA
ENDROOT
BRANCH   1   5
HETATM    5  N3  UNL     1     -17.540  21.193  -6.367  1.00  0.00    -0.359 N 
ATOM      6  H3  UNL     1     -16.779  21.668  -6.851  1.00  0.00     0.162 HD
BRANCH   5   7
HETATM    7  C9  UNL     1     -18.565  21.953  -5.764  1.00  0.00     0.135 C 
HETATM    8  S2  UNL     1     -20.077  21.836  -6.331  1.00  0.00    -0.053 SA
BRANCH   7   9
HETATM    9  S1  UNL     1     -18.231  23.030  -4.404  1.00  0.00    -0.101 SA
BRANCH   9  10
HETATM   10  C8  UNL     1     -16.642  22.668  -3.637  1.00  0.00     0.083 C 
BRANCH  10  11
HETATM   11  C7  UNL     1     -16.534  23.427  -2.343  1.00  0.00     0.030 C 
BRANCH  11  12
HETATM   12  C6  UNL     1     -15.072  23.494  -1.875  1.00  0.00     0.115 C 
BRANCH  12  13
HETATM   13  N2  UNL     1     -14.995  24.464  -0.852  1.00  0.00    -0.417 N 
ATOM     14  H2  UNL     1     -15.553  25.318  -0.885  1.00  0.00     0.153 HD
BRANCH  13  15
HETATM   15  C5  UNL     1     -14.110  24.202   0.222  1.00  0.00     0.079 C 
HETATM   16  C4  UNL     1     -14.379  25.024   1.468  1.00  0.00     0.055 C 
HETATM   17  C3  UNL     1     -13.144  24.818   2.344  1.00  0.00     0.274 C 
HETATM   18  N1  UNL     1     -13.006  23.448   2.772  1.00  0.00     0.088 N 
HETATM   19  C14 UNL     1     -13.071  22.497   1.692  1.00  0.00     0.274 C 
HETATM   20  C13 UNL     1     -14.147  22.754   0.691  1.00  0.00     0.055 C 
BRANCH  18  21
HETATM   21  C2  UNL     1     -11.677  23.349   3.348  1.00  0.00     0.268 C 
HETATM   22  C1  UNL     1     -11.060  21.997   3.262  1.00  0.00     0.037 C 
ENDBRANCH  18  21
ENDBRANCH  13  15
ENDBRANCH  12  13
ENDBRANCH  11  12
ENDBRANCH  10  11
ENDBRANCH   9  10
ENDBRANCH   7   9
ENDBRANCH   5   7
ENDBRANCH   1   5
TORSDOF 9
ENDMDL
MODEL 5
REMARK VINA RESULT: -6.116270934      1.160      1.736
REMARK  9 active torsions:
REMARK  status: ('A' for Active; 'I' for Inactive)
REMARK    1  A    between atoms: C2_2  and  N1_3 
REMARK    2  A    between atoms: C5_6  and  N2_7 
REMARK    3  A    between atoms: N2_7  and  C6_9 
REMARK    4  A    between atoms: C6_9  and  C7_10 
REMARK    5  A    between atoms: C7_10  and  C8_11 
REMARK    6  A    between atoms: C8_11  and  S1_12 
REMARK    7  A    between atoms: S1_12  and  C9_13 
REMARK    8  A    between atoms: C9_13  and  N3_15 
REMARK    9  A    between atoms: N3_15  and  C10_17 
ROOT
HETATM    1  C10 UNL     1     -17.543  19.493  -6.567  1.00  0.00     0.186 C 
HETATM    2  C11 UNL     1     -17.501  18.840  -7.933  1.00  0.00     0.048 C 
HETATM    3  C12 UNL     1     -16.305  19.121  -5.888  1.00  0.00     0.084 C 
HETATM    4  N4  UNL     1     -15.310  18.821  -5.365  1.00  0.00    -0.195 NA
ENDROOT
BRANCH   1   5
HETATM    5  N3  UNL     1     -17.582  20.942  -6.751  1.00  0.00    -0.359 N 
ATOM      6  H3  UNL     1     -17.020  21.371  -7.486  1.00  0.00     0.162 HD
BRANCH   5   7
HETATM    7  C9  UNL     1     -18.387  21.753  -5.924  1.00  0.00     0.135 C 
HETATM    8  S2  UNL     1     -19.965  21.901  -6.254  1.00  0.00    -0.053 SA
BRANCH   7   9
HETATM    9  S1  UNL     1     -17.708  22.611  -4.537  1.00  0.00    -0.101 SA
BRANCH   9  10
HETATM   10  C8  UNL     1     -18.768  23.966  -4.002  1.00  0.00     0.083 C 
BRANCH  10  11
HETATM   11  C7  UNL     1     -18.643  24.132  -2.512  1.00  0.00     0.030 C 
BRANCH  11  12
HETATM   12  C6  UNL     1     -17.243  23.713  -2.037  1.00  0.00     0.115 C 
BRANCH  12  13
HETATM   13  N2  UNL     1     -16.901  24.535  -0.941  1.00  0.00    -0.417 N 
ATOM     14  H2  UNL     1     -17.431  25.378  -0.722  1.00  0.00     0.153 HD
BRANCH  13  15
HETATM   15  C5  UNL     1     -15.790  24.138  -0.158  1.00  0.00     0.079 C 
HETATM   16  C4  UNL     1     -16.028  22.897   0.681  1.00  0.00     0.055 C 
HETATM   17  C3  UNL     1     -14.849  22.854   1.654  1.00  0.00     0.274 C 
HETATM   18  N1  UNL     1     -13.593  22.661   0.974  1.00  0.00     0.088 N 
HETATM   19  C14 UNL     1     -13.373  23.588  -0.105  1.00  0.00     0.274 C 
HETATM   20  C13 UNL     1     -14.553  23.820  -0.988  1.00  0.00     0.055 C 
BRANCH  18  21
HETATM   21  C2  UNL     1     -12.566  22.912   1.969  1.00  0.00     0.268 C 
HETATM   22  C1  UNL     1     -11.527  23.895   1.558  1.00  0.00     0.037 C 
ENDBRANCH  18  21
ENDBRANCH  13  15
ENDBRANCH  12  13
ENDBRANCH  11  12
ENDBRANCH  10  11
ENDBRANCH   9  10
ENDBRANCH   7   9
ENDBRANCH   5   7
ENDBRANCH   1   5
TORSDOF 9
ENDMDL
