MODEL 1
REMARK VINA RESULT: -7.141708374      0.000      0.000
REMARK  9 active torsions:
REMARK  status: ('A' for Active; 'I' for Inactive)
REMARK    1  A    between atoms: C2_2  and  C4_4 
REMARK    2  A    between atoms: C4_4  and  C5_5 
REMARK    3  A    between atoms: C5_5  and  C6_6 
REMARK    4  A    between atoms: C7_7  and  C8_8 
REMARK    5  A    between atoms: C8_8  and  C9_9 
REMARK    6  A    between atoms: C10_10  and  O1_11 
REMARK    7  A    between atoms: C12_14  and  C13_15 
REMARK    8  A    between atoms: C14_16  and  C15_17 
REMARK    9  A    between atoms: C19_24  and  O3_25 
ROOT
HETATM    1  C9  UNL     1     -19.749  22.059  -4.761  1.00  0.00     0.046 C 
HETATM    2  C10 UNL     1     -20.829  22.310  -3.792  1.00  0.00     0.125 C 
HETATM    3  C11 UNL     1     -22.117  21.572  -4.074  1.00  0.00     0.040 C 
HETATM    4  C12 UNL     1     -22.504  21.900  -5.501  1.00  0.00     0.013 C 
HETATM    5  C18 UNL     1     -21.492  21.190  -6.362  1.00  0.00     0.040 C 
HETATM    6  C19 UNL     1     -20.140  21.825  -6.177  1.00  0.00     0.125 C 
ENDROOT
BRANCH   1   7
HETATM    7  C8  UNL     1     -18.810  23.280  -4.751  1.00  0.00     0.036 C 
BRANCH   7   8
HETATM    8  C7  UNL     1     -17.642  22.970  -3.923  1.00  0.00    -0.030 C 
HETATM    9  C6  UNL     1     -16.706  22.140  -4.269  1.00  0.00    -0.031 C 
BRANCH   9  10
HETATM   10  C5  UNL     1     -16.671  21.392  -5.523  1.00  0.00     0.027 C 
BRANCH  10  11
HETATM   11  C4  UNL     1     -15.639  20.283  -5.428  1.00  0.00     0.007 C 
BRANCH  11  12
HETATM   12  C2  UNL     1     -16.295  18.979  -5.803  1.00  0.00    -0.023 C 
HETATM   13  C1  UNL     1     -15.284  18.101  -6.553  1.00  0.00     0.009 C 
HETATM   14  C3  UNL     1     -17.487  19.289  -6.683  1.00  0.00     0.009 C 
ENDBRANCH  11  12
ENDBRANCH  10  11
ENDBRANCH   9  10
ENDBRANCH   7   8
ENDBRANCH   1   7
BRANCH   2  15
HETATM   15  O1  UNL     1     -21.168  23.652  -3.612  1.00  0.00    -0.395 OA
ATOM     16  H1  UNL     1     -20.975  24.008  -2.753  1.00  0.00     0.210 HD
ENDBRANCH   2  15
BRANCH   6  17
HETATM   17  O3  UNL     1     -20.136  23.003  -6.928  1.00  0.00    -0.395 OA
ATOM     18  H3  UNL     1     -19.260  23.354  -7.042  1.00  0.00     0.210 HD
ENDBRANCH   6  17
BRANCH   4  19
HETATM   19  C13 UNL     1     -23.894  21.481  -5.803  1.00  0.00    -0.018 C 
HETATM   20  C14 UNL     1     -24.287  20.240  -5.803  1.00  0.00     0.052 C 
BRANCH  20  21
HETATM   21  C15 UNL     1     -25.675  19.914  -6.111  1.00  0.00     0.137 C 
HETATM   22  N1  UNL     1     -26.514  20.687  -6.696  1.00  0.00    -0.369 N 
HETATM   23  C16 UNL     1     -27.769  20.002  -6.813  1.00  0.00     0.148 C 
ATOM     24  H1  UNL     1     -26.321  21.633  -7.024  1.00  0.00     0.161 HD
HETATM   25  C17 UNL     1     -27.684  18.946  -5.737  1.00  0.00     0.197 C 
HETATM   26  O2  UNL     1     -26.270  18.679  -5.791  1.00  0.00    -0.334 OA
ENDBRANCH  20  21
ENDBRANCH   4  19
TORSDOF 9
ENDMDL
MODEL 2
REMARK VINA RESULT: -7.078030966      3.862      8.432
REMARK  9 active torsions:
REMARK  status: ('A' for Active; 'I' for Inactive)
REMARK    1  A    between atoms: C2_2  and  C4_4 
REMARK    2  A    between atoms: C4_4  and  C5_5 
REMARK    3  A    between atoms: C5_5  and  C6_6 
REMARK    4  A    between atoms: C7_7  and  C8_8 
REMARK    5  A    between atoms: C8_8  and  C9_9 
REMARK    6  A    between atoms: C10_10  and  O1_11 
REMARK    7  A    between atoms: C12_14  and  C13_15 
REMARK    8  A    between atoms: C14_16  and  C15_17 
REMARK    9  A    between atoms: C19_24  and  O3_25 
ROOT
HETATM    1  C9  UNL     1     -20.828  22.662  -5.606  1.00  0.00     0.046 C 
HETATM    2  C10 UNL     1     -20.733  22.631  -4.137  1.00  0.00     0.125 C 
HETATM    3  C11 UNL     1     -19.468  23.235  -3.572  1.00  0.00     0.040 C 
HETATM    4  C12 UNL     1     -18.310  22.546  -4.263  1.00  0.00     0.013 C 
HETATM    5  C18 UNL     1     -18.338  23.046  -5.684  1.00  0.00     0.040 C 
HETATM    6  C19 UNL     1     -19.565  22.519  -6.378  1.00  0.00     0.125 C 
ENDROOT
BRANCH   1   7
HETATM    7  C8  UNL     1     -21.754  21.512  -6.045  1.00  0.00     0.036 C 
BRANCH   7   8
HETATM    8  C7  UNL     1     -23.141  21.982  -6.008  1.00  0.00    -0.030 C 
HETATM    9  C6  UNL     1     -24.159  21.223  -5.738  1.00  0.00    -0.031 C 
BRANCH   9  10
HETATM   10  C5  UNL     1     -24.083  19.797  -5.433  1.00  0.00     0.027 C 
BRANCH  10  11
HETATM   11  C4  UNL     1     -24.009  19.599  -3.930  1.00  0.00     0.007 C 
BRANCH  11  12
HETATM   12  C2  UNL     1     -24.951  18.489  -3.542  1.00  0.00    -0.023 C 
HETATM   13  C1  UNL     1     -24.270  17.586  -2.505  1.00  0.00     0.009 C 
HETATM   14  C3  UNL     1     -25.291  17.703  -4.790  1.00  0.00     0.009 C 
ENDBRANCH  11  12
ENDBRANCH  10  11
ENDBRANCH   9  10
ENDBRANCH   7   8
ENDBRANCH   1   7
BRANCH   2  15
HETATM   15  O1  UNL     1     -20.867  21.369  -3.557  1.00  0.00    -0.395 OA
ATOM     16  H1  UNL     1     -21.755  21.036  -3.509  1.00  0.00     0.210 HD
ENDBRANCH   2  15
BRANCH   6  17
HETATM   17  O3  UNL     1     -19.302  21.190  -6.720  1.00  0.00    -0.395 OA
ATOM     18  H3  UNL     1     -18.743  20.759  -6.082  1.00  0.00     0.210 HD
ENDBRANCH   6  17
BRANCH   4  19
HETATM   19  C13 UNL     1     -17.020  22.833  -3.590  1.00  0.00    -0.018 C 
HETATM   20  C14 UNL     1     -16.929  23.402  -2.422  1.00  0.00     0.052 C 
BRANCH  20  21
HETATM   21  C15 UNL     1     -15.618  23.648  -1.831  1.00  0.00     0.137 C 
HETATM   22  N1  UNL     1     -14.496  23.250  -2.304  1.00  0.00    -0.369 N 
HETATM   23  C16 UNL     1     -13.444  23.693  -1.434  1.00  0.00     0.148 C 
ATOM     24  H1  UNL     1     -14.370  22.708  -3.159  1.00  0.00     0.161 HD
HETATM   25  C17 UNL     1     -14.159  23.928  -0.126  1.00  0.00     0.197 C 
HETATM   26  O2  UNL     1     -15.431  24.371  -0.637  1.00  0.00    -0.334 OA
ENDBRANCH  20  21
ENDBRANCH   4  19
TORSDOF 9
ENDMDL
MODEL 3
REMARK VINA RESULT: -7.042858498      7.082     10.885
REMARK  9 active torsions:
REMARK  status: ('A' for Active; 'I' for Inactive)
REMARK    1  A    between atoms: C2_2  and  C4_4 
REMARK    2  A    between atoms: C4_4  and  C5_5 
REMARK    3  A    between atoms: C5_5  and  C6_6 
REMARK    4  A    between atoms: C7_7  and  C8_8 
REMARK    5  A    between atoms: C8_8  and  C9_9 
REMARK    6  A    between atoms: C10_10  and  O1_11 
REMARK    7  A    between atoms: C12_14  and  C13_15 
REMARK    8  A    between atoms: C14_16  and  C15_17 
REMARK    9  A    between atoms: C19_24  and  O3_25 
ROOT
HETATM    1  C9  UNL     1     -15.614  23.903  -1.901  1.00  0.00     0.046 C 
HETATM    2  C10 UNL     1     -16.216  23.562  -0.601  1.00  0.00     0.125 C 
HETATM    3  C11 UNL     1     -15.383  23.943   0.601  1.00  0.00     0.040 C 
HETATM    4  C12 UNL     1     -14.014  23.328   0.395  1.00  0.00     0.013 C 
HETATM    5  C18 UNL     1     -13.391  24.111  -0.731  1.00  0.00     0.040 C 
HETATM    6  C19 UNL     1     -14.132  23.830  -2.010  1.00  0.00     0.125 C 
ENDROOT
BRANCH   1   7
HETATM    7  C8  UNL     1     -16.189  22.938  -2.955  1.00  0.00     0.036 C 
BRANCH   7   8
HETATM    8  C7  UNL     1     -17.542  23.377  -3.308  1.00  0.00    -0.030 C 
HETATM    9  C6  UNL     1     -18.143  23.059  -4.414  1.00  0.00    -0.031 C 
BRANCH   9  10
HETATM   10  C5  UNL     1     -17.573  22.225  -5.468  1.00  0.00     0.027 C 
BRANCH  10  11
HETATM   11  C4  UNL     1     -18.470  21.025  -5.711  1.00  0.00     0.007 C 
BRANCH  11  12
HETATM   12  C2  UNL     1     -17.604  19.806  -5.901  1.00  0.00    -0.023 C 
HETATM   13  C1  UNL     1     -16.128  20.212  -5.796  1.00  0.00     0.009 C 
HETATM   14  C3  UNL     1     -17.900  19.228  -7.269  1.00  0.00     0.009 C 
ENDBRANCH  11  12
ENDBRANCH  10  11
ENDBRANCH   9  10
ENDBRANCH   7   8
ENDBRANCH   1   7
BRANCH   2  15
HETATM   15  O1  UNL     1     -16.564  22.221  -0.437  1.00  0.00    -0.395 OA
ATOM     16  H1  UNL     1     -16.744  21.954   0.456  1.00  0.00     0.210 HD
ENDBRANCH   2  15
BRANCH   6  17
HETATM   17  O3  UNL     1     -13.697  22.584  -2.469  1.00  0.00    -0.395 OA
ATOM     18  H3  UNL     1     -12.753  22.490  -2.411  1.00  0.00     0.210 HD
ENDBRANCH   6  17
BRANCH   4  19
HETATM   19  C13 UNL     1     -13.199  23.376   1.633  1.00  0.00    -0.018 C 
HETATM   20  C14 UNL     1     -12.820  22.315   2.286  1.00  0.00     0.052 C 
BRANCH  20  21
HETATM   21  C15 UNL     1     -12.018  22.451   3.497  1.00  0.00     0.137 C 
HETATM   22  N1  UNL     1     -11.923  21.584   4.435  1.00  0.00    -0.369 N 
HETATM   23  C16 UNL     1     -11.040  22.091   5.447  1.00  0.00     0.148 C 
ATOM     24  H1  UNL     1     -12.396  20.680   4.459  1.00  0.00     0.161 HD
HETATM   25  C17 UNL     1     -11.075  23.583   5.213  1.00  0.00     0.197 C 
HETATM   26  O2  UNL     1     -11.235  23.586   3.782  1.00  0.00    -0.334 OA
ENDBRANCH  20  21
ENDBRANCH   4  19
TORSDOF 9
ENDMDL
MODEL 4
REMARK VINA RESULT: -7.012398885      3.960      8.626
REMARK  9 active torsions:
REMARK  status: ('A' for Active; 'I' for Inactive)
REMARK    1  A    between atoms: C2_2  and  C4_4 
REMARK    2  A    between atoms: C4_4  and  C5_5 
REMARK    3  A    between atoms: C5_5  and  C6_6 
REMARK    4  A    between atoms: C7_7  and  C8_8 
REMARK    5  A    between atoms: C8_8  and  C9_9 
REMARK    6  A    between atoms: C10_10  and  O1_11 
REMARK    7  A    between atoms: C12_14  and  C13_15 
REMARK    8  A    between atoms: C14_16  and  C15_17 
REMARK    9  A    between atoms: C19_24  and  O3_25 
ROOT
HETATM    1  C9  UNL     1     -19.701  22.468  -5.939  1.00  0.00     0.046 C 
HETATM    2  C10 UNL     1     -19.812  23.108  -4.618  1.00  0.00     0.125 C 
HETATM    3  C11 UNL     1     -18.503  23.596  -4.039  1.00  0.00     0.040 C 
HETATM    4  C12 UNL     1     -17.553  22.417  -4.056  1.00  0.00     0.013 C 
HETATM    5  C18 UNL     1     -17.233  22.184  -5.510  1.00  0.00     0.040 C 
HETATM    6  C19 UNL     1     -18.463  21.692  -6.224  1.00  0.00     0.125 C 
ENDROOT
BRANCH   1   7
HETATM    7  C8  UNL     1     -20.885  21.496  -6.094  1.00  0.00     0.036 C 
BRANCH   7   8
HETATM    8  C7  UNL     1     -22.092  22.267  -6.404  1.00  0.00    -0.030 C 
HETATM    9  C6  UNL     1     -23.265  22.010  -5.911  1.00  0.00    -0.031 C 
BRANCH   9  10
HETATM   10  C5  UNL     1     -23.564  20.922  -4.983  1.00  0.00     0.027 C 
BRANCH  10  11
HETATM   11  C4  UNL     1     -24.377  19.855  -5.692  1.00  0.00     0.007 C 
BRANCH  11  12
HETATM   12  C2  UNL     1     -25.014  18.966  -4.656  1.00  0.00    -0.023 C 
HETATM   13  C1  UNL     1     -24.034  18.761  -3.492  1.00  0.00     0.009 C 
HETATM   14  C3  UNL     1     -25.345  17.642  -5.312  1.00  0.00     0.009 C 
ENDBRANCH  11  12
ENDBRANCH  10  11
ENDBRANCH   9  10
ENDBRANCH   7   8
ENDBRANCH   1   7
BRANCH   2  15
HETATM   15  O1  UNL     1     -20.422  22.335  -3.630  1.00  0.00    -0.395 OA
ATOM     16  H1  UNL     1     -19.957  22.293  -2.802  1.00  0.00     0.210 HD
ENDBRANCH   2  15
BRANCH   6  17
HETATM   17  O3  UNL     1     -18.605  20.338  -5.909  1.00  0.00    -0.395 OA
ATOM     18  H3  UNL     1     -18.023  19.788  -6.421  1.00  0.00     0.210 HD
ENDBRANCH   6  17
BRANCH   4  19
HETATM   19  C13 UNL     1     -16.338  22.680  -3.248  1.00  0.00    -0.018 C 
HETATM   20  C14 UNL     1     -16.354  23.316  -2.111  1.00  0.00     0.052 C 
BRANCH  20  21
HETATM   21  C15 UNL     1     -15.111  23.531  -1.379  1.00  0.00     0.137 C 
HETATM   22  N1  UNL     1     -14.001  23.925  -1.885  1.00  0.00    -0.369 N 
HETATM   23  C16 UNL     1     -13.022  24.013  -0.839  1.00  0.00     0.148 C 
ATOM     24  H1  UNL     1     -13.840  24.141  -2.868  1.00  0.00     0.161 HD
HETATM   25  C17 UNL     1     -13.578  23.100   0.228  1.00  0.00     0.197 C 
HETATM   26  O2  UNL     1     -14.985  23.324   0.008  1.00  0.00    -0.334 OA
ENDBRANCH  20  21
ENDBRANCH   4  19
TORSDOF 9
ENDMDL
MODEL 5
REMARK VINA RESULT: -6.904497593      3.197      3.718
REMARK  9 active torsions:
REMARK  status: ('A' for Active; 'I' for Inactive)
REMARK    1  A    between atoms: C2_2  and  C4_4 
REMARK    2  A    between atoms: C4_4  and  C5_5 
REMARK    3  A    between atoms: C5_5  and  C6_6 
REMARK    4  A    between atoms: C7_7  and  C8_8 
REMARK    5  A    between atoms: C8_8  and  C9_9 
REMARK    6  A    between atoms: C10_10  and  O1_11 
REMARK    7  A    between atoms: C12_14  and  C13_15 
REMARK    8  A    between atoms: C14_16  and  C15_17 
REMARK    9  A    between atoms: C19_24  and  O3_25 
ROOT
HETATM    1  C9  UNL     1     -20.096  23.411  -5.188  1.00  0.00     0.046 C 
HETATM    2  C10 UNL     1     -20.513  24.823  -5.170  1.00  0.00     0.125 C 
HETATM    3  C11 UNL     1     -22.004  25.043  -5.281  1.00  0.00     0.040 C 
HETATM    4  C12 UNL     1     -22.464  24.298  -6.517  1.00  0.00     0.013 C 
HETATM    5  C18 UNL     1     -22.347  22.837  -6.168  1.00  0.00     0.040 C 
HETATM    6  C19 UNL     1     -20.894  22.471  -6.020  1.00  0.00     0.125 C 
ENDROOT
BRANCH   1   7
HETATM    7  C8  UNL     1     -18.648  23.352  -5.711  1.00  0.00     0.036 C 
BRANCH   7   8
HETATM    8  C7  UNL     1     -17.782  22.841  -4.645  1.00  0.00    -0.030 C 
HETATM    9  C6  UNL     1     -17.042  21.780  -4.756  1.00  0.00    -0.031 C 
BRANCH   9  10
HETATM   10  C5  UNL     1     -16.957  20.939  -5.947  1.00  0.00     0.027 C 
BRANCH  10  11
HETATM   11  C4  UNL     1     -17.963  19.807  -5.846  1.00  0.00     0.007 C 
BRANCH  11  12
HETATM   12  C2  UNL     1     -17.465  18.644  -6.663  1.00  0.00    -0.023 C 
HETATM   13  C1  UNL     1     -15.996  18.370  -6.311  1.00  0.00     0.009 C 
HETATM   14  C3  UNL     1     -17.603  19.004  -8.127  1.00  0.00     0.009 C 
ENDBRANCH  11  12
ENDBRANCH  10  11
ENDBRANCH   9  10
ENDBRANCH   7   8
ENDBRANCH   1   7
BRANCH   2  15
HETATM   15  O1  UNL     1     -19.916  25.634  -6.136  1.00  0.00    -0.395 OA
ATOM     16  H1  UNL     1     -18.984  25.497  -6.262  1.00  0.00     0.210 HD
ENDBRANCH   2  15
BRANCH   6  17
HETATM   17  O3  UNL     1     -20.374  22.333  -7.309  1.00  0.00    -0.395 OA
ATOM     18  H3  UNL     1     -20.644  23.041  -7.883  1.00  0.00     0.210 HD
ENDBRANCH   6  17
BRANCH   4  19
HETATM   19  C13 UNL     1     -23.845  24.676  -6.903  1.00  0.00    -0.018 C 
HETATM   20  C14 UNL     1     -24.653  25.340  -6.128  1.00  0.00     0.052 C 
BRANCH  20  21
HETATM   21  C15 UNL     1     -25.997  25.671  -6.587  1.00  0.00     0.137 C 
HETATM   22  N1  UNL     1     -26.902  24.830  -6.928  1.00  0.00    -0.369 N 
HETATM   23  C16 UNL     1     -28.080  25.550  -7.319  1.00  0.00     0.148 C 
ATOM     24  H1  UNL     1     -26.801  23.815  -6.922  1.00  0.00     0.161 HD
HETATM   25  C17 UNL     1     -27.544  26.917  -7.669  1.00  0.00     0.197 C 
HETATM   26  O2  UNL     1     -26.468  26.992  -6.714  1.00  0.00    -0.334 OA
ENDBRANCH  20  21
ENDBRANCH   4  19
TORSDOF 9
ENDMDL
