MODEL 1
REMARK VINA RESULT: -7.376496137      0.000      0.000
REMARK  7 active torsions:
REMARK  status: ('A' for Active; 'I' for Inactive)
REMARK    1  A    between atoms: C2_2  and  C3_3 
REMARK    2  A    between atoms: C3_3  and  N1_4 
REMARK    3  A    between atoms: C3_3  and  C10_12 
REMARK    4  A    between atoms: N1_4  and  C4_6 
REMARK       I    between atoms: C10_12  and  N2_14 
REMARK    5  A    between atoms: N2_14  and  N3_16 
REMARK    6  A    between atoms: C11_18  and  C12_19 
REMARK    7  A    between atoms: C13_20  and  C14_21 
ROOT
HETATM    1  C10 UNL     1     -18.041  23.100  -4.358  1.00  0.00     0.258 C 
HETATM    2  O1  UNL     1     -18.906  23.888  -3.850  1.00  0.00    -0.269 OA
HETATM    3  N2  UNL     1     -16.903  22.803  -3.509  1.00  0.00    -0.269 N 
ATOM      4  H2  UNL     1     -16.168  22.171  -3.827  1.00  0.00     0.190 HD
ENDROOT
BRANCH   1   5
HETATM    5  C3  UNL     1     -18.202  22.542  -5.700  1.00  0.00     0.171 C 
BRANCH   5   6
HETATM    6  C2  UNL     1     -19.437  23.226  -6.338  1.00  0.00     0.030 C 
HETATM    7  C1  UNL     1     -20.556  22.246  -6.487  1.00  0.00     0.007 C 
ENDBRANCH   5   6
BRANCH   5   8
HETATM    8  N1  UNL     1     -18.326  21.146  -5.797  1.00  0.00    -0.405 N 
ATOM      9  H1  UNL     1     -18.972  20.677  -5.162  1.00  0.00     0.154 HD
BRANCH   8  10
HETATM   10  C4  UNL     1     -17.623  20.367  -6.705  1.00  0.00     0.077 C 
HETATM   11  C5  UNL     1     -17.836  18.876  -6.342  1.00  0.00     0.024 C 
HETATM   12  C6  UNL     1     -16.676  18.027  -6.796  1.00  0.00     0.002 C 
HETATM   13  C7  UNL     1     -15.549  18.273  -5.792  1.00  0.00     0.000 C 
HETATM   14  C8  UNL     1     -15.582  19.764  -5.472  1.00  0.00     0.002 C 
HETATM   15  C9  UNL     1     -16.102  20.577  -6.633  1.00  0.00     0.024 C 
ENDBRANCH   8  10
ENDBRANCH   5   8
ENDBRANCH   1   5
BRANCH   3  16
HETATM   16  N3  UNL     1     -16.833  23.386  -2.277  1.00  0.00    -0.309 N 
HETATM   17  C11 UNL     1     -15.806  23.685  -1.622  1.00  0.00     0.107 C 
ATOM     18  H3  UNL     1     -17.725  23.605  -1.834  1.00  0.00     0.186 HD
BRANCH  17  19
HETATM   19  C12 UNL     1     -14.434  23.493  -1.976  1.00  0.00     0.021 C 
HETATM   20  C13 UNL     1     -13.425  23.526  -1.200  1.00  0.00     0.038 C 
BRANCH  20  21
HETATM   21  C14 UNL     1     -13.431  23.768   0.237  1.00  0.00     0.073 A 
HETATM   22  N4  UNL     1     -13.424  24.835   0.981  1.00  0.00    -0.360 N 
HETATM   23  C15 UNL     1     -13.441  24.789   2.268  1.00  0.00     0.096 A 
ATOM     24  H4  UNL     1     -13.404  25.748   0.526  1.00  0.00     0.166 HD
HETATM   25  C16 UNL     1     -13.468  23.546   2.852  1.00  0.00     0.068 A 
HETATM   26  S1  UNL     1     -13.467  22.532   1.477  1.00  0.00    -0.083 SA
ENDBRANCH  20  21
ENDBRANCH  17  19
ENDBRANCH   3  16
TORSDOF 7
ENDMDL
MODEL 2
REMARK VINA RESULT: -7.323072557      0.882      1.012
REMARK  7 active torsions:
REMARK  status: ('A' for Active; 'I' for Inactive)
REMARK    1  A    between atoms: C2_2  and  C3_3 
REMARK    2  A    between atoms: C3_3  and  N1_4 
REMARK    3  A    between atoms: C3_3  and  C10_12 
REMARK    4  A    between atoms: N1_4  and  C4_6 
REMARK       I    between atoms: C10_12  and  N2_14 
REMARK    5  A    between atoms: N2_14  and  N3_16 
REMARK    6  A    between atoms: C11_18  and  C12_19 
REMARK    7  A    between atoms: C13_20  and  C14_21 
ROOT
HETATM    1  C10 UNL     1     -17.890  23.526  -3.567  1.00  0.00     0.258 C 
HETATM    2  O1  UNL     1     -18.662  24.382  -3.021  1.00  0.00    -0.269 OA
HETATM    3  N2  UNL     1     -16.740  23.136  -2.772  1.00  0.00    -0.269 N 
ATOM      4  H2  UNL     1     -16.076  22.447  -3.122  1.00  0.00     0.190 HD
ENDROOT
BRANCH   1   5
HETATM    5  C3  UNL     1     -18.158  22.985  -4.899  1.00  0.00     0.171 C 
BRANCH   5   6
HETATM    6  C2  UNL     1     -19.662  23.215  -5.195  1.00  0.00     0.030 C 
HETATM    7  C1  UNL     1     -19.833  23.933  -6.495  1.00  0.00     0.007 C 
ENDBRANCH   5   6
BRANCH   5   8
HETATM    8  N1  UNL     1     -17.830  21.636  -5.114  1.00  0.00    -0.405 N 
ATOM      9  H1  UNL     1     -17.959  20.982  -4.342  1.00  0.00     0.154 HD
BRANCH   8  10
HETATM   10  C4  UNL     1     -17.340  21.140  -6.314  1.00  0.00     0.077 C 
HETATM   11  C5  UNL     1     -18.276  20.001  -6.792  1.00  0.00     0.024 C 
HETATM   12  C6  UNL     1     -17.539  19.010  -7.656  1.00  0.00     0.002 C 
HETATM   13  C7  UNL     1     -16.713  18.144  -6.703  1.00  0.00     0.000 C 
HETATM   14  C8  UNL     1     -16.162  19.089  -5.640  1.00  0.00     0.002 C 
HETATM   15  C9  UNL     1     -15.957  20.484  -6.179  1.00  0.00     0.024 C 
ENDBRANCH   8  10
ENDBRANCH   5   8
ENDBRANCH   1   5
BRANCH   3  16
HETATM   16  N3  UNL     1     -16.565  23.710  -1.546  1.00  0.00    -0.309 N 
HETATM   17  C11 UNL     1     -15.489  24.053  -1.002  1.00  0.00     0.107 C 
ATOM     18  H3  UNL     1     -17.414  23.880  -1.006  1.00  0.00     0.186 HD
BRANCH  17  19
HETATM   19  C12 UNL     1     -14.156  23.933  -1.505  1.00  0.00     0.021 C 
HETATM   20  C13 UNL     1     -13.083  23.822  -0.828  1.00  0.00     0.038 C 
BRANCH  20  21
HETATM   21  C14 UNL     1     -12.961  23.791   0.624  1.00  0.00     0.073 A 
HETATM   22  N4  UNL     1     -12.605  24.657   1.527  1.00  0.00    -0.360 N 
HETATM   23  C15 UNL     1     -12.585  24.386   2.786  1.00  0.00     0.096 A 
ATOM     24  H4  UNL     1     -12.331  25.593   1.225  1.00  0.00     0.166 HD
HETATM   25  C16 UNL     1     -12.961  23.119   3.161  1.00  0.00     0.068 A 
HETATM   26  S1  UNL     1     -13.317  22.415   1.646  1.00  0.00    -0.083 SA
ENDBRANCH  20  21
ENDBRANCH  17  19
ENDBRANCH   3  16
TORSDOF 7
ENDMDL
MODEL 3
REMARK VINA RESULT: -7.062978677      0.788      1.254
REMARK  7 active torsions:
REMARK  status: ('A' for Active; 'I' for Inactive)
REMARK    1  A    between atoms: C2_2  and  C3_3 
REMARK    2  A    between atoms: C3_3  and  N1_4 
REMARK    3  A    between atoms: C3_3  and  C10_12 
REMARK    4  A    between atoms: N1_4  and  C4_6 
REMARK       I    between atoms: C10_12  and  N2_14 
REMARK    5  A    between atoms: N2_14  and  N3_16 
REMARK    6  A    between atoms: C11_18  and  C12_19 
REMARK    7  A    between atoms: C13_20  and  C14_21 
ROOT
HETATM    1  C10 UNL     1     -18.315  22.986  -4.331  1.00  0.00     0.258 C 
HETATM    2  O1  UNL     1     -19.288  22.696  -3.559  1.00  0.00    -0.269 OA
HETATM    3  N2  UNL     1     -17.082  23.352  -3.660  1.00  0.00    -0.269 N 
ATOM      4  H2  UNL     1     -16.247  23.586  -4.197  1.00  0.00     0.190 HD
ENDROOT
BRANCH   1   5
HETATM    5  C3  UNL     1     -18.448  22.946  -5.787  1.00  0.00     0.171 C 
BRANCH   5   6
HETATM    6  C2  UNL     1     -19.960  23.045  -6.114  1.00  0.00     0.030 C 
HETATM    7  C1  UNL     1     -20.358  24.473  -6.309  1.00  0.00     0.007 C 
ENDBRANCH   5   6
BRANCH   5   8
HETATM    8  N1  UNL     1     -17.889  21.837  -6.445  1.00  0.00    -0.405 N 
ATOM      9  H1  UNL     1     -17.624  21.945  -7.425  1.00  0.00     0.154 HD
BRANCH   8  10
HETATM   10  C4  UNL     1     -17.675  20.605  -5.844  1.00  0.00     0.077 C 
HETATM   11  C5  UNL     1     -16.150  20.408  -5.656  1.00  0.00     0.024 C 
HETATM   12  C6  UNL     1     -15.782  18.947  -5.640  1.00  0.00     0.002 C 
HETATM   13  C7  UNL     1     -15.821  18.481  -7.097  1.00  0.00     0.000 C 
HETATM   14  C8  UNL     1     -17.033  19.160  -7.727  1.00  0.00     0.002 C 
HETATM   15  C9  UNL     1     -18.122  19.420  -6.715  1.00  0.00     0.024 C 
ENDBRANCH   8  10
ENDBRANCH   5   8
ENDBRANCH   1   5
BRANCH   3  16
HETATM   16  N3  UNL     1     -17.061  23.378  -2.296  1.00  0.00    -0.309 N 
HETATM   17  C11 UNL     1     -16.063  23.474  -1.542  1.00  0.00     0.107 C 
ATOM     18  H3  UNL     1     -17.967  23.311  -1.832  1.00  0.00     0.186 HD
BRANCH  17  19
HETATM   19  C12 UNL     1     -14.682  23.573  -1.897  1.00  0.00     0.021 C 
HETATM   20  C13 UNL     1     -13.701  23.816  -1.122  1.00  0.00     0.038 C 
BRANCH  20  21
HETATM   21  C14 UNL     1     -13.756  24.051   0.315  1.00  0.00     0.073 A 
HETATM   22  N4  UNL     1     -13.921  25.105   1.060  1.00  0.00    -0.360 N 
HETATM   23  C15 UNL     1     -13.941  25.054   2.347  1.00  0.00     0.096 A 
ATOM     24  H4  UNL     1     -14.040  26.011   0.606  1.00  0.00     0.166 HD
HETATM   25  C16 UNL     1     -13.779  23.821   2.930  1.00  0.00     0.068 A 
HETATM   26  S1  UNL     1     -13.609  22.822   1.554  1.00  0.00    -0.083 SA
ENDBRANCH  20  21
ENDBRANCH  17  19
ENDBRANCH   3  16
TORSDOF 7
ENDMDL
MODEL 4
REMARK VINA RESULT: -6.945873601      5.721      9.553
REMARK  7 active torsions:
REMARK  status: ('A' for Active; 'I' for Inactive)
REMARK    1  A    between atoms: C2_2  and  C3_3 
REMARK    2  A    between atoms: C3_3  and  N1_4 
REMARK    3  A    between atoms: C3_3  and  C10_12 
REMARK    4  A    between atoms: N1_4  and  C4_6 
REMARK       I    between atoms: C10_12  and  N2_14 
REMARK    5  A    between atoms: N2_14  and  N3_16 
REMARK    6  A    between atoms: C11_18  and  C12_19 
REMARK    7  A    between atoms: C13_20  and  C14_21 
ROOT
HETATM    1  C10 UNL     1     -20.805  22.008  -5.757  1.00  0.00     0.258 C 
HETATM    2  O1  UNL     1     -20.890  22.366  -6.978  1.00  0.00    -0.269 OA
HETATM    3  N2  UNL     1     -22.046  21.549  -5.161  1.00  0.00    -0.269 N 
ATOM      4  H2  UNL     1     -22.070  21.230  -4.192  1.00  0.00     0.190 HD
ENDROOT
BRANCH   1   5
HETATM    5  C3  UNL     1     -19.541  22.062  -5.024  1.00  0.00     0.171 C 
BRANCH   5   6
HETATM    6  C2  UNL     1     -18.851  23.400  -5.393  1.00  0.00     0.030 C 
HETATM    7  C1  UNL     1     -19.421  24.521  -4.583  1.00  0.00     0.007 C 
ENDBRANCH   5   6
BRANCH   5   8
HETATM    8  N1  UNL     1     -18.648  20.995  -5.218  1.00  0.00    -0.405 N 
ATOM      9  H1  UNL     1     -18.598  20.274  -4.498  1.00  0.00     0.154 HD
BRANCH   8  10
HETATM   10  C4  UNL     1     -17.829  20.863  -6.332  1.00  0.00     0.077 C 
HETATM   11  C5  UNL     1     -18.146  19.508  -7.015  1.00  0.00     0.024 C 
HETATM   12  C6  UNL     1     -16.953  18.984  -7.774  1.00  0.00     0.002 C 
HETATM   13  C7  UNL     1     -16.000  18.410  -6.725  1.00  0.00     0.000 C 
HETATM   14  C8  UNL     1     -16.038  19.373  -5.543  1.00  0.00     0.002 C 
HETATM   15  C9  UNL     1     -16.336  20.788  -5.979  1.00  0.00     0.024 C 
ENDBRANCH   8  10
ENDBRANCH   5   8
ENDBRANCH   1   5
BRANCH   3  16
HETATM   16  N3  UNL     1     -23.179  21.551  -5.921  1.00  0.00    -0.309 N 
HETATM   17  C11 UNL     1     -24.124  20.727  -5.899  1.00  0.00     0.107 C 
ATOM     18  H3  UNL     1     -23.269  22.317  -6.589  1.00  0.00     0.186 HD
BRANCH  17  19
HETATM   19  C12 UNL     1     -24.273  19.561  -5.085  1.00  0.00     0.021 C 
HETATM   20  C13 UNL     1     -25.258  18.754  -5.067  1.00  0.00     0.038 C 
BRANCH  20  21
HETATM   21  C14 UNL     1     -26.469  18.829  -5.874  1.00  0.00     0.073 A 
HETATM   22  N4  UNL     1     -26.757  18.553  -7.112  1.00  0.00    -0.360 N 
HETATM   23  C15 UNL     1     -27.938  18.701  -7.605  1.00  0.00     0.096 A 
ATOM     24  H4  UNL     1     -26.015  18.204  -7.720  1.00  0.00     0.166 HD
HETATM   25  C16 UNL     1     -28.915  19.171  -6.762  1.00  0.00     0.068 A 
HETATM   26  S1  UNL     1     -28.038  19.365  -5.309  1.00  0.00    -0.083 SA
ENDBRANCH  20  21
ENDBRANCH  17  19
ENDBRANCH   3  16
TORSDOF 7
ENDMDL
MODEL 5
REMARK VINA RESULT: -6.933382253      1.156      1.624
REMARK  7 active torsions:
REMARK  status: ('A' for Active; 'I' for Inactive)
REMARK    1  A    between atoms: C2_2  and  C3_3 
REMARK    2  A    between atoms: C3_3  and  N1_4 
REMARK    3  A    between atoms: C3_3  and  C10_12 
REMARK    4  A    between atoms: N1_4  and  C4_6 
REMARK       I    between atoms: C10_12  and  N2_14 
REMARK    5  A    between atoms: N2_14  and  N3_16 
REMARK    6  A    between atoms: C11_18  and  C12_19 
REMARK    7  A    between atoms: C13_20  and  C14_21 
ROOT
HETATM    1  C10 UNL     1     -19.105  22.549  -4.615  1.00  0.00     0.258 C 
HETATM    2  O1  UNL     1     -19.924  22.144  -3.726  1.00  0.00    -0.269 OA
HETATM    3  N2  UNL     1     -18.041  23.407  -4.128  1.00  0.00    -0.269 N 
ATOM      4  H2  UNL     1     -17.331  23.768  -4.766  1.00  0.00     0.190 HD
ENDROOT
BRANCH   1   5
HETATM    5  C3  UNL     1     -19.241  22.167  -6.020  1.00  0.00     0.171 C 
BRANCH   5   6
HETATM    6  C2  UNL     1     -20.684  21.635  -6.215  1.00  0.00     0.030 C 
HETATM    7  C1  UNL     1     -21.608  22.756  -6.569  1.00  0.00     0.007 C 
ENDBRANCH   5   6
BRANCH   5   8
HETATM    8  N1  UNL     1     -18.316  21.233  -6.516  1.00  0.00    -0.405 N 
ATOM      9  H1  UNL     1     -18.073  21.279  -7.506  1.00  0.00     0.154 HD
BRANCH   8  10
HETATM   10  C4  UNL     1     -17.714  20.252  -5.741  1.00  0.00     0.077 C 
HETATM   11  C5  UNL     1     -16.185  20.506  -5.730  1.00  0.00     0.024 C 
HETATM   12  C6  UNL     1     -15.417  19.228  -5.506  1.00  0.00     0.002 C 
HETATM   13  C7  UNL     1     -15.441  18.478  -6.839  1.00  0.00     0.000 C 
HETATM   14  C8  UNL     1     -16.842  18.669  -7.410  1.00  0.00     0.002 C 
HETATM   15  C9  UNL     1     -17.874  18.838  -6.322  1.00  0.00     0.024 C 
ENDBRANCH   8  10
ENDBRANCH   5   8
ENDBRANCH   1   5
BRANCH   3  16
HETATM   16  N3  UNL     1     -18.007  23.723  -2.801  1.00  0.00    -0.309 N 
HETATM   17  C11 UNL     1     -17.020  23.702  -2.028  1.00  0.00     0.107 C 
ATOM     18  H3  UNL     1     -18.894  24.010  -2.387  1.00  0.00     0.186 HD
BRANCH  17  19
HETATM   19  C12 UNL     1     -15.668  23.337  -2.316  1.00  0.00     0.021 C 
HETATM   20  C13 UNL     1     -14.648  23.502  -1.571  1.00  0.00     0.038 C 
BRANCH  20  21
HETATM   21  C14 UNL     1     -14.620  24.104  -0.244  1.00  0.00     0.073 A 
HETATM   22  N4  UNL     1     -14.645  25.326   0.203  1.00  0.00    -0.360 N 
HETATM   23  C15 UNL     1     -14.617  25.611   1.458  1.00  0.00     0.096 A 
ATOM     24  H4  UNL     1     -14.689  26.091  -0.470  1.00  0.00     0.166 HD
HETATM   25  C16 UNL     1     -14.559  24.559   2.340  1.00  0.00     0.068 A 
HETATM   26  S1  UNL     1     -14.549  23.227   1.270  1.00  0.00    -0.083 SA
ENDBRANCH  20  21
ENDBRANCH  17  19
ENDBRANCH   3  16
TORSDOF 7
ENDMDL
