MODEL 1
REMARK VINA RESULT: -6.450010114      0.000      0.000
REMARK  9 active torsions:
REMARK  status: ('A' for Active; 'I' for Inactive)
REMARK    1  A    between atoms: C2_2  and  C3_3 
REMARK    2  A    between atoms: C3_3  and  N1_4 
REMARK    3  A    between atoms: C4_5  and  O1_6 
REMARK    4  A    between atoms: C5_8  and  O2_9 
REMARK    5  A    between atoms: C6_11  and  O3_12 
REMARK    6  A    between atoms: O3_12  and  C7_13 
REMARK    7  A    between atoms: C7_13  and  C8_14 
REMARK    8  A    between atoms: C8_14  and  C9_15 
REMARK    9  A    between atoms: C15_22  and  C16_23 
ROOT
HETATM    1  N1  UNL     1     -21.247  25.703  -4.627  1.00  0.00    -0.323 N 
HETATM    2  C4  UNL     1     -22.189  25.660  -5.625  1.00  0.00     0.180 A 
HETATM    3  C5  UNL     1     -21.830  24.695  -6.523  1.00  0.00     0.153 A 
HETATM    4  C6  UNL     1     -20.670  24.124  -6.104  1.00  0.00     0.129 A 
HETATM    5  C15 UNL     1     -20.325  24.792  -4.891  1.00  0.00     0.054 A 
ENDROOT
BRANCH   4   6
HETATM    6  O3  UNL     1     -19.996  23.113  -6.744  1.00  0.00    -0.346 OA
BRANCH   6   7
HETATM    7  C7  UNL     1     -20.326  21.745  -6.629  1.00  0.00     0.176 C 
BRANCH   7   8
HETATM    8  C8  UNL     1     -19.317  21.091  -5.726  1.00  0.00     0.031 C 
BRANCH   8   9
HETATM    9  C9  UNL     1     -17.996  21.005  -6.410  1.00  0.00    -0.009 C 
HETATM   10  C10 UNL     1     -16.883  21.192  -5.386  1.00  0.00     0.035 C 
HETATM   11  C11 UNL     1     -15.691  20.339  -5.691  1.00  0.00     0.272 C 
HETATM   12  N2  UNL     1     -16.003  18.923  -5.689  1.00  0.00     0.084 N 
HETATM   13  C12 UNL     1     -15.135  18.275  -6.651  1.00  0.00     0.309 C 
HETATM   14  C13 UNL     1     -17.389  18.677  -6.051  1.00  0.00     0.272 C 
HETATM   15  C14 UNL     1     -17.807  19.681  -7.107  1.00  0.00     0.035 C 
ENDBRANCH   8   9
ENDBRANCH   7   8
ENDBRANCH   6   7
ENDBRANCH   4   6
BRANCH   3  16
HETATM   16  O2  UNL     1     -22.540  24.346  -7.689  1.00  0.00    -0.354 OA
ATOM     17  H2  UNL     1     -22.600  23.476  -8.065  1.00  0.00     0.218 HD
ENDBRANCH   3  16
BRANCH   5  18
HETATM   18  C16 UNL     1     -19.088  24.350  -4.222  1.00  0.00     0.039 A 
HETATM   19  C17 UNL     1     -18.746  24.616  -2.777  1.00  0.00     0.011 A 
HETATM   20  C18 UNL     1     -19.153  23.250  -3.208  1.00  0.00     0.011 A 
ENDBRANCH   5  18
BRANCH   2  21
HETATM   21  O1  UNL     1     -23.298  26.482  -5.666  1.00  0.00    -0.344 OA
ATOM     22  H1  UNL     1     -23.889  26.606  -4.932  1.00  0.00     0.219 HD
ENDBRANCH   2  21
BRANCH   1  23
HETATM   23  C3  UNL     1     -21.338  26.622  -3.497  1.00  0.00     0.157 C 
BRANCH  23  24
HETATM   24  C2  UNL     1     -20.531  27.828  -3.683  1.00  0.00    -0.017 C 
HETATM   25  C1  UNL     1     -19.591  28.192  -2.833  1.00  0.00     0.008 C 
ENDBRANCH  23  24
ENDBRANCH   1  23
TORSDOF 9
ENDMDL
MODEL 2
REMARK VINA RESULT: -6.432710395      2.333      3.858
REMARK  9 active torsions:
REMARK  status: ('A' for Active; 'I' for Inactive)
REMARK    1  A    between atoms: C2_2  and  C3_3 
REMARK    2  A    between atoms: C3_3  and  N1_4 
REMARK    3  A    between atoms: C4_5  and  O1_6 
REMARK    4  A    between atoms: C5_8  and  O2_9 
REMARK    5  A    between atoms: C6_11  and  O3_12 
REMARK    6  A    between atoms: O3_12  and  C7_13 
REMARK    7  A    between atoms: C7_13  and  C8_14 
REMARK    8  A    between atoms: C8_14  and  C9_15 
REMARK    9  A    between atoms: C15_22  and  C16_23 
ROOT
HETATM    1  N1  UNL     1     -22.658  23.085  -5.217  1.00  0.00    -0.323 N 
HETATM    2  C4  UNL     1     -22.122  23.925  -6.161  1.00  0.00     0.180 A 
HETATM    3  C5  UNL     1     -21.024  24.537  -5.627  1.00  0.00     0.153 A 
HETATM    4  C6  UNL     1     -20.857  24.093  -4.354  1.00  0.00     0.129 A 
HETATM    5  C15 UNL     1     -21.918  23.167  -4.124  1.00  0.00     0.054 A 
ENDROOT
BRANCH   4   6
HETATM    6  O3  UNL     1     -19.858  24.479  -3.493  1.00  0.00    -0.346 OA
BRANCH   6   7
HETATM    7  C7  UNL     1     -18.495  24.151  -3.665  1.00  0.00     0.176 C 
BRANCH   7   8
HETATM    8  C8  UNL     1     -18.394  22.673  -3.915  1.00  0.00     0.031 C 
BRANCH   8   9
HETATM    9  C9  UNL     1     -17.538  22.411  -5.106  1.00  0.00    -0.009 C 
HETATM   10  C10 UNL     1     -16.441  21.421  -4.732  1.00  0.00     0.035 C 
HETATM   11  C11 UNL     1     -16.122  20.485  -5.857  1.00  0.00     0.272 C 
HETATM   12  N2  UNL     1     -17.264  19.684  -6.256  1.00  0.00     0.084 N 
HETATM   13  C12 UNL     1     -17.146  19.421  -7.676  1.00  0.00     0.309 C 
HETATM   14  C13 UNL     1     -18.519  20.371  -5.998  1.00  0.00     0.272 C 
HETATM   15  C14 UNL     1     -18.333  21.851  -6.260  1.00  0.00     0.035 C 
ENDBRANCH   8   9
ENDBRANCH   7   8
ENDBRANCH   6   7
ENDBRANCH   4   6
BRANCH   3  16
HETATM   16  O2  UNL     1     -20.199  25.472  -6.284  1.00  0.00    -0.354 OA
ATOM     17  H2  UNL     1     -20.128  26.396  -6.075  1.00  0.00     0.218 HD
ENDBRANCH   3  16
BRANCH   5  18
HETATM   18  C16 UNL     1     -21.963  22.530  -2.795  1.00  0.00     0.039 A 
HETATM   19  C17 UNL     1     -22.960  21.480  -2.375  1.00  0.00     0.011 A 
HETATM   20  C18 UNL     1     -21.548  21.098  -2.652  1.00  0.00     0.011 A 
ENDBRANCH   5  18
BRANCH   2  21
HETATM   21  O1  UNL     1     -22.648  24.088  -7.428  1.00  0.00    -0.344 OA
ATOM     22  H1  UNL     1     -22.246  24.626  -8.100  1.00  0.00     0.219 HD
ENDBRANCH   2  21
BRANCH   1  23
HETATM   23  C3  UNL     1     -23.839  22.266  -5.471  1.00  0.00     0.157 C 
BRANCH  23  24
HETATM   24  C2  UNL     1     -23.506  20.923  -5.946  1.00  0.00    -0.017 C 
HETATM   25  C1  UNL     1     -24.170  19.849  -5.566  1.00  0.00     0.008 C 
ENDBRANCH  23  24
ENDBRANCH   1  23
TORSDOF 9
ENDMDL
MODEL 3
REMARK VINA RESULT: -6.221276573      5.191      7.051
REMARK  9 active torsions:
REMARK  status: ('A' for Active; 'I' for Inactive)
REMARK    1  A    between atoms: C2_2  and  C3_3 
REMARK    2  A    between atoms: C3_3  and  N1_4 
REMARK    3  A    between atoms: C4_5  and  O1_6 
REMARK    4  A    between atoms: C5_8  and  O2_9 
REMARK    5  A    between atoms: C6_11  and  O3_12 
REMARK    6  A    between atoms: O3_12  and  C7_13 
REMARK    7  A    between atoms: C7_13  and  C8_14 
REMARK    8  A    between atoms: C8_14  and  C9_15 
REMARK    9  A    between atoms: C15_22  and  C16_23 
ROOT
HETATM    1  N1  UNL     1     -14.031  24.014   0.446  1.00  0.00    -0.323 N 
HETATM    2  C4  UNL     1     -13.178  23.932  -0.626  1.00  0.00     0.180 A 
HETATM    3  C5  UNL     1     -13.871  23.451  -1.699  1.00  0.00     0.153 A 
HETATM    4  C6  UNL     1     -15.157  23.228  -1.320  1.00  0.00     0.129 A 
HETATM    5  C15 UNL     1     -15.224  23.598   0.057  1.00  0.00     0.054 A 
ENDROOT
BRANCH   4   6
HETATM    6  O3  UNL     1     -16.159  22.745  -2.125  1.00  0.00    -0.346 OA
BRANCH   6   7
HETATM    7  C7  UNL     1     -16.977  23.555  -2.944  1.00  0.00     0.176 C 
BRANCH   7   8
HETATM    8  C8  UNL     1     -17.840  22.656  -3.784  1.00  0.00     0.031 C 
BRANCH   8   9
HETATM    9  C9  UNL     1     -17.138  22.308  -5.051  1.00  0.00    -0.009 C 
HETATM   10  C10 UNL     1     -16.170  21.159  -4.794  1.00  0.00     0.035 C 
HETATM   11  C11 UNL     1     -16.091  20.220  -5.957  1.00  0.00     0.272 C 
HETATM   12  N2  UNL     1     -17.368  19.605  -6.266  1.00  0.00     0.084 N 
HETATM   13  C12 UNL     1     -17.414  19.368  -7.693  1.00  0.00     0.309 C 
HETATM   14  C13 UNL     1     -18.482  20.458  -5.884  1.00  0.00     0.272 C 
HETATM   15  C14 UNL     1     -18.103  21.903  -6.138  1.00  0.00     0.035 C 
ENDBRANCH   8   9
ENDBRANCH   7   8
ENDBRANCH   6   7
ENDBRANCH   4   6
BRANCH   3  16
HETATM   16  O2  UNL     1     -13.346  23.223  -2.988  1.00  0.00    -0.354 OA
ATOM     17  H2  UNL     1     -13.365  22.399  -3.459  1.00  0.00     0.218 HD
ENDBRANCH   3  16
BRANCH   5  18
HETATM   18  C16 UNL     1     -16.534  23.451   0.718  1.00  0.00     0.039 A 
HETATM   19  C17 UNL     1     -17.008  24.276   1.887  1.00  0.00     0.011 A 
HETATM   20  C18 UNL     1     -17.575  24.511   0.530  1.00  0.00     0.011 A 
ENDBRANCH   5  18
BRANCH   2  21
HETATM   21  O1  UNL     1     -11.844  24.289  -0.572  1.00  0.00    -0.344 OA
ATOM     22  H1  UNL     1     -11.186  23.956  -1.171  1.00  0.00     0.219 HD
ENDBRANCH   2  21
BRANCH   1  23
HETATM   23  C3  UNL     1     -13.607  24.504   1.754  1.00  0.00     0.157 C 
BRANCH  23  24
HETATM   24  C2  UNL     1     -13.378  23.426   2.715  1.00  0.00    -0.017 C 
HETATM   25  C1  UNL     1     -12.372  22.580   2.608  1.00  0.00     0.008 C 
ENDBRANCH  23  24
ENDBRANCH   1  23
TORSDOF 9
ENDMDL
MODEL 4
REMARK VINA RESULT: -6.211547886      5.581      7.767
REMARK  9 active torsions:
REMARK  status: ('A' for Active; 'I' for Inactive)
REMARK    1  A    between atoms: C2_2  and  C3_3 
REMARK    2  A    between atoms: C3_3  and  N1_4 
REMARK    3  A    between atoms: C4_5  and  O1_6 
REMARK    4  A    between atoms: C5_8  and  O2_9 
REMARK    5  A    between atoms: C6_11  and  O3_12 
REMARK    6  A    between atoms: O3_12  and  C7_13 
REMARK    7  A    between atoms: C7_13  and  C8_14 
REMARK    8  A    between atoms: C8_14  and  C9_15 
REMARK    9  A    between atoms: C15_22  and  C16_23 
ROOT
HETATM    1  N1  UNL     1     -13.776  23.959   0.582  1.00  0.00    -0.323 N 
HETATM    2  C4  UNL     1     -12.914  23.950  -0.486  1.00  0.00     0.180 A 
HETATM    3  C5  UNL     1     -13.572  23.451  -1.574  1.00  0.00     0.153 A 
HETATM    4  C6  UNL     1     -14.844  23.144  -1.207  1.00  0.00     0.129 A 
HETATM    5  C15 UNL     1     -14.940  23.480   0.176  1.00  0.00     0.054 A 
ENDROOT
BRANCH   4   6
HETATM    6  O3  UNL     1     -15.811  22.618  -2.028  1.00  0.00    -0.346 OA
BRANCH   6   7
HETATM    7  C7  UNL     1     -16.783  23.390  -2.702  1.00  0.00     0.176 C 
BRANCH   7   8
HETATM    8  C8  UNL     1     -17.179  22.660  -3.955  1.00  0.00     0.031 C 
BRANCH   8   9
HETATM    9  C9  UNL     1     -18.370  23.309  -4.572  1.00  0.00    -0.009 C 
HETATM   10  C10 UNL     1     -18.516  22.833  -6.012  1.00  0.00     0.035 C 
HETATM   11  C11 UNL     1     -19.951  22.682  -6.411  1.00  0.00     0.272 C 
HETATM   12  N2  UNL     1     -20.658  21.712  -5.596  1.00  0.00     0.084 N 
HETATM   13  C12 UNL     1     -22.039  22.135  -5.498  1.00  0.00     0.309 C 
HETATM   14  C13 UNL     1     -20.089  21.616  -4.261  1.00  0.00     0.272 C 
HETATM   15  C14 UNL     1     -19.638  22.993  -3.819  1.00  0.00     0.035 C 
ENDBRANCH   8   9
ENDBRANCH   7   8
ENDBRANCH   6   7
ENDBRANCH   4   6
BRANCH   3  16
HETATM   16  O2  UNL     1     -13.027  23.281  -2.863  1.00  0.00    -0.354 OA
ATOM     17  H2  UNL     1     -13.232  23.806  -3.627  1.00  0.00     0.218 HD
ENDBRANCH   3  16
BRANCH   5  18
HETATM   18  C16 UNL     1     -16.242  23.241   0.825  1.00  0.00     0.039 A 
HETATM   19  C17 UNL     1     -16.560  22.066   1.717  1.00  0.00     0.011 A 
HETATM   20  C18 UNL     1     -16.369  23.420   2.307  1.00  0.00     0.011 A 
ENDBRANCH   5  18
BRANCH   2  21
HETATM   21  O1  UNL     1     -11.604  24.385  -0.416  1.00  0.00    -0.344 OA
ATOM     22  H1  UNL     1     -11.172  24.866  -1.112  1.00  0.00     0.219 HD
ENDBRANCH   2  21
BRANCH   1  23
HETATM   23  C3  UNL     1     -13.390  24.446   1.902  1.00  0.00     0.157 C 
BRANCH  23  24
HETATM   24  C2  UNL     1     -12.554  23.495   2.634  1.00  0.00    -0.017 C 
HETATM   25  C1  UNL     1     -12.863  22.218   2.749  1.00  0.00     0.008 C 
ENDBRANCH  23  24
ENDBRANCH   1  23
TORSDOF 9
ENDMDL
MODEL 5
REMARK VINA RESULT: -6.204968999      4.533      6.872
REMARK  9 active torsions:
REMARK  status: ('A' for Active; 'I' for Inactive)
REMARK    1  A    between atoms: C2_2  and  C3_3 
REMARK    2  A    between atoms: C3_3  and  N1_4 
REMARK    3  A    between atoms: C4_5  and  O1_6 
REMARK    4  A    between atoms: C5_8  and  O2_9 
REMARK    5  A    between atoms: C6_11  and  O3_12 
REMARK    6  A    between atoms: O3_12  and  C7_13 
REMARK    7  A    between atoms: C7_13  and  C8_14 
REMARK    8  A    between atoms: C8_14  and  C9_15 
REMARK    9  A    between atoms: C15_22  and  C16_23 
ROOT
HETATM    1  N1  UNL     1     -18.222  22.556  -5.696  1.00  0.00    -0.323 N 
HETATM    2  C4  UNL     1     -17.288  21.615  -6.053  1.00  0.00     0.180 A 
HETATM    3  C5  UNL     1     -16.412  21.455  -5.018  1.00  0.00     0.153 A 
HETATM    4  C6  UNL     1     -16.781  22.285  -4.006  1.00  0.00     0.129 A 
HETATM    5  C15 UNL     1     -17.940  22.973  -4.473  1.00  0.00     0.054 A 
ENDROOT
BRANCH   4   6
HETATM    6  O3  UNL     1     -16.144  22.407  -2.796  1.00  0.00    -0.346 OA
BRANCH   6   7
HETATM    7  C7  UNL     1     -15.205  23.419  -2.494  1.00  0.00     0.176 C 
BRANCH   7   8
HETATM    8  C8  UNL     1     -15.624  24.084  -1.214  1.00  0.00     0.031 C 
BRANCH   8   9
HETATM    9  C9  UNL     1     -14.441  24.688  -0.538  1.00  0.00    -0.009 C 
HETATM   10  C10 UNL     1     -14.843  25.169   0.851  1.00  0.00     0.035 C 
HETATM   11  C11 UNL     1     -13.746  24.976   1.852  1.00  0.00     0.272 C 
HETATM   12  N2  UNL     1     -13.370  23.584   2.005  1.00  0.00     0.084 N 
HETATM   13  C12 UNL     1     -11.959  23.537   2.328  1.00  0.00     0.309 C 
HETATM   14  C13 UNL     1     -13.608  22.825   0.788  1.00  0.00     0.272 C 
HETATM   15  C14 UNL     1     -13.304  23.705  -0.407  1.00  0.00     0.035 C 
ENDBRANCH   8   9
ENDBRANCH   7   8
ENDBRANCH   6   7
ENDBRANCH   4   6
BRANCH   3  16
HETATM   16  O2  UNL     1     -15.309  20.578  -4.996  1.00  0.00    -0.354 OA
ATOM     17  H2  UNL     1     -14.616  20.570  -4.348  1.00  0.00     0.218 HD
ENDBRANCH   3  16
BRANCH   5  18
HETATM   18  C16 UNL     1     -18.549  23.947  -3.548  1.00  0.00     0.039 A 
HETATM   19  C17 UNL     1     -19.725  24.831  -3.876  1.00  0.00     0.011 A 
HETATM   20  C18 UNL     1     -19.900  23.664  -2.968  1.00  0.00     0.011 A 
ENDBRANCH   5  18
BRANCH   2  21
HETATM   21  O1  UNL     1     -17.281  20.968  -7.274  1.00  0.00    -0.344 OA
ATOM     22  H1  UNL     1     -16.677  20.269  -7.495  1.00  0.00     0.219 HD
ENDBRANCH   2  21
BRANCH   1  23
HETATM   23  C3  UNL     1     -19.314  22.955  -6.577  1.00  0.00     0.157 C 
BRANCH  23  24
HETATM   24  C2  UNL     1     -20.461  22.049  -6.505  1.00  0.00    -0.017 C 
HETATM   25  C1  UNL     1     -21.673  22.461  -6.190  1.00  0.00     0.008 C 
ENDBRANCH  23  24
ENDBRANCH   1  23
TORSDOF 9
ENDMDL
