MODEL 1
REMARK VINA RESULT: -6.876154879      0.000      0.000
REMARK  9 active torsions:
REMARK  status: ('A' for Active; 'I' for Inactive)
REMARK    1  A    between atoms: C2_2  and  C3_3 
REMARK    2  A    between atoms: C3_3  and  C4_4 
REMARK    3  A    between atoms: C3_3  and  C6_6 
REMARK    4  A    between atoms: C6_6  and  C7_7 
REMARK    5  A    between atoms: C7_7  and  C8_8 
REMARK    6  A    between atoms: C7_7  and  N1_12 
REMARK    7  A    between atoms: C8_8  and  C9_9 
REMARK    8  A    between atoms: C9_9  and  O1_10 
REMARK    9  A    between atoms: N1_12  and  N2_13 
REMARK       I    between atoms: N2_13  and  C10_14 
REMARK       I    between atoms: C10_14  and  N3_16 
ROOT
HETATM    1  N2  UNL     1     -16.292  23.198  -2.924  1.00  0.00    -0.185 NA
HETATM    2  C10 UNL     1     -15.254  23.502  -2.062  1.00  0.00     0.429 C 
HETATM    3  O2  UNL     1     -14.051  23.146  -2.210  1.00  0.00    -0.227 OA
HETATM    4  N3  UNL     1     -15.501  24.301  -0.859  1.00  0.00    -0.286 N 
HETATM    5  C11 UNL     1     -16.799  24.867  -0.573  1.00  0.00     0.199 C 
HETATM    6  C12 UNL     1     -17.707  23.910   0.049  1.00  0.00     0.085 C 
HETATM    7  N4  UNL     1     -18.429  23.153   0.560  1.00  0.00    -0.195 NA
HETATM    8  C13 UNL     1     -16.482  25.985   0.434  1.00  0.00     0.043 C 
HETATM    9  C14 UNL     1     -15.399  25.332   1.246  1.00  0.00     0.043 C 
HETATM   10  C15 UNL     1     -14.580  24.613   0.196  1.00  0.00     0.199 C 
HETATM   11  C16 UNL     1     -14.138  23.295   0.728  1.00  0.00     0.085 C 
HETATM   12  N5  UNL     1     -13.787  22.268   1.120  1.00  0.00    -0.195 NA
ENDROOT
BRANCH   1  13
HETATM   13  N1  UNL     1     -17.234  22.923  -3.708  1.00  0.00    -0.253 NA
BRANCH  13  14
HETATM   14  C7  UNL     1     -17.928  22.776  -4.673  1.00  0.00     0.104 C 
BRANCH  14  15
HETATM   15  C6  UNL     1     -17.583  21.936  -5.818  1.00  0.00     0.076 C 
BRANCH  15  16
HETATM   16  C3  UNL     1     -17.781  20.478  -5.791  1.00  0.00    -0.009 C 
BRANCH  16  17
HETATM   17  C2  UNL     1     -16.602  19.579  -5.785  1.00  0.00     0.000 C 
HETATM   18  C1  UNL     1     -15.308  20.285  -5.466  1.00  0.00     0.005 C 
ENDBRANCH  16  17
BRANCH  16  19
HETATM   19  C4  UNL     1     -18.643  20.033  -7.010  1.00  0.00     0.000 C 
HETATM   20  C5  UNL     1     -17.957  19.029  -7.870  1.00  0.00     0.005 C 
ENDBRANCH  16  19
ENDBRANCH  15  16
ENDBRANCH  14  15
BRANCH  14  21
HETATM   21  C8  UNL     1     -19.217  23.554  -4.672  1.00  0.00     0.097 C 
BRANCH  21  22
HETATM   22  C9  UNL     1     -19.685  23.813  -6.100  1.00  0.00     0.171 C 
BRANCH  22  23
HETATM   23  O1  UNL     1     -19.863  25.183  -6.309  1.00  0.00    -0.400 OA
ATOM     24  H1  UNL     1     -20.704  25.461  -5.965  1.00  0.00     0.209 HD
ENDBRANCH  22  23
ENDBRANCH  21  22
ENDBRANCH  14  21
ENDBRANCH  13  14
ENDBRANCH   1  13
TORSDOF 9
ENDMDL
MODEL 2
REMARK VINA RESULT: -6.863323972      1.786      2.041
REMARK  9 active torsions:
REMARK  status: ('A' for Active; 'I' for Inactive)
REMARK    1  A    between atoms: C2_2  and  C3_3 
REMARK    2  A    between atoms: C3_3  and  C4_4 
REMARK    3  A    between atoms: C3_3  and  C6_6 
REMARK    4  A    between atoms: C6_6  and  C7_7 
REMARK    5  A    between atoms: C7_7  and  C8_8 
REMARK    6  A    between atoms: C7_7  and  N1_12 
REMARK    7  A    between atoms: C8_8  and  C9_9 
REMARK    8  A    between atoms: C9_9  and  O1_10 
REMARK    9  A    between atoms: N1_12  and  N2_13 
REMARK       I    between atoms: N2_13  and  C10_14 
REMARK       I    between atoms: C10_14  and  N3_16 
ROOT
HETATM    1  N2  UNL     1     -17.094  22.982  -3.587  1.00  0.00    -0.185 NA
HETATM    2  C10 UNL     1     -16.474  23.328  -2.401  1.00  0.00     0.429 C 
HETATM    3  O2  UNL     1     -15.296  23.011  -2.071  1.00  0.00    -0.227 OA
HETATM    4  N3  UNL     1     -17.184  24.128  -1.400  1.00  0.00    -0.286 N 
HETATM    5  C11 UNL     1     -18.507  24.653  -1.642  1.00  0.00     0.199 C 
HETATM    6  C12 UNL     1     -19.558  23.672  -1.395  1.00  0.00     0.085 C 
HETATM    7  N4  UNL     1     -20.399  22.894  -1.182  1.00  0.00    -0.195 NA
HETATM    8  C13 UNL     1     -18.631  25.789  -0.614  1.00  0.00     0.043 C 
HETATM    9  C14 UNL     1     -17.923  25.180   0.564  1.00  0.00     0.043 C 
HETATM   10  C15 UNL     1     -16.744  24.480  -0.080  1.00  0.00     0.199 C 
HETATM   11  C16 UNL     1     -16.504  23.182   0.608  1.00  0.00     0.085 C 
HETATM   12  N5  UNL     1     -16.300  22.170   1.125  1.00  0.00    -0.195 NA
ENDROOT
BRANCH   1  13
HETATM   13  N1  UNL     1     -17.658  22.669  -4.666  1.00  0.00    -0.253 NA
BRANCH  13  14
HETATM   14  C7  UNL     1     -18.015  22.107  -5.660  1.00  0.00     0.104 C 
BRANCH  14  15
HETATM   15  C6  UNL     1     -17.207  21.136  -6.396  1.00  0.00     0.076 C 
BRANCH  15  16
HETATM   16  C3  UNL     1     -16.841  19.837  -5.811  1.00  0.00    -0.009 C 
BRANCH  16  17
HETATM   17  C2  UNL     1     -15.414  19.446  -5.730  1.00  0.00     0.000 C 
HETATM   18  C1  UNL     1     -15.086  18.196  -6.506  1.00  0.00     0.005 C 
ENDBRANCH  16  17
BRANCH  16  19
HETATM   19  C4  UNL     1     -17.550  18.685  -6.582  1.00  0.00     0.000 C 
HETATM   20  C5  UNL     1     -18.209  19.145  -7.836  1.00  0.00     0.005 C 
ENDBRANCH  16  19
ENDBRANCH  15  16
ENDBRANCH  14  15
BRANCH  14  21
HETATM   21  C8  UNL     1     -19.383  22.483  -6.165  1.00  0.00     0.097 C 
BRANCH  21  22
HETATM   22  C9  UNL     1     -20.457  21.664  -5.457  1.00  0.00     0.171 C 
BRANCH  22  23
HETATM   23  O1  UNL     1     -20.172  21.569  -4.093  1.00  0.00    -0.400 OA
ATOM     24  H1  UNL     1     -20.442  22.361  -3.645  1.00  0.00     0.209 HD
ENDBRANCH  22  23
ENDBRANCH  21  22
ENDBRANCH  14  21
ENDBRANCH  13  14
ENDBRANCH   1  13
TORSDOF 9
ENDMDL
MODEL 3
REMARK VINA RESULT: -6.823986703      1.294      1.838
REMARK  9 active torsions:
REMARK  status: ('A' for Active; 'I' for Inactive)
REMARK    1  A    between atoms: C2_2  and  C3_3 
REMARK    2  A    between atoms: C3_3  and  C4_4 
REMARK    3  A    between atoms: C3_3  and  C6_6 
REMARK    4  A    between atoms: C6_6  and  C7_7 
REMARK    5  A    between atoms: C7_7  and  C8_8 
REMARK    6  A    between atoms: C7_7  and  N1_12 
REMARK    7  A    between atoms: C8_8  and  C9_9 
REMARK    8  A    between atoms: C9_9  and  O1_10 
REMARK    9  A    between atoms: N1_12  and  N2_13 
REMARK       I    between atoms: N2_13  and  C10_14 
REMARK       I    between atoms: C10_14  and  N3_16 
ROOT
HETATM    1  N2  UNL     1     -16.467  23.270  -2.813  1.00  0.00    -0.185 NA
HETATM    2  C10 UNL     1     -15.372  23.574  -2.024  1.00  0.00     0.429 C 
HETATM    3  O2  UNL     1     -14.179  23.233  -2.264  1.00  0.00    -0.227 OA
HETATM    4  N3  UNL     1     -15.539  24.352  -0.794  1.00  0.00    -0.286 N 
HETATM    5  C11 UNL     1     -16.818  24.899  -0.405  1.00  0.00     0.199 C 
HETATM    6  C12 UNL     1     -17.669  23.923   0.266  1.00  0.00     0.085 C 
HETATM    7  N4  UNL     1     -18.344  23.150   0.817  1.00  0.00    -0.195 NA
HETATM    8  C13 UNL     1     -16.441  26.006   0.592  1.00  0.00     0.043 C 
HETATM    9  C14 UNL     1     -15.294  25.354   1.314  1.00  0.00     0.043 C 
HETATM   10  C15 UNL     1     -14.546  24.660   0.196  1.00  0.00     0.199 C 
HETATM   11  C16 UNL     1     -14.054  23.339   0.675  1.00  0.00     0.085 C 
HETATM   12  N5  UNL     1     -13.664  22.310   1.024  1.00  0.00    -0.195 NA
ENDROOT
BRANCH   1  13
HETATM   13  N1  UNL     1     -17.461  22.995  -3.530  1.00  0.00    -0.253 NA
BRANCH  13  14
HETATM   14  C7  UNL     1     -18.187  22.580  -4.387  1.00  0.00     0.104 C 
BRANCH  14  15
HETATM   15  C6  UNL     1     -17.783  22.354  -5.773  1.00  0.00     0.076 C 
BRANCH  15  16
HETATM   16  C3  UNL     1     -17.180  21.082  -6.203  1.00  0.00    -0.009 C 
BRANCH  16  17
HETATM   17  C2  UNL     1     -17.994  19.844  -6.184  1.00  0.00     0.000 C 
HETATM   18  C1  UNL     1     -18.225  19.254  -7.553  1.00  0.00     0.005 C 
ENDBRANCH  16  17
BRANCH  16  19
HETATM   19  C4  UNL     1     -15.920  20.771  -5.343  1.00  0.00     0.000 C 
HETATM   20  C5  UNL     1     -15.295  19.461  -5.681  1.00  0.00     0.005 C 
ENDBRANCH  16  19
ENDBRANCH  15  16
ENDBRANCH  14  15
BRANCH  14  21
HETATM   21  C8  UNL     1     -19.608  22.319  -3.965  1.00  0.00     0.097 C 
BRANCH  21  22
HETATM   22  C9  UNL     1     -20.122  23.454  -3.086  1.00  0.00     0.171 C 
BRANCH  22  23
HETATM   23  O1  UNL     1     -20.194  23.039  -1.754  1.00  0.00    -0.400 OA
ATOM     24  H1  UNL     1     -21.090  23.084  -1.443  1.00  0.00     0.209 HD
ENDBRANCH  22  23
ENDBRANCH  21  22
ENDBRANCH  14  21
ENDBRANCH  13  14
ENDBRANCH   1  13
TORSDOF 9
ENDMDL
MODEL 4
REMARK VINA RESULT: -6.759992509      1.492      1.770
REMARK  9 active torsions:
REMARK  status: ('A' for Active; 'I' for Inactive)
REMARK    1  A    between atoms: C2_2  and  C3_3 
REMARK    2  A    between atoms: C3_3  and  C4_4 
REMARK    3  A    between atoms: C3_3  and  C6_6 
REMARK    4  A    between atoms: C6_6  and  C7_7 
REMARK    5  A    between atoms: C7_7  and  C8_8 
REMARK    6  A    between atoms: C7_7  and  N1_12 
REMARK    7  A    between atoms: C8_8  and  C9_9 
REMARK    8  A    between atoms: C9_9  and  O1_10 
REMARK    9  A    between atoms: N1_12  and  N2_13 
REMARK       I    between atoms: N2_13  and  C10_14 
REMARK       I    between atoms: C10_14  and  N3_16 
ROOT
HETATM    1  N2  UNL     1     -16.236  23.451  -2.471  1.00  0.00    -0.185 NA
HETATM    2  C10 UNL     1     -15.098  23.624  -1.704  1.00  0.00     0.429 C 
HETATM    3  O2  UNL     1     -13.949  23.180  -1.989  1.00  0.00    -0.227 OA
HETATM    4  N3  UNL     1     -15.159  24.373  -0.447  1.00  0.00    -0.286 N 
HETATM    5  C11 UNL     1     -16.370  25.025  -0.006  1.00  0.00     0.199 C 
HETATM    6  C12 UNL     1     -17.293  24.112   0.659  1.00  0.00     0.085 C 
HETATM    7  N4  UNL     1     -18.024  23.388   1.205  1.00  0.00    -0.195 NA
HETATM    8  C13 UNL     1     -15.864  26.058   1.014  1.00  0.00     0.043 C 
HETATM    9  C14 UNL     1     -14.768  25.278   1.683  1.00  0.00     0.043 C 
HETATM   10  C15 UNL     1     -14.117  24.553   0.523  1.00  0.00     0.199 C 
HETATM   11  C16 UNL     1     -13.741  23.177   0.948  1.00  0.00     0.085 C 
HETATM   12  N5  UNL     1     -13.442  22.105   1.254  1.00  0.00    -0.195 NA
ENDROOT
BRANCH   1  13
HETATM   13  N1  UNL     1     -17.270  23.295  -3.168  1.00  0.00    -0.253 NA
BRANCH  13  14
HETATM   14  C7  UNL     1     -18.159  23.424  -3.959  1.00  0.00     0.104 C 
BRANCH  14  15
HETATM   15  C6  UNL     1     -18.133  22.898  -5.323  1.00  0.00     0.076 C 
BRANCH  15  16
HETATM   16  C3  UNL     1     -18.086  21.451  -5.590  1.00  0.00    -0.009 C 
BRANCH  16  17
HETATM   17  C2  UNL     1     -16.930  20.879  -6.320  1.00  0.00     0.000 C 
HETATM   18  C1  UNL     1     -15.774  20.510  -5.425  1.00  0.00     0.005 C 
ENDBRANCH  16  17
BRANCH  16  19
HETATM   19  C4  UNL     1     -19.348  21.014  -6.390  1.00  0.00     0.000 C 
HETATM   20  C5  UNL     1     -20.343  22.112  -6.549  1.00  0.00     0.005 C 
ENDBRANCH  16  19
ENDBRANCH  15  16
ENDBRANCH  14  15
BRANCH  14  21
HETATM   21  C8  UNL     1     -19.347  24.215  -3.481  1.00  0.00     0.097 C 
BRANCH  21  22
HETATM   22  C9  UNL     1     -20.298  23.324  -2.689  1.00  0.00     0.171 C 
BRANCH  22  23
HETATM   23  O1  UNL     1     -19.907  23.270  -1.349  1.00  0.00    -0.400 OA
ATOM     24  H1  UNL     1     -20.561  22.812  -0.834  1.00  0.00     0.209 HD
ENDBRANCH  22  23
ENDBRANCH  21  22
ENDBRANCH  14  21
ENDBRANCH  13  14
ENDBRANCH   1  13
TORSDOF 9
ENDMDL
MODEL 5
REMARK VINA RESULT: -6.750194720      2.248      3.887
REMARK  9 active torsions:
REMARK  status: ('A' for Active; 'I' for Inactive)
REMARK    1  A    between atoms: C2_2  and  C3_3 
REMARK    2  A    between atoms: C3_3  and  C4_4 
REMARK    3  A    between atoms: C3_3  and  C6_6 
REMARK    4  A    between atoms: C6_6  and  C7_7 
REMARK    5  A    between atoms: C7_7  and  C8_8 
REMARK    6  A    between atoms: C7_7  and  N1_12 
REMARK    7  A    between atoms: C8_8  and  C9_9 
REMARK    8  A    between atoms: C9_9  and  O1_10 
REMARK    9  A    between atoms: N1_12  and  N2_13 
REMARK       I    between atoms: N2_13  and  C10_14 
REMARK       I    between atoms: C10_14  and  N3_16 
ROOT
HETATM    1  N2  UNL     1     -17.036  22.545  -3.875  1.00  0.00    -0.185 NA
HETATM    2  C10 UNL     1     -16.716  23.234  -2.719  1.00  0.00     0.429 C 
HETATM    3  O2  UNL     1     -15.613  23.164  -2.106  1.00  0.00    -0.227 OA
HETATM    4  N3  UNL     1     -17.692  24.134  -2.100  1.00  0.00    -0.286 N 
HETATM    5  C11 UNL     1     -18.975  24.403  -2.708  1.00  0.00     0.199 C 
HETATM    6  C12 UNL     1     -19.962  23.369  -2.424  1.00  0.00     0.085 C 
HETATM    7  N4  UNL     1     -20.758  22.552  -2.184  1.00  0.00    -0.195 NA
HETATM    8  C13 UNL     1     -19.415  25.715  -2.039  1.00  0.00     0.043 C 
HETATM    9  C14 UNL     1     -18.924  25.493  -0.636  1.00  0.00     0.043 C 
HETATM   10  C15 UNL     1     -17.578  24.834  -0.853  1.00  0.00     0.199 C 
HETATM   11  C16 UNL     1     -17.377  23.772   0.171  1.00  0.00     0.085 C 
HETATM   12  N5  UNL     1     -17.200  22.942   0.953  1.00  0.00    -0.195 NA
ENDROOT
BRANCH   1  13
HETATM   13  N1  UNL     1     -17.325  21.920  -4.926  1.00  0.00    -0.253 NA
BRANCH  13  14
HETATM   14  C7  UNL     1     -17.883  21.293  -5.779  1.00  0.00     0.104 C 
BRANCH  14  15
HETATM   15  C6  UNL     1     -19.333  21.250  -5.958  1.00  0.00     0.076 C 
BRANCH  15  16
HETATM   16  C3  UNL     1     -20.078  22.400  -6.494  1.00  0.00    -0.009 C 
BRANCH  16  17
HETATM   17  C2  UNL     1     -19.466  23.749  -6.459  1.00  0.00     0.000 C 
HETATM   18  C1  UNL     1     -20.435  24.842  -6.087  1.00  0.00     0.005 C 
ENDBRANCH  16  17
BRANCH  16  19
HETATM   19  C4  UNL     1     -21.445  22.539  -5.761  1.00  0.00     0.000 C 
HETATM   20  C5  UNL     1     -22.415  21.472  -6.135  1.00  0.00     0.005 C 
ENDBRANCH  16  19
ENDBRANCH  15  16
ENDBRANCH  14  15
BRANCH  14  21
HETATM   21  C8  UNL     1     -16.990  20.486  -6.684  1.00  0.00     0.097 C 
BRANCH  21  22
HETATM   22  C9  UNL     1     -16.007  19.658  -5.864  1.00  0.00     0.171 C 
BRANCH  22  23
HETATM   23  O1  UNL     1     -14.791  20.334  -5.737  1.00  0.00    -0.400 OA
ATOM     24  H1  UNL     1     -14.650  20.589  -4.833  1.00  0.00     0.209 HD
ENDBRANCH  22  23
ENDBRANCH  21  22
ENDBRANCH  14  21
ENDBRANCH  13  14
ENDBRANCH   1  13
TORSDOF 9
ENDMDL
