MODEL 1
REMARK VINA RESULT: -7.270267481      0.000      0.000
REMARK  9 active torsions:
REMARK  status: ('A' for Active; 'I' for Inactive)
REMARK    1  A    between atoms: C8_9  and  O2_10 
REMARK    2  A    between atoms: C12_16  and  O4_17 
REMARK    3  A    between atoms: O4_17  and  C13_18 
REMARK    4  A    between atoms: C13_18  and  C14_19 
REMARK    5  A    between atoms: C14_19  and  C15_20 
REMARK    6  A    between atoms: C15_20  and  C16_21 
REMARK    7  A    between atoms: C16_21  and  C17_22 
REMARK    8  A    between atoms: C17_22  and  C18_23 
REMARK    9  A    between atoms: C18_23  and  O5_24 
ROOT
HETATM    1  C1  UNL     1     -24.141  24.382  -6.019  1.00  0.00     0.017 C 
HETATM    2  C2  UNL     1     -22.848  24.153  -6.056  1.00  0.00    -0.051 C 
HETATM    3  C3  UNL     1     -21.957  25.218  -6.583  1.00  0.00     0.039 C 
HETATM    4  C4  UNL     1     -20.522  25.023  -6.161  1.00  0.00     0.039 C 
HETATM    5  C5  UNL     1     -20.134  23.566  -6.009  1.00  0.00     0.160 C 
HETATM    6  O1  UNL     1     -21.113  22.684  -6.393  1.00  0.00    -0.362 OA
HETATM    7  C6  UNL     1     -22.237  22.874  -5.595  1.00  0.00     0.130 C 
HETATM    8  C7  UNL     1     -23.215  21.766  -5.931  1.00  0.00     0.056 C 
HETATM    9  C8  UNL     1     -21.903  22.930  -4.127  1.00  0.00     0.296 C 
HETATM   10  O3  UNL     1     -20.607  22.670  -3.816  1.00  0.00    -0.342 OA
HETATM   11  C9  UNL     1     -19.652  23.256  -4.616  1.00  0.00     0.116 C 
HETATM   12  C10 UNL     1     -18.911  24.404  -3.948  1.00  0.00     0.046 C 
HETATM   13  C11 UNL     1     -18.029  23.343  -3.337  1.00  0.00     0.038 C 
HETATM   14  C12 UNL     1     -18.359  22.480  -4.514  1.00  0.00     0.158 C 
ENDROOT
BRANCH  14  15
HETATM   15  O4  UNL     1     -17.635  22.561  -5.634  1.00  0.00    -0.383 OA
BRANCH  15  16
HETATM   16  C13 UNL     1     -17.183  21.419  -6.250  1.00  0.00     0.168 C 
BRANCH  16  17
HETATM   17  C14 UNL     1     -18.109  20.239  -6.133  1.00  0.00     0.026 C 
BRANCH  17  18
HETATM   18  C15 UNL     1     -18.108  19.435  -7.400  1.00  0.00     0.002 C 
BRANCH  18  19
HETATM   19  C16 UNL     1     -17.547  18.069  -7.231  1.00  0.00     0.002 C 
BRANCH  19  20
HETATM   20  C17 UNL     1     -16.517  18.045  -6.104  1.00  0.00     0.026 C 
BRANCH  20  21
HETATM   21  C18 UNL     1     -15.114  18.123  -6.628  1.00  0.00     0.164 C 
BRANCH  21  22
HETATM   22  O5  UNL     1     -14.494  19.184  -5.964  1.00  0.00    -0.401 OA
ATOM     23  H5  UNL     1     -14.424  18.932  -5.051  1.00  0.00     0.209 HD
ENDBRANCH  21  22
ENDBRANCH  20  21
ENDBRANCH  19  20
ENDBRANCH  18  19
ENDBRANCH  17  18
ENDBRANCH  16  17
ENDBRANCH  15  16
ENDBRANCH  14  15
BRANCH   9  24
HETATM   24  O2  UNL     1     -22.381  24.135  -3.624  1.00  0.00    -0.368 OA
ATOM     25  H2  UNL     1     -21.797  24.414  -2.929  1.00  0.00     0.212 HD
ENDBRANCH   9  24
TORSDOF 9
ENDMDL
MODEL 2
REMARK VINA RESULT: -6.984200806      1.545      2.738
REMARK  9 active torsions:
REMARK  status: ('A' for Active; 'I' for Inactive)
REMARK    1  A    between atoms: C8_9  and  O2_10 
REMARK    2  A    between atoms: C12_16  and  O4_17 
REMARK    3  A    between atoms: O4_17  and  C13_18 
REMARK    4  A    between atoms: C13_18  and  C14_19 
REMARK    5  A    between atoms: C14_19  and  C15_20 
REMARK    6  A    between atoms: C15_20  and  C16_21 
REMARK    7  A    between atoms: C16_21  and  C17_22 
REMARK    8  A    between atoms: C17_22  and  C18_23 
REMARK    9  A    between atoms: C18_23  and  O5_24 
ROOT
HETATM    1  C1  UNL     1     -24.480  20.293  -3.328  1.00  0.00     0.017 C 
HETATM    2  C2  UNL     1     -23.468  20.733  -4.040  1.00  0.00    -0.051 C 
HETATM    3  C3  UNL     1     -23.518  20.568  -5.515  1.00  0.00     0.039 C 
HETATM    4  C4  UNL     1     -22.556  21.486  -6.226  1.00  0.00     0.039 C 
HETATM    5  C5  UNL     1     -21.298  21.771  -5.428  1.00  0.00     0.160 C 
HETATM    6  O1  UNL     1     -21.203  21.055  -4.261  1.00  0.00    -0.362 OA
HETATM    7  C6  UNL     1     -22.273  21.387  -3.435  1.00  0.00     0.130 C 
HETATM    8  C7  UNL     1     -22.028  20.716  -2.097  1.00  0.00     0.056 C 
HETATM    9  C8  UNL     1     -22.472  22.874  -3.312  1.00  0.00     0.296 C 
HETATM   10  O3  UNL     1     -21.524  23.639  -3.914  1.00  0.00    -0.342 OA
HETATM   11  C9  UNL     1     -21.120  23.244  -5.169  1.00  0.00     0.116 C 
HETATM   12  C10 UNL     1     -21.633  24.136  -6.289  1.00  0.00     0.046 C 
HETATM   13  C11 UNL     1     -20.456  25.028  -5.976  1.00  0.00     0.038 C 
HETATM   14  C12 UNL     1     -19.751  23.813  -5.464  1.00  0.00     0.158 C 
ENDROOT
BRANCH  14  15
HETATM   15  O4  UNL     1     -19.052  23.035  -6.296  1.00  0.00    -0.383 OA
BRANCH  15  16
HETATM   16  C13 UNL     1     -17.873  22.463  -5.884  1.00  0.00     0.168 C 
BRANCH  16  17
HETATM   17  C14 UNL     1     -17.884  20.959  -5.864  1.00  0.00     0.026 C 
BRANCH  17  18
HETATM   18  C15 UNL     1     -16.998  20.407  -6.943  1.00  0.00     0.002 C 
BRANCH  18  19
HETATM   19  C16 UNL     1     -17.382  19.039  -7.378  1.00  0.00     0.002 C 
BRANCH  19  20
HETATM   20  C17 UNL     1     -16.600  17.986  -6.598  1.00  0.00     0.026 C 
BRANCH  20  21
HETATM   21  C18 UNL     1     -15.179  18.405  -6.365  1.00  0.00     0.164 C 
BRANCH  21  22
HETATM   22  O5  UNL     1     -14.392  17.680  -7.263  1.00  0.00    -0.401 OA
ATOM     23  H5  UNL     1     -14.046  16.936  -6.785  1.00  0.00     0.209 HD
ENDBRANCH  21  22
ENDBRANCH  20  21
ENDBRANCH  19  20
ENDBRANCH  18  19
ENDBRANCH  17  18
ENDBRANCH  16  17
ENDBRANCH  15  16
ENDBRANCH  14  15
BRANCH   9  24
HETATM   24  O2  UNL     1     -23.774  23.166  -3.702  1.00  0.00    -0.368 OA
ATOM     25  H2  UNL     1     -23.998  24.022  -3.355  1.00  0.00     0.212 HD
ENDBRANCH   9  24
TORSDOF 9
ENDMDL
MODEL 3
REMARK VINA RESULT: -6.940050499      1.645      3.393
REMARK  9 active torsions:
REMARK  status: ('A' for Active; 'I' for Inactive)
REMARK    1  A    between atoms: C8_9  and  O2_10 
REMARK    2  A    between atoms: C12_16  and  O4_17 
REMARK    3  A    between atoms: O4_17  and  C13_18 
REMARK    4  A    between atoms: C13_18  and  C14_19 
REMARK    5  A    between atoms: C14_19  and  C15_20 
REMARK    6  A    between atoms: C15_20  and  C16_21 
REMARK    7  A    between atoms: C16_21  and  C17_22 
REMARK    8  A    between atoms: C17_22  and  C18_23 
REMARK    9  A    between atoms: C18_23  and  O5_24 
ROOT
HETATM    1  C1  UNL     1     -24.548  19.997  -2.992  1.00  0.00     0.017 C 
HETATM    2  C2  UNL     1     -23.701  20.513  -3.852  1.00  0.00    -0.051 C 
HETATM    3  C3  UNL     1     -23.870  20.189  -5.291  1.00  0.00     0.039 C 
HETATM    4  C4  UNL     1     -23.151  21.167  -6.186  1.00  0.00     0.039 C 
HETATM    5  C5  UNL     1     -21.886  21.727  -5.568  1.00  0.00     0.160 C 
HETATM    6  O1  UNL     1     -21.556  21.162  -4.362  1.00  0.00    -0.362 OA
HETATM    7  C6  UNL     1     -22.578  21.406  -3.449  1.00  0.00     0.130 C 
HETATM    8  C7  UNL     1     -22.091  20.927  -2.096  1.00  0.00     0.056 C 
HETATM    9  C8  UNL     1     -23.009  22.848  -3.433  1.00  0.00     0.296 C 
HETATM   10  O3  UNL     1     -22.268  23.685  -4.206  1.00  0.00    -0.342 OA
HETATM   11  C9  UNL     1     -21.932  23.229  -5.460  1.00  0.00     0.116 C 
HETATM   12  C10 UNL     1     -22.696  23.907  -6.586  1.00  0.00     0.046 C 
HETATM   13  C11 UNL     1     -21.661  25.001  -6.491  1.00  0.00     0.038 C 
HETATM   14  C12 UNL     1     -20.714  23.972  -5.960  1.00  0.00     0.158 C 
ENDROOT
BRANCH  14  15
HETATM   15  O4  UNL     1     -19.982  23.231  -6.797  1.00  0.00    -0.383 OA
BRANCH  15  16
HETATM   16  C13 UNL     1     -18.669  22.948  -6.504  1.00  0.00     0.168 C 
BRANCH  16  17
HETATM   17  C14 UNL     1     -18.364  22.861  -5.034  1.00  0.00     0.026 C 
BRANCH  17  18
HETATM   18  C15 UNL     1     -17.115  22.061  -4.797  1.00  0.00     0.002 C 
BRANCH  18  19
HETATM   19  C16 UNL     1     -16.865  21.035  -5.842  1.00  0.00     0.002 C 
BRANCH  19  20
HETATM   20  C17 UNL     1     -15.598  20.244  -5.528  1.00  0.00     0.026 C 
BRANCH  20  21
HETATM   21  C18 UNL     1     -15.679  18.835  -6.035  1.00  0.00     0.164 C 
BRANCH  21  22
HETATM   22  O5  UNL     1     -14.366  18.397  -6.219  1.00  0.00    -0.401 OA
ATOM     23  H5  UNL     1     -14.322  17.511  -5.879  1.00  0.00     0.209 HD
ENDBRANCH  21  22
ENDBRANCH  20  21
ENDBRANCH  19  20
ENDBRANCH  18  19
ENDBRANCH  17  18
ENDBRANCH  16  17
ENDBRANCH  15  16
ENDBRANCH  14  15
BRANCH   9  24
HETATM   24  O2  UNL     1     -24.375  22.890  -3.694  1.00  0.00    -0.368 OA
ATOM     25  H2  UNL     1     -24.491  22.980  -4.632  1.00  0.00     0.212 HD
ENDBRANCH   9  24
TORSDOF 9
ENDMDL
MODEL 4
REMARK VINA RESULT: -6.933281035      4.404      7.328
REMARK  9 active torsions:
REMARK  status: ('A' for Active; 'I' for Inactive)
REMARK    1  A    between atoms: C8_9  and  O2_10 
REMARK    2  A    between atoms: C12_16  and  O4_17 
REMARK    3  A    between atoms: O4_17  and  C13_18 
REMARK    4  A    between atoms: C13_18  and  C14_19 
REMARK    5  A    between atoms: C14_19  and  C15_20 
REMARK    6  A    between atoms: C15_20  and  C16_21 
REMARK    7  A    between atoms: C16_21  and  C17_22 
REMARK    8  A    between atoms: C17_22  and  C18_23 
REMARK    9  A    between atoms: C18_23  and  O5_24 
ROOT
HETATM    1  C1  UNL     1     -12.778  23.049   1.686  1.00  0.00     0.017 C 
HETATM    2  C2  UNL     1     -13.953  23.020   1.101  1.00  0.00    -0.051 C 
HETATM    3  C3  UNL     1     -15.032  22.211   1.722  1.00  0.00     0.039 C 
HETATM    4  C4  UNL     1     -16.401  22.613   1.234  1.00  0.00     0.039 C 
HETATM    5  C5  UNL     1     -16.406  23.107  -0.198  1.00  0.00     0.160 C 
HETATM    6  O1  UNL     1     -15.194  22.993  -0.833  1.00  0.00    -0.362 OA
HETATM    7  C6  UNL     1     -14.251  23.762  -0.157  1.00  0.00     0.130 C 
HETATM    8  C7  UNL     1     -12.986  23.750  -0.991  1.00  0.00     0.056 C 
HETATM    9  C8  UNL     1     -14.741  25.155   0.136  1.00  0.00     0.296 C 
HETATM   10  O3  UNL     1     -15.949  25.471  -0.400  1.00  0.00    -0.342 OA
HETATM   11  C9  UNL     1     -16.934  24.514  -0.304  1.00  0.00     0.116 C 
HETATM   12  C10 UNL     1     -18.017  24.846   0.710  1.00  0.00     0.046 C 
HETATM   13  C11 UNL     1     -18.648  25.668  -0.387  1.00  0.00     0.038 C 
HETATM   14  C12 UNL     1     -17.981  24.756  -1.368  1.00  0.00     0.158 C 
ENDROOT
BRANCH  14  15
HETATM   15  O4  UNL     1     -18.577  23.624  -1.752  1.00  0.00    -0.383 OA
BRANCH  15  16
HETATM   16  C13 UNL     1     -18.820  23.387  -3.084  1.00  0.00     0.168 C 
BRANCH  16  17
HETATM   17  C14 UNL     1     -17.621  22.916  -3.862  1.00  0.00     0.026 C 
BRANCH  17  18
HETATM   18  C15 UNL     1     -17.986  22.657  -5.295  1.00  0.00     0.002 C 
BRANCH  18  19
HETATM   19  C16 UNL     1     -17.700  21.267  -5.734  1.00  0.00     0.002 C 
BRANCH  19  20
HETATM   20  C17 UNL     1     -16.257  20.886  -5.414  1.00  0.00     0.026 C 
BRANCH  20  21
HETATM   21  C18 UNL     1     -15.951  19.473  -5.812  1.00  0.00     0.164 C 
BRANCH  21  22
HETATM   22  O5  UNL     1     -14.560  19.356  -5.847  1.00  0.00    -0.401 OA
ATOM     23  H5  UNL     1     -14.352  18.468  -5.582  1.00  0.00     0.209 HD
ENDBRANCH  21  22
ENDBRANCH  20  21
ENDBRANCH  19  20
ENDBRANCH  18  19
ENDBRANCH  17  18
ENDBRANCH  16  17
ENDBRANCH  15  16
ENDBRANCH  14  15
BRANCH   9  24
HETATM   24  O2  UNL     1     -14.654  25.360   1.509  1.00  0.00    -0.368 OA
ATOM     25  H2  UNL     1     -13.838  24.979   1.810  1.00  0.00     0.212 HD
ENDBRANCH   9  24
TORSDOF 9
ENDMDL
MODEL 5
REMARK VINA RESULT: -6.707600280      5.501      8.243
REMARK  9 active torsions:
REMARK  status: ('A' for Active; 'I' for Inactive)
REMARK    1  A    between atoms: C8_9  and  O2_10 
REMARK    2  A    between atoms: C12_16  and  O4_17 
REMARK    3  A    between atoms: O4_17  and  C13_18 
REMARK    4  A    between atoms: C13_18  and  C14_19 
REMARK    5  A    between atoms: C14_19  and  C15_20 
REMARK    6  A    between atoms: C15_20  and  C16_21 
REMARK    7  A    between atoms: C16_21  and  C17_22 
REMARK    8  A    between atoms: C17_22  and  C18_23 
REMARK    9  A    between atoms: C18_23  and  O5_24 
ROOT
HETATM    1  C1  UNL     1     -13.940  23.159   4.673  1.00  0.00     0.017 C 
HETATM    2  C2  UNL     1     -14.492  23.462   3.521  1.00  0.00    -0.051 C 
HETATM    3  C3  UNL     1     -14.855  24.878   3.262  1.00  0.00     0.039 C 
HETATM    4  C4  UNL     1     -15.045  25.160   1.792  1.00  0.00     0.039 C 
HETATM    5  C5  UNL     1     -15.583  23.973   1.018  1.00  0.00     0.160 C 
HETATM    6  O1  UNL     1     -15.912  22.897   1.804  1.00  0.00    -0.362 OA
HETATM    7  C6  UNL     1     -14.771  22.448   2.464  1.00  0.00     0.130 C 
HETATM    8  C7  UNL     1     -15.142  21.159   3.170  1.00  0.00     0.056 C 
HETATM    9  C8  UNL     1     -13.593  22.288   1.541  1.00  0.00     0.296 C 
HETATM   10  O3  UNL     1     -13.856  22.483   0.222  1.00  0.00    -0.342 OA
HETATM   11  C9  UNL     1     -14.654  23.560  -0.093  1.00  0.00     0.116 C 
HETATM   12  C10 UNL     1     -13.901  24.717  -0.732  1.00  0.00     0.046 C 
HETATM   13  C11 UNL     1     -14.061  23.967  -2.032  1.00  0.00     0.038 C 
HETATM   14  C12 UNL     1     -15.288  23.342  -1.448  1.00  0.00     0.158 C 
ENDROOT
BRANCH  14  15
HETATM   15  O4  UNL     1     -16.472  23.952  -1.551  1.00  0.00    -0.383 OA
BRANCH  15  16
HETATM   16  C13 UNL     1     -17.368  23.565  -2.519  1.00  0.00     0.168 C 
BRANCH  16  17
HETATM   17  C14 UNL     1     -16.804  22.626  -3.550  1.00  0.00     0.026 C 
BRANCH  17  18
HETATM   18  C15 UNL     1     -17.691  22.570  -4.760  1.00  0.00     0.002 C 
BRANCH  18  19
HETATM   19  C16 UNL     1     -17.406  21.412  -5.647  1.00  0.00     0.002 C 
BRANCH  19  20
HETATM   20  C17 UNL     1     -16.026  20.832  -5.349  1.00  0.00     0.026 C 
BRANCH  20  21
HETATM   21  C18 UNL     1     -15.895  19.422  -5.844  1.00  0.00     0.164 C 
BRANCH  21  22
HETATM   22  O5  UNL     1     -14.527  19.150  -5.927  1.00  0.00    -0.401 OA
ATOM     23  H5  UNL     1     -14.074  19.962  -5.730  1.00  0.00     0.209 HD
ENDBRANCH  21  22
ENDBRANCH  20  21
ENDBRANCH  19  20
ENDBRANCH  18  19
ENDBRANCH  17  18
ENDBRANCH  16  17
ENDBRANCH  15  16
ENDBRANCH  14  15
BRANCH   9  24
HETATM   24  O2  UNL     1     -12.551  23.063   2.036  1.00  0.00    -0.368 OA
ATOM     25  H2  UNL     1     -11.754  22.550   1.986  1.00  0.00     0.212 HD
ENDBRANCH   9  24
TORSDOF 9
ENDMDL
