MODEL 1
REMARK VINA RESULT: -6.619949610      0.000      0.000
REMARK  9 active torsions:
REMARK  status: ('A' for Active; 'I' for Inactive)
REMARK    1  A    between atoms: C2_2  and  C3_3 
REMARK    2  A    between atoms: C3_3  and  C4_4 
REMARK    3  A    between atoms: C3_3  and  C6_6 
REMARK    4  A    between atoms: C6_6  and  O1_7 
REMARK    5  A    between atoms: C6_6  and  O2_9 
REMARK    6  A    between atoms: O2_9  and  C7_10 
REMARK    7  A    between atoms: C10_13  and  C11_14 
REMARK    8  A    between atoms: C11_14  and  O3_15 
REMARK    9  A    between atoms: C13_20  and  C14_21 
ROOT
HETATM    1  C7  UNL     1     -12.906  24.503   0.808  1.00  0.00     0.155 C 
HETATM    2  C8  UNL     1     -11.520  24.600   0.209  1.00  0.00     0.004 C 
HETATM    3  C9  UNL     1     -10.591  24.406   1.134  1.00  0.00     0.013 C 
HETATM    4  C10 UNL     1     -11.267  24.169   2.406  1.00  0.00     0.116 C 
HETATM    5  O4  UNL     1     -10.690  23.151   3.203  1.00  0.00    -0.303 OA
HETATM    6  C12 UNL     1     -11.557  22.615   4.172  1.00  0.00     0.264 C 
HETATM    7  O5  UNL     1     -11.088  21.772   4.979  1.00  0.00    -0.265 OA
HETATM    8  C13 UNL     1     -12.972  22.966   4.310  1.00  0.00     0.089 C 
HETATM    9  C16 UNL     1     -13.612  23.506   3.045  1.00  0.00     0.005 C 
HETATM   10  C17 UNL     1     -14.417  24.695   3.414  1.00  0.00     0.011 C 
HETATM   11  C18 UNL     1     -12.601  23.659   2.002  1.00  0.00     0.064 C 
ENDROOT
BRANCH   1  12
HETATM   12  O2  UNL     1     -13.665  23.820  -0.151  1.00  0.00    -0.352 OA
BRANCH  12  13
HETATM   13  C6  UNL     1     -14.491  24.639  -0.875  1.00  0.00     0.261 C 
BRANCH  13  14
HETATM   14  C3  UNL     1     -15.910  24.096  -0.976  1.00  0.00     0.040 C 
BRANCH  14  15
HETATM   15  C2  UNL     1     -16.172  23.486  -2.298  1.00  0.00     0.005 C 
HETATM   16  C1  UNL     1     -17.542  23.587  -2.855  1.00  0.00     0.005 C 
ENDBRANCH  14  15
BRANCH  14  17
HETATM   17  C4  UNL     1     -16.136  23.258   0.235  1.00  0.00     0.005 C 
HETATM   18  C5  UNL     1     -17.305  23.646   1.097  1.00  0.00     0.005 C 
ENDBRANCH  14  17
ENDBRANCH  13  14
BRANCH  13  19
HETATM   19  O1  UNL     1     -14.549  25.874  -0.247  1.00  0.00    -0.371 OA
ATOM     20  H1  UNL     1     -13.659  26.180  -0.118  1.00  0.00     0.212 HD
ENDBRANCH  13  19
ENDBRANCH  12  13
ENDBRANCH   1  12
BRANCH   4  21
HETATM   21  C11 UNL     1     -11.252  25.452   3.183  1.00  0.00     0.207 C 
BRANCH  21  22
HETATM   22  O3  UNL     1     -10.159  26.245   2.953  1.00  0.00    -0.398 OA
ATOM     23  H3  UNL     1      -9.693  26.512   3.737  1.00  0.00     0.209 HD
ENDBRANCH  21  22
ENDBRANCH   4  21
BRANCH   8  24
HETATM   24  C14 UNL     1     -13.719  21.721   4.810  1.00  0.00     0.010 C 
HETATM   25  C15 UNL     1     -14.234  20.885   3.680  1.00  0.00     0.006 C 
ENDBRANCH   8  24
TORSDOF 9
ENDMDL
MODEL 2
REMARK VINA RESULT: -6.433289471      8.452     10.940
REMARK  9 active torsions:
REMARK  status: ('A' for Active; 'I' for Inactive)
REMARK    1  A    between atoms: C2_2  and  C3_3 
REMARK    2  A    between atoms: C3_3  and  C4_4 
REMARK    3  A    between atoms: C3_3  and  C6_6 
REMARK    4  A    between atoms: C6_6  and  O1_7 
REMARK    5  A    between atoms: C6_6  and  O2_9 
REMARK    6  A    between atoms: O2_9  and  C7_10 
REMARK    7  A    between atoms: C10_13  and  C11_14 
REMARK    8  A    between atoms: C11_14  and  O3_15 
REMARK    9  A    between atoms: C13_20  and  C14_21 
ROOT
HETATM    1  C7  UNL     1     -19.966  21.829  -6.445  1.00  0.00     0.155 C 
HETATM    2  C8  UNL     1     -18.860  22.861  -6.397  1.00  0.00     0.004 C 
HETATM    3  C9  UNL     1     -19.269  23.964  -5.787  1.00  0.00     0.013 C 
HETATM    4  C10 UNL     1     -20.659  23.764  -5.385  1.00  0.00     0.116 C 
HETATM    5  O4  UNL     1     -20.982  24.268  -4.102  1.00  0.00    -0.303 OA
HETATM    6  C12 UNL     1     -22.137  23.701  -3.534  1.00  0.00     0.264 C 
HETATM    7  O5  UNL     1     -22.541  24.164  -2.436  1.00  0.00    -0.265 OA
HETATM    8  C13 UNL     1     -22.907  22.606  -4.127  1.00  0.00     0.089 C 
HETATM    9  C16 UNL     1     -22.122  21.735  -5.089  1.00  0.00     0.005 C 
HETATM   10  C17 UNL     1     -22.963  21.508  -6.288  1.00  0.00     0.011 C 
HETATM   11  C18 UNL     1     -20.784  22.289  -5.284  1.00  0.00     0.064 C 
ENDROOT
BRANCH   1  12
HETATM   12  O2  UNL     1     -19.327  20.607  -6.200  1.00  0.00    -0.352 OA
BRANCH  12  13
HETATM   13  C6  UNL     1     -18.048  20.552  -6.690  1.00  0.00     0.261 C 
BRANCH  13  14
HETATM   14  C3  UNL     1     -17.115  19.743  -5.800  1.00  0.00     0.040 C 
BRANCH  14  15
HETATM   15  C2  UNL     1     -16.753  18.448  -6.419  1.00  0.00     0.005 C 
HETATM   16  C1  UNL     1     -15.314  18.114  -6.546  1.00  0.00     0.005 C 
ENDBRANCH  14  15
BRANCH  14  17
HETATM   17  C4  UNL     1     -16.009  20.656  -5.397  1.00  0.00     0.005 C 
HETATM   18  C5  UNL     1     -16.341  21.662  -4.330  1.00  0.00     0.005 C 
ENDBRANCH  14  17
ENDBRANCH  13  14
BRANCH  13  19
HETATM   19  O1  UNL     1     -18.080  19.950  -7.939  1.00  0.00    -0.371 OA
ATOM     20  H1  UNL     1     -17.191  19.920  -8.272  1.00  0.00     0.212 HD
ENDBRANCH  13  19
ENDBRANCH  12  13
ENDBRANCH   1  12
BRANCH   4  21
HETATM   21  C11 UNL     1     -21.535  24.439  -6.399  1.00  0.00     0.207 C 
BRANCH  21  22
HETATM   22  O3  UNL     1     -21.442  25.806  -6.412  1.00  0.00    -0.398 OA
ATOM     23  H3  UNL     1     -20.721  26.148  -6.928  1.00  0.00     0.209 HD
ENDBRANCH  21  22
ENDBRANCH   4  21
BRANCH   8  24
HETATM   24  C14 UNL     1     -23.489  21.765  -2.981  1.00  0.00     0.010 C 
HETATM   25  C15 UNL     1     -22.545  20.689  -2.541  1.00  0.00     0.006 C 
ENDBRANCH   8  24
TORSDOF 9
ENDMDL
MODEL 3
REMARK VINA RESULT: -6.300569398      8.245      9.772
REMARK  9 active torsions:
REMARK  status: ('A' for Active; 'I' for Inactive)
REMARK    1  A    between atoms: C2_2  and  C3_3 
REMARK    2  A    between atoms: C3_3  and  C4_4 
REMARK    3  A    between atoms: C3_3  and  C6_6 
REMARK    4  A    between atoms: C6_6  and  O1_7 
REMARK    5  A    between atoms: C6_6  and  O2_9 
REMARK    6  A    between atoms: O2_9  and  C7_10 
REMARK    7  A    between atoms: C10_13  and  C11_14 
REMARK    8  A    between atoms: C11_14  and  O3_15 
REMARK    9  A    between atoms: C13_20  and  C14_21 
ROOT
HETATM    1  C7  UNL     1     -19.148  23.049  -4.470  1.00  0.00     0.155 C 
HETATM    2  C8  UNL     1     -18.506  24.249  -3.808  1.00  0.00     0.004 C 
HETATM    3  C9  UNL     1     -19.273  24.718  -2.835  1.00  0.00     0.013 C 
HETATM    4  C10 UNL     1     -20.471  23.886  -2.768  1.00  0.00     0.116 C 
HETATM    5  O4  UNL     1     -20.909  23.583  -1.456  1.00  0.00    -0.303 OA
HETATM    6  C12 UNL     1     -21.746  22.456  -1.372  1.00  0.00     0.264 C 
HETATM    7  O5  UNL     1     -22.250  22.179  -0.254  1.00  0.00    -0.265 OA
HETATM    8  C13 UNL     1     -22.074  21.575  -2.495  1.00  0.00     0.089 C 
HETATM    9  C16 UNL     1     -21.058  21.590  -3.623  1.00  0.00     0.005 C 
HETATM   10  C17 UNL     1     -21.800  21.674  -4.903  1.00  0.00     0.011 C 
HETATM   11  C18 UNL     1     -20.033  22.596  -3.356  1.00  0.00     0.064 C 
ENDROOT
BRANCH   1  12
HETATM   12  O2  UNL     1     -18.090  22.162  -4.708  1.00  0.00    -0.352 OA
BRANCH  12  13
HETATM   13  C6  UNL     1     -17.736  22.078  -6.029  1.00  0.00     0.261 C 
BRANCH  13  14
HETATM   14  C3  UNL     1     -17.173  20.713  -6.399  1.00  0.00     0.040 C 
BRANCH  14  15
HETATM   15  C2  UNL     1     -16.185  20.239  -5.404  1.00  0.00     0.005 C 
HETATM   16  C1  UNL     1     -15.535  18.927  -5.637  1.00  0.00     0.005 C 
ENDBRANCH  14  15
BRANCH  14  17
HETATM   17  C4  UNL     1     -18.339  19.835  -6.697  1.00  0.00     0.005 C 
HETATM   18  C5  UNL     1     -18.231  18.996  -7.941  1.00  0.00     0.005 C 
ENDBRANCH  14  17
ENDBRANCH  13  14
BRANCH  13  19
HETATM   19  O1  UNL     1     -18.866  22.299  -6.803  1.00  0.00    -0.371 OA
ATOM     20  H1  UNL     1     -18.583  22.624  -7.650  1.00  0.00     0.212 HD
ENDBRANCH  13  19
ENDBRANCH  12  13
ENDBRANCH   1  12
BRANCH   4  21
HETATM   21  C11 UNL     1     -21.575  24.604  -3.487  1.00  0.00     0.207 C 
BRANCH  21  22
HETATM   22  O3  UNL     1     -21.607  25.957  -3.274  1.00  0.00    -0.398 OA
ATOM     23  H3  UNL     1     -21.396  26.482  -4.037  1.00  0.00     0.209 HD
ENDBRANCH  21  22
ENDBRANCH   4  21
BRANCH   8  24
HETATM   24  C14 UNL     1     -22.255  20.154  -1.943  1.00  0.00     0.010 C 
HETATM   25  C15 UNL     1     -23.571  19.562  -2.340  1.00  0.00     0.006 C 
ENDBRANCH   8  24
TORSDOF 9
ENDMDL
MODEL 4
REMARK VINA RESULT: -6.195252919      8.546     10.940
REMARK  9 active torsions:
REMARK  status: ('A' for Active; 'I' for Inactive)
REMARK    1  A    between atoms: C2_2  and  C3_3 
REMARK    2  A    between atoms: C3_3  and  C4_4 
REMARK    3  A    between atoms: C3_3  and  C6_6 
REMARK    4  A    between atoms: C6_6  and  O1_7 
REMARK    5  A    between atoms: C6_6  and  O2_9 
REMARK    6  A    between atoms: O2_9  and  C7_10 
REMARK    7  A    between atoms: C10_13  and  C11_14 
REMARK    8  A    between atoms: C11_14  and  O3_15 
REMARK    9  A    between atoms: C13_20  and  C14_21 
ROOT
HETATM    1  C7  UNL     1     -19.584  22.585  -4.637  1.00  0.00     0.155 C 
HETATM    2  C8  UNL     1     -19.100  23.243  -3.364  1.00  0.00     0.004 C 
HETATM    3  C9  UNL     1     -20.121  23.597  -2.597  1.00  0.00     0.013 C 
HETATM    4  C10 UNL     1     -21.351  23.214  -3.284  1.00  0.00     0.116 C 
HETATM    5  O4  UNL     1     -22.351  22.666  -2.445  1.00  0.00    -0.303 OA
HETATM    6  C12 UNL     1     -23.316  21.898  -3.122  1.00  0.00     0.264 C 
HETATM    7  O5  UNL     1     -24.289  21.456  -2.457  1.00  0.00    -0.265 OA
HETATM    8  C13 UNL     1     -23.272  21.573  -4.549  1.00  0.00     0.089 C 
HETATM    9  C16 UNL     1     -21.884  21.620  -5.161  1.00  0.00     0.005 C 
HETATM   10  C17 UNL     1     -21.982  22.338  -6.454  1.00  0.00     0.011 C 
HETATM   11  C18 UNL     1     -20.922  22.108  -4.176  1.00  0.00     0.064 C 
ENDROOT
BRANCH   1  12
HETATM   12  O2  UNL     1     -18.688  21.532  -4.860  1.00  0.00    -0.352 OA
BRANCH  12  13
HETATM   13  C6  UNL     1     -17.717  21.829  -5.780  1.00  0.00     0.261 C 
BRANCH  13  14
HETATM   14  C3  UNL     1     -17.073  20.584  -6.375  1.00  0.00     0.040 C 
BRANCH  14  15
HETATM   15  C2  UNL     1     -15.931  20.113  -5.559  1.00  0.00     0.005 C 
HETATM   16  C1  UNL     1     -15.533  18.690  -5.672  1.00  0.00     0.005 C 
ENDBRANCH  14  15
BRANCH  14  17
HETATM   17  C4  UNL     1     -18.176  19.622  -6.651  1.00  0.00     0.005 C 
HETATM   18  C5  UNL     1     -18.209  19.038  -8.037  1.00  0.00     0.005 C 
ENDBRANCH  14  17
ENDBRANCH  13  14
BRANCH  13  19
HETATM   19  O1  UNL     1     -18.295  22.548  -6.816  1.00  0.00    -0.371 OA
ATOM     20  H1  UNL     1     -17.606  23.031  -7.257  1.00  0.00     0.212 HD
ENDBRANCH  13  19
ENDBRANCH  12  13
ENDBRANCH   1  12
BRANCH   4  21
HETATM   21  C11 UNL     1     -21.906  24.434  -3.956  1.00  0.00     0.207 C 
BRANCH  21  22
HETATM   22  O3  UNL     1     -21.810  25.584  -3.217  1.00  0.00    -0.398 OA
ATOM     23  H3  UNL     1     -21.283  26.267  -3.616  1.00  0.00     0.209 HD
ENDBRANCH  21  22
ENDBRANCH   4  21
BRANCH   8  24
HETATM   24  C14 UNL     1     -23.903  20.185  -4.735  1.00  0.00     0.010 C 
HETATM   25  C15 UNL     1     -24.974  20.193  -5.782  1.00  0.00     0.006 C 
ENDBRANCH   8  24
TORSDOF 9
ENDMDL
MODEL 5
REMARK VINA RESULT: -6.124804904      7.608     10.109
REMARK  9 active torsions:
REMARK  status: ('A' for Active; 'I' for Inactive)
REMARK    1  A    between atoms: C2_2  and  C3_3 
REMARK    2  A    between atoms: C3_3  and  C4_4 
REMARK    3  A    between atoms: C3_3  and  C6_6 
REMARK    4  A    between atoms: C6_6  and  O1_7 
REMARK    5  A    between atoms: C6_6  and  O2_9 
REMARK    6  A    between atoms: O2_9  and  C7_10 
REMARK    7  A    between atoms: C10_13  and  C11_14 
REMARK    8  A    between atoms: C11_14  and  O3_15 
REMARK    9  A    between atoms: C13_20  and  C14_21 
ROOT
HETATM    1  C7  UNL     1     -17.941  22.408  -4.662  1.00  0.00     0.155 C 
HETATM    2  C8  UNL     1     -17.301  23.232  -3.566  1.00  0.00     0.004 C 
HETATM    3  C9  UNL     1     -18.191  24.031  -2.995  1.00  0.00     0.013 C 
HETATM    4  C10 UNL     1     -19.476  23.812  -3.652  1.00  0.00     0.116 C 
HETATM    5  O4  UNL     1     -20.591  23.788  -2.780  1.00  0.00    -0.303 OA
HETATM    6  C12 UNL     1     -21.725  23.146  -3.309  1.00  0.00     0.264 C 
HETATM    7  O5  UNL     1     -22.784  23.166  -2.630  1.00  0.00    -0.265 OA
HETATM    8  C13 UNL     1     -21.765  22.452  -4.598  1.00  0.00     0.089 C 
HETATM    9  C16 UNL     1     -20.414  21.972  -5.095  1.00  0.00     0.005 C 
HETATM   10  C17 UNL     1     -20.308  22.319  -6.532  1.00  0.00     0.011 C 
HETATM   11  C18 UNL     1     -19.360  22.437  -4.197  1.00  0.00     0.064 C 
ENDROOT
BRANCH   1  12
HETATM   12  O2  UNL     1     -17.363  21.138  -4.540  1.00  0.00    -0.352 OA
BRANCH  12  13
HETATM   13  C6  UNL     1     -16.949  20.611  -5.735  1.00  0.00     0.261 C 
BRANCH  13  14
HETATM   14  C3  UNL     1     -17.664  19.312  -6.081  1.00  0.00     0.040 C 
BRANCH  14  15
HETATM   15  C2  UNL     1     -18.611  19.489  -7.204  1.00  0.00     0.005 C 
HETATM   16  C1  UNL     1     -18.332  18.773  -8.472  1.00  0.00     0.005 C 
ENDBRANCH  14  15
BRANCH  14  17
HETATM   17  C4  UNL     1     -16.611  18.266  -6.215  1.00  0.00     0.005 C 
HETATM   18  C5  UNL     1     -15.196  18.725  -6.001  1.00  0.00     0.005 C 
ENDBRANCH  14  17
ENDBRANCH  13  14
BRANCH  13  19
HETATM   19  O1  UNL     1     -17.219  21.529  -6.739  1.00  0.00    -0.371 OA
ATOM     20  H1  UNL     1     -16.784  22.344  -6.516  1.00  0.00     0.212 HD
ENDBRANCH  13  19
ENDBRANCH  12  13
ENDBRANCH   1  12
BRANCH   4  21
HETATM   21  C11 UNL     1     -19.677  24.910  -4.654  1.00  0.00     0.207 C 
BRANCH  21  22
HETATM   22  O3  UNL     1     -19.925  26.142  -4.107  1.00  0.00    -0.398 OA
ATOM     23  H3  UNL     1     -20.565  26.662  -4.579  1.00  0.00     0.209 HD
ENDBRANCH  21  22
ENDBRANCH   4  21
BRANCH   8  24
HETATM   24  C14 UNL     1     -22.747  21.279  -4.471  1.00  0.00     0.010 C 
HETATM   25  C15 UNL     1     -23.589  21.117  -5.699  1.00  0.00     0.006 C 
ENDBRANCH   8  24
TORSDOF 9
ENDMDL
