MODEL 1
REMARK VINA RESULT: -6.096190572      0.000      0.000
REMARK  7 active torsions:
REMARK  status: ('A' for Active; 'I' for Inactive)
REMARK    1  A    between atoms: C10_14  and  O2_15 
REMARK    2  A    between atoms: O2_15  and  C11_16 
REMARK    3  A    between atoms: C11_16  and  C12_18 
REMARK    4  A    between atoms: C12_18  and  C13_19 
REMARK    5  A    between atoms: C13_19  and  C14_20 
REMARK    6  A    between atoms: C13_19  and  C17_23 
REMARK    7  A    between atoms: C14_20  and  C15_21 
ROOT
HETATM    1  C1  UNL     1     -16.417  23.620  -2.302  1.00  0.00     0.017 C 
HETATM    2  C2  UNL     1     -15.985  24.026  -1.134  1.00  0.00    -0.055 C 
HETATM    3  C3  UNL     1     -14.699  24.730  -1.102  1.00  0.00     0.087 C 
HETATM    4  C4  UNL     1     -13.813  24.022  -0.137  1.00  0.00    -0.014 C 
HETATM    5  N1  UNL     1     -12.589  24.435  -0.266  1.00  0.00    -0.405 N 
ATOM      6  H11 UNL     1     -11.982  23.950   0.396  1.00  0.00     0.155 HD
ATOM      7  H12 UNL     1     -12.489  25.146  -0.990  1.00  0.00     0.155 HD
HETATM    8  C5  UNL     1     -13.956  23.014   0.892  1.00  0.00     0.086 C 
HETATM    9  C6  UNL     1     -15.283  22.768   1.481  1.00  0.00     0.157 C 
HETATM   10  O1  UNL     1     -16.332  22.608   0.643  1.00  0.00    -0.373 OA
HETATM   11  C7  UNL     1     -16.826  23.736   0.036  1.00  0.00     0.150 C 
HETATM   12  C8  UNL     1     -17.024  24.906   0.944  1.00  0.00     0.039 C 
HETATM   13  C9  UNL     1     -15.937  25.084   1.962  1.00  0.00     0.038 C 
HETATM   14  C10 UNL     1     -15.646  23.767   2.588  1.00  0.00     0.161 C 
ENDROOT
BRANCH  14  15
HETATM   15  O2  UNL     1     -14.549  23.776   3.474  1.00  0.00    -0.313 OA
BRANCH  15  16
HETATM   16  C11 UNL     1     -14.202  24.854   4.258  1.00  0.00     0.260 C 
HETATM   17  O3  UNL     1     -15.060  25.279   5.071  1.00  0.00    -0.265 OA
BRANCH  16  18
HETATM   18  C12 UNL     1     -12.834  25.472   4.118  1.00  0.00     0.126 C 
BRANCH  18  19
HETATM   19  C13 UNL     1     -11.847  24.496   3.581  1.00  0.00     0.096 C 
BRANCH  19  20
HETATM   20  C14 UNL     1     -11.111  23.849   4.732  1.00  0.00     0.015 C 
BRANCH  20  21
HETATM   21  C15 UNL     1     -11.435  22.400   4.925  1.00  0.00    -0.004 C 
HETATM   22  C16 UNL     1     -11.640  21.736   3.558  1.00  0.00     0.005 C 
ENDBRANCH  20  21
ENDBRANCH  19  20
BRANCH  19  23
HETATM   23  C17 UNL     1     -10.802  25.163   2.753  1.00  0.00     0.177 C 
HETATM   24  O4  UNL     1     -10.304  24.682   1.710  1.00  0.00    -0.648 OA
HETATM   25  O5  UNL     1     -10.338  26.409   3.156  1.00  0.00    -0.648 OA
ENDBRANCH  19  23
ENDBRANCH  18  19
ENDBRANCH  16  18
ENDBRANCH  15  16
ENDBRANCH  14  15
TORSDOF 7
ENDMDL
MODEL 2
REMARK VINA RESULT: -6.067918067      1.656      2.074
REMARK  7 active torsions:
REMARK  status: ('A' for Active; 'I' for Inactive)
REMARK    1  A    between atoms: C10_14  and  O2_15 
REMARK    2  A    between atoms: O2_15  and  C11_16 
REMARK    3  A    between atoms: C11_16  and  C12_18 
REMARK    4  A    between atoms: C12_18  and  C13_19 
REMARK    5  A    between atoms: C13_19  and  C14_20 
REMARK    6  A    between atoms: C13_19  and  C17_23 
REMARK    7  A    between atoms: C14_20  and  C15_21 
ROOT
HETATM    1  C1  UNL     1     -15.975  23.251  -2.704  1.00  0.00     0.017 C 
HETATM    2  C2  UNL     1     -15.564  23.928  -1.661  1.00  0.00    -0.055 C 
HETATM    3  C3  UNL     1     -14.269  24.609  -1.771  1.00  0.00     0.087 C 
HETATM    4  C4  UNL     1     -13.416  24.154  -0.638  1.00  0.00    -0.014 C 
HETATM    5  N1  UNL     1     -12.183  24.513  -0.834  1.00  0.00    -0.405 N 
ATOM      6  H11 UNL     1     -11.599  24.201  -0.058  1.00  0.00     0.155 HD
ATOM      7  H12 UNL     1     -12.056  25.022  -1.708  1.00  0.00     0.155 HD
HETATM    8  C5  UNL     1     -13.596  23.432   0.603  1.00  0.00     0.086 C 
HETATM    9  C6  UNL     1     -14.940  23.350   1.200  1.00  0.00     0.157 C 
HETATM   10  O1  UNL     1     -15.971  22.997   0.401  1.00  0.00    -0.373 OA
HETATM   11  C7  UNL     1     -16.436  23.943  -0.478  1.00  0.00     0.150 C 
HETATM   12  C8  UNL     1     -16.638  25.303   0.108  1.00  0.00     0.039 C 
HETATM   13  C9  UNL     1     -15.572  25.718   1.078  1.00  0.00     0.038 C 
HETATM   14  C10 UNL     1     -15.314  24.594   2.017  1.00  0.00     0.161 C 
ENDROOT
BRANCH  14  15
HETATM   15  O2  UNL     1     -14.237  24.813   2.902  1.00  0.00    -0.313 OA
BRANCH  15  16
HETATM   16  C11 UNL     1     -14.342  24.738   4.273  1.00  0.00     0.260 C 
HETATM   17  O3  UNL     1     -15.354  25.257   4.806  1.00  0.00    -0.265 OA
BRANCH  16  18
HETATM   18  C12 UNL     1     -13.261  24.052   5.069  1.00  0.00     0.126 C 
BRANCH  18  19
HETATM   19  C13 UNL     1     -12.686  22.897   4.326  1.00  0.00     0.096 C 
BRANCH  19  20
HETATM   20  C14 UNL     1     -13.418  21.636   4.721  1.00  0.00     0.015 C 
BRANCH  20  21
HETATM   21  C15 UNL     1     -13.980  20.868   3.565  1.00  0.00    -0.004 C 
HETATM   22  C16 UNL     1     -15.498  20.731   3.733  1.00  0.00     0.005 C 
ENDBRANCH  20  21
ENDBRANCH  19  20
BRANCH  19  23
HETATM   23  C17 UNL     1     -11.257  22.666   4.680  1.00  0.00     0.177 C 
HETATM   24  O4  UNL     1     -10.281  23.130   4.048  1.00  0.00    -0.648 OA
HETATM   25  O5  UNL     1     -10.972  21.883   5.791  1.00  0.00    -0.648 OA
ENDBRANCH  19  23
ENDBRANCH  18  19
ENDBRANCH  16  18
ENDBRANCH  15  16
ENDBRANCH  14  15
TORSDOF 7
ENDMDL
MODEL 3
REMARK VINA RESULT: -6.057339940      3.785      8.204
REMARK  7 active torsions:
REMARK  status: ('A' for Active; 'I' for Inactive)
REMARK    1  A    between atoms: C10_14  and  O2_15 
REMARK    2  A    between atoms: O2_15  and  C11_16 
REMARK    3  A    between atoms: C11_16  and  C12_18 
REMARK    4  A    between atoms: C12_18  and  C13_19 
REMARK    5  A    between atoms: C13_19  and  C14_20 
REMARK    6  A    between atoms: C13_19  and  C17_23 
REMARK    7  A    between atoms: C14_20  and  C15_21 
ROOT
HETATM    1  C1  UNL     1     -13.629  24.116   2.502  1.00  0.00     0.017 C 
HETATM    2  C2  UNL     1     -14.180  24.422   1.355  1.00  0.00    -0.055 C 
HETATM    3  C3  UNL     1     -14.745  25.770   1.220  1.00  0.00     0.087 C 
HETATM    4  C4  UNL     1     -16.166  25.630   0.799  1.00  0.00    -0.014 C 
HETATM    5  N1  UNL     1     -16.784  26.766   0.923  1.00  0.00    -0.405 N 
ATOM      6  H11 UNL     1     -17.758  26.670   0.634  1.00  0.00     0.155 HD
ATOM      7  H12 UNL     1     -16.178  27.505   1.278  1.00  0.00     0.155 HD
HETATM    8  C5  UNL     1     -17.025  24.581   0.294  1.00  0.00     0.086 C 
HETATM    9  C6  UNL     1     -16.420  23.390  -0.327  1.00  0.00     0.157 C 
HETATM   10  O1  UNL     1     -15.410  22.774   0.328  1.00  0.00    -0.373 OA
HETATM   11  C7  UNL     1     -14.184  23.389   0.309  1.00  0.00     0.150 C 
HETATM   12  C8  UNL     1     -13.746  23.883  -1.031  1.00  0.00     0.039 C 
HETATM   13  C9  UNL     1     -14.844  24.497  -1.848  1.00  0.00     0.038 C 
HETATM   14  C10 UNL     1     -16.034  23.607  -1.796  1.00  0.00     0.161 C 
ENDROOT
BRANCH  14  15
HETATM   15  O2  UNL     1     -17.182  24.137  -2.423  1.00  0.00    -0.313 OA
BRANCH  15  16
HETATM   16  C11 UNL     1     -18.098  23.378  -3.117  1.00  0.00     0.260 C 
HETATM   17  O3  UNL     1     -19.244  23.253  -2.618  1.00  0.00    -0.265 OA
BRANCH  16  18
HETATM   18  C12 UNL     1     -17.703  22.739  -4.424  1.00  0.00     0.126 C 
BRANCH  18  19
HETATM   19  C13 UNL     1     -18.859  22.058  -5.070  1.00  0.00     0.096 C 
BRANCH  19  20
HETATM   20  C14 UNL     1     -18.372  20.814  -5.777  1.00  0.00     0.015 C 
BRANCH  20  21
HETATM   21  C15 UNL     1     -16.923  20.853  -6.151  1.00  0.00    -0.004 C 
HETATM   22  C16 UNL     1     -16.234  19.578  -5.651  1.00  0.00     0.005 C 
ENDBRANCH  20  21
ENDBRANCH  19  20
BRANCH  19  23
HETATM   23  C17 UNL     1     -19.486  22.906  -6.123  1.00  0.00     0.177 C 
HETATM   24  O4  UNL     1     -19.173  24.094  -6.362  1.00  0.00    -0.648 OA
HETATM   25  O5  UNL     1     -20.491  22.350  -6.904  1.00  0.00    -0.648 OA
ENDBRANCH  19  23
ENDBRANCH  18  19
ENDBRANCH  16  18
ENDBRANCH  15  16
ENDBRANCH  14  15
TORSDOF 7
ENDMDL
MODEL 4
REMARK VINA RESULT: -6.054522685      8.713     13.130
REMARK  7 active torsions:
REMARK  status: ('A' for Active; 'I' for Inactive)
REMARK    1  A    between atoms: C10_14  and  O2_15 
REMARK    2  A    between atoms: O2_15  and  C11_16 
REMARK    3  A    between atoms: C11_16  and  C12_18 
REMARK    4  A    between atoms: C12_18  and  C13_19 
REMARK    5  A    between atoms: C13_19  and  C14_20 
REMARK    6  A    between atoms: C13_19  and  C17_23 
REMARK    7  A    between atoms: C14_20  and  C15_21 
ROOT
HETATM    1  C1  UNL     1     -17.825  23.548  -3.818  1.00  0.00     0.017 C 
HETATM    2  C2  UNL     1     -18.809  23.287  -4.641  1.00  0.00    -0.055 C 
HETATM    3  C3  UNL     1     -19.240  24.367  -5.536  1.00  0.00     0.087 C 
HETATM    4  C4  UNL     1     -20.702  24.569  -5.338  1.00  0.00    -0.014 C 
HETATM    5  N1  UNL     1     -21.081  25.677  -5.899  1.00  0.00    -0.405 N 
ATOM      6  H11 UNL     1     -22.083  25.816  -5.763  1.00  0.00     0.155 HD
ATOM      7  H12 UNL     1     -20.312  26.171  -6.351  1.00  0.00     0.155 HD
HETATM    8  C5  UNL     1     -21.793  23.867  -4.697  1.00  0.00     0.086 C 
HETATM    9  C6  UNL     1     -21.659  22.427  -4.418  1.00  0.00     0.157 C 
HETATM   10  O1  UNL     1     -20.526  21.998  -3.819  1.00  0.00    -0.373 OA
HETATM   11  C7  UNL     1     -19.393  21.939  -4.591  1.00  0.00     0.150 C 
HETATM   12  C8  UNL     1     -19.575  21.308  -5.933  1.00  0.00     0.039 C 
HETATM   13  C9  UNL     1     -20.861  21.673  -6.613  1.00  0.00     0.038 C 
HETATM   14  C10 UNL     1     -21.973  21.546  -5.634  1.00  0.00     0.161 C 
ENDROOT
BRANCH  14  15
HETATM   15  O2  UNL     1     -23.224  21.986  -6.117  1.00  0.00    -0.313 OA
BRANCH  15  16
HETATM   16  C11 UNL     1     -24.419  21.361  -5.839  1.00  0.00     0.260 C 
HETATM   17  O3  UNL     1     -25.437  22.086  -5.718  1.00  0.00    -0.265 OA
BRANCH  16  18
HETATM   18  C12 UNL     1     -24.464  19.861  -5.693  1.00  0.00     0.126 C 
BRANCH  18  19
HETATM   19  C13 UNL     1     -25.857  19.373  -5.502  1.00  0.00     0.096 C 
BRANCH  19  20
HETATM   20  C14 UNL     1     -26.014  18.854  -4.091  1.00  0.00     0.015 C 
BRANCH  20  21
HETATM   21  C15 UNL     1     -24.719  18.548  -3.406  1.00  0.00    -0.004 C 
HETATM   22  C16 UNL     1     -24.851  17.233  -2.629  1.00  0.00     0.005 C 
ENDBRANCH  20  21
ENDBRANCH  19  20
BRANCH  19  23
HETATM   23  C17 UNL     1     -26.169  18.222  -6.396  1.00  0.00     0.177 C 
HETATM   24  O4  UNL     1     -25.553  17.132  -6.397  1.00  0.00    -0.648 OA
HETATM   25  O5  UNL     1     -27.218  18.354  -7.297  1.00  0.00    -0.648 OA
ENDBRANCH  19  23
ENDBRANCH  18  19
ENDBRANCH  16  18
ENDBRANCH  15  16
ENDBRANCH  14  15
TORSDOF 7
ENDMDL
MODEL 5
REMARK VINA RESULT: -5.962439874      8.378     12.798
REMARK  7 active torsions:
REMARK  status: ('A' for Active; 'I' for Inactive)
REMARK    1  A    between atoms: C10_14  and  O2_15 
REMARK    2  A    between atoms: O2_15  and  C11_16 
REMARK    3  A    between atoms: C11_16  and  C12_18 
REMARK    4  A    between atoms: C12_18  and  C13_19 
REMARK    5  A    between atoms: C13_19  and  C14_20 
REMARK    6  A    between atoms: C13_19  and  C17_23 
REMARK    7  A    between atoms: C14_20  and  C15_21 
ROOT
HETATM    1  C1  UNL     1     -17.798  23.539  -3.832  1.00  0.00     0.017 C 
HETATM    2  C2  UNL     1     -18.825  23.295  -4.606  1.00  0.00    -0.055 C 
HETATM    3  C3  UNL     1     -19.251  24.366  -5.514  1.00  0.00     0.087 C 
HETATM    4  C4  UNL     1     -20.694  24.632  -5.262  1.00  0.00    -0.014 C 
HETATM    5  N1  UNL     1     -21.053  25.739  -5.839  1.00  0.00    -0.405 N 
ATOM      6  H11 UNL     1     -22.042  25.922  -5.667  1.00  0.00     0.155 HD
ATOM      7  H12 UNL     1     -20.285  26.189  -6.337  1.00  0.00     0.155 HD
HETATM    8  C5  UNL     1     -21.784  23.993  -4.557  1.00  0.00     0.086 C 
HETATM    9  C6  UNL     1     -21.695  22.557  -4.242  1.00  0.00     0.157 C 
HETATM   10  O1  UNL     1     -20.555  22.099  -3.678  1.00  0.00    -0.373 OA
HETATM   11  C7  UNL     1     -19.459  21.973  -4.493  1.00  0.00     0.150 C 
HETATM   12  C8  UNL     1     -19.722  21.314  -5.808  1.00  0.00     0.039 C 
HETATM   13  C9  UNL     1     -21.020  21.711  -6.445  1.00  0.00     0.038 C 
HETATM   14  C10 UNL     1     -22.094  21.656  -5.418  1.00  0.00     0.161 C 
ENDROOT
BRANCH  14  15
HETATM   15  O2  UNL     1     -23.346  22.133  -5.862  1.00  0.00    -0.313 OA
BRANCH  15  16
HETATM   16  C11 UNL     1     -24.518  21.414  -5.776  1.00  0.00     0.260 C 
HETATM   17  O3  UNL     1     -25.559  22.040  -5.459  1.00  0.00    -0.265 OA
BRANCH  16  18
HETATM   18  C12 UNL     1     -24.510  19.933  -6.059  1.00  0.00     0.126 C 
BRANCH  18  19
HETATM   19  C13 UNL     1     -25.366  19.189  -5.096  1.00  0.00     0.096 C 
BRANCH  19  20
HETATM   20  C14 UNL     1     -24.506  18.657  -3.973  1.00  0.00     0.015 C 
BRANCH  20  21
HETATM   21  C15 UNL     1     -24.576  19.466  -2.715  1.00  0.00    -0.004 C 
HETATM   22  C16 UNL     1     -23.155  19.764  -2.221  1.00  0.00     0.005 C 
ENDBRANCH  20  21
ENDBRANCH  19  20
BRANCH  19  23
HETATM   23  C17 UNL     1     -26.000  17.995  -5.724  1.00  0.00     0.177 C 
HETATM   24  O4  UNL     1     -26.526  17.981  -6.859  1.00  0.00    -0.648 OA
HETATM   25  O5  UNL     1     -26.012  16.804  -5.009  1.00  0.00    -0.648 OA
ENDBRANCH  19  23
ENDBRANCH  18  19
ENDBRANCH  16  18
ENDBRANCH  15  16
ENDBRANCH  14  15
TORSDOF 7
ENDMDL
