MODEL 1
REMARK VINA RESULT: -5.913075020      0.000      0.000
REMARK  8 active torsions:
REMARK  status: ('A' for Active; 'I' for Inactive)
REMARK    1  A    between atoms: C2_2  and  C3_3 
REMARK    2  A    between atoms: C2_2  and  C5_5 
REMARK    3  A    between atoms: C5_5  and  C6_6 
REMARK    4  A    between atoms: C5_5  and  C9_10 
REMARK    5  A    between atoms: C6_6  and  C7_7 
REMARK    6  A    between atoms: C7_7  and  S1_8 
REMARK    7  A    between atoms: C9_10  and  O1_11 
REMARK    8  A    between atoms: C9_10  and  N1_13 
ROOT
HETATM    1  C9  UNL     1     -17.683  23.140  -3.222  1.00  0.00     0.226 C 
ENDROOT
BRANCH   1   2
HETATM    2  C5  UNL     1     -17.679  22.753  -4.692  1.00  0.00     0.063 C 
BRANCH   2   3
HETATM    3  C2  UNL     1     -19.031  22.749  -5.292  1.00  0.00    -0.081 C 
HETATM    4  C1  UNL     1     -19.283  23.737  -6.186  1.00  0.00     0.015 C 
BRANCH   3   5
HETATM    5  C3  UNL     1     -20.085  21.763  -5.026  1.00  0.00     0.029 C 
HETATM    6  C4  UNL     1     -21.054  21.694  -6.192  1.00  0.00     0.010 C 
ENDBRANCH   3   5
ENDBRANCH   2   3
BRANCH   2   7
HETATM    7  C6  UNL     1     -17.104  21.369  -4.914  1.00  0.00     0.023 C 
BRANCH   7   8
HETATM    8  C7  UNL     1     -16.920  21.006  -6.350  1.00  0.00     0.074 C 
BRANCH   8   9
HETATM    9  S1  UNL     1     -17.146  19.210  -6.586  1.00  0.00    -0.173 SA
HETATM   10  C8  UNL     1     -15.705  18.280  -6.056  1.00  0.00     0.089 C 
ENDBRANCH   8   9
ENDBRANCH   7   8
ENDBRANCH   2   7
ENDBRANCH   1   2
BRANCH   1  11
HETATM   11  O1  UNL     1     -18.707  24.013  -2.976  1.00  0.00    -0.376 OA
ATOM     12  H1  UNL     1     -19.043  23.876  -2.098  1.00  0.00     0.212 HD
ENDBRANCH   1  11
BRANCH   1  13
HETATM   13  N1  UNL     1     -16.389  23.478  -2.814  1.00  0.00    -0.351 N 
HETATM   14  C10 UNL     1     -15.843  23.765  -1.743  1.00  0.00     0.104 C 
HETATM   15  C11 UNL     1     -14.357  24.068  -1.801  1.00  0.00     0.243 C 
HETATM   16  N2  UNL     1     -16.651  23.793  -0.558  1.00  0.00    -0.339 N 
HETATM   17  O2  UNL     1     -13.706  23.438  -0.746  1.00  0.00    -0.383 OA
HETATM   18  C12 UNL     1     -13.937  23.983   0.488  1.00  0.00     0.175 C 
HETATM   19  C13 UNL     1     -14.888  23.081   1.266  1.00  0.00     0.096 C 
HETATM   20  C14 UNL     1     -16.257  23.298   0.739  1.00  0.00     0.080 C 
HETATM   21  S2  UNL     1     -17.471  22.931   1.761  1.00  0.00    -0.065 SA
ATOM     22  H2  UNL     1     -17.584  24.197  -0.640  1.00  0.00     0.168 HD
ATOM     23  H1  UNL     1     -15.733  23.491  -3.594  1.00  0.00     0.163 HD
ENDBRANCH   1  13
TORSDOF 8
ENDMDL
MODEL 2
REMARK VINA RESULT: -5.804012206      3.849      6.765
REMARK  8 active torsions:
REMARK  status: ('A' for Active; 'I' for Inactive)
REMARK    1  A    between atoms: C2_2  and  C3_3 
REMARK    2  A    between atoms: C2_2  and  C5_5 
REMARK    3  A    between atoms: C5_5  and  C6_6 
REMARK    4  A    between atoms: C5_5  and  C9_10 
REMARK    5  A    between atoms: C6_6  and  C7_7 
REMARK    6  A    between atoms: C7_7  and  S1_8 
REMARK    7  A    between atoms: C9_10  and  O1_11 
REMARK    8  A    between atoms: C9_10  and  N1_13 
ROOT
HETATM    1  C9  UNL     1     -20.160  21.635  -5.984  1.00  0.00     0.226 C 
ENDROOT
BRANCH   1   2
HETATM    2  C5  UNL     1     -18.674  21.933  -6.098  1.00  0.00     0.063 C 
BRANCH   2   3
HETATM    3  C2  UNL     1     -17.861  20.727  -6.364  1.00  0.00    -0.081 C 
HETATM    4  C1  UNL     1     -16.634  20.703  -5.787  1.00  0.00     0.015 C 
BRANCH   3   5
HETATM    5  C3  UNL     1     -18.281  19.567  -7.159  1.00  0.00     0.029 C 
HETATM    6  C4  UNL     1     -17.675  18.293  -6.598  1.00  0.00     0.010 C 
ENDBRANCH   3   5
ENDBRANCH   2   3
BRANCH   2   7
HETATM    7  C6  UNL     1     -18.120  22.556  -4.833  1.00  0.00     0.023 C 
BRANCH   7   8
HETATM    8  C7  UNL     1     -18.588  23.951  -4.582  1.00  0.00     0.074 C 
BRANCH   8   9
HETATM    9  S1  UNL     1     -18.543  24.326  -2.797  1.00  0.00    -0.173 SA
HETATM   10  C8  UNL     1     -17.078  23.651  -2.009  1.00  0.00     0.089 C 
ENDBRANCH   8   9
ENDBRANCH   7   8
ENDBRANCH   2   7
ENDBRANCH   1   2
BRANCH   1  11
HETATM   11  O1  UNL     1     -20.852  22.376  -6.902  1.00  0.00    -0.376 OA
ATOM     12  H1  UNL     1     -21.740  22.520  -6.595  1.00  0.00     0.212 HD
ENDBRANCH   1  11
BRANCH   1  13
HETATM   13  N1  UNL     1     -20.553  21.674  -4.643  1.00  0.00    -0.351 N 
HETATM   14  C10 UNL     1     -21.616  21.549  -4.025  1.00  0.00     0.104 C 
HETATM   15  C11 UNL     1     -21.542  21.677  -2.514  1.00  0.00     0.243 C 
HETATM   16  N2  UNL     1     -22.811  21.303  -4.780  1.00  0.00    -0.339 N 
HETATM   17  O2  UNL     1     -22.304  20.679  -1.919  1.00  0.00    -0.383 OA
HETATM   18  C12 UNL     1     -23.659  20.838  -2.030  1.00  0.00     0.175 C 
HETATM   19  C13 UNL     1     -24.196  19.858  -3.067  1.00  0.00     0.096 C 
HETATM   20  C14 UNL     1     -23.864  20.387  -4.412  1.00  0.00     0.080 C 
HETATM   21  S2  UNL     1     -24.815  19.867  -5.628  1.00  0.00    -0.065 SA
ATOM     22  H2  UNL     1     -22.926  21.819  -5.652  1.00  0.00     0.168 HD
ATOM     23  H1  UNL     1     -19.766  21.851  -4.018  1.00  0.00     0.163 HD
ENDBRANCH   1  13
TORSDOF 8
ENDMDL
MODEL 3
REMARK VINA RESULT: -5.793074040      2.057      2.605
REMARK  8 active torsions:
REMARK  status: ('A' for Active; 'I' for Inactive)
REMARK    1  A    between atoms: C2_2  and  C3_3 
REMARK    2  A    between atoms: C2_2  and  C5_5 
REMARK    3  A    between atoms: C5_5  and  C6_6 
REMARK    4  A    between atoms: C5_5  and  C9_10 
REMARK    5  A    between atoms: C6_6  and  C7_7 
REMARK    6  A    between atoms: C7_7  and  S1_8 
REMARK    7  A    between atoms: C9_10  and  O1_11 
REMARK    8  A    between atoms: C9_10  and  N1_13 
ROOT
HETATM    1  C9  UNL     1     -17.158  22.356  -4.841  1.00  0.00     0.226 C 
ENDROOT
BRANCH   1   2
HETATM    2  C5  UNL     1     -18.170  21.924  -5.890  1.00  0.00     0.063 C 
BRANCH   2   3
HETATM    3  C2  UNL     1     -19.469  22.619  -5.761  1.00  0.00    -0.081 C 
HETATM    4  C1  UNL     1     -19.497  23.903  -6.196  1.00  0.00     0.015 C 
BRANCH   3   5
HETATM    5  C3  UNL     1     -20.708  22.031  -5.240  1.00  0.00     0.029 C 
HETATM    6  C4  UNL     1     -21.769  21.982  -6.325  1.00  0.00     0.010 C 
ENDBRANCH   3   5
ENDBRANCH   2   3
BRANCH   2   7
HETATM    7  C6  UNL     1     -18.466  20.440  -5.818  1.00  0.00     0.023 C 
BRANCH   7   8
HETATM    8  C7  UNL     1     -18.161  19.693  -7.074  1.00  0.00     0.074 C 
BRANCH   8   9
HETATM    9  S1  UNL     1     -17.298  18.131  -6.691  1.00  0.00    -0.173 SA
HETATM   10  C8  UNL     1     -15.560  18.398  -6.333  1.00  0.00     0.089 C 
ENDBRANCH   8   9
ENDBRANCH   7   8
ENDBRANCH   2   7
ENDBRANCH   1   2
BRANCH   1  11
HETATM   11  O1  UNL     1     -16.277  21.337  -4.603  1.00  0.00    -0.376 OA
ATOM     12  H1  UNL     1     -16.750  20.520  -4.495  1.00  0.00     0.212 HD
ENDBRANCH   1  11
BRANCH   1  13
HETATM   13  N1  UNL     1     -17.816  22.952  -3.761  1.00  0.00    -0.351 N 
HETATM   14  C10 UNL     1     -17.500  23.327  -2.626  1.00  0.00     0.104 C 
HETATM   15  C11 UNL     1     -18.603  23.941  -1.784  1.00  0.00     0.243 C 
HETATM   16  N2  UNL     1     -16.140  23.145  -2.209  1.00  0.00    -0.339 N 
HETATM   17  O2  UNL     1     -18.128  25.079  -1.143  1.00  0.00    -0.383 OA
HETATM   18  C12 UNL     1     -17.249  24.846  -0.119  1.00  0.00     0.175 C 
HETATM   19  C13 UNL     1     -15.838  25.193  -0.579  1.00  0.00     0.096 C 
HETATM   20  C14 UNL     1     -15.359  24.093  -1.451  1.00  0.00     0.080 C 
HETATM   21  S2  UNL     1     -13.742  23.938  -1.564  1.00  0.00    -0.065 SA
ATOM     22  H2  UNL     1     -15.684  22.270  -2.471  1.00  0.00     0.168 HD
ATOM     23  H1  UNL     1     -18.802  23.120  -3.959  1.00  0.00     0.163 HD
ENDBRANCH   1  13
TORSDOF 8
ENDMDL
MODEL 4
REMARK VINA RESULT: -5.774941637      0.479      1.059
REMARK  8 active torsions:
REMARK  status: ('A' for Active; 'I' for Inactive)
REMARK    1  A    between atoms: C2_2  and  C3_3 
REMARK    2  A    between atoms: C2_2  and  C5_5 
REMARK    3  A    between atoms: C5_5  and  C6_6 
REMARK    4  A    between atoms: C5_5  and  C9_10 
REMARK    5  A    between atoms: C6_6  and  C7_7 
REMARK    6  A    between atoms: C7_7  and  S1_8 
REMARK    7  A    between atoms: C9_10  and  O1_11 
REMARK    8  A    between atoms: C9_10  and  N1_13 
ROOT
HETATM    1  C9  UNL     1     -17.708  23.158  -3.236  1.00  0.00     0.226 C 
ENDROOT
BRANCH   1   2
HETATM    2  C5  UNL     1     -17.719  22.750  -4.700  1.00  0.00     0.063 C 
BRANCH   2   3
HETATM    3  C2  UNL     1     -19.085  22.590  -5.244  1.00  0.00    -0.081 C 
HETATM    4  C1  UNL     1     -19.877  21.697  -4.599  1.00  0.00     0.015 C 
BRANCH   3   5
HETATM    5  C3  UNL     1     -19.647  23.327  -6.381  1.00  0.00     0.029 C 
HETATM    6  C4  UNL     1     -19.911  24.772  -5.998  1.00  0.00     0.010 C 
ENDBRANCH   3   5
ENDBRANCH   2   3
BRANCH   2   7
HETATM    7  C6  UNL     1     -17.007  21.432  -4.927  1.00  0.00     0.023 C 
BRANCH   7   8
HETATM    8  C7  UNL     1     -16.966  20.997  -6.355  1.00  0.00     0.074 C 
BRANCH   8   9
HETATM    9  S1  UNL     1     -17.230  19.195  -6.478  1.00  0.00    -0.173 SA
HETATM   10  C8  UNL     1     -15.750  18.272  -6.056  1.00  0.00     0.089 C 
ENDBRANCH   8   9
ENDBRANCH   7   8
ENDBRANCH   2   7
ENDBRANCH   1   2
BRANCH   1  11
HETATM   11  O1  UNL     1     -18.706  24.063  -3.001  1.00  0.00    -0.376 OA
ATOM     12  H1  UNL     1     -18.537  24.863  -3.486  1.00  0.00     0.212 HD
ENDBRANCH   1  11
BRANCH   1  13
HETATM   13  N1  UNL     1     -16.403  23.467  -2.837  1.00  0.00    -0.351 N 
HETATM   14  C10 UNL     1     -15.845  23.753  -1.772  1.00  0.00     0.104 C 
HETATM   15  C11 UNL     1     -14.351  24.014  -1.839  1.00  0.00     0.243 C 
HETATM   16  N2  UNL     1     -16.648  23.819  -0.585  1.00  0.00    -0.339 N 
HETATM   17  O2  UNL     1     -13.715  23.381  -0.778  1.00  0.00    -0.383 OA
HETATM   18  C12 UNL     1     -13.926  23.949   0.450  1.00  0.00     0.175 C 
HETATM   19  C13 UNL     1     -14.898  23.084   1.242  1.00  0.00     0.096 C 
HETATM   20  C14 UNL     1     -16.263  23.331   0.718  1.00  0.00     0.080 C 
HETATM   21  S2  UNL     1     -17.483  23.011   1.748  1.00  0.00    -0.065 SA
ATOM     22  H2  UNL     1     -17.570  24.247  -0.669  1.00  0.00     0.168 HD
ATOM     23  H1  UNL     1     -15.750  23.451  -3.620  1.00  0.00     0.163 HD
ENDBRANCH   1  13
TORSDOF 8
ENDMDL
MODEL 5
REMARK VINA RESULT: -5.737912378      4.679      7.108
REMARK  8 active torsions:
REMARK  status: ('A' for Active; 'I' for Inactive)
REMARK    1  A    between atoms: C2_2  and  C3_3 
REMARK    2  A    between atoms: C2_2  and  C5_5 
REMARK    3  A    between atoms: C5_5  and  C6_6 
REMARK    4  A    between atoms: C5_5  and  C9_10 
REMARK    5  A    between atoms: C6_6  and  C7_7 
REMARK    6  A    between atoms: C7_7  and  S1_8 
REMARK    7  A    between atoms: C9_10  and  O1_11 
REMARK    8  A    between atoms: C9_10  and  N1_13 
ROOT
HETATM    1  C9  UNL     1     -20.313  21.926  -5.900  1.00  0.00     0.226 C 
ENDROOT
BRANCH   1   2
HETATM    2  C5  UNL     1     -19.060  22.778  -6.021  1.00  0.00     0.063 C 
BRANCH   2   3
HETATM    3  C2  UNL     1     -17.831  22.060  -5.620  1.00  0.00    -0.081 C 
HETATM    4  C1  UNL     1     -17.308  22.410  -4.419  1.00  0.00     0.015 C 
BRANCH   3   5
HETATM    5  C3  UNL     1     -17.168  20.999  -6.387  1.00  0.00     0.029 C 
HETATM    6  C4  UNL     1     -16.017  20.410  -5.592  1.00  0.00     0.010 C 
ENDBRANCH   3   5
ENDBRANCH   2   3
BRANCH   2   7
HETATM    7  C6  UNL     1     -19.133  24.022  -5.159  1.00  0.00     0.023 C 
BRANCH   7   8
HETATM    8  C7  UNL     1     -19.954  25.124  -5.743  1.00  0.00     0.074 C 
BRANCH   8   9
HETATM    9  S1  UNL     1     -21.288  25.600  -4.592  1.00  0.00    -0.173 SA
HETATM   10  C8  UNL     1     -22.880  24.953  -5.109  1.00  0.00     0.089 C 
ENDBRANCH   8   9
ENDBRANCH   7   8
ENDBRANCH   2   7
ENDBRANCH   1   2
BRANCH   1  11
HETATM   11  O1  UNL     1     -21.232  22.319  -6.834  1.00  0.00    -0.376 OA
ATOM     12  H1  UNL     1     -20.923  22.094  -7.703  1.00  0.00     0.212 HD
ENDBRANCH   1  11
BRANCH   1  13
HETATM   13  N1  UNL     1     -20.702  21.837  -4.559  1.00  0.00    -0.351 N 
HETATM   14  C10 UNL     1     -21.750  21.587  -3.953  1.00  0.00     0.104 C 
HETATM   15  C11 UNL     1     -21.678  21.609  -2.438  1.00  0.00     0.243 C 
HETATM   16  N2  UNL     1     -22.926  21.309  -4.725  1.00  0.00    -0.339 N 
HETATM   17  O2  UNL     1     -22.360  20.515  -1.918  1.00  0.00    -0.383 OA
HETATM   18  C12 UNL     1     -23.724  20.580  -2.018  1.00  0.00     0.175 C 
HETATM   19  C13 UNL     1     -24.191  19.642  -3.125  1.00  0.00     0.096 C 
HETATM   20  C14 UNL     1     -23.906  20.292  -4.427  1.00  0.00     0.080 C 
HETATM   21  S2  UNL     1     -24.821  19.794  -5.679  1.00  0.00    -0.065 SA
ATOM     22  H2  UNL     1     -23.084  21.878  -5.557  1.00  0.00     0.168 HD
ATOM     23  H1  UNL     1     -19.927  22.026  -3.923  1.00  0.00     0.163 HD
ENDBRANCH   1  13
TORSDOF 8
ENDMDL
