MODEL 1
REMARK VINA RESULT: -7.102803044      0.000      0.000
REMARK  9 active torsions:
REMARK  status: ('A' for Active; 'I' for Inactive)
REMARK    1  A    between atoms: C2_2  and  C3_3 
REMARK    2  A    between atoms: C3_3  and  N1_4 
REMARK    3  A    between atoms: N1_4  and  C5_6 
REMARK    4  A    between atoms: C5_6  and  N2_7 
REMARK    5  A    between atoms: C7_9  and  C8_10 
REMARK    6  A    between atoms: C9_11  and  C10_12 
REMARK    7  A    between atoms: C10_12  and  O1_13 
REMARK    8  A    between atoms: C10_12  and  N3_15 
REMARK    9  A    between atoms: C18_23  and  O2_24 
ROOT
HETATM    1  N2  UNL     1     -16.786  21.663  -4.987  1.00  0.00    -0.303 N 
HETATM    2  C6  UNL     1     -16.344  22.037  -3.747  1.00  0.00     0.111 A 
HETATM    3  C7  UNL     1     -17.137  23.035  -3.280  1.00  0.00    -0.016 A 
HETATM    4  C17 UNL     1     -18.090  23.306  -4.217  1.00  0.00     0.069 A 
HETATM    5  C18 UNL     1     -17.847  22.432  -5.275  1.00  0.00     0.147 A 
ENDROOT
BRANCH   3   6
HETATM    6  C8  UNL     1     -17.037  23.754  -1.989  1.00  0.00     0.013 C 
HETATM    7  C9  UNL     1     -15.884  24.139  -1.494  1.00  0.00     0.037 C 
BRANCH   7   8
HETATM    8  C10 UNL     1     -15.849  24.846  -0.211  1.00  0.00     0.380 C 
BRANCH   8   9
HETATM    9  O1  UNL     1     -16.477  26.078  -0.379  1.00  0.00    -0.365 OA
ATOM     10  H1  UNL     1     -16.182  26.448  -1.203  1.00  0.00     0.212 HD
ENDBRANCH   8   9
BRANCH   8  11
HETATM   11  N3  UNL     1     -14.509  24.998   0.315  1.00  0.00     0.120 N 
HETATM   12  C11 UNL     1     -13.792  23.763   0.134  1.00  0.00     0.276 C 
HETATM   13  C12 UNL     1     -13.891  22.788   1.248  1.00  0.00     0.030 C 
HETATM   14  C13 UNL     1     -12.722  22.922   2.204  1.00  0.00     0.002 C 
HETATM   15  C14 UNL     1     -12.819  24.163   3.033  1.00  0.00     0.002 C 
HETATM   16  C15 UNL     1     -13.115  25.401   2.218  1.00  0.00     0.030 C 
HETATM   17  C16 UNL     1     -14.511  25.451   1.688  1.00  0.00     0.276 C 
ENDBRANCH   8  11
ENDBRANCH   7   8
ENDBRANCH   3   6
BRANCH   1  18
HETATM   18  C5  UNL     1     -16.240  20.656  -5.850  1.00  0.00     0.160 C 
BRANCH  18  19
HETATM   19  N1  UNL     1     -16.477  19.311  -5.459  1.00  0.00    -0.280 NA
HETATM   20  C4  UNL     1     -15.470  18.413  -5.981  1.00  0.00     0.117 C 
BRANCH  19  21
HETATM   21  C3  UNL     1     -17.767  18.853  -5.918  1.00  0.00     0.122 C 
BRANCH  21  22
HETATM   22  C2  UNL     1     -17.766  18.313  -7.275  1.00  0.00    -0.022 C 
HETATM   23  C1  UNL     1     -18.302  18.997  -8.267  1.00  0.00     0.008 C 
ENDBRANCH  21  22
ENDBRANCH  19  21
ENDBRANCH  18  19
ENDBRANCH   1  18
BRANCH   5  24
HETATM   24  O2  UNL     1     -18.630  22.424  -6.416  1.00  0.00    -0.346 OA
ATOM     25  H2  UNL     1     -18.589  23.008  -7.164  1.00  0.00     0.219 HD
ENDBRANCH   5  24
TORSDOF 9
ENDMDL
MODEL 2
REMARK VINA RESULT: -7.032431447      0.949      1.414
REMARK  9 active torsions:
REMARK  status: ('A' for Active; 'I' for Inactive)
REMARK    1  A    between atoms: C2_2  and  C3_3 
REMARK    2  A    between atoms: C3_3  and  N1_4 
REMARK    3  A    between atoms: N1_4  and  C5_6 
REMARK    4  A    between atoms: C5_6  and  N2_7 
REMARK    5  A    between atoms: C7_9  and  C8_10 
REMARK    6  A    between atoms: C9_11  and  C10_12 
REMARK    7  A    between atoms: C10_12  and  O1_13 
REMARK    8  A    between atoms: C10_12  and  N3_15 
REMARK    9  A    between atoms: C18_23  and  O2_24 
ROOT
HETATM    1  N2  UNL     1     -17.024  21.885  -5.039  1.00  0.00    -0.303 N 
HETATM    2  C6  UNL     1     -16.822  22.335  -3.762  1.00  0.00     0.111 A 
HETATM    3  C7  UNL     1     -17.709  23.328  -3.501  1.00  0.00    -0.016 A 
HETATM    4  C17 UNL     1     -18.482  23.521  -4.606  1.00  0.00     0.069 A 
HETATM    5  C18 UNL     1     -18.032  22.603  -5.555  1.00  0.00     0.147 A 
ENDROOT
BRANCH   3   6
HETATM    6  C8  UNL     1     -17.859  24.113  -2.254  1.00  0.00     0.013 C 
HETATM    7  C9  UNL     1     -16.908  24.179  -1.353  1.00  0.00     0.037 C 
BRANCH   7   8
HETATM    8  C10 UNL     1     -17.117  24.972  -0.138  1.00  0.00     0.380 C 
BRANCH   8   9
HETATM    9  O1  UNL     1     -16.907  26.313  -0.456  1.00  0.00    -0.365 OA
ATOM     10  H1  UNL     1     -16.246  26.353  -1.137  1.00  0.00     0.212 HD
ENDBRANCH   8   9
BRANCH   8  11
HETATM   11  N3  UNL     1     -16.281  24.548   0.965  1.00  0.00     0.120 N 
HETATM   12  C11 UNL     1     -15.045  25.285   0.926  1.00  0.00     0.276 C 
HETATM   13  C12 UNL     1     -13.950  24.670   0.135  1.00  0.00     0.030 C 
HETATM   14  C13 UNL     1     -13.029  23.850   1.014  1.00  0.00     0.002 C 
HETATM   15  C14 UNL     1     -13.673  22.576   1.462  1.00  0.00     0.002 C 
HETATM   16  C15 UNL     1     -15.064  22.777   2.017  1.00  0.00     0.030 C 
HETATM   17  C16 UNL     1     -16.081  23.116   0.977  1.00  0.00     0.276 C 
ENDBRANCH   8  11
ENDBRANCH   7   8
ENDBRANCH   3   6
BRANCH   1  18
HETATM   18  C5  UNL     1     -16.307  20.855  -5.734  1.00  0.00     0.160 C 
BRANCH  18  19
HETATM   19  N1  UNL     1     -16.587  19.523  -5.325  1.00  0.00    -0.280 NA
HETATM   20  C4  UNL     1     -15.550  18.604  -5.737  1.00  0.00     0.117 C 
BRANCH  19  21
HETATM   21  C3  UNL     1     -17.840  19.061  -5.875  1.00  0.00     0.122 C 
BRANCH  21  22
HETATM   22  C2  UNL     1     -17.722  18.416  -7.181  1.00  0.00    -0.022 C 
HETATM   23  C1  UNL     1     -18.211  18.996  -8.259  1.00  0.00     0.008 C 
ENDBRANCH  21  22
ENDBRANCH  19  21
ENDBRANCH  18  19
ENDBRANCH   1  18
BRANCH   5  24
HETATM   24  O2  UNL     1     -18.596  22.514  -6.815  1.00  0.00    -0.346 OA
ATOM     25  H2  UNL     1     -19.149  23.145  -7.261  1.00  0.00     0.219 HD
ENDBRANCH   5  24
TORSDOF 9
ENDMDL
MODEL 3
REMARK VINA RESULT: -6.839410311      2.577      8.611
REMARK  9 active torsions:
REMARK  status: ('A' for Active; 'I' for Inactive)
REMARK    1  A    between atoms: C2_2  and  C3_3 
REMARK    2  A    between atoms: C3_3  and  N1_4 
REMARK    3  A    between atoms: N1_4  and  C5_6 
REMARK    4  A    between atoms: C5_6  and  N2_7 
REMARK    5  A    between atoms: C7_9  and  C8_10 
REMARK    6  A    between atoms: C9_11  and  C10_12 
REMARK    7  A    between atoms: C10_12  and  O1_13 
REMARK    8  A    between atoms: C10_12  and  N3_15 
REMARK    9  A    between atoms: C18_23  and  O2_24 
ROOT
HETATM    1  N2  UNL     1     -15.060  23.587   0.264  1.00  0.00    -0.303 N 
HETATM    2  C6  UNL     1     -16.269  23.445  -0.362  1.00  0.00     0.111 A 
HETATM    3  C7  UNL     1     -16.140  23.828  -1.658  1.00  0.00    -0.016 A 
HETATM    4  C17 UNL     1     -14.851  24.216  -1.869  1.00  0.00     0.069 A 
HETATM    5  C18 UNL     1     -14.196  24.055  -0.649  1.00  0.00     0.147 A 
ENDROOT
BRANCH   3   6
HETATM    6  C8  UNL     1     -17.181  23.851  -2.711  1.00  0.00     0.013 C 
HETATM    7  C9  UNL     1     -17.269  22.913  -3.624  1.00  0.00     0.037 C 
BRANCH   7   8
HETATM    8  C10 UNL     1     -18.321  22.991  -4.642  1.00  0.00     0.380 C 
BRANCH   8   9
HETATM    9  O1  UNL     1     -18.818  24.293  -4.649  1.00  0.00    -0.365 OA
ATOM     10  H1  UNL     1     -19.049  24.524  -3.757  1.00  0.00     0.212 HD
ENDBRANCH   8   9
BRANCH   8  11
HETATM   11  N3  UNL     1     -19.373  22.019  -4.444  1.00  0.00     0.120 N 
HETATM   12  C11 UNL     1     -19.746  21.465  -5.719  1.00  0.00     0.276 C 
HETATM   13  C12 UNL     1     -20.830  22.178  -6.441  1.00  0.00     0.030 C 
HETATM   14  C13 UNL     1     -22.181  21.551  -6.166  1.00  0.00     0.002 C 
HETATM   15  C14 UNL     1     -22.659  21.843  -4.779  1.00  0.00     0.002 C 
HETATM   16  C15 UNL     1     -21.613  21.579  -3.722  1.00  0.00     0.030 C 
HETATM   17  C16 UNL     1     -20.497  22.573  -3.721  1.00  0.00     0.276 C 
ENDBRANCH   8  11
ENDBRANCH   7   8
ENDBRANCH   3   6
BRANCH   1  18
HETATM   18  C5  UNL     1     -14.740  23.311   1.635  1.00  0.00     0.160 C 
BRANCH  18  19
HETATM   19  N1  UNL     1     -13.954  22.150   1.865  1.00  0.00    -0.280 NA
HETATM   20  C4  UNL     1     -14.609  21.227   2.766  1.00  0.00     0.117 C 
BRANCH  19  21
HETATM   21  C3  UNL     1     -12.670  22.492   2.430  1.00  0.00     0.122 C 
BRANCH  21  22
HETATM   22  C2  UNL     1     -12.267  21.658   3.560  1.00  0.00    -0.022 C 
HETATM   23  C1  UNL     1     -11.325  22.064   4.388  1.00  0.00     0.008 C 
ENDBRANCH  21  22
ENDBRANCH  19  21
ENDBRANCH  18  19
ENDBRANCH   1  18
BRANCH   5  24
HETATM   24  O2  UNL     1     -12.855  24.356  -0.490  1.00  0.00    -0.346 OA
ATOM     25  H2  UNL     1     -12.458  25.194  -0.280  1.00  0.00     0.219 HD
ENDBRANCH   5  24
TORSDOF 9
ENDMDL
MODEL 4
REMARK VINA RESULT: -6.789710545      1.009      1.103
REMARK  9 active torsions:
REMARK  status: ('A' for Active; 'I' for Inactive)
REMARK    1  A    between atoms: C2_2  and  C3_3 
REMARK    2  A    between atoms: C3_3  and  N1_4 
REMARK    3  A    between atoms: N1_4  and  C5_6 
REMARK    4  A    between atoms: C5_6  and  N2_7 
REMARK    5  A    between atoms: C7_9  and  C8_10 
REMARK    6  A    between atoms: C9_11  and  C10_12 
REMARK    7  A    between atoms: C10_12  and  O1_13 
REMARK    8  A    between atoms: C10_12  and  N3_15 
REMARK    9  A    between atoms: C18_23  and  O2_24 
ROOT
HETATM    1  N2  UNL     1     -17.249  22.197  -4.596  1.00  0.00    -0.303 N 
HETATM    2  C6  UNL     1     -16.464  22.380  -3.490  1.00  0.00     0.111 A 
HETATM    3  C7  UNL     1     -16.998  23.371  -2.732  1.00  0.00    -0.016 A 
HETATM    4  C17 UNL     1     -18.125  23.828  -3.346  1.00  0.00     0.069 A 
HETATM    5  C18 UNL     1     -18.259  23.075  -4.512  1.00  0.00     0.147 A 
ENDROOT
BRANCH   3   6
HETATM    6  C8  UNL     1     -16.490  23.915  -1.451  1.00  0.00     0.013 C 
HETATM    7  C9  UNL     1     -15.214  24.139  -1.247  1.00  0.00     0.037 C 
BRANCH   7   8
HETATM    8  C10 UNL     1     -14.772  24.678   0.043  1.00  0.00     0.380 C 
BRANCH   8   9
HETATM    9  O1  UNL     1     -14.685  26.063  -0.075  1.00  0.00    -0.365 OA
ATOM     10  H1  UNL     1     -13.985  26.263  -0.685  1.00  0.00     0.212 HD
ENDBRANCH   8   9
BRANCH   8  11
HETATM   11  N3  UNL     1     -13.525  24.102   0.499  1.00  0.00     0.120 N 
HETATM   12  C11 UNL     1     -13.726  22.703   0.771  1.00  0.00     0.276 C 
HETATM   13  C12 UNL     1     -14.144  22.366   2.155  1.00  0.00     0.030 C 
HETATM   14  C13 UNL     1     -12.952  22.005   3.018  1.00  0.00     0.002 C 
HETATM   15  C14 UNL     1     -12.127  23.205   3.359  1.00  0.00     0.002 C 
HETATM   16  C15 UNL     1     -11.802  24.064   2.160  1.00  0.00     0.030 C 
HETATM   17  C16 UNL     1     -12.975  24.820   1.628  1.00  0.00     0.276 C 
ENDBRANCH   8  11
ENDBRANCH   7   8
ENDBRANCH   3   6
BRANCH   1  18
HETATM   18  C5  UNL     1     -17.056  21.265  -5.670  1.00  0.00     0.160 C 
BRANCH  18  19
HETATM   19  N1  UNL     1     -16.889  19.907  -5.287  1.00  0.00    -0.280 NA
HETATM   20  C4  UNL     1     -15.591  19.396  -5.669  1.00  0.00     0.117 C 
BRANCH  19  21
HETATM   21  C3  UNL     1     -17.897  19.067  -5.890  1.00  0.00     0.122 C 
BRANCH  21  22
HETATM   22  C2  UNL     1     -17.553  18.577  -7.223  1.00  0.00    -0.022 C 
HETATM   23  C1  UNL     1     -18.236  18.975  -8.278  1.00  0.00     0.008 C 
ENDBRANCH  21  22
ENDBRANCH  19  21
ENDBRANCH  18  19
ENDBRANCH   1  18
BRANCH   5  24
HETATM   24  O2  UNL     1     -19.307  23.269  -5.395  1.00  0.00    -0.346 OA
ATOM     25  H2  UNL     1     -19.437  23.982  -6.010  1.00  0.00     0.219 HD
ENDBRANCH   5  24
TORSDOF 9
ENDMDL
MODEL 5
REMARK VINA RESULT: -6.774684050      1.491      7.751
REMARK  9 active torsions:
REMARK  status: ('A' for Active; 'I' for Inactive)
REMARK    1  A    between atoms: C2_2  and  C3_3 
REMARK    2  A    between atoms: C3_3  and  N1_4 
REMARK    3  A    between atoms: N1_4  and  C5_6 
REMARK    4  A    between atoms: C5_6  and  N2_7 
REMARK    5  A    between atoms: C7_9  and  C8_10 
REMARK    6  A    between atoms: C9_11  and  C10_12 
REMARK    7  A    between atoms: C10_12  and  O1_13 
REMARK    8  A    between atoms: C10_12  and  N3_15 
REMARK    9  A    between atoms: C18_23  and  O2_24 
ROOT
HETATM    1  N2  UNL     1     -17.087  24.044  -0.582  1.00  0.00    -0.303 N 
HETATM    2  C6  UNL     1     -16.959  23.403  -1.785  1.00  0.00     0.111 A 
HETATM    3  C7  UNL     1     -17.891  23.889  -2.643  1.00  0.00    -0.016 A 
HETATM    4  C17 UNL     1     -18.620  24.842  -1.997  1.00  0.00     0.069 A 
HETATM    5  C18 UNL     1     -18.095  24.919  -0.708  1.00  0.00     0.147 A 
ENDROOT
BRANCH   3   6
HETATM    6  C8  UNL     1     -18.133  23.491  -4.049  1.00  0.00     0.013 C 
HETATM    7  C9  UNL     1     -17.628  22.393  -4.560  1.00  0.00     0.037 C 
BRANCH   7   8
HETATM    8  C10 UNL     1     -17.902  22.054  -5.959  1.00  0.00     0.380 C 
BRANCH   8   9
HETATM    9  O1  UNL     1     -19.207  21.573  -6.039  1.00  0.00    -0.365 OA
ATOM     10  H1  UNL     1     -19.330  21.199  -6.904  1.00  0.00     0.212 HD
ENDBRANCH   8   9
BRANCH   8  11
HETATM   11  N3  UNL     1     -16.952  21.111  -6.509  1.00  0.00     0.120 N 
HETATM   12  C11 UNL     1     -17.657  20.154  -7.320  1.00  0.00     0.276 C 
HETATM   13  C12 UNL     1     -18.137  18.938  -6.616  1.00  0.00     0.030 C 
HETATM   14  C13 UNL     1     -17.147  17.798  -6.748  1.00  0.00     0.002 C 
HETATM   15  C14 UNL     1     -15.923  18.023  -5.919  1.00  0.00     0.002 C 
HETATM   16  C15 UNL     1     -15.329  19.400  -6.098  1.00  0.00     0.030 C 
HETATM   17  C16 UNL     1     -16.144  20.491  -5.482  1.00  0.00     0.276 C 
ENDBRANCH   8  11
ENDBRANCH   7   8
ENDBRANCH   3   6
BRANCH   1  18
HETATM   18  C5  UNL     1     -16.319  23.839   0.612  1.00  0.00     0.160 C 
BRANCH  18  19
HETATM   19  N1  UNL     1     -14.990  23.373   0.420  1.00  0.00    -0.280 NA
HETATM   20  C4  UNL     1     -14.492  22.673   1.583  1.00  0.00     0.117 C 
BRANCH  19  21
HETATM   21  C3  UNL     1     -14.089  24.466   0.135  1.00  0.00     0.122 C 
BRANCH  21  22
HETATM   22  C2  UNL     1     -13.077  24.163  -0.875  1.00  0.00    -0.022 C 
HETATM   23  C1  UNL     1     -13.430  23.684  -2.051  1.00  0.00     0.008 C 
ENDBRANCH  21  22
ENDBRANCH  19  21
ENDBRANCH  18  19
ENDBRANCH   1  18
BRANCH   5  24
HETATM   24  O2  UNL     1     -18.599  25.795   0.238  1.00  0.00    -0.346 OA
ATOM     25  H2  UNL     1     -19.192  25.611   0.957  1.00  0.00     0.219 HD
ENDBRANCH   5  24
TORSDOF 9
ENDMDL
