MODEL 1
REMARK VINA RESULT: -8.148773364      0.000      0.000
REMARK  8 active torsions:
REMARK  status: ('A' for Active; 'I' for Inactive)
REMARK    1  A    between atoms: C1_2  and  C2_3 
REMARK    2  A    between atoms: C1_2  and  C11_12 
REMARK    3  A    between atoms: C2_3  and  C3_4 
REMARK    4  A    between atoms: C3_4  and  C4_5 
REMARK    5  A    between atoms: C11_12  and  O2_13 
REMARK    6  A    between atoms: O2_13  and  C12_14 
REMARK    7  A    between atoms: C12_14  and  C13_16 
REMARK    8  A    between atoms: C15_22  and  C16_23 
ROOT
HETATM    1  O2  UNL     1     -15.089  24.394  -1.644  1.00  0.00    -0.309 OA
ENDROOT
BRANCH   1   2
HETATM    2  C11 UNL     1     -16.215  23.564  -1.543  1.00  0.00     0.257 C 
BRANCH   2   3
HETATM    3  C1  UNL     1     -17.030  23.492  -2.775  1.00  0.00     0.150 C 
HETATM    4  O1  UNL     1     -17.933  24.280  -2.937  1.00  0.00    -0.296 OA
BRANCH   3   5
HETATM    5  C2  UNL     1     -16.762  22.476  -3.814  1.00  0.00     0.082 C 
BRANCH   5   6
HETATM    6  C3  UNL     1     -18.026  22.145  -4.608  1.00  0.00     0.024 C 
BRANCH   6   7
HETATM    7  C4  UNL     1     -17.523  21.539  -5.935  1.00  0.00     0.056 C 
HETATM    8  C5  UNL     1     -16.517  20.564  -5.817  1.00  0.00    -0.178 C 
HETATM    9  C6  UNL     1     -15.573  19.527  -5.722  1.00  0.00     0.084 C 
HETATM   10  C7  UNL     1     -16.260  18.255  -6.327  1.00  0.00     0.038 C 
HETATM   11  C8  UNL     1     -17.769  18.425  -6.436  1.00  0.00    -0.030 C 
HETATM   12  C9  UNL     1     -18.390  19.480  -7.182  1.00  0.00    -0.029 C 
HETATM   13  C10 UNL     1     -18.771  20.823  -6.560  1.00  0.00     0.043 C 
ENDBRANCH   6   7
ENDBRANCH   5   6
ENDBRANCH   3   5
ENDBRANCH   2   3
ENDBRANCH   1   2
BRANCH   1  14
HETATM   14  C12 UNL     1     -13.780  24.046  -1.546  1.00  0.00     0.313 C 
HETATM   15  O3  UNL     1     -13.242  23.585  -2.599  1.00  0.00    -0.258 OA
BRANCH  14  16
HETATM   16  C13 UNL     1     -12.930  24.142  -0.371  1.00  0.00     0.143 A 
HETATM   17  N1  UNL     1     -11.687  24.716  -0.377  1.00  0.00    -0.345 N 
HETATM   18  C14 UNL     1     -11.135  24.667   0.834  1.00  0.00     0.181 A 
ATOM     19  H1  UNL     1     -11.244  25.127  -1.198  1.00  0.00     0.167 HD
HETATM   20  N2  UNL     1     -12.022  24.062   1.623  1.00  0.00    -0.345 N 
HETATM   21  C15 UNL     1     -13.135  23.725   0.920  1.00  0.00     0.143 A 
ATOM     22  H2  UNL     1     -11.884  23.876   2.616  1.00  0.00     0.167 HD
BRANCH  21  23
HETATM   23  C16 UNL     1     -14.274  23.053   1.500  1.00  0.00     0.229 C 
HETATM   24  O4  UNL     1     -15.252  23.803   1.854  1.00  0.00    -0.643 OA
HETATM   25  O5  UNL     1     -14.452  21.723   1.725  1.00  0.00    -0.643 OA
ENDBRANCH  21  23
ENDBRANCH  14  16
ENDBRANCH   1  14
TORSDOF 8
ENDMDL
MODEL 2
REMARK VINA RESULT: -7.826098174      1.341      2.135
REMARK  8 active torsions:
REMARK  status: ('A' for Active; 'I' for Inactive)
REMARK    1  A    between atoms: C1_2  and  C2_3 
REMARK    2  A    between atoms: C1_2  and  C11_12 
REMARK    3  A    between atoms: C2_3  and  C3_4 
REMARK    4  A    between atoms: C3_4  and  C4_5 
REMARK    5  A    between atoms: C11_12  and  O2_13 
REMARK    6  A    between atoms: O2_13  and  C12_14 
REMARK    7  A    between atoms: C12_14  and  C13_16 
REMARK    8  A    between atoms: C15_22  and  C16_23 
ROOT
HETATM    1  O2  UNL     1     -14.420  25.014  -1.507  1.00  0.00    -0.309 OA
ENDROOT
BRANCH   1   2
HETATM    2  C11 UNL     1     -15.677  24.875  -0.903  1.00  0.00     0.257 C 
BRANCH   2   3
HETATM    3  C1  UNL     1     -16.377  23.615  -1.236  1.00  0.00     0.150 C 
HETATM    4  O1  UNL     1     -16.724  22.875  -0.346  1.00  0.00    -0.296 OA
BRANCH   3   5
HETATM    5  C2  UNL     1     -16.661  23.243  -2.638  1.00  0.00     0.082 C 
BRANCH   5   6
HETATM    6  C3  UNL     1     -18.078  23.646  -3.045  1.00  0.00     0.024 C 
BRANCH   6   7
HETATM    7  C4  UNL     1     -18.101  23.548  -4.584  1.00  0.00     0.056 C 
HETATM    8  C5  UNL     1     -17.733  22.301  -5.120  1.00  0.00    -0.178 C 
HETATM    9  C6  UNL     1     -17.452  21.043  -5.679  1.00  0.00     0.084 C 
HETATM   10  C7  UNL     1     -18.754  20.597  -6.429  1.00  0.00     0.038 C 
HETATM   11  C8  UNL     1     -19.963  21.415  -5.997  1.00  0.00    -0.030 C 
HETATM   12  C9  UNL     1     -20.029  22.843  -6.112  1.00  0.00    -0.029 C 
HETATM   13  C10 UNL     1     -19.598  23.786  -4.990  1.00  0.00     0.043 C 
ENDBRANCH   6   7
ENDBRANCH   5   6
ENDBRANCH   3   5
ENDBRANCH   2   3
ENDBRANCH   1   2
BRANCH   1  14
HETATM   14  C12 UNL     1     -13.293  24.292  -1.275  1.00  0.00     0.313 C 
HETATM   15  O3  UNL     1     -12.909  23.533  -2.216  1.00  0.00    -0.258 OA
BRANCH  14  16
HETATM   16  C13 UNL     1     -12.483  24.292  -0.068  1.00  0.00     0.143 A 
HETATM   17  N1  UNL     1     -11.233  24.845   0.008  1.00  0.00    -0.345 N 
HETATM   18  C14 UNL     1     -10.723  24.702   1.230  1.00  0.00     0.181 A 
ATOM     19  H1  UNL     1     -10.756  25.305  -0.767  1.00  0.00     0.167 HD
HETATM   20  N2  UNL     1     -11.644  24.057   1.944  1.00  0.00    -0.345 N 
HETATM   21  C15 UNL     1     -12.737  23.789   1.182  1.00  0.00     0.143 A 
ATOM     22  H2  UNL     1     -11.543  23.800   2.926  1.00  0.00     0.167 HD
BRANCH  21  23
HETATM   23  C16 UNL     1     -13.904  23.096   1.676  1.00  0.00     0.229 C 
HETATM   24  O4  UNL     1     -13.973  21.844   1.406  1.00  0.00    -0.643 OA
HETATM   25  O5  UNL     1     -14.948  23.593   2.394  1.00  0.00    -0.643 OA
ENDBRANCH  21  23
ENDBRANCH  14  16
ENDBRANCH   1  14
TORSDOF 8
ENDMDL
MODEL 3
REMARK VINA RESULT: -7.505246260      5.758      8.185
REMARK  8 active torsions:
REMARK  status: ('A' for Active; 'I' for Inactive)
REMARK    1  A    between atoms: C1_2  and  C2_3 
REMARK    2  A    between atoms: C1_2  and  C11_12 
REMARK    3  A    between atoms: C2_3  and  C3_4 
REMARK    4  A    between atoms: C3_4  and  C4_5 
REMARK    5  A    between atoms: C11_12  and  O2_13 
REMARK    6  A    between atoms: O2_13  and  C12_14 
REMARK    7  A    between atoms: C12_14  and  C13_16 
REMARK    8  A    between atoms: C15_22  and  C16_23 
ROOT
HETATM    1  O2  UNL     1     -19.887  21.474  -4.959  1.00  0.00    -0.309 OA
ENDROOT
BRANCH   1   2
HETATM    2  C11 UNL     1     -20.857  22.479  -4.837  1.00  0.00     0.257 C 
BRANCH   2   3
HETATM    3  C1  UNL     1     -21.692  22.670  -6.042  1.00  0.00     0.150 C 
HETATM    4  O1  UNL     1     -21.207  23.174  -7.028  1.00  0.00    -0.296 OA
BRANCH   3   5
HETATM    5  C2  UNL     1     -23.111  22.254  -6.067  1.00  0.00     0.082 C 
BRANCH   5   6
HETATM    6  C3  UNL     1     -23.244  20.732  -6.111  1.00  0.00     0.024 C 
BRANCH   6   7
HETATM    7  C4  UNL     1     -24.552  20.419  -5.356  1.00  0.00     0.056 C 
HETATM    8  C5  UNL     1     -25.123  19.161  -5.622  1.00  0.00    -0.178 C 
HETATM    9  C6  UNL     1     -25.669  17.879  -5.804  1.00  0.00     0.084 C 
HETATM   10  C7  UNL     1     -25.631  17.185  -4.400  1.00  0.00     0.038 C 
HETATM   11  C8  UNL     1     -24.701  17.908  -3.437  1.00  0.00    -0.030 C 
HETATM   12  C9  UNL     1     -24.854  19.289  -3.081  1.00  0.00    -0.029 C 
HETATM   13  C10 UNL     1     -24.163  20.422  -3.836  1.00  0.00     0.043 C 
ENDBRANCH   6   7
ENDBRANCH   5   6
ENDBRANCH   3   5
ENDBRANCH   2   3
ENDBRANCH   1   2
BRANCH   1  14
HETATM   14  C12 UNL     1     -18.757  21.487  -5.712  1.00  0.00     0.313 C 
HETATM   15  O3  UNL     1     -18.102  22.573  -5.721  1.00  0.00    -0.258 OA
BRANCH  14  16
HETATM   16  C13 UNL     1     -18.219  20.397  -6.508  1.00  0.00     0.143 A 
HETATM   17  N1  UNL     1     -18.821  19.910  -7.637  1.00  0.00    -0.345 N 
HETATM   18  C14 UNL     1     -18.110  18.915  -8.164  1.00  0.00     0.181 A 
ATOM     19  H1  UNL     1     -19.697  20.263  -8.023  1.00  0.00     0.167 HD
HETATM   20  N2  UNL     1     -17.048  18.759  -7.376  1.00  0.00    -0.345 N 
HETATM   21  C15 UNL     1     -17.079  19.650  -6.350  1.00  0.00     0.143 A 
ATOM     22  H2  UNL     1     -16.313  18.067  -7.522  1.00  0.00     0.167 HD
BRANCH  21  23
HETATM   23  C16 UNL     1     -16.064  19.725  -5.326  1.00  0.00     0.229 C 
HETATM   24  O4  UNL     1     -15.639  18.605  -4.870  1.00  0.00    -0.643 OA
HETATM   25  O5  UNL     1     -15.492  20.830  -4.776  1.00  0.00    -0.643 OA
ENDBRANCH  21  23
ENDBRANCH  14  16
ENDBRANCH   1  14
TORSDOF 8
ENDMDL
MODEL 4
REMARK VINA RESULT: -7.454353877      1.902      2.451
REMARK  8 active torsions:
REMARK  status: ('A' for Active; 'I' for Inactive)
REMARK    1  A    between atoms: C1_2  and  C2_3 
REMARK    2  A    between atoms: C1_2  and  C11_12 
REMARK    3  A    between atoms: C2_3  and  C3_4 
REMARK    4  A    between atoms: C3_4  and  C4_5 
REMARK    5  A    between atoms: C11_12  and  O2_13 
REMARK    6  A    between atoms: O2_13  and  C12_14 
REMARK    7  A    between atoms: C12_14  and  C13_16 
REMARK    8  A    between atoms: C15_22  and  C16_23 
ROOT
HETATM    1  O2  UNL     1     -17.059  23.758  -2.781  1.00  0.00    -0.309 OA
ENDROOT
BRANCH   1   2
HETATM    2  C11 UNL     1     -18.439  23.691  -3.019  1.00  0.00     0.257 C 
BRANCH   2   3
HETATM    3  C1  UNL     1     -18.843  24.104  -4.380  1.00  0.00     0.150 C 
HETATM    4  O1  UNL     1     -19.468  25.127  -4.529  1.00  0.00    -0.296 OA
BRANCH   3   5
HETATM    5  C2  UNL     1     -18.496  23.289  -5.564  1.00  0.00     0.082 C 
BRANCH   5   6
HETATM    6  C3  UNL     1     -18.450  21.801  -5.221  1.00  0.00     0.024 C 
BRANCH   6   7
HETATM    7  C4  UNL     1     -17.672  21.143  -6.379  1.00  0.00     0.056 C 
HETATM    8  C5  UNL     1     -16.582  20.339  -6.003  1.00  0.00    -0.178 C 
HETATM    9  C6  UNL     1     -15.540  19.464  -5.652  1.00  0.00     0.084 C 
HETATM   10  C7  UNL     1     -15.957  18.052  -6.189  1.00  0.00     0.038 C 
HETATM   11  C8  UNL     1     -17.439  17.991  -6.530  1.00  0.00    -0.030 C 
HETATM   12  C9  UNL     1     -18.065  18.866  -7.479  1.00  0.00    -0.029 C 
HETATM   13  C10 UNL     1     -18.706  20.196  -7.084  1.00  0.00     0.043 C 
ENDBRANCH   6   7
ENDBRANCH   5   6
ENDBRANCH   3   5
ENDBRANCH   2   3
ENDBRANCH   1   2
BRANCH   1  14
HETATM   14  C12 UNL     1     -16.410  23.694  -1.589  1.00  0.00     0.313 C 
HETATM   15  O3  UNL     1     -17.090  23.278  -0.602  1.00  0.00    -0.258 OA
BRANCH  14  16
HETATM   16  C13 UNL     1     -15.027  24.051  -1.321  1.00  0.00     0.143 A 
HETATM   17  N1  UNL     1     -13.959  23.497  -1.974  1.00  0.00    -0.345 N 
HETATM   18  C14 UNL     1     -12.812  24.008  -1.530  1.00  0.00     0.181 A 
ATOM     19  H1  UNL     1     -14.032  22.788  -2.704  1.00  0.00     0.167 HD
HETATM   20  N2  UNL     1     -13.140  24.893  -0.589  1.00  0.00    -0.345 N 
HETATM   21  C15 UNL     1     -14.489  24.947  -0.434  1.00  0.00     0.143 A 
ATOM     22  H2  UNL     1     -12.471  25.452  -0.059  1.00  0.00     0.167 HD
BRANCH  21  23
HETATM   23  C16 UNL     1     -15.149  25.813   0.515  1.00  0.00     0.229 C 
HETATM   24  O4  UNL     1     -14.617  25.883   1.680  1.00  0.00    -0.643 OA
HETATM   25  O5  UNL     1     -16.266  26.570   0.341  1.00  0.00    -0.643 OA
ENDBRANCH  21  23
ENDBRANCH  14  16
ENDBRANCH   1  14
TORSDOF 8
ENDMDL
MODEL 5
REMARK VINA RESULT: -7.448778750      1.425      1.484
REMARK  8 active torsions:
REMARK  status: ('A' for Active; 'I' for Inactive)
REMARK    1  A    between atoms: C1_2  and  C2_3 
REMARK    2  A    between atoms: C1_2  and  C11_12 
REMARK    3  A    between atoms: C2_3  and  C3_4 
REMARK    4  A    between atoms: C3_4  and  C4_5 
REMARK    5  A    between atoms: C11_12  and  O2_13 
REMARK    6  A    between atoms: O2_13  and  C12_14 
REMARK    7  A    between atoms: C12_14  and  C13_16 
REMARK    8  A    between atoms: C15_22  and  C16_23 
ROOT
HETATM    1  O2  UNL     1     -15.414  23.925  -2.046  1.00  0.00    -0.309 OA
ENDROOT
BRANCH   1   2
HETATM    2  C11 UNL     1     -16.756  23.612  -1.790  1.00  0.00     0.257 C 
BRANCH   2   3
HETATM    3  C1  UNL     1     -17.580  23.428  -3.005  1.00  0.00     0.150 C 
HETATM    4  O1  UNL     1     -18.639  24.003  -3.097  1.00  0.00    -0.296 OA
BRANCH   3   5
HETATM    5  C2  UNL     1     -17.133  22.553  -4.110  1.00  0.00     0.082 C 
BRANCH   5   6
HETATM    6  C3  UNL     1     -18.316  22.064  -4.945  1.00  0.00     0.024 C 
BRANCH   6   7
HETATM    7  C4  UNL     1     -17.686  21.406  -6.191  1.00  0.00     0.056 C 
HETATM    8  C5  UNL     1     -16.611  20.536  -5.942  1.00  0.00    -0.178 C 
HETATM    9  C6  UNL     1     -15.591  19.596  -5.716  1.00  0.00     0.084 C 
HETATM   10  C7  UNL     1     -16.131  18.227  -6.251  1.00  0.00     0.038 C 
HETATM   11  C8  UNL     1     -17.640  18.254  -6.452  1.00  0.00    -0.030 C 
HETATM   12  C9  UNL     1     -18.303  19.191  -7.312  1.00  0.00    -0.029 C 
HETATM   13  C10 UNL     1     -18.831  20.537  -6.821  1.00  0.00     0.043 C 
ENDBRANCH   6   7
ENDBRANCH   5   6
ENDBRANCH   3   5
ENDBRANCH   2   3
ENDBRANCH   1   2
BRANCH   1  14
HETATM   14  C12 UNL     1     -14.421  24.154  -1.148  1.00  0.00     0.313 C 
HETATM   15  O3  UNL     1     -13.239  23.920  -1.545  1.00  0.00    -0.258 OA
BRANCH  14  16
HETATM   16  C13 UNL     1     -14.564  24.635   0.217  1.00  0.00     0.143 A 
HETATM   17  N1  UNL     1     -14.503  25.957   0.567  1.00  0.00    -0.345 N 
HETATM   18  C14 UNL     1     -14.666  26.109   1.880  1.00  0.00     0.181 A 
ATOM     19  H1  UNL     1     -14.353  26.723  -0.090  1.00  0.00     0.167 HD
HETATM   20  N2  UNL     1     -14.833  24.885   2.378  1.00  0.00    -0.345 N 
HETATM   21  C15 UNL     1     -14.777  23.955   1.389  1.00  0.00     0.143 A 
ATOM     22  H2  UNL     1     -14.982  24.675   3.365  1.00  0.00     0.167 HD
BRANCH  21  23
HETATM   23  C16 UNL     1     -14.921  22.536   1.617  1.00  0.00     0.229 C 
HETATM   24  O4  UNL     1     -16.119  22.081   1.599  1.00  0.00    -0.643 OA
HETATM   25  O5  UNL     1     -13.952  21.610   1.851  1.00  0.00    -0.643 OA
ENDBRANCH  21  23
ENDBRANCH  14  16
ENDBRANCH   1  14
TORSDOF 8
ENDMDL
