MODEL 1
REMARK VINA RESULT: -6.627720712      0.000      0.000
REMARK  9 active torsions:
REMARK  status: ('A' for Active; 'I' for Inactive)
REMARK    1  A    between atoms: C2_2  and  C3_3 
REMARK    2  A    between atoms: C3_3  and  C4_4 
REMARK    3  A    between atoms: C4_4  and  C5_5 
REMARK       I    between atoms: C5_5  and  N1_7 
REMARK    4  A    between atoms: N1_7  and  C6_9 
REMARK    5  A    between atoms: C7_14  and  S1_15 
REMARK    6  A    between atoms: S1_15  and  C8_16 
REMARK    7  A    between atoms: C8_16  and  C9_17 
REMARK    8  A    between atoms: C9_17  and  O2_18 
REMARK    9  A    between atoms: C9_17  and  C10_20 
ROOT
HETATM    1  C6  UNL     1     -15.800  23.965  -0.350  1.00  0.00     0.168 A 
HETATM    2  N2  UNL     1     -15.281  23.552  -1.512  1.00  0.00    -0.278 N 
ATOM      3  H2  UNL     1     -14.306  23.261  -1.572  1.00  0.00     0.189 HD
HETATM    4  N3  UNL     1     -16.029  23.529  -2.537  1.00  0.00    -0.286 N 
ATOM      5  H3  UNL     1     -15.653  23.218  -3.433  1.00  0.00     0.188 HD
HETATM    6  C7  UNL     1     -17.294  23.907  -2.448  1.00  0.00     0.130 A 
HETATM    7  S2  UNL     1     -17.412  24.319  -0.796  1.00  0.00    -0.026 SA
ENDROOT
BRANCH   6   8
HETATM    8  S1  UNL     1     -18.524  23.952  -3.773  1.00  0.00    -0.101 SA
BRANCH   8   9
HETATM    9  C8  UNL     1     -18.593  22.319  -4.525  1.00  0.00     0.113 C 
BRANCH   9  10
HETATM   10  C9  UNL     1     -17.706  22.225  -5.706  1.00  0.00     0.132 C 
BRANCH  10  11
HETATM   11  O2  UNL     1     -18.519  22.657  -6.819  1.00  0.00    -0.394 OA
ATOM     12  H2  UNL     1     -19.045  21.899  -7.047  1.00  0.00     0.210 HD
ENDBRANCH  10  11
BRANCH  10  13
HETATM   13  C10 UNL     1     -17.151  20.913  -6.077  1.00  0.00     0.015 C 
HETATM   14  C11 UNL     1     -16.046  20.350  -5.225  1.00  0.00     0.007 C 
HETATM   15  C12 UNL     1     -15.761  19.075  -6.072  1.00  0.00     0.000 C 
HETATM   16  C13 UNL     1     -17.161  18.596  -6.409  1.00  0.00     0.000 C 
HETATM   17  C14 UNL     1     -18.116  19.748  -6.059  1.00  0.00     0.007 C 
ENDBRANCH  10  13
ENDBRANCH   9  10
ENDBRANCH   8   9
ENDBRANCH   6   8
BRANCH   1  18
HETATM   18  N1  UNL     1     -15.205  24.063   0.818  1.00  0.00    -0.306 N 
HETATM   19  C5  UNL     1     -14.019  23.305   1.014  1.00  0.00     0.223 C 
HETATM   20  O1  UNL     1     -14.016  22.046   1.060  1.00  0.00    -0.273 OA
ATOM     21  H1  UNL     1     -15.579  24.662   1.555  1.00  0.00     0.171 HD
BRANCH  19  22
HETATM   22  C4  UNL     1     -12.759  24.070   1.167  1.00  0.00     0.107 C 
BRANCH  22  23
HETATM   23  C3  UNL     1     -12.338  24.000   2.618  1.00  0.00     0.035 C 
BRANCH  23  24
HETATM   24  C2  UNL     1     -11.190  23.081   2.747  1.00  0.00    -0.036 C 
HETATM   25  C1  UNL     1     -11.300  21.996   3.491  1.00  0.00     0.007 C 
ENDBRANCH  23  24
ENDBRANCH  22  23
ENDBRANCH  19  22
ENDBRANCH   1  18
TORSDOF 9
ENDMDL
MODEL 2
REMARK VINA RESULT: -6.599186272      1.955      2.542
REMARK  9 active torsions:
REMARK  status: ('A' for Active; 'I' for Inactive)
REMARK    1  A    between atoms: C2_2  and  C3_3 
REMARK    2  A    between atoms: C3_3  and  C4_4 
REMARK    3  A    between atoms: C4_4  and  C5_5 
REMARK       I    between atoms: C5_5  and  N1_7 
REMARK    4  A    between atoms: N1_7  and  C6_9 
REMARK    5  A    between atoms: C7_14  and  S1_15 
REMARK    6  A    between atoms: S1_15  and  C8_16 
REMARK    7  A    between atoms: C8_16  and  C9_17 
REMARK    8  A    between atoms: C9_17  and  O2_18 
REMARK    9  A    between atoms: C9_17  and  C10_20 
ROOT
HETATM    1  C6  UNL     1     -17.414  24.172  -1.164  1.00  0.00     0.168 A 
HETATM    2  N2  UNL     1     -16.892  23.275  -2.009  1.00  0.00    -0.278 N 
ATOM      3  H2  UNL     1     -16.121  22.674  -1.719  1.00  0.00     0.189 HD
HETATM    4  N3  UNL     1     -17.377  23.189  -3.178  1.00  0.00    -0.286 N 
ATOM      5  H3  UNL     1     -16.994  22.513  -3.839  1.00  0.00     0.188 HD
HETATM    6  C7  UNL     1     -18.378  23.973  -3.545  1.00  0.00     0.130 A 
HETATM    7  S2  UNL     1     -18.635  24.886  -2.124  1.00  0.00    -0.026 SA
ENDROOT
BRANCH   6   8
HETATM    8  S1  UNL     1     -19.213  24.016  -5.148  1.00  0.00    -0.101 SA
BRANCH   8   9
HETATM    9  C8  UNL     1     -18.427  22.800  -6.218  1.00  0.00     0.113 C 
BRANCH   9  10
HETATM   10  C9  UNL     1     -19.042  21.463  -6.066  1.00  0.00     0.132 C 
BRANCH  10  11
HETATM   11  O2  UNL     1     -19.776  21.528  -4.823  1.00  0.00    -0.394 OA
ATOM     12  H2  UNL     1     -19.501  20.761  -4.335  1.00  0.00     0.210 HD
ENDBRANCH  10  11
BRANCH  10  13
HETATM   13  C10 UNL     1     -18.166  20.283  -5.972  1.00  0.00     0.015 C 
HETATM   14  C11 UNL     1     -18.117  19.350  -7.152  1.00  0.00     0.007 C 
HETATM   15  C12 UNL     1     -17.184  18.272  -6.523  1.00  0.00     0.000 C 
HETATM   16  C13 UNL     1     -16.139  19.123  -5.825  1.00  0.00     0.000 C 
HETATM   17  C14 UNL     1     -16.689  20.557  -5.792  1.00  0.00     0.007 C 
ENDBRANCH  10  13
ENDBRANCH   9  10
ENDBRANCH   8   9
ENDBRANCH   6   8
BRANCH   1  18
HETATM   18  N1  UNL     1     -17.063  24.420   0.079  1.00  0.00    -0.306 N 
HETATM   19  C5  UNL     1     -16.102  23.557   0.672  1.00  0.00     0.223 C 
HETATM   20  O1  UNL     1     -16.339  22.346   0.925  1.00  0.00    -0.273 OA
ATOM     21  H1  UNL     1     -17.464  25.201   0.597  1.00  0.00     0.171 HD
BRANCH  19  22
HETATM   22  C4  UNL     1     -14.781  24.152   0.988  1.00  0.00     0.107 C 
BRANCH  22  23
HETATM   23  C3  UNL     1     -13.740  23.474   0.127  1.00  0.00     0.035 C 
BRANCH  23  24
HETATM   24  C2  UNL     1     -13.579  24.234  -1.128  1.00  0.00    -0.036 C 
HETATM   25  C1  UNL     1     -13.349  23.592  -2.259  1.00  0.00     0.007 C 
ENDBRANCH  23  24
ENDBRANCH  22  23
ENDBRANCH  19  22
ENDBRANCH   1  18
TORSDOF 9
ENDMDL
MODEL 3
REMARK VINA RESULT: -6.578838848      1.021      1.368
REMARK  9 active torsions:
REMARK  status: ('A' for Active; 'I' for Inactive)
REMARK    1  A    between atoms: C2_2  and  C3_3 
REMARK    2  A    between atoms: C3_3  and  C4_4 
REMARK    3  A    between atoms: C4_4  and  C5_5 
REMARK       I    between atoms: C5_5  and  N1_7 
REMARK    4  A    between atoms: N1_7  and  C6_9 
REMARK    5  A    between atoms: C7_14  and  S1_15 
REMARK    6  A    between atoms: S1_15  and  C8_16 
REMARK    7  A    between atoms: C8_16  and  C9_17 
REMARK    8  A    between atoms: C9_17  and  O2_18 
REMARK    9  A    between atoms: C9_17  and  C10_20 
ROOT
HETATM    1  C6  UNL     1     -16.105  23.798  -0.136  1.00  0.00     0.168 A 
HETATM    2  N2  UNL     1     -15.455  23.618  -1.291  1.00  0.00    -0.278 N 
ATOM      3  H2  UNL     1     -14.450  23.446  -1.301  1.00  0.00     0.189 HD
HETATM    4  N3  UNL     1     -16.115  23.665  -2.374  1.00  0.00    -0.286 N 
ATOM      5  H3  UNL     1     -15.638  23.531  -3.266  1.00  0.00     0.188 HD
HETATM    6  C7  UNL     1     -17.419  23.888  -2.351  1.00  0.00     0.130 A 
HETATM    7  S2  UNL     1     -17.710  24.038  -0.675  1.00  0.00    -0.026 SA
ENDROOT
BRANCH   6   8
HETATM    8  S1  UNL     1     -18.543  23.995  -3.764  1.00  0.00    -0.101 SA
BRANCH   8   9
HETATM    9  C8  UNL     1     -18.760  22.336  -4.429  1.00  0.00     0.113 C 
BRANCH   9  10
HETATM   10  C9  UNL     1     -17.702  21.999  -5.407  1.00  0.00     0.132 C 
BRANCH  10  11
HETATM   11  O2  UNL     1     -18.207  22.462  -6.679  1.00  0.00    -0.394 OA
ATOM     12  H2  UNL     1     -17.876  21.840  -7.316  1.00  0.00     0.210 HD
ENDBRANCH  10  11
BRANCH  10  13
HETATM   13  C10 UNL     1     -17.330  20.586  -5.595  1.00  0.00     0.015 C 
HETATM   14  C11 UNL     1     -17.679  19.937  -6.906  1.00  0.00     0.007 C 
HETATM   15  C12 UNL     1     -17.196  18.498  -6.558  1.00  0.00     0.000 C 
HETATM   16  C13 UNL     1     -15.882  18.765  -5.847  1.00  0.00     0.000 C 
HETATM   17  C14 UNL     1     -15.852  20.268  -5.529  1.00  0.00     0.007 C 
ENDBRANCH  10  13
ENDBRANCH   9  10
ENDBRANCH   8   9
ENDBRANCH   6   8
BRANCH   1  18
HETATM   18  N1  UNL     1     -15.616  23.787   1.084  1.00  0.00    -0.306 N 
HETATM   19  C5  UNL     1     -14.277  23.341   1.248  1.00  0.00     0.223 C 
HETATM   20  O1  UNL     1     -13.926  22.149   1.041  1.00  0.00    -0.273 OA
ATOM     21  H1  UNL     1     -16.176  24.088   1.882  1.00  0.00     0.171 HD
BRANCH  19  22
HETATM   22  C4  UNL     1     -13.288  24.356   1.683  1.00  0.00     0.107 C 
BRANCH  22  23
HETATM   23  C3  UNL     1     -12.126  24.327   0.717  1.00  0.00     0.035 C 
BRANCH  23  24
HETATM   24  C2  UNL     1     -10.894  24.727   1.426  1.00  0.00    -0.036 C 
HETATM   25  C1  UNL     1     -10.979  25.425   2.544  1.00  0.00     0.007 C 
ENDBRANCH  23  24
ENDBRANCH  22  23
ENDBRANCH  19  22
ENDBRANCH   1  18
TORSDOF 9
ENDMDL
MODEL 4
REMARK VINA RESULT: -6.563022115      6.119      8.563
REMARK  9 active torsions:
REMARK  status: ('A' for Active; 'I' for Inactive)
REMARK    1  A    between atoms: C2_2  and  C3_3 
REMARK    2  A    between atoms: C3_3  and  C4_4 
REMARK    3  A    between atoms: C4_4  and  C5_5 
REMARK       I    between atoms: C5_5  and  N1_7 
REMARK    4  A    between atoms: N1_7  and  C6_9 
REMARK    5  A    between atoms: C7_14  and  S1_15 
REMARK    6  A    between atoms: S1_15  and  C8_16 
REMARK    7  A    between atoms: C8_16  and  C9_17 
REMARK    8  A    between atoms: C9_17  and  O2_18 
REMARK    9  A    between atoms: C9_17  and  C10_20 
ROOT
HETATM    1  C6  UNL     1     -19.883  22.675  -6.451  1.00  0.00     0.168 A 
HETATM    2  N2  UNL     1     -20.644  21.575  -6.457  1.00  0.00    -0.278 N 
ATOM      3  H2  UNL     1     -20.234  20.659  -6.638  1.00  0.00     0.189 HD
HETATM    4  N3  UNL     1     -21.887  21.695  -6.231  1.00  0.00    -0.286 N 
ATOM      5  H3  UNL     1     -22.486  20.869  -6.231  1.00  0.00     0.188 HD
HETATM    6  C7  UNL     1     -22.410  22.888  -5.996  1.00  0.00     0.130 A 
HETATM    7  S2  UNL     1     -21.034  23.892  -6.106  1.00  0.00    -0.026 SA
ENDROOT
BRANCH   6   8
HETATM    8  S1  UNL     1     -24.141  23.282  -5.653  1.00  0.00    -0.101 SA
BRANCH   8   9
HETATM    9  C8  UNL     1     -24.859  21.902  -4.748  1.00  0.00     0.113 C 
BRANCH   9  10
HETATM   10  C9  UNL     1     -25.006  20.706  -5.606  1.00  0.00     0.132 C 
BRANCH  10  11
HETATM   11  O2  UNL     1     -26.087  21.025  -6.510  1.00  0.00    -0.394 OA
ATOM     12  H2  UNL     1     -25.666  21.405  -7.271  1.00  0.00     0.210 HD
ENDBRANCH  10  11
BRANCH  10  13
HETATM   13  C10 UNL     1     -25.351  19.418  -4.980  1.00  0.00     0.015 C 
HETATM   14  C11 UNL     1     -25.351  18.191  -5.851  1.00  0.00     0.007 C 
HETATM   15  C12 UNL     1     -25.866  17.181  -4.784  1.00  0.00     0.000 C 
HETATM   16  C13 UNL     1     -25.072  17.584  -3.554  1.00  0.00     0.000 C 
HETATM   17  C14 UNL     1     -24.442  18.949  -3.866  1.00  0.00     0.007 C 
ENDBRANCH  10  13
ENDBRANCH   9  10
ENDBRANCH   8   9
ENDBRANCH   6   8
BRANCH   1  18
HETATM   18  N1  UNL     1     -18.589  22.770  -6.659  1.00  0.00    -0.306 N 
HETATM   19  C5  UNL     1     -17.733  22.011  -5.817  1.00  0.00     0.223 C 
HETATM   20  O1  UNL     1     -17.606  22.247  -4.586  1.00  0.00    -0.273 OA
ATOM     21  H1  UNL     1     -18.213  23.366  -7.398  1.00  0.00     0.171 HD
BRANCH  19  22
HETATM   22  C4  UNL     1     -16.979  20.907  -6.457  1.00  0.00     0.107 C 
BRANCH  22  23
HETATM   23  C3  UNL     1     -17.346  19.618  -5.759  1.00  0.00     0.035 C 
BRANCH  23  24
HETATM   24  C2  UNL     1     -17.779  18.627  -6.765  1.00  0.00    -0.036 C 
HETATM   25  C1  UNL     1     -18.143  19.032  -7.968  1.00  0.00     0.007 C 
ENDBRANCH  23  24
ENDBRANCH  22  23
ENDBRANCH  19  22
ENDBRANCH   1  18
TORSDOF 9
ENDMDL
MODEL 5
REMARK VINA RESULT: -6.467718276      6.984      9.999
REMARK  9 active torsions:
REMARK  status: ('A' for Active; 'I' for Inactive)
REMARK    1  A    between atoms: C2_2  and  C3_3 
REMARK    2  A    between atoms: C3_3  and  C4_4 
REMARK    3  A    between atoms: C4_4  and  C5_5 
REMARK       I    between atoms: C5_5  and  N1_7 
REMARK    4  A    between atoms: N1_7  and  C6_9 
REMARK    5  A    between atoms: C7_14  and  S1_15 
REMARK    6  A    between atoms: S1_15  and  C8_16 
REMARK    7  A    between atoms: C8_16  and  C9_17 
REMARK    8  A    between atoms: C9_17  and  O2_18 
REMARK    9  A    between atoms: C9_17  and  C10_20 
ROOT
HETATM    1  C6  UNL     1     -25.148  20.269  -5.221  1.00  0.00     0.168 A 
HETATM    2  N2  UNL     1     -25.078  21.016  -6.329  1.00  0.00    -0.278 N 
ATOM      3  H2  UNL     1     -25.799  20.952  -7.046  1.00  0.00     0.189 HD
HETATM    4  N3  UNL     1     -24.095  21.807  -6.467  1.00  0.00    -0.286 N 
ATOM      5  H3  UNL     1     -24.021  22.385  -7.304  1.00  0.00     0.188 HD
HETATM    6  C7  UNL     1     -23.164  21.884  -5.529  1.00  0.00     0.130 A 
HETATM    7  S2  UNL     1     -23.738  20.754  -4.385  1.00  0.00    -0.026 SA
ENDROOT
BRANCH   6   8
HETATM    8  S1  UNL     1     -21.692  22.934  -5.523  1.00  0.00    -0.101 SA
BRANCH   8   9
HETATM    9  C8  UNL     1     -20.319  21.966  -4.878  1.00  0.00     0.113 C 
BRANCH   9  10
HETATM   10  C9  UNL     1     -19.243  21.810  -5.882  1.00  0.00     0.132 C 
BRANCH  10  11
HETATM   11  O2  UNL     1     -19.914  21.867  -7.160  1.00  0.00    -0.394 OA
ATOM     12  H2  UNL     1     -19.261  22.199  -7.765  1.00  0.00     0.210 HD
ENDBRANCH  10  11
BRANCH  10  13
HETATM   13  C10 UNL     1     -18.444  20.573  -5.884  1.00  0.00     0.015 C 
HETATM   14  C11 UNL     1     -18.500  19.703  -7.110  1.00  0.00     0.007 C 
HETATM   15  C12 UNL     1     -17.619  18.536  -6.576  1.00  0.00     0.000 C 
HETATM   16  C13 UNL     1     -16.495  19.279  -5.877  1.00  0.00     0.000 C 
HETATM   17  C14 UNL     1     -16.947  20.741  -5.749  1.00  0.00     0.007 C 
ENDBRANCH  10  13
ENDBRANCH   9  10
ENDBRANCH   8   9
ENDBRANCH   6   8
BRANCH   1  18
HETATM   18  N1  UNL     1     -26.073  19.397  -4.885  1.00  0.00    -0.306 N 
HETATM   19  C5  UNL     1     -26.058  18.141  -5.548  1.00  0.00     0.223 C 
HETATM   20  O1  UNL     1     -26.312  18.015  -6.775  1.00  0.00    -0.273 OA
ATOM     21  H1  UNL     1     -26.773  19.614  -4.175  1.00  0.00     0.171 HD
BRANCH  19  22
HETATM   22  C4  UNL     1     -25.727  16.956  -4.719  1.00  0.00     0.107 C 
BRANCH  22  23
HETATM   23  C3  UNL     1     -26.144  17.245  -3.295  1.00  0.00     0.035 C 
BRANCH  23  24
HETATM   24  C2  UNL     1     -25.019  16.942  -2.389  1.00  0.00    -0.036 C 
HETATM   25  C1  UNL     1     -24.285  17.926  -1.903  1.00  0.00     0.007 C 
ENDBRANCH  23  24
ENDBRANCH  22  23
ENDBRANCH  19  22
ENDBRANCH   1  18
TORSDOF 9
ENDMDL
