MODEL 1
REMARK VINA RESULT: -5.711359865      0.000      0.000
REMARK  4 active torsions:
REMARK  status: ('A' for Active; 'I' for Inactive)
REMARK    1  A    between atoms: C2_2  and  C3_3 
REMARK    2  A    between atoms: C2_2  and  C6_6 
REMARK    3  A    between atoms: C3_3  and  C4_4 
REMARK    4  A    between atoms: C16_16  and  O1_18 
ROOT
HETATM    1  C6  UNL     1     -16.684 -18.066  44.381  1.00  0.00    -0.035 C 
HETATM    2  C7  UNL     1     -16.708 -16.699  43.761  1.00  0.00    -0.058 C 
HETATM    3  C8  UNL     1     -16.296 -15.540  44.584  1.00  0.00     0.048 C 
HETATM    4  C9  UNL     1     -17.055 -16.495  42.509  1.00  0.00    -0.019 C 
HETATM    5  C10 UNL     1     -17.453 -17.573  41.576  1.00  0.00     0.034 C 
HETATM    6  C11 UNL     1     -18.000 -18.680  42.402  1.00  0.00     0.012 C 
HETATM    7  C12 UNL     1     -18.394 -19.889  41.607  1.00  0.00    -0.040 C 
HETATM    8  C13 UNL     1     -18.158 -19.737  40.132  1.00  0.00     0.015 C 
HETATM    9  C14 UNL     1     -19.892 -20.068  41.770  1.00  0.00     0.015 C 
HETATM   10  C15 UNL     1     -17.641 -20.993  42.241  1.00  0.00     0.047 C 
HETATM   11  C16 UNL     1     -17.304 -20.486  43.678  1.00  0.00     0.067 C 
HETATM   12  C17 UNL     1     -18.524 -20.782  44.462  1.00  0.00     0.047 C 
HETATM   13  C18 UNL     1     -16.904 -19.120  43.404  1.00  0.00     0.019 C 
HETATM   14  C19 UNL     1     -15.570 -19.217  42.611  1.00  0.00     0.024 C 
ENDROOT
BRANCH   1  15
HETATM   15  C2  UNL     1     -17.196 -18.102  45.751  1.00  0.00    -0.060 C 
HETATM   16  C1  UNL     1     -16.387 -18.648  46.674  1.00  0.00     0.019 C 
BRANCH  15  17
HETATM   17  C3  UNL     1     -18.559 -17.711  46.157  1.00  0.00     0.038 C 
BRANCH  17  18
HETATM   18  C4  UNL     1     -19.178 -18.408  47.303  1.00  0.00     0.000 C 
HETATM   19  C5  UNL     1     -20.526 -18.964  46.957  1.00  0.00     0.005 C 
ENDBRANCH  17  18
ENDBRANCH  15  17
ENDBRANCH   1  15
BRANCH  11  20
HETATM   20  O1  UNL     1     -16.250 -21.317  44.094  1.00  0.00    -0.389 OA
ATOM     21  H1  UNL     1     -16.092 -21.880  43.346  1.00  0.00     0.210 HD
ENDBRANCH  11  20
TORSDOF 4
ENDMDL
MODEL 2
REMARK VINA RESULT: -5.569430541      1.520      4.490
REMARK  4 active torsions:
REMARK  status: ('A' for Active; 'I' for Inactive)
REMARK    1  A    between atoms: C2_2  and  C3_3 
REMARK    2  A    between atoms: C2_2  and  C6_6 
REMARK    3  A    between atoms: C3_3  and  C4_4 
REMARK    4  A    between atoms: C16_16  and  O1_18 
ROOT
HETATM    1  C6  UNL     1     -17.846 -17.360  44.058  1.00  0.00    -0.035 C 
HETATM    2  C7  UNL     1     -18.039 -16.077  44.814  1.00  0.00    -0.058 C 
HETATM    3  C8  UNL     1     -18.150 -14.814  44.050  1.00  0.00     0.048 C 
HETATM    4  C9  UNL     1     -18.141 -16.034  46.125  1.00  0.00    -0.019 C 
HETATM    5  C10 UNL     1     -18.080 -17.230  46.996  1.00  0.00     0.034 C 
HETATM    6  C11 UNL     1     -17.282 -18.253  46.274  1.00  0.00     0.012 C 
HETATM    7  C12 UNL     1     -17.179 -19.561  46.999  1.00  0.00    -0.040 C 
HETATM    8  C13 UNL     1     -17.903 -19.574  48.313  1.00  0.00     0.015 C 
HETATM    9  C14 UNL     1     -15.714 -19.779  47.332  1.00  0.00     0.015 C 
HETATM   10  C15 UNL     1     -17.668 -20.552  46.016  1.00  0.00     0.047 C 
HETATM   11  C16 UNL     1     -17.495 -19.868  44.624  1.00  0.00     0.067 C 
HETATM   12  C17 UNL     1     -16.081 -20.117  44.270  1.00  0.00     0.047 C 
HETATM   13  C18 UNL     1     -17.969 -18.529  44.913  1.00  0.00     0.019 C 
HETATM   14  C19 UNL     1     -19.494 -18.666  45.190  1.00  0.00     0.024 C 
ENDROOT
BRANCH   1  15
HETATM   15  C2  UNL     1     -16.898 -17.254  42.949  1.00  0.00    -0.060 C 
HETATM   16  C1  UNL     1     -15.642 -16.904  43.272  1.00  0.00     0.019 C 
BRANCH  15  17
HETATM   17  C3  UNL     1     -17.247 -17.373  41.521  1.00  0.00     0.038 C 
BRANCH  17  18
HETATM   18  C4  UNL     1     -17.279 -18.720  40.915  1.00  0.00     0.000 C 
HETATM   19  C5  UNL     1     -18.682 -19.203  40.701  1.00  0.00     0.005 C 
ENDBRANCH  17  18
ENDBRANCH  15  17
ENDBRANCH   1  15
BRANCH  11  20
HETATM   20  O1  UNL     1     -18.342 -20.602  43.776  1.00  0.00    -0.389 OA
ATOM     21  H1  UNL     1     -19.119 -20.059  43.701  1.00  0.00     0.210 HD
ENDBRANCH  11  20
TORSDOF 4
ENDMDL
MODEL 3
REMARK VINA RESULT: -5.552186864      1.673      4.092
REMARK  4 active torsions:
REMARK  status: ('A' for Active; 'I' for Inactive)
REMARK    1  A    between atoms: C2_2  and  C3_3 
REMARK    2  A    between atoms: C2_2  and  C6_6 
REMARK    3  A    between atoms: C3_3  and  C4_4 
REMARK    4  A    between atoms: C16_16  and  O1_18 
ROOT
HETATM    1  C6  UNL     1     -17.110 -18.393  44.530  1.00  0.00    -0.035 C 
HETATM    2  C7  UNL     1     -17.622 -18.663  43.144  1.00  0.00    -0.058 C 
HETATM    3  C8  UNL     1     -16.968 -17.984  42.003  1.00  0.00     0.048 C 
HETATM    4  C9  UNL     1     -18.608 -19.498  42.902  1.00  0.00    -0.019 C 
HETATM    5  C10 UNL     1     -19.319 -20.262  43.953  1.00  0.00     0.034 C 
HETATM    6  C11 UNL     1     -19.203 -19.480  45.210  1.00  0.00     0.012 C 
HETATM    7  C12 UNL     1     -19.820 -20.154  46.399  1.00  0.00    -0.040 C 
HETATM    8  C13 UNL     1     -20.435 -21.486  46.079  1.00  0.00     0.015 C 
HETATM    9  C14 UNL     1     -20.964 -19.276  46.874  1.00  0.00     0.015 C 
HETATM   10  C15 UNL     1     -18.723 -20.205  47.389  1.00  0.00     0.047 C 
HETATM   11  C16 UNL     1     -17.727 -19.084  46.954  1.00  0.00     0.067 C 
HETATM   12  C17 UNL     1     -18.290 -17.850  47.543  1.00  0.00     0.047 C 
HETATM   13  C18 UNL     1     -17.698 -19.283  45.518  1.00  0.00     0.019 C 
HETATM   14  C19 UNL     1     -17.000 -20.654  45.291  1.00  0.00     0.024 C 
ENDROOT
BRANCH   1  15
HETATM   15  C2  UNL     1     -16.796 -16.986  44.780  1.00  0.00    -0.060 C 
HETATM   16  C1  UNL     1     -15.530 -16.715  45.138  1.00  0.00     0.019 C 
BRANCH  15  17
HETATM   17  C3  UNL     1     -17.781 -15.888  44.797  1.00  0.00     0.038 C 
BRANCH  17  18
HETATM   18  C4  UNL     1     -17.600 -14.768  43.851  1.00  0.00     0.000 C 
HETATM   19  C5  UNL     1     -16.970 -13.577  44.508  1.00  0.00     0.005 C 
ENDBRANCH  17  18
ENDBRANCH  15  17
ENDBRANCH   1  15
BRANCH  11  20
HETATM   20  O1  UNL     1     -16.528 -19.425  47.601  1.00  0.00    -0.389 OA
ATOM     21  H1  UNL     1     -16.017 -19.857  46.926  1.00  0.00     0.210 HD
ENDBRANCH  11  20
TORSDOF 4
ENDMDL
MODEL 4
REMARK VINA RESULT: -5.516707475      1.659      4.096
REMARK  4 active torsions:
REMARK  status: ('A' for Active; 'I' for Inactive)
REMARK    1  A    between atoms: C2_2  and  C3_3 
REMARK    2  A    between atoms: C2_2  and  C6_6 
REMARK    3  A    between atoms: C3_3  and  C4_4 
REMARK    4  A    between atoms: C16_16  and  O1_18 
ROOT
HETATM    1  C6  UNL     1     -16.963 -17.479  44.221  1.00  0.00    -0.035 C 
HETATM    2  C7  UNL     1     -17.341 -17.735  42.791  1.00  0.00    -0.058 C 
HETATM    3  C8  UNL     1     -16.867 -16.791  41.753  1.00  0.00     0.048 C 
HETATM    4  C9  UNL     1     -18.052 -18.777  42.420  1.00  0.00    -0.019 C 
HETATM    5  C10 UNL     1     -18.554 -19.809  43.357  1.00  0.00     0.034 C 
HETATM    6  C11 UNL     1     -18.695 -19.157  44.684  1.00  0.00     0.012 C 
HETATM    7  C12 UNL     1     -19.136 -20.090  45.771  1.00  0.00    -0.040 C 
HETATM    8  C13 UNL     1     -19.350 -21.499  45.299  1.00  0.00     0.015 C 
HETATM    9  C14 UNL     1     -20.490 -19.608  46.259  1.00  0.00     0.015 C 
HETATM   10  C15 UNL     1     -18.097 -19.941  46.812  1.00  0.00     0.047 C 
HETATM   11  C16 UNL     1     -17.436 -18.554  46.535  1.00  0.00     0.067 C 
HETATM   12  C17 UNL     1     -18.334 -17.586  47.201  1.00  0.00     0.047 C 
HETATM   13  C18 UNL     1     -17.312 -18.590  45.092  1.00  0.00     0.019 C 
HETATM   14  C19 UNL     1     -16.257 -19.690  44.781  1.00  0.00     0.024 C 
ENDROOT
BRANCH   1  15
HETATM   15  C2  UNL     1     -17.057 -16.073  44.614  1.00  0.00    -0.060 C 
HETATM   16  C1  UNL     1     -18.253 -15.487  44.443  1.00  0.00     0.019 C 
BRANCH  15  17
HETATM   17  C3  UNL     1     -15.922 -15.237  45.049  1.00  0.00     0.038 C 
BRANCH  17  18
HETATM   18  C4  UNL     1     -15.736 -13.918  44.410  1.00  0.00     0.000 C 
HETATM   19  C5  UNL     1     -14.286 -13.598  44.200  1.00  0.00     0.005 C 
ENDBRANCH  17  18
ENDBRANCH  15  17
ENDBRANCH   1  15
BRANCH  11  20
HETATM   20  O1  UNL     1     -16.208 -18.620  47.215  1.00  0.00    -0.389 OA
ATOM     21  H1  UNL     1     -15.565 -18.405  46.549  1.00  0.00     0.210 HD
ENDBRANCH  11  20
TORSDOF 4
ENDMDL
MODEL 5
REMARK VINA RESULT: -5.495654160      1.447      4.783
REMARK  4 active torsions:
REMARK  status: ('A' for Active; 'I' for Inactive)
REMARK    1  A    between atoms: C2_2  and  C3_3 
REMARK    2  A    between atoms: C2_2  and  C6_6 
REMARK    3  A    between atoms: C3_3  and  C4_4 
REMARK    4  A    between atoms: C16_16  and  O1_18 
ROOT
HETATM    1  C6  UNL     1     -17.501 -19.077  44.739  1.00  0.00    -0.035 C 
HETATM    2  C7  UNL     1     -18.599 -19.094  45.763  1.00  0.00    -0.058 C 
HETATM    3  C8  UNL     1     -19.239 -20.388  46.092  1.00  0.00     0.048 C 
HETATM    4  C9  UNL     1     -18.995 -18.013  46.397  1.00  0.00    -0.019 C 
HETATM    5  C10 UNL     1     -18.411 -16.669  46.181  1.00  0.00     0.034 C 
HETATM    6  C11 UNL     1     -17.867 -16.650  44.799  1.00  0.00     0.012 C 
HETATM    7  C12 UNL     1     -17.176 -15.369  44.440  1.00  0.00    -0.040 C 
HETATM    8  C13 UNL     1     -17.174 -14.359  45.551  1.00  0.00     0.015 C 
HETATM    9  C14 UNL     1     -17.961 -14.734  43.307  1.00  0.00     0.015 C 
HETATM   10  C15 UNL     1     -15.833 -15.801  43.998  1.00  0.00     0.047 C 
HETATM   11  C16 UNL     1     -15.998 -17.299  43.591  1.00  0.00     0.067 C 
HETATM   12  C17 UNL     1     -16.508 -17.244  42.204  1.00  0.00     0.047 C 
HETATM   13  C18 UNL     1     -16.826 -17.790  44.675  1.00  0.00     0.019 C 
HETATM   14  C19 UNL     1     -15.936 -17.739  45.949  1.00  0.00     0.024 C 
ENDROOT
BRANCH   1  15
HETATM   15  C2  UNL     1     -17.767 -19.919  43.572  1.00  0.00    -0.060 C 
HETATM   16  C1  UNL     1     -16.840 -20.847  43.286  1.00  0.00     0.019 C 
BRANCH  15  17
HETATM   17  C3  UNL     1     -18.890 -19.735  42.633  1.00  0.00     0.038 C 
BRANCH  17  18
HETATM   18  C4  UNL     1     -18.837 -20.432  41.331  1.00  0.00     0.000 C 
HETATM   19  C5  UNL     1     -18.399 -19.519  40.227  1.00  0.00     0.005 C 
ENDBRANCH  17  18
ENDBRANCH  15  17
ENDBRANCH   1  15
BRANCH  11  20
HETATM   20  O1  UNL     1     -14.686 -17.802  43.604  1.00  0.00    -0.389 OA
ATOM     21  H1  UNL     1     -14.316 -17.459  44.409  1.00  0.00     0.210 HD
ENDBRANCH  11  20
TORSDOF 4
ENDMDL
