MODEL 1
REMARK VINA RESULT: -6.068931027      0.000      0.000
REMARK  3 active torsions:
REMARK  status: ('A' for Active; 'I' for Inactive)
REMARK    1  A    between atoms: C2_2  and  C3_3 
REMARK    2  A    between atoms: C8_8  and  C10_10 
REMARK    3  A    between atoms: C10_10  and  C11_11 
ROOT
HETATM    1  C3  UNL     1     -19.493 -20.619  42.381  1.00  0.00    -0.023 C 
HETATM    2  C4  UNL     1     -19.058 -21.980  41.804  1.00  0.00     0.020 C 
HETATM    3  C5  UNL     1     -19.223 -19.630  41.284  1.00  0.00     0.013 C 
HETATM    4  C6  UNL     1     -17.751 -19.511  41.030  1.00  0.00     0.002 C 
HETATM    5  C7  UNL     1     -16.895 -19.874  42.221  1.00  0.00     0.010 C 
HETATM    6  C8  UNL     1     -17.502 -19.542  43.549  1.00  0.00    -0.037 C 
HETATM    7  C9  UNL     1     -16.531 -20.226  44.542  1.00  0.00     0.015 C 
HETATM    8  C18 UNL     1     -18.783 -20.358  43.665  1.00  0.00     0.001 C 
HETATM    9  C19 UNL     1     -19.695 -19.806  44.740  1.00  0.00     0.012 C 
ENDROOT
BRANCH   6  10
HETATM   10  C10 UNL     1     -17.662 -18.128  43.798  1.00  0.00     0.048 C 
BRANCH  10  11
HETATM   11  C11 UNL     1     -16.688 -17.075  43.577  1.00  0.00     0.130 C 
HETATM   12  C12 UNL     1     -16.647 -16.348  42.268  1.00  0.00     0.047 C 
HETATM   13  N1  UNL     1     -15.324 -17.415  43.998  1.00  0.00    -0.066 N 
HETATM   14  C13 UNL     1     -14.669 -16.123  44.061  1.00  0.00     0.234 C 
ATOM     15  H12 UNL     1     -15.268 -17.963  44.857  1.00  0.00     0.278 HD
ATOM     16  H11 UNL     1     -14.856 -18.101  43.407  1.00  0.00     0.278 HD
HETATM   17  C14 UNL     1     -15.675 -15.202  44.720  1.00  0.00     0.039 C 
HETATM   18  C15 UNL     1     -16.940 -15.961  44.600  1.00  0.00    -0.006 A 
HETATM   19  C16 UNL     1     -18.212 -15.117  44.403  1.00  0.00     0.013 A 
HETATM   20  C17 UNL     1     -17.925 -16.011  45.631  1.00  0.00     0.013 A 
ENDBRANCH  10  11
ENDBRANCH   6  10
BRANCH   1  21
HETATM   21  C2  UNL     1     -20.974 -20.728  42.583  1.00  0.00    -0.027 C 
HETATM   22  C1  UNL     1     -21.855 -20.374  41.666  1.00  0.00     0.007 C 
ENDBRANCH   1  21
TORSDOF 3
ENDMDL
MODEL 2
REMARK VINA RESULT: -5.966511874      2.040      2.947
REMARK  3 active torsions:
REMARK  status: ('A' for Active; 'I' for Inactive)
REMARK    1  A    between atoms: C2_2  and  C3_3 
REMARK    2  A    between atoms: C8_8  and  C10_10 
REMARK    3  A    between atoms: C10_10  and  C11_11 
ROOT
HETATM    1  C3  UNL     1     -19.041 -19.551  46.203  1.00  0.00    -0.023 C 
HETATM    2  C4  UNL     1     -18.801 -21.066  46.344  1.00  0.00     0.020 C 
HETATM    3  C5  UNL     1     -19.224 -19.323  44.730  1.00  0.00     0.013 C 
HETATM    4  C6  UNL     1     -17.950 -19.601  43.991  1.00  0.00     0.002 C 
HETATM    5  C7  UNL     1     -16.707 -19.444  44.836  1.00  0.00     0.010 C 
HETATM    6  C8  UNL     1     -16.799 -18.383  45.889  1.00  0.00    -0.037 C 
HETATM    7  C9  UNL     1     -15.510 -18.618  46.714  1.00  0.00     0.015 C 
HETATM    8  C18 UNL     1     -17.921 -18.795  46.833  1.00  0.00     0.001 C 
HETATM    9  C19 UNL     1     -18.397 -17.627  47.670  1.00  0.00     0.012 C 
ENDROOT
BRANCH   6  10
HETATM   10  C10 UNL     1     -16.905 -17.037  45.376  1.00  0.00     0.048 C 
BRANCH  10  11
HETATM   11  C11 UNL     1     -15.977 -16.349  44.499  1.00  0.00     0.130 C 
HETATM   12  C12 UNL     1     -15.965 -16.645  43.030  1.00  0.00     0.047 C 
HETATM   13  N1  UNL     1     -14.600 -16.290  45.003  1.00  0.00    -0.066 N 
HETATM   14  C13 UNL     1     -14.000 -15.246  44.195  1.00  0.00     0.234 C 
ATOM     15  H12 UNL     1     -14.521 -16.146  46.010  1.00  0.00     0.278 HD
ATOM     16  H11 UNL     1     -14.102 -17.179  44.987  1.00  0.00     0.278 HD
HETATM   17  C14 UNL     1     -15.044 -14.151  44.126  1.00  0.00     0.039 C 
HETATM   18  C15 UNL     1     -16.275 -14.847  44.561  1.00  0.00    -0.006 A 
HETATM   19  C16 UNL     1     -17.582 -14.375  43.897  1.00  0.00     0.013 A 
HETATM   20  C17 UNL     1     -17.258 -14.247  45.403  1.00  0.00     0.013 A 
ENDBRANCH  10  11
ENDBRANCH   6  10
BRANCH   1  21
HETATM   21  C2  UNL     1     -20.342 -19.288  46.900  1.00  0.00    -0.027 C 
HETATM   22  C1  UNL     1     -21.494 -19.784  46.487  1.00  0.00     0.007 C 
ENDBRANCH   1  21
TORSDOF 3
ENDMDL
MODEL 3
REMARK VINA RESULT: -5.941353995      1.302      1.800
REMARK  3 active torsions:
REMARK  status: ('A' for Active; 'I' for Inactive)
REMARK    1  A    between atoms: C2_2  and  C3_3 
REMARK    2  A    between atoms: C8_8  and  C10_10 
REMARK    3  A    between atoms: C10_10  and  C11_11 
ROOT
HETATM    1  C3  UNL     1     -18.969 -20.141  44.391  1.00  0.00    -0.023 C 
HETATM    2  C4  UNL     1     -18.518 -21.580  44.707  1.00  0.00     0.020 C 
HETATM    3  C5  UNL     1     -18.409 -19.851  43.028  1.00  0.00     0.013 C 
HETATM    4  C6  UNL     1     -16.911 -19.807  43.070  1.00  0.00     0.002 C 
HETATM    5  C7  UNL     1     -16.349 -19.458  44.427  1.00  0.00     0.010 C 
HETATM    6  C8  UNL     1     -17.194 -18.517  45.230  1.00  0.00    -0.037 C 
HETATM    7  C9  UNL     1     -16.500 -18.538  46.613  1.00  0.00     0.015 C 
HETATM    8  C18 UNL     1     -18.524 -19.217  45.473  1.00  0.00     0.001 C 
HETATM    9  C19 UNL     1     -19.600 -18.235  45.886  1.00  0.00     0.012 C 
ENDROOT
BRANCH   6  10
HETATM   10  C10 UNL     1     -17.305 -17.188  44.673  1.00  0.00     0.048 C 
BRANCH  10  11
HETATM   11  C11 UNL     1     -16.267 -16.416  44.015  1.00  0.00     0.130 C 
HETATM   12  C12 UNL     1     -16.228 -16.323  42.520  1.00  0.00     0.047 C 
HETATM   13  N1  UNL     1     -14.915 -16.657  44.532  1.00  0.00    -0.066 N 
HETATM   14  C13 UNL     1     -14.166 -15.521  44.031  1.00  0.00     0.234 C 
ATOM     15  H12 UNL     1     -14.863 -16.788  45.542  1.00  0.00     0.278 HD
ATOM     16  H11 UNL     1     -14.523 -17.566  44.289  1.00  0.00     0.278 HD
HETATM   17  C14 UNL     1     -15.073 -14.326  44.239  1.00  0.00     0.039 C 
HETATM   18  C15 UNL     1     -16.394 -14.955  44.464  1.00  0.00    -0.006 A 
HETATM   19  C16 UNL     1     -17.609 -14.173  43.932  1.00  0.00     0.013 A 
HETATM   20  C17 UNL     1     -17.336 -14.478  45.423  1.00  0.00     0.013 A 
ENDBRANCH  10  11
ENDBRANCH   6  10
BRANCH   1  21
HETATM   21  C2  UNL     1     -20.463 -20.203  44.300  1.00  0.00    -0.027 C 
HETATM   22  C1  UNL     1     -21.104 -20.525  43.192  1.00  0.00     0.007 C 
ENDBRANCH   1  21
TORSDOF 3
ENDMDL
MODEL 4
REMARK VINA RESULT: -5.938662321      1.536      5.675
REMARK  3 active torsions:
REMARK  status: ('A' for Active; 'I' for Inactive)
REMARK    1  A    between atoms: C2_2  and  C3_3 
REMARK    2  A    between atoms: C8_8  and  C10_10 
REMARK    3  A    between atoms: C10_10  and  C11_11 
ROOT
HETATM    1  C3  UNL     1     -16.458 -16.032  44.326  1.00  0.00    -0.023 C 
HETATM    2  C4  UNL     1     -15.068 -15.761  44.934  1.00  0.00     0.020 C 
HETATM    3  C5  UNL     1     -17.315 -16.442  45.489  1.00  0.00     0.013 C 
HETATM    4  C6  UNL     1     -16.855 -17.754  46.048  1.00  0.00     0.002 C 
HETATM    5  C7  UNL     1     -16.121 -18.619  45.050  1.00  0.00     0.010 C 
HETATM    6  C8  UNL     1     -16.595 -18.480  43.636  1.00  0.00    -0.037 C 
HETATM    7  C9  UNL     1     -15.531 -19.280  42.846  1.00  0.00     0.015 C 
HETATM    8  C18 UNL     1     -16.349 -17.034  43.228  1.00  0.00     0.001 C 
HETATM    9  C19 UNL     1     -17.159 -16.658  42.006  1.00  0.00     0.012 C 
ENDROOT
BRANCH   6  10
HETATM   10  C10 UNL     1     -17.942 -18.951  43.408  1.00  0.00     0.048 C 
BRANCH  10  11
HETATM   11  C11 UNL     1     -18.438 -20.308  43.541  1.00  0.00     0.130 C 
HETATM   12  C12 UNL     1     -19.610 -20.600  44.428  1.00  0.00     0.047 C 
HETATM   13  N1  UNL     1     -17.394 -21.316  43.752  1.00  0.00    -0.066 N 
HETATM   14  C13 UNL     1     -18.072 -22.560  43.444  1.00  0.00     0.234 C 
ATOM     15  H12 UNL     1     -16.536 -21.158  43.223  1.00  0.00     0.278 HD
ATOM     16  H11 UNL     1     -16.955 -21.288  44.671  1.00  0.00     0.278 HD
HETATM   17  C14 UNL     1     -18.886 -22.269  42.201  1.00  0.00     0.039 C 
HETATM   18  C15 UNL     1     -18.903 -20.789  42.161  1.00  0.00    -0.006 A 
HETATM   19  C16 UNL     1     -20.186 -20.148  41.602  1.00  0.00     0.013 A 
HETATM   20  C17 UNL     1     -18.787 -20.036  40.955  1.00  0.00     0.013 A 
ENDBRANCH  10  11
ENDBRANCH   6  10
BRANCH   1  21
HETATM   21  C2  UNL     1     -16.934 -14.706  43.816  1.00  0.00    -0.027 C 
HETATM   22  C1  UNL     1     -16.902 -13.601  44.538  1.00  0.00     0.007 C 
ENDBRANCH   1  21
TORSDOF 3
ENDMDL
MODEL 5
REMARK VINA RESULT: -5.854692756      2.257      3.037
REMARK  3 active torsions:
REMARK  status: ('A' for Active; 'I' for Inactive)
REMARK    1  A    between atoms: C2_2  and  C3_3 
REMARK    2  A    between atoms: C8_8  and  C10_10 
REMARK    3  A    between atoms: C10_10  and  C11_11 
ROOT
HETATM    1  C3  UNL     1     -17.761 -19.812  45.616  1.00  0.00    -0.023 C 
HETATM    2  C4  UNL     1     -17.672 -21.145  44.849  1.00  0.00     0.020 C 
HETATM    3  C5  UNL     1     -18.548 -18.900  44.719  1.00  0.00     0.013 C 
HETATM    4  C6  UNL     1     -17.780 -18.597  43.468  1.00  0.00     0.002 C 
HETATM    5  C7  UNL     1     -16.283 -18.723  43.626  1.00  0.00     0.010 C 
HETATM    6  C8  UNL     1     -15.765 -18.359  44.984  1.00  0.00    -0.037 C 
HETATM    7  C9  UNL     1     -14.284 -18.803  44.908  1.00  0.00     0.015 C 
HETATM    8  C18 UNL     1     -16.393 -19.334  45.971  1.00  0.00     0.001 C 
HETATM    9  C19 UNL     1     -16.300 -18.820  47.392  1.00  0.00     0.012 C 
ENDROOT
BRANCH   6  10
HETATM   10  C10 UNL     1     -15.921 -16.965  45.330  1.00  0.00     0.048 C 
BRANCH  10  11
HETATM   11  C11 UNL     1     -15.496 -15.811  44.561  1.00  0.00     0.130 C 
HETATM   12  C12 UNL     1     -15.297 -15.921  43.080  1.00  0.00     0.047 C 
HETATM   13  N1  UNL     1     -14.381 -15.065  45.156  1.00  0.00    -0.066 N 
HETATM   14  C13 UNL     1     -14.426 -13.795  44.458  1.00  0.00     0.234 C 
ATOM     15  H12 UNL     1     -14.411 -14.993  46.173  1.00  0.00     0.278 HD
ATOM     16  H11 UNL     1     -13.480 -15.541  45.114  1.00  0.00     0.278 HD
HETATM   17  C14 UNL     1     -15.895 -13.432  44.393  1.00  0.00     0.039 C 
HETATM   18  C15 UNL     1     -16.562 -14.717  44.701  1.00  0.00    -0.006 A 
HETATM   19  C16 UNL     1     -17.903 -14.965  43.986  1.00  0.00     0.013 A 
HETATM   20  C17 UNL     1     -17.729 -14.819  45.515  1.00  0.00     0.013 A 
ENDBRANCH  10  11
ENDBRANCH   6  10
BRANCH   1  21
HETATM   21  C2  UNL     1     -18.573 -20.110  46.839  1.00  0.00    -0.027 C 
HETATM   22  C1  UNL     1     -19.854 -19.807  46.945  1.00  0.00     0.007 C 
ENDBRANCH   1  21
TORSDOF 3
ENDMDL
