MODEL 1
REMARK VINA RESULT: -6.120515707      0.000      0.000
REMARK  5 active torsions:
REMARK  status: ('A' for Active; 'I' for Inactive)
REMARK    1  A    between atoms: C2_2  and  C3_3 
REMARK    2  A    between atoms: C3_3  and  C5_5 
REMARK    3  A    between atoms: C5_5  and  C6_6 
REMARK    4  A    between atoms: C6_6  and  C7_7 
REMARK    5  A    between atoms: C14_15  and  C15_16 
ROOT
HETATM    1  C7  UNL     1     -16.891 -16.995  43.138  1.00  0.00     0.226 C 
HETATM    2  C8  UNL     1     -17.335 -17.582  41.810  1.00  0.00     0.067 C 
HETATM    3  C9  UNL     1     -17.300 -19.068  41.851  1.00  0.00     0.126 C 
HETATM    4  C10 UNL     1     -15.884 -19.423  42.322  1.00  0.00     0.068 C 
HETATM    5  C11 UNL     1     -15.996 -19.155  43.834  1.00  0.00     0.229 C 
HETATM    6  C12 UNL     1     -16.836 -20.377  44.261  1.00  0.00     0.070 C 
HETATM    7  C13 UNL     1     -18.192 -19.822  43.882  1.00  0.00     0.158 C 
HETATM    8  O1  UNL     1     -18.284 -19.718  42.492  1.00  0.00    -0.378 OA
HETATM    9  C14 UNL     1     -18.162 -18.463  44.446  1.00  0.00     0.260 C 
HETATM   10  N1  UNL     1     -16.797 -18.037  44.156  1.00  0.00     0.105 N 
ENDROOT
BRANCH   1  11
HETATM   11  C6  UNL     1     -15.690 -16.157  43.052  1.00  0.00     0.036 C 
BRANCH  11  12
HETATM   12  C5  UNL     1     -15.150 -15.651  44.332  1.00  0.00     0.006 C 
BRANCH  12  13
HETATM   13  C3  UNL     1     -15.395 -14.275  44.786  1.00  0.00    -0.019 C 
HETATM   14  C4  UNL     1     -16.652 -13.574  44.400  1.00  0.00     0.010 C 
BRANCH  13  15
HETATM   15  C2  UNL     1     -14.261 -13.417  44.124  1.00  0.00    -0.000 C 
HETATM   16  C1  UNL     1     -13.328 -13.013  45.238  1.00  0.00     0.005 C 
ENDBRANCH  13  15
ENDBRANCH  12  13
ENDBRANCH  11  12
ENDBRANCH   1  11
BRANCH   9  17
HETATM   17  C15 UNL     1     -18.475 -18.199  45.846  1.00  0.00    -0.018 C 
HETATM   18  C16 UNL     1     -17.752 -18.982  46.890  1.00  0.00     0.016 C 
HETATM   19  C17 UNL     1     -18.459 -16.749  46.253  1.00  0.00     0.016 C 
HETATM   20  C18 UNL     1     -19.965 -18.592  46.052  1.00  0.00     0.016 C 
ENDBRANCH   9  17
TORSDOF 5
ENDMDL
MODEL 2
REMARK VINA RESULT: -5.987823894      2.005      4.991
REMARK  5 active torsions:
REMARK  status: ('A' for Active; 'I' for Inactive)
REMARK    1  A    between atoms: C2_2  and  C3_3 
REMARK    2  A    between atoms: C3_3  and  C5_5 
REMARK    3  A    between atoms: C5_5  and  C6_6 
REMARK    4  A    between atoms: C6_6  and  C7_7 
REMARK    5  A    between atoms: C14_15  and  C15_16 
ROOT
HETATM    1  C7  UNL     1     -17.164 -18.215  44.001  1.00  0.00     0.226 C 
HETATM    2  C8  UNL     1     -17.481 -17.514  42.691  1.00  0.00     0.067 C 
HETATM    3  C9  UNL     1     -17.084 -16.083  42.747  1.00  0.00     0.126 C 
HETATM    4  C10 UNL     1     -17.761 -15.528  44.006  1.00  0.00     0.068 C 
HETATM    5  C11 UNL     1     -16.832 -16.067  45.108  1.00  0.00     0.229 C 
HETATM    6  C12 UNL     1     -15.617 -15.136  44.912  1.00  0.00     0.070 C 
HETATM    7  C13 UNL     1     -14.981 -15.887  43.762  1.00  0.00     0.158 C 
HETATM    8  O1  UNL     1     -15.785 -15.770  42.625  1.00  0.00    -0.378 OA
HETATM    9  C14 UNL     1     -15.026 -17.287  44.216  1.00  0.00     0.260 C 
HETATM   10  N1  UNL     1     -16.337 -17.364  44.851  1.00  0.00     0.105 N 
ENDROOT
BRANCH   1  11
HETATM   11  C6  UNL     1     -18.340 -18.758  44.690  1.00  0.00     0.036 C 
BRANCH  11  12
HETATM   12  C5  UNL     1     -18.086 -19.451  45.971  1.00  0.00     0.006 C 
BRANCH  12  13
HETATM   13  C3  UNL     1     -18.965 -19.272  47.136  1.00  0.00    -0.019 C 
HETATM   14  C4  UNL     1     -20.394 -18.901  46.942  1.00  0.00     0.010 C 
BRANCH  13  15
HETATM   15  C2  UNL     1     -18.358 -18.058  47.924  1.00  0.00    -0.000 C 
HETATM   16  C1  UNL     1     -17.457 -18.645  48.980  1.00  0.00     0.005 C 
ENDBRANCH  13  15
ENDBRANCH  12  13
ENDBRANCH  11  12
ENDBRANCH   1  11
BRANCH   9  17
HETATM   17  C15 UNL     1     -14.012 -17.844  45.104  1.00  0.00    -0.018 C 
HETATM   18  C16 UNL     1     -12.690 -17.158  45.184  1.00  0.00     0.016 C 
HETATM   19  C17 UNL     1     -14.471 -18.141  46.508  1.00  0.00     0.016 C 
HETATM   20  C18 UNL     1     -13.666 -19.257  44.555  1.00  0.00     0.016 C 
ENDBRANCH   9  17
TORSDOF 5
ENDMDL
MODEL 3
REMARK VINA RESULT: -5.923718295      1.456      3.024
REMARK  5 active torsions:
REMARK  status: ('A' for Active; 'I' for Inactive)
REMARK    1  A    between atoms: C2_2  and  C3_3 
REMARK    2  A    between atoms: C3_3  and  C5_5 
REMARK    3  A    between atoms: C5_5  and  C6_6 
REMARK    4  A    between atoms: C6_6  and  C7_7 
REMARK    5  A    between atoms: C14_15  and  C15_16 
ROOT
HETATM    1  C7  UNL     1     -16.398 -17.786  43.018  1.00  0.00     0.226 C 
HETATM    2  C8  UNL     1     -15.381 -18.227  44.056  1.00  0.00     0.067 C 
HETATM    3  C9  UNL     1     -16.054 -18.852  45.224  1.00  0.00     0.126 C 
HETATM    4  C10 UNL     1     -17.101 -17.827  45.679  1.00  0.00     0.068 C 
HETATM    5  C11 UNL     1     -18.208 -18.045  44.631  1.00  0.00     0.229 C 
HETATM    6  C12 UNL     1     -18.782 -19.390  45.126  1.00  0.00     0.070 C 
HETATM    7  C13 UNL     1     -17.749 -20.290  44.482  1.00  0.00     0.158 C 
HETATM    8  O1  UNL     1     -16.513 -20.108  45.107  1.00  0.00    -0.378 OA
HETATM    9  C14 UNL     1     -17.656 -19.758  43.112  1.00  0.00     0.260 C 
HETATM   10  N1  UNL     1     -17.720 -18.317  43.335  1.00  0.00     0.105 N 
ENDROOT
BRANCH   1  11
HETATM   11  C6  UNL     1     -16.399 -16.342  42.756  1.00  0.00     0.036 C 
BRANCH  11  12
HETATM   12  C5  UNL     1     -15.395 -15.542  43.488  1.00  0.00     0.006 C 
BRANCH  12  13
HETATM   13  C3  UNL     1     -15.782 -14.559  44.510  1.00  0.00    -0.019 C 
HETATM   14  C4  UNL     1     -17.169 -14.014  44.534  1.00  0.00     0.010 C 
BRANCH  13  15
HETATM   15  C2  UNL     1     -14.883 -13.303  44.234  1.00  0.00    -0.000 C 
HETATM   16  C1  UNL     1     -13.596 -13.528  44.986  1.00  0.00     0.005 C 
ENDBRANCH  13  15
ENDBRANCH  12  13
ENDBRANCH  11  12
ENDBRANCH   1  11
BRANCH   9  17
HETATM   17  C15 UNL     1     -18.600 -20.139  42.068  1.00  0.00    -0.018 C 
HETATM   18  C16 UNL     1     -20.009 -20.429  42.463  1.00  0.00     0.016 C 
HETATM   19  C17 UNL     1     -18.628 -19.241  40.858  1.00  0.00     0.016 C 
HETATM   20  C18 UNL     1     -18.093 -21.486  41.479  1.00  0.00     0.016 C 
ENDBRANCH   9  17
TORSDOF 5
ENDMDL
MODEL 4
REMARK VINA RESULT: -5.862603079      0.893      1.706
REMARK  5 active torsions:
REMARK  status: ('A' for Active; 'I' for Inactive)
REMARK    1  A    between atoms: C2_2  and  C3_3 
REMARK    2  A    between atoms: C3_3  and  C5_5 
REMARK    3  A    between atoms: C5_5  and  C6_6 
REMARK    4  A    between atoms: C6_6  and  C7_7 
REMARK    5  A    between atoms: C14_15  and  C15_16 
ROOT
HETATM    1  C7  UNL     1     -16.690 -17.394  43.788  1.00  0.00     0.226 C 
HETATM    2  C8  UNL     1     -17.026 -17.230  42.317  1.00  0.00     0.067 C 
HETATM    3  C9  UNL     1     -17.214 -18.554  41.666  1.00  0.00     0.126 C 
HETATM    4  C10 UNL     1     -15.944 -19.348  41.998  1.00  0.00     0.068 C 
HETATM    5  C11 UNL     1     -16.224 -19.765  43.453  1.00  0.00     0.229 C 
HETATM    6  C12 UNL     1     -17.283 -20.862  43.217  1.00  0.00     0.070 C 
HETATM    7  C13 UNL     1     -18.479 -19.947  43.063  1.00  0.00     0.158 C 
HETATM    8  O1  UNL     1     -18.362 -19.218  41.877  1.00  0.00    -0.378 OA
HETATM    9  C14 UNL     1     -18.330 -19.015  44.194  1.00  0.00     0.260 C 
HETATM   10  N1  UNL     1     -16.891 -18.777  44.211  1.00  0.00     0.105 N 
ENDROOT
BRANCH   1  11
HETATM   11  C6  UNL     1     -15.379 -16.855  44.168  1.00  0.00     0.036 C 
BRANCH  11  12
HETATM   12  C5  UNL     1     -15.386 -15.581  44.917  1.00  0.00     0.006 C 
BRANCH  12  13
HETATM   13  C3  UNL     1     -15.103 -14.296  44.262  1.00  0.00    -0.019 C 
HETATM   14  C4  UNL     1     -13.883 -13.524  44.629  1.00  0.00     0.010 C 
BRANCH  13  15
HETATM   15  C2  UNL     1     -16.289 -13.355  44.674  1.00  0.00    -0.000 C 
HETATM   16  C1  UNL     1     -17.511 -13.876  43.962  1.00  0.00     0.005 C 
ENDBRANCH  13  15
ENDBRANCH  12  13
ENDBRANCH  11  12
ENDBRANCH   1  11
BRANCH   9  17
HETATM   17  C15 UNL     1     -18.792 -19.348  45.536  1.00  0.00    -0.018 C 
HETATM   18  C16 UNL     1     -19.734 -20.494  45.694  1.00  0.00     0.016 C 
HETATM   19  C17 UNL     1     -17.714 -19.481  46.580  1.00  0.00     0.016 C 
HETATM   20  C18 UNL     1     -19.606 -18.125  46.044  1.00  0.00     0.016 C 
ENDBRANCH   9  17
TORSDOF 5
ENDMDL
MODEL 5
REMARK VINA RESULT: -5.861991615      1.609      3.834
REMARK  5 active torsions:
REMARK  status: ('A' for Active; 'I' for Inactive)
REMARK    1  A    between atoms: C2_2  and  C3_3 
REMARK    2  A    between atoms: C3_3  and  C5_5 
REMARK    3  A    between atoms: C5_5  and  C6_6 
REMARK    4  A    between atoms: C6_6  and  C7_7 
REMARK    5  A    between atoms: C14_15  and  C15_16 
ROOT
HETATM    1  C7  UNL     1     -17.678 -17.615  46.005  1.00  0.00     0.226 C 
HETATM    2  C8  UNL     1     -17.718 -18.180  47.414  1.00  0.00     0.067 C 
HETATM    3  C9  UNL     1     -18.693 -19.298  47.508  1.00  0.00     0.126 C 
HETATM    4  C10 UNL     1     -20.008 -18.731  46.957  1.00  0.00     0.068 C 
HETATM    5  C11 UNL     1     -19.743 -18.784  45.441  1.00  0.00     0.229 C 
HETATM    6  C12 UNL     1     -19.876 -20.303  45.200  1.00  0.00     0.070 C 
HETATM    7  C13 UNL     1     -18.480 -20.691  45.636  1.00  0.00     0.158 C 
HETATM    8  O1  UNL     1     -18.348 -20.497  47.013  1.00  0.00    -0.378 OA
HETATM    9  C14 UNL     1     -17.632 -19.703  44.947  1.00  0.00     0.260 C 
HETATM   10  N1  UNL     1     -18.412 -18.478  45.084  1.00  0.00     0.105 N 
ENDROOT
BRANCH   1  11
HETATM   11  C6  UNL     1     -18.068 -16.203  45.914  1.00  0.00     0.036 C 
BRANCH  11  12
HETATM   12  C5  UNL     1     -18.344 -15.686  44.557  1.00  0.00     0.006 C 
BRANCH  12  13
HETATM   13  C3  UNL     1     -17.295 -15.058  43.740  1.00  0.00    -0.019 C 
HETATM   14  C4  UNL     1     -15.991 -15.749  43.540  1.00  0.00     0.010 C 
BRANCH  13  15
HETATM   15  C2  UNL     1     -16.917 -13.739  44.501  1.00  0.00    -0.000 C 
HETATM   16  C1  UNL     1     -15.412 -13.649  44.473  1.00  0.00     0.005 C 
ENDBRANCH  13  15
ENDBRANCH  12  13
ENDBRANCH  11  12
ENDBRANCH   1  11
BRANCH   9  17
HETATM   17  C15 UNL     1     -17.217 -19.873  43.560  1.00  0.00    -0.018 C 
HETATM   18  C16 UNL     1     -17.302 -21.237  42.961  1.00  0.00     0.016 C 
HETATM   19  C17 UNL     1     -17.807 -18.893  42.580  1.00  0.00     0.016 C 
HETATM   20  C18 UNL     1     -15.700 -19.537  43.504  1.00  0.00     0.016 C 
ENDBRANCH   9  17
TORSDOF 5
ENDMDL
