MODEL 1
REMARK VINA RESULT: -6.500316696      0.000      0.000
REMARK  5 active torsions:
REMARK  status: ('A' for Active; 'I' for Inactive)
REMARK    1  A    between atoms: C2_2  and  C3_3 
REMARK    2  A    between atoms: C5_5  and  C6_6 
REMARK    3  A    between atoms: C6_6  and  C7_7 
REMARK    4  A    between atoms: C8_8  and  C10_10 
REMARK    5  A    between atoms: C16_16  and  O1_17 
ROOT
HETATM    1  C10 UNL     1     -18.254 -16.612  46.095  1.00  0.00     0.010 C 
HETATM    2  C11 UNL     1     -17.327 -16.313  45.221  1.00  0.00    -0.065 C 
HETATM    3  C12 UNL     1     -17.016 -14.790  45.086  1.00  0.00     0.017 C 
HETATM    4  C13 UNL     1     -17.820 -14.190  43.993  1.00  0.00     0.015 C 
HETATM    5  C14 UNL     1     -15.547 -14.827  44.885  1.00  0.00     0.019 C 
HETATM    6  C15 UNL     1     -14.956 -13.565  44.358  1.00  0.00     0.013 C 
HETATM    7  C16 UNL     1     -15.338 -15.978  43.945  1.00  0.00     0.134 C 
HETATM    8  C17 UNL     1     -16.452 -16.975  44.284  1.00  0.00     0.003 C 
HETATM    9  C18 UNL     1     -17.156 -17.370  42.986  1.00  0.00     0.022 C 
HETATM   10  C19 UNL     1     -15.719 -18.201  44.781  1.00  0.00     0.022 C 
ENDROOT
BRANCH   1  11
HETATM   11  C8  UNL     1     -18.892 -17.795  46.582  1.00  0.00    -0.065 C 
HETATM   12  C7  UNL     1     -19.924 -18.243  45.861  1.00  0.00    -0.016 C 
HETATM   13  C9  UNL     1     -18.480 -18.523  47.771  1.00  0.00     0.048 C 
BRANCH  12  14
HETATM   14  C6  UNL     1     -20.761 -19.420  46.088  1.00  0.00     0.055 C 
BRANCH  14  15
HETATM   15  C5  UNL     1     -21.137 -20.034  44.782  1.00  0.00    -0.021 C 
HETATM   16  C3  UNL     1     -20.420 -20.430  43.797  1.00  0.00    -0.088 C 
HETATM   17  C4  UNL     1     -21.253 -21.020  42.621  1.00  0.00     0.043 C 
BRANCH  16  18
HETATM   18  C2  UNL     1     -18.995 -20.468  43.496  1.00  0.00     0.029 C 
HETATM   19  C1  UNL     1     -18.051 -21.138  44.401  1.00  0.00     0.010 C 
ENDBRANCH  16  18
ENDBRANCH  14  15
ENDBRANCH  12  14
ENDBRANCH   1  11
BRANCH   7  20
HETATM   20  O1  UNL     1     -15.425 -15.571  42.620  1.00  0.00    -0.394 OA
ATOM     21  H1  UNL     1     -14.722 -14.972  42.395  1.00  0.00     0.210 HD
ENDBRANCH   7  20
TORSDOF 5
ENDMDL
MODEL 2
REMARK VINA RESULT: -6.402031037      1.051      1.244
REMARK  5 active torsions:
REMARK  status: ('A' for Active; 'I' for Inactive)
REMARK    1  A    between atoms: C2_2  and  C3_3 
REMARK    2  A    between atoms: C5_5  and  C6_6 
REMARK    3  A    between atoms: C6_6  and  C7_7 
REMARK    4  A    between atoms: C8_8  and  C10_10 
REMARK    5  A    between atoms: C16_16  and  O1_17 
ROOT
HETATM    1  C10 UNL     1     -17.903 -16.637  45.777  1.00  0.00     0.010 C 
HETATM    2  C11 UNL     1     -16.888 -16.266  45.037  1.00  0.00    -0.065 C 
HETATM    3  C12 UNL     1     -16.625 -14.729  45.004  1.00  0.00     0.017 C 
HETATM    4  C13 UNL     1     -17.312 -14.109  43.844  1.00  0.00     0.015 C 
HETATM    5  C14 UNL     1     -15.143 -14.704  44.985  1.00  0.00     0.019 C 
HETATM    6  C15 UNL     1     -14.543 -13.399  44.587  1.00  0.00     0.013 C 
HETATM    7  C16 UNL     1     -14.772 -15.804  44.033  1.00  0.00     0.134 C 
HETATM    8  C17 UNL     1     -15.878 -16.854  44.191  1.00  0.00     0.003 C 
HETATM    9  C18 UNL     1     -16.400 -17.216  42.800  1.00  0.00     0.022 C 
HETATM   10  C19 UNL     1     -15.162 -18.074  44.726  1.00  0.00     0.022 C 
ENDROOT
BRANCH   1  11
HETATM   11  C8  UNL     1     -18.546 -17.863  46.133  1.00  0.00    -0.065 C 
HETATM   12  C7  UNL     1     -18.769 -18.720  45.132  1.00  0.00    -0.016 C 
HETATM   13  C9  UNL     1     -18.944 -18.222  47.484  1.00  0.00     0.048 C 
BRANCH  12  14
HETATM   14  C6  UNL     1     -19.386 -20.044  45.176  1.00  0.00     0.055 C 
BRANCH  14  15
HETATM   15  C5  UNL     1     -20.319 -20.208  44.024  1.00  0.00    -0.021 C 
HETATM   16  C3  UNL     1     -20.095 -20.354  42.771  1.00  0.00    -0.088 C 
HETATM   17  C4  UNL     1     -21.394 -20.494  41.921  1.00  0.00     0.043 C 
BRANCH  16  18
HETATM   18  C2  UNL     1     -18.911 -20.426  41.926  1.00  0.00     0.029 C 
HETATM   19  C1  UNL     1     -18.671 -19.424  40.877  1.00  0.00     0.010 C 
ENDBRANCH  16  18
ENDBRANCH  14  15
ENDBRANCH  12  14
ENDBRANCH   1  11
BRANCH   7  20
HETATM   20  O1  UNL     1     -14.712 -15.342  42.726  1.00  0.00    -0.394 OA
ATOM     21  H1  UNL     1     -15.071 -14.465  42.652  1.00  0.00     0.210 HD
ENDBRANCH   7  20
TORSDOF 5
ENDMDL
MODEL 3
REMARK VINA RESULT: -6.363883048      2.538      6.254
REMARK  5 active torsions:
REMARK  status: ('A' for Active; 'I' for Inactive)
REMARK    1  A    between atoms: C2_2  and  C3_3 
REMARK    2  A    between atoms: C5_5  and  C6_6 
REMARK    3  A    between atoms: C6_6  and  C7_7 
REMARK    4  A    between atoms: C8_8  and  C10_10 
REMARK    5  A    between atoms: C16_16  and  O1_17 
ROOT
HETATM    1  C10 UNL     1     -18.063 -17.133  45.084  1.00  0.00     0.010 C 
HETATM    2  C11 UNL     1     -17.576 -18.216  45.633  1.00  0.00    -0.065 C 
HETATM    3  C12 UNL     1     -18.562 -18.978  46.572  1.00  0.00     0.017 C 
HETATM    4  C13 UNL     1     -18.380 -18.543  47.979  1.00  0.00     0.015 C 
HETATM    5  C14 UNL     1     -18.206 -20.384  46.262  1.00  0.00     0.019 C 
HETATM    6  C15 UNL     1     -18.702 -21.387  47.247  1.00  0.00     0.013 C 
HETATM    7  C16 UNL     1     -16.707 -20.371  46.184  1.00  0.00     0.134 C 
HETATM    8  C17 UNL     1     -16.350 -18.977  45.655  1.00  0.00     0.003 C 
HETATM    9  C18 UNL     1     -15.287 -18.371  46.572  1.00  0.00     0.022 C 
HETATM   10  C19 UNL     1     -15.685 -19.241  44.322  1.00  0.00     0.022 C 
ENDROOT
BRANCH   1  11
HETATM   11  C8  UNL     1     -17.604 -16.114  44.191  1.00  0.00    -0.065 C 
HETATM   12  C7  UNL     1     -17.507 -14.885  44.704  1.00  0.00    -0.016 C 
HETATM   13  C9  UNL     1     -17.232 -16.342  42.804  1.00  0.00     0.048 C 
BRANCH  12  14
HETATM   14  C6  UNL     1     -17.062 -13.652  44.059  1.00  0.00     0.055 C 
BRANCH  14  15
HETATM   15  C5  UNL     1     -15.719 -13.262  44.578  1.00  0.00    -0.021 C 
HETATM   16  C3  UNL     1     -14.574 -13.824  44.461  1.00  0.00    -0.088 C 
HETATM   17  C4  UNL     1     -13.428 -13.049  45.178  1.00  0.00     0.043 C 
BRANCH  16  18
HETATM   18  C2  UNL     1     -14.064 -15.024  43.813  1.00  0.00     0.029 C 
HETATM   19  C1  UNL     1     -13.411 -16.084  44.596  1.00  0.00     0.010 C 
ENDBRANCH  16  18
ENDBRANCH  14  15
ENDBRANCH  12  14
ENDBRANCH   1  11
BRANCH   7  20
HETATM   20  O1  UNL     1     -16.134 -20.588  47.430  1.00  0.00    -0.394 OA
ATOM     21  H1  UNL     1     -15.708 -21.437  47.471  1.00  0.00     0.210 HD
ENDBRANCH   7  20
TORSDOF 5
ENDMDL
MODEL 4
REMARK VINA RESULT: -6.201639398      0.704      1.301
REMARK  5 active torsions:
REMARK  status: ('A' for Active; 'I' for Inactive)
REMARK    1  A    between atoms: C2_2  and  C3_3 
REMARK    2  A    between atoms: C5_5  and  C6_6 
REMARK    3  A    between atoms: C6_6  and  C7_7 
REMARK    4  A    between atoms: C8_8  and  C10_10 
REMARK    5  A    between atoms: C16_16  and  O1_17 
ROOT
HETATM    1  C10 UNL     1     -18.087 -16.474  45.925  1.00  0.00     0.010 C 
HETATM    2  C11 UNL     1     -17.098 -16.212  45.109  1.00  0.00    -0.065 C 
HETATM    3  C12 UNL     1     -16.674 -14.712  45.051  1.00  0.00     0.017 C 
HETATM    4  C13 UNL     1     -17.376 -14.016  43.944  1.00  0.00     0.015 C 
HETATM    5  C14 UNL     1     -15.203 -14.846  44.920  1.00  0.00     0.019 C 
HETATM    6  C15 UNL     1     -14.498 -13.611  44.473  1.00  0.00     0.013 C 
HETATM    7  C16 UNL     1     -15.026 -15.974  43.947  1.00  0.00     0.134 C 
HETATM    8  C17 UNL     1     -16.223 -16.901  44.191  1.00  0.00     0.003 C 
HETATM    9  C18 UNL     1     -16.885 -17.198  42.845  1.00  0.00     0.022 C 
HETATM   10  C19 UNL     1     -15.605 -18.193  44.675  1.00  0.00     0.022 C 
ENDROOT
BRANCH   1  11
HETATM   11  C8  UNL     1     -18.831 -17.626  46.333  1.00  0.00    -0.065 C 
HETATM   12  C7  UNL     1     -19.561 -18.218  45.383  1.00  0.00    -0.016 C 
HETATM   13  C9  UNL     1     -18.820 -18.179  47.677  1.00  0.00     0.048 C 
BRANCH  12  14
HETATM   14  C6  UNL     1     -20.407 -19.406  45.482  1.00  0.00     0.055 C 
BRANCH  14  15
HETATM   15  C5  UNL     1     -19.688 -20.588  44.925  1.00  0.00    -0.021 C 
HETATM   16  C3  UNL     1     -19.476 -20.954  43.716  1.00  0.00    -0.088 C 
HETATM   17  C4  UNL     1     -18.663 -22.279  43.603  1.00  0.00     0.043 C 
BRANCH  16  18
HETATM   18  C2  UNL     1     -19.807 -20.434  42.396  1.00  0.00     0.029 C 
HETATM   19  C1  UNL     1     -21.196 -20.428  41.915  1.00  0.00     0.010 C 
ENDBRANCH  16  18
ENDBRANCH  14  15
ENDBRANCH  12  14
ENDBRANCH   1  11
BRANCH   7  20
HETATM   20  O1  UNL     1     -15.016 -15.515  42.637  1.00  0.00    -0.394 OA
ATOM     21  H1  UNL     1     -15.570 -14.750  42.534  1.00  0.00     0.210 HD
ENDBRANCH   7  20
TORSDOF 5
ENDMDL
MODEL 5
REMARK VINA RESULT: -5.982353891      2.223      6.650
REMARK  5 active torsions:
REMARK  status: ('A' for Active; 'I' for Inactive)
REMARK    1  A    between atoms: C2_2  and  C3_3 
REMARK    2  A    between atoms: C5_5  and  C6_6 
REMARK    3  A    between atoms: C6_6  and  C7_7 
REMARK    4  A    between atoms: C8_8  and  C10_10 
REMARK    5  A    between atoms: C16_16  and  O1_17 
ROOT
HETATM    1  C10 UNL     1     -17.655 -17.310  44.961  1.00  0.00     0.010 C 
HETATM    2  C11 UNL     1     -18.261 -18.432  45.256  1.00  0.00    -0.065 C 
HETATM    3  C12 UNL     1     -19.483 -18.287  46.214  1.00  0.00     0.017 C 
HETATM    4  C13 UNL     1     -19.064 -18.490  47.624  1.00  0.00     0.015 C 
HETATM    5  C14 UNL     1     -20.401 -19.302  45.644  1.00  0.00     0.019 C 
HETATM    6  C15 UNL     1     -21.532 -19.694  46.532  1.00  0.00     0.013 C 
HETATM    7  C16 UNL     1     -19.507 -20.466  45.330  1.00  0.00     0.134 C 
HETATM    8  C17 UNL     1     -18.155 -19.842  44.967  1.00  0.00     0.003 C 
HETATM    9  C18 UNL     1     -17.068 -20.539  45.784  1.00  0.00     0.022 C 
HETATM   10  C19 UNL     1     -17.940 -20.229  43.521  1.00  0.00     0.022 C 
ENDROOT
BRANCH   1  11
HETATM   11  C8  UNL     1     -16.536 -16.900  44.170  1.00  0.00    -0.065 C 
HETATM   12  C7  UNL     1     -15.375 -16.773  44.818  1.00  0.00    -0.016 C 
HETATM   13  C9  UNL     1     -16.590 -16.639  42.741  1.00  0.00     0.048 C 
BRANCH  12  14
HETATM   14  C6  UNL     1     -14.066 -16.390  44.293  1.00  0.00     0.055 C 
BRANCH  14  15
HETATM   15  C5  UNL     1     -13.669 -15.061  44.840  1.00  0.00    -0.021 C 
HETATM   16  C3  UNL     1     -14.201 -13.903  44.713  1.00  0.00    -0.088 C 
HETATM   17  C4  UNL     1     -13.434 -12.781  45.475  1.00  0.00     0.043 C 
BRANCH  16  18
HETATM   18  C2  UNL     1     -15.365 -13.361  44.025  1.00  0.00     0.029 C 
HETATM   19  C1  UNL     1     -16.689 -13.367  44.663  1.00  0.00     0.010 C 
ENDBRANCH  16  18
ENDBRANCH  14  15
ENDBRANCH  12  14
ENDBRANCH   1  11
BRANCH   7  20
HETATM   20  O1  UNL     1     -19.382 -21.316  46.421  1.00  0.00    -0.394 OA
ATOM     21  H1  UNL     1     -18.632 -21.083  46.956  1.00  0.00     0.210 HD
ENDBRANCH   7  20
TORSDOF 5
ENDMDL
