MODEL 1
REMARK VINA RESULT: -4.914307677      0.000      0.000
REMARK  5 active torsions:
REMARK  status: ('A' for Active; 'I' for Inactive)
REMARK    1  A    between atoms: C2_2  and  C3_3 
REMARK    2  A    between atoms: C10_10  and  C11_11 
REMARK    3  A    between atoms: C10_10  and  C12_14 
REMARK    4  A    between atoms: C11_11  and  O1_12 
REMARK    5  A    between atoms: C16_18  and  C17_19 
ROOT
HETATM    1  C3  UNL     1     -17.020 -18.847  42.690  1.00  0.00    -0.002 C 
HETATM    2  C4  UNL     1     -15.859 -19.364  41.940  1.00  0.00     0.024 C 
HETATM    3  C5  UNL     1     -17.301 -17.427  42.194  1.00  0.00     0.018 C 
HETATM    4  C6  UNL     1     -16.703 -16.366  42.969  1.00  0.00     0.011 C 
HETATM    5  C7  UNL     1     -16.138 -16.686  44.294  1.00  0.00    -0.033 C 
HETATM    6  C8  UNL     1     -16.195 -15.340  44.981  1.00  0.00     0.016 C 
HETATM    7  C9  UNL     1     -14.624 -16.818  44.176  1.00  0.00     0.016 C 
HETATM    8  C10 UNL     1     -16.797 -17.820  45.071  1.00  0.00     0.019 C 
HETATM    9  C16 UNL     1     -17.061 -18.993  44.187  1.00  0.00    -0.051 C 
ENDROOT
BRANCH   8  10
HETATM   10  C11 UNL     1     -15.849 -18.171  46.202  1.00  0.00     0.179 C 
BRANCH  10  11
HETATM   11  O1  UNL     1     -14.621 -18.642  45.938  1.00  0.00    -0.400 OA
ATOM     12  H1  UNL     1     -14.033 -18.875  46.646  1.00  0.00     0.209 HD
ENDBRANCH  10  11
ENDBRANCH   8  10
BRANCH   8  13
HETATM   13  C12 UNL     1     -18.027 -17.398  45.840  1.00  0.00    -0.037 C 
HETATM   14  C13 UNL     1     -19.345 -17.914  45.315  1.00  0.00     0.015 C 
HETATM   15  C14 UNL     1     -18.296 -15.964  46.108  1.00  0.00     0.015 C 
HETATM   16  C15 UNL     1     -18.010 -17.969  47.272  1.00  0.00     0.015 C 
ENDBRANCH   8  13
BRANCH   9  17
HETATM   17  C17 UNL     1     -16.877 -20.382  44.561  1.00  0.00    -0.067 C 
HETATM   18  C18 UNL     1     -15.909 -21.267  44.464  1.00  0.00     0.018 C 
HETATM   19  C19 UNL     1     -17.981 -21.157  45.315  1.00  0.00     0.047 C 
ENDBRANCH   9  17
BRANCH   1  20
HETATM   20  C2  UNL     1     -18.184 -19.547  42.018  1.00  0.00    -0.023 C 
HETATM   21  C1  UNL     1     -18.621 -19.283  40.813  1.00  0.00     0.008 C 
ENDBRANCH   1  20
TORSDOF 5
ENDMDL
MODEL 2
REMARK VINA RESULT: -4.780862968      1.457      3.432
REMARK  5 active torsions:
REMARK  status: ('A' for Active; 'I' for Inactive)
REMARK    1  A    between atoms: C2_2  and  C3_3 
REMARK    2  A    between atoms: C10_10  and  C11_11 
REMARK    3  A    between atoms: C10_10  and  C12_14 
REMARK    4  A    between atoms: C11_11  and  O1_12 
REMARK    5  A    between atoms: C16_18  and  C17_19 
ROOT
HETATM    1  C3  UNL     1     -16.570 -17.107  44.418  1.00  0.00    -0.002 C 
HETATM    2  C4  UNL     1     -15.561 -16.413  45.242  1.00  0.00     0.024 C 
HETATM    3  C5  UNL     1     -17.899 -16.368  44.587  1.00  0.00     0.018 C 
HETATM    4  C6  UNL     1     -18.785 -16.902  45.594  1.00  0.00     0.011 C 
HETATM    5  C7  UNL     1     -18.499 -18.235  46.158  1.00  0.00    -0.033 C 
HETATM    6  C8  UNL     1     -19.868 -18.660  46.641  1.00  0.00     0.016 C 
HETATM    7  C9  UNL     1     -17.819 -18.072  47.512  1.00  0.00     0.016 C 
HETATM    8  C10 UNL     1     -17.812 -19.240  45.241  1.00  0.00     0.019 C 
HETATM    9  C16 UNL     1     -16.687 -18.606  44.496  1.00  0.00    -0.051 C 
ENDROOT
BRANCH   8  10
HETATM   10  C11 UNL     1     -17.331 -20.371  46.130  1.00  0.00     0.179 C 
BRANCH  10  11
HETATM   11  O1  UNL     1     -16.455 -20.132  47.118  1.00  0.00    -0.400 OA
ATOM     12  H1  UNL     1     -16.044 -19.279  47.200  1.00  0.00     0.209 HD
ENDBRANCH  10  11
ENDBRANCH   8  10
BRANCH   8  13
HETATM   13  C12 UNL     1     -18.761 -19.975  44.322  1.00  0.00    -0.037 C 
HETATM   14  C13 UNL     1     -18.697 -19.595  42.864  1.00  0.00     0.015 C 
HETATM   15  C14 UNL     1     -20.216 -20.010  44.610  1.00  0.00     0.015 C 
HETATM   16  C15 UNL     1     -18.433 -21.480  44.273  1.00  0.00     0.015 C 
ENDBRANCH   8  13
BRANCH   9  17
HETATM   17  C17 UNL     1     -15.401 -19.223  44.233  1.00  0.00    -0.067 C 
HETATM   18  C18 UNL     1     -14.236 -19.276  44.841  1.00  0.00     0.018 C 
HETATM   19  C19 UNL     1     -15.187 -20.120  42.993  1.00  0.00     0.047 C 
ENDBRANCH   9  17
BRANCH   1  20
HETATM   20  C2  UNL     1     -16.233 -16.635  43.018  1.00  0.00    -0.023 C 
HETATM   21  C1  UNL     1     -17.085 -16.568  42.026  1.00  0.00     0.008 C 
ENDBRANCH   1  20
TORSDOF 5
ENDMDL
MODEL 3
REMARK VINA RESULT: -4.695636000      1.302      3.057
REMARK  5 active torsions:
REMARK  status: ('A' for Active; 'I' for Inactive)
REMARK    1  A    between atoms: C2_2  and  C3_3 
REMARK    2  A    between atoms: C10_10  and  C11_11 
REMARK    3  A    between atoms: C10_10  and  C12_14 
REMARK    4  A    between atoms: C11_11  and  O1_12 
REMARK    5  A    between atoms: C16_18  and  C17_19 
ROOT
HETATM    1  C3  UNL     1     -18.002 -20.104  44.825  1.00  0.00    -0.002 C 
HETATM    2  C4  UNL     1     -17.488 -21.469  44.596  1.00  0.00     0.024 C 
HETATM    3  C5  UNL     1     -18.980 -19.778  43.694  1.00  0.00     0.018 C 
HETATM    4  C6  UNL     1     -18.421 -19.060  42.573  1.00  0.00     0.011 C 
HETATM    5  C7  UNL     1     -17.083 -18.453  42.715  1.00  0.00    -0.033 C 
HETATM    6  C8  UNL     1     -17.134 -17.360  41.670  1.00  0.00     0.016 C 
HETATM    7  C9  UNL     1     -16.050 -19.356  42.051  1.00  0.00     0.016 C 
HETATM    8  C10 UNL     1     -16.683 -17.979  44.107  1.00  0.00     0.019 C 
HETATM    9  C16 UNL     1     -17.039 -18.992  45.142  1.00  0.00    -0.051 C 
ENDROOT
BRANCH   8  10
HETATM   10  C11 UNL     1     -15.189 -17.725  44.059  1.00  0.00     0.179 C 
BRANCH  10  11
HETATM   11  O1  UNL     1     -14.345 -18.703  43.695  1.00  0.00    -0.400 OA
ATOM     12  H1  UNL     1     -13.490 -18.492  43.338  1.00  0.00     0.209 HD
ENDBRANCH  10  11
ENDBRANCH   8  10
BRANCH   8  13
HETATM   13  C12 UNL     1     -17.202 -16.603  44.454  1.00  0.00    -0.037 C 
HETATM   14  C13 UNL     1     -18.388 -16.559  45.387  1.00  0.00     0.015 C 
HETATM   15  C14 UNL     1     -17.563 -15.639  43.386  1.00  0.00     0.015 C 
HETATM   16  C15 UNL     1     -16.151 -15.794  45.240  1.00  0.00     0.015 C 
ENDBRANCH   8  13
BRANCH   9  17
HETATM   17  C17 UNL     1     -16.217 -19.351  46.282  1.00  0.00    -0.067 C 
HETATM   18  C18 UNL     1     -15.185 -20.139  46.491  1.00  0.00     0.018 C 
HETATM   19  C19 UNL     1     -16.442 -18.699  47.664  1.00  0.00     0.047 C 
ENDBRANCH   9  17
BRANCH   1  20
HETATM   20  C2  UNL     1     -19.013 -20.316  45.934  1.00  0.00    -0.023 C 
HETATM   21  C1  UNL     1     -20.154 -19.681  46.037  1.00  0.00     0.008 C 
ENDBRANCH   1  20
TORSDOF 5
ENDMDL
MODEL 4
REMARK VINA RESULT: -4.655453992      1.710      3.702
REMARK  5 active torsions:
REMARK  status: ('A' for Active; 'I' for Inactive)
REMARK    1  A    between atoms: C2_2  and  C3_3 
REMARK    2  A    between atoms: C10_10  and  C11_11 
REMARK    3  A    between atoms: C10_10  and  C12_14 
REMARK    4  A    between atoms: C11_11  and  O1_12 
REMARK    5  A    between atoms: C16_18  and  C17_19 
ROOT
HETATM    1  C3  UNL     1     -18.252 -18.170  45.884  1.00  0.00    -0.002 C 
HETATM    2  C4  UNL     1     -19.534 -18.331  45.171  1.00  0.00     0.024 C 
HETATM    3  C5  UNL     1     -18.125 -16.700  46.291  1.00  0.00     0.018 C 
HETATM    4  C6  UNL     1     -17.384 -15.862  45.379  1.00  0.00     0.011 C 
HETATM    5  C7  UNL     1     -16.580 -16.502  44.320  1.00  0.00    -0.033 C 
HETATM    6  C8  UNL     1     -15.555 -15.429  44.027  1.00  0.00     0.016 C 
HETATM    7  C9  UNL     1     -17.349 -16.448  43.005  1.00  0.00     0.016 C 
HETATM    8  C10 UNL     1     -15.990 -17.872  44.632  1.00  0.00     0.019 C 
HETATM    9  C16 UNL     1     -16.997 -18.753  45.292  1.00  0.00    -0.051 C 
ENDROOT
BRANCH   8  10
HETATM   10  C11 UNL     1     -15.520 -18.447  43.310  1.00  0.00     0.179 C 
BRANCH  10  11
HETATM   11  O1  UNL     1     -16.397 -18.677  42.320  1.00  0.00    -0.400 OA
ATOM     12  H1  UNL     1     -16.130 -18.592  41.412  1.00  0.00     0.209 HD
ENDBRANCH  10  11
ENDBRANCH   8  10
BRANCH   8  13
HETATM   13  C12 UNL     1     -14.691 -17.814  45.403  1.00  0.00    -0.037 C 
HETATM   14  C13 UNL     1     -14.756 -18.264  46.842  1.00  0.00     0.015 C 
HETATM   15  C14 UNL     1     -13.904 -16.558  45.465  1.00  0.00     0.015 C 
HETATM   16  C15 UNL     1     -13.651 -18.787  44.813  1.00  0.00     0.015 C 
ENDBRANCH   8  13
BRANCH   9  17
HETATM   17  C17 UNL     1     -17.179 -20.166  45.023  1.00  0.00    -0.067 C 
HETATM   18  C18 UNL     1     -17.926 -20.886  44.215  1.00  0.00     0.018 C 
HETATM   19  C19 UNL     1     -16.323 -21.231  45.745  1.00  0.00     0.047 C 
ENDBRANCH   9  17
BRANCH   1  20
HETATM   20  C2  UNL     1     -18.560 -18.750  47.249  1.00  0.00    -0.023 C 
HETATM   21  C1  UNL     1     -18.064 -18.310  48.378  1.00  0.00     0.008 C 
ENDBRANCH   1  20
TORSDOF 5
ENDMDL
MODEL 5
REMARK VINA RESULT: -4.609177893      1.649      3.964
REMARK  5 active torsions:
REMARK  status: ('A' for Active; 'I' for Inactive)
REMARK    1  A    between atoms: C2_2  and  C3_3 
REMARK    2  A    between atoms: C10_10  and  C11_11 
REMARK    3  A    between atoms: C10_10  and  C12_14 
REMARK    4  A    between atoms: C11_11  and  O1_12 
REMARK    5  A    between atoms: C16_18  and  C17_19 
ROOT
HETATM    1  C3  UNL     1     -18.441 -20.227  45.318  1.00  0.00    -0.002 C 
HETATM    2  C4  UNL     1     -18.439 -21.679  45.585  1.00  0.00     0.024 C 
HETATM    3  C5  UNL     1     -19.597 -19.930  44.360  1.00  0.00     0.018 C 
HETATM    4  C6  UNL     1     -19.250 -19.888  42.959  1.00  0.00     0.011 C 
HETATM    5  C7  UNL     1     -17.824 -19.837  42.582  1.00  0.00    -0.033 C 
HETATM    6  C8  UNL     1     -17.897 -19.209  41.208  1.00  0.00     0.016 C 
HETATM    7  C9  UNL     1     -17.363 -21.230  42.172  1.00  0.00     0.016 C 
HETATM    8  C10 UNL     1     -16.878 -19.134  43.548  1.00  0.00     0.019 C 
HETATM    9  C16 UNL     1     -17.153 -19.538  44.958  1.00  0.00    -0.051 C 
ENDROOT
BRANCH   8  10
HETATM   10  C11 UNL     1     -15.473 -19.509  43.119  1.00  0.00     0.179 C 
BRANCH  10  11
HETATM   11  O1  UNL     1     -15.160 -19.592  41.817  1.00  0.00    -0.400 OA
ATOM     12  H1  UNL     1     -15.540 -18.987  41.192  1.00  0.00     0.209 HD
ENDBRANCH  10  11
ENDBRANCH   8  10
BRANCH   8  13
HETATM   13  C12 UNL     1     -16.843 -17.632  43.383  1.00  0.00    -0.037 C 
HETATM   14  C13 UNL     1     -17.684 -16.840  44.354  1.00  0.00     0.015 C 
HETATM   15  C14 UNL     1     -17.145 -17.009  42.071  1.00  0.00     0.015 C 
HETATM   16  C15 UNL     1     -15.432 -17.076  43.657  1.00  0.00     0.015 C 
ENDBRANCH   8  13
BRANCH   9  17
HETATM   17  C17 UNL     1     -16.144 -19.800  45.967  1.00  0.00    -0.067 C 
HETATM   18  C18 UNL     1     -15.393 -20.824  46.308  1.00  0.00     0.018 C 
HETATM   19  C19 UNL     1     -15.681 -18.691  46.936  1.00  0.00     0.047 C 
ENDBRANCH   9  17
BRANCH   1  20
HETATM   20  C2  UNL     1     -19.055 -19.661  46.583  1.00  0.00    -0.023 C 
HETATM   21  C1  UNL     1     -19.961 -18.717  46.617  1.00  0.00     0.008 C 
ENDBRANCH   1  20
TORSDOF 5
ENDMDL
