MODEL 1
REMARK VINA RESULT: -8.272762729      0.000      0.000
REMARK  9 active torsions:
REMARK  status: ('A' for Active; 'I' for Inactive)
REMARK    1  A    between atoms: N1_1  and  C1_4 
REMARK    2  A    between atoms: N4_12  and  C4_14 
REMARK    3  A    between atoms: C4_14  and  C5_15 
REMARK    4  A    between atoms: C5_15  and  O2_16 
REMARK    5  A    between atoms: O2_16  and  C6_17 
REMARK    6  A    between atoms: C6_17  and  C7_19 
REMARK    7  A    between atoms: C9_21  and  C10_22 
REMARK    8  A    between atoms: C10_22  and  N5_23 
REMARK    9  A    between atoms: C10_22  and  O4_27 
ROOT
HETATM    1  C5  UNL     1      20.527  28.738   9.898  1.00  0.00     0.199 C 
ENDROOT
BRANCH   1   2
HETATM    2  C4  UNL     1      19.373  29.707   9.816  1.00  0.00     0.165 C 
BRANCH   2   3
HETATM    3  N4  UNL     1      18.101  29.093   9.673  1.00  0.00    -0.223 N 
HETATM    4  C3  UNL     1      17.173  29.265  10.554  1.00  0.00     0.696 A 
HETATM    5  N3  UNL     1      17.299  30.014  11.661  1.00  0.00    -0.140 N 
HETATM    6  N8  UNL     1      15.968  28.648  10.366  1.00  0.00    -0.022 N 
HETATM    7  C2  UNL     1      16.296  30.158  12.547  1.00  0.00     0.352 A 
ATOM      8  H3  UNL     1      18.184  30.490  11.836  1.00  0.00     0.189 HD
HETATM    9  N2  UNL     1      15.120  29.539  12.334  1.00  0.00    -0.141 N 
HETATM   10  O1  UNL     1      16.423  30.869  13.591  1.00  0.00    -0.246 OA
HETATM   11  C1  UNL     1      14.955  28.777  11.232  1.00  0.00     0.694 A 
ATOM     12  H2  UNL     1      14.356  29.645  13.002  1.00  0.00     0.189 HD
ATOM     13  H8  UNL     1      15.835  28.071   9.536  1.00  0.00     0.203 HD
ATOM     14  H4  UNL     1      17.917  28.504   8.860  1.00  0.00     0.177 HD
BRANCH  11  15
HETATM   15  N1  UNL     1      13.811  28.208  11.078  1.00  0.00    -0.234 N 
ATOM     16  H12 UNL     1      13.380  27.610  11.783  1.00  0.00     0.174 HD
ATOM     17  H11 UNL     1      13.324  28.376  10.198  1.00  0.00     0.174 HD
ENDBRANCH  11  15
ENDBRANCH   2   3
ENDBRANCH   1   2
BRANCH   1  18
HETATM   18  O2  UNL     1      21.078  28.596  11.176  1.00  0.00    -0.315 OA
BRANCH  18  19
HETATM   19  C6  UNL     1      21.089  29.515  12.185  1.00  0.00     0.311 C 
HETATM   20  O3  UNL     1      21.921  30.454  12.128  1.00  0.00    -0.258 OA
BRANCH  19  21
HETATM   21  C7  UNL     1      20.170  29.451  13.332  1.00  0.00     0.125 A 
HETATM   22  C8  UNL     1      19.587  28.310  13.833  1.00  0.00     0.068 A 
HETATM   23  C9  UNL     1      18.802  28.703  14.905  1.00  0.00     0.083 A 
HETATM   24  N6  UNL     1      18.943  30.038  15.001  1.00  0.00    -0.300 N 
HETATM   25  N7  UNL     1      19.753  30.490  14.070  1.00  0.00    -0.295 N 
ATOM     26  H6  UNL     1      18.483  30.620  15.701  1.00  0.00     0.186 HD
ATOM     27  H7  UNL     1      20.020  31.466  13.933  1.00  0.00     0.187 HD
BRANCH  23  28
HETATM   28  C10 UNL     1      17.991  27.788  15.741  1.00  0.00     0.368 C 
BRANCH  28  29
HETATM   29  N5  UNL     1      16.656  27.660  15.186  1.00  0.00    -0.047 N 
ATOM     30  H53 UNL     1      16.423  28.437  14.567  1.00  0.00     0.277 HD
ATOM     31  H52 UNL     1      16.596  26.903  14.505  1.00  0.00     0.277 HD
ATOM     32  H51 UNL     1      15.974  27.552  15.937  1.00  0.00     0.277 HD
ENDBRANCH  28  29
BRANCH  28  33
HETATM   33  O4  UNL     1      17.892  28.247  17.045  1.00  0.00    -0.365 OA
ATOM     34  H4  UNL     1      17.093  27.944  17.460  1.00  0.00     0.212 HD
ENDBRANCH  28  33
ENDBRANCH  23  28
ENDBRANCH  19  21
ENDBRANCH  18  19
ENDBRANCH   1  18
TORSDOF 9
ENDMDL
MODEL 2
REMARK VINA RESULT: -8.154008780      2.509      4.869
REMARK  9 active torsions:
REMARK  status: ('A' for Active; 'I' for Inactive)
REMARK    1  A    between atoms: N1_1  and  C1_4 
REMARK    2  A    between atoms: N4_12  and  C4_14 
REMARK    3  A    between atoms: C4_14  and  C5_15 
REMARK    4  A    between atoms: C5_15  and  O2_16 
REMARK    5  A    between atoms: O2_16  and  C6_17 
REMARK    6  A    between atoms: C6_17  and  C7_19 
REMARK    7  A    between atoms: C9_21  and  C10_22 
REMARK    8  A    between atoms: C10_22  and  N5_23 
REMARK    9  A    between atoms: C10_22  and  O4_27 
ROOT
HETATM    1  C5  UNL     1      17.403  31.052  14.226  1.00  0.00     0.199 C 
ENDROOT
BRANCH   1   2
HETATM    2  C4  UNL     1      16.128  30.539  13.601  1.00  0.00     0.165 C 
BRANCH   2   3
HETATM    3  N4  UNL     1      16.004  29.124  13.602  1.00  0.00    -0.223 N 
HETATM    4  C3  UNL     1      15.597  28.489  12.556  1.00  0.00     0.696 A 
HETATM    5  N3  UNL     1      15.257  29.068  11.393  1.00  0.00    -0.140 N 
HETATM    6  N8  UNL     1      15.496  27.127  12.613  1.00  0.00    -0.022 N 
HETATM    7  C2  UNL     1      14.837  28.355  10.332  1.00  0.00     0.352 A 
ATOM      8  H3  UNL     1      15.319  30.083  11.312  1.00  0.00     0.189 HD
HETATM    9  N2  UNL     1      14.748  27.014  10.419  1.00  0.00    -0.141 N 
HETATM   10  O1  UNL     1      14.517  28.911   9.237  1.00  0.00    -0.246 OA
HETATM   11  C1  UNL     1      15.081  26.395  11.571  1.00  0.00     0.694 A 
ATOM     12  H2  UNL     1      14.431  26.468   9.618  1.00  0.00     0.189 HD
ATOM     13  H8  UNL     1      15.745  26.651  13.480  1.00  0.00     0.203 HD
ATOM     14  H4  UNL     1      16.242  28.601  14.446  1.00  0.00     0.177 HD
BRANCH  11  15
HETATM   15  N1  UNL     1      14.978  25.113  11.599  1.00  0.00    -0.234 N 
ATOM     16  H12 UNL     1      15.291  24.506  10.840  1.00  0.00     0.174 HD
ATOM     17  H11 UNL     1      14.560  24.698  12.431  1.00  0.00     0.174 HD
ENDBRANCH  11  15
ENDBRANCH   2   3
ENDBRANCH   1   2
BRANCH   1  18
HETATM   18  O2  UNL     1      18.550  30.325  13.890  1.00  0.00    -0.315 OA
BRANCH  18  19
HETATM   19  C6  UNL     1      19.350  30.490  12.797  1.00  0.00     0.311 C 
HETATM   20  O3  UNL     1      20.490  30.992  12.962  1.00  0.00    -0.258 OA
BRANCH  19  21
HETATM   21  C7  UNL     1      18.935  30.104  11.439  1.00  0.00     0.125 A 
HETATM   22  C8  UNL     1      18.544  30.968  10.441  1.00  0.00     0.068 A 
HETATM   23  C9  UNL     1      18.243  30.187   9.337  1.00  0.00     0.083 A 
HETATM   24  N6  UNL     1      18.461  28.913   9.709  1.00  0.00    -0.300 N 
HETATM   25  N7  UNL     1      18.872  28.854  10.957  1.00  0.00    -0.295 N 
ATOM     26  H6  UNL     1      18.325  28.102   9.106  1.00  0.00     0.186 HD
ATOM     27  H7  UNL     1      19.104  28.003  11.469  1.00  0.00     0.187 HD
BRANCH  23  28
HETATM   28  C10 UNL     1      17.777  30.712   8.032  1.00  0.00     0.368 C 
BRANCH  28  29
HETATM   29  N5  UNL     1      17.800  32.163   8.044  1.00  0.00    -0.047 N 
ATOM     30  H53 UNL     1      17.329  32.546   8.864  1.00  0.00     0.277 HD
ATOM     31  H52 UNL     1      18.734  32.529   8.223  1.00  0.00     0.277 HD
ATOM     32  H51 UNL     1      17.408  32.525   7.174  1.00  0.00     0.277 HD
ENDBRANCH  28  29
BRANCH  28  33
HETATM   33  O4  UNL     1      16.489  30.285   7.746  1.00  0.00    -0.365 OA
ATOM     34  H4  UNL     1      15.849  30.960   7.940  1.00  0.00     0.212 HD
ENDBRANCH  28  33
ENDBRANCH  23  28
ENDBRANCH  19  21
ENDBRANCH  18  19
ENDBRANCH   1  18
TORSDOF 9
ENDMDL
MODEL 3
REMARK VINA RESULT: -8.021353062      1.744      4.419
REMARK  9 active torsions:
REMARK  status: ('A' for Active; 'I' for Inactive)
REMARK    1  A    between atoms: N1_1  and  C1_4 
REMARK    2  A    between atoms: N4_12  and  C4_14 
REMARK    3  A    between atoms: C4_14  and  C5_15 
REMARK    4  A    between atoms: C5_15  and  O2_16 
REMARK    5  A    between atoms: O2_16  and  C6_17 
REMARK    6  A    between atoms: C6_17  and  C7_19 
REMARK    7  A    between atoms: C9_21  and  C10_22 
REMARK    8  A    between atoms: C10_22  and  N5_23 
REMARK    9  A    between atoms: C10_22  and  O4_27 
ROOT
HETATM    1  C5  UNL     1      15.884  26.879  14.440  1.00  0.00     0.199 C 
ENDROOT
BRANCH   1   2
HETATM    2  C4  UNL     1      15.746  26.665  12.953  1.00  0.00     0.165 C 
BRANCH   2   3
HETATM    3  N4  UNL     1      15.750  27.860  12.187  1.00  0.00    -0.223 N 
HETATM    4  C3  UNL     1      16.765  28.184  11.459  1.00  0.00     0.696 A 
HETATM    5  N3  UNL     1      17.888  27.456  11.346  1.00  0.00    -0.140 N 
HETATM    6  N8  UNL     1      16.715  29.347  10.742  1.00  0.00    -0.022 N 
HETATM    7  C2  UNL     1      18.918  27.843  10.570  1.00  0.00     0.352 A 
ATOM      8  H3  UNL     1      17.963  26.582  11.866  1.00  0.00     0.189 HD
HETATM    9  N2  UNL     1      18.838  28.994   9.876  1.00  0.00    -0.141 N 
HETATM   10  O1  UNL     1      19.976  27.150  10.469  1.00  0.00    -0.246 OA
HETATM   11  C1  UNL     1      17.726  29.752   9.963  1.00  0.00     0.694 A 
ATOM     12  H2  UNL     1      19.615  29.292   9.286  1.00  0.00     0.189 HD
ATOM     13  H8  UNL     1      15.878  29.926  10.802  1.00  0.00     0.203 HD
ATOM     14  H4  UNL     1      14.936  28.475  12.213  1.00  0.00     0.177 HD
BRANCH  11  15
HETATM   15  N1  UNL     1      17.703  30.842   9.278  1.00  0.00    -0.234 N 
ATOM     16  H12 UNL     1      17.783  31.770   9.694  1.00  0.00     0.174 HD
ATOM     17  H11 UNL     1      17.598  30.753   8.268  1.00  0.00     0.174 HD
ENDBRANCH  11  15
ENDBRANCH   2   3
ENDBRANCH   1   2
BRANCH   1  18
HETATM   18  O2  UNL     1      17.198  26.832  14.916  1.00  0.00    -0.315 OA
BRANCH  18  19
HETATM   19  C6  UNL     1      17.935  27.861  15.430  1.00  0.00     0.311 C 
HETATM   20  O3  UNL     1      18.163  27.872  16.665  1.00  0.00    -0.258 OA
BRANCH  19  21
HETATM   21  C7  UNL     1      18.471  28.951  14.600  1.00  0.00     0.125 A 
HETATM   22  C8  UNL     1      19.675  28.937  13.934  1.00  0.00     0.068 A 
HETATM   23  C9  UNL     1      19.780  30.155  13.281  1.00  0.00     0.083 A 
HETATM   24  N6  UNL     1      18.658  30.836  13.576  1.00  0.00    -0.300 N 
HETATM   25  N7  UNL     1      17.875  30.128  14.360  1.00  0.00    -0.295 N 
ATOM     26  H6  UNL     1      18.445  31.774  13.239  1.00  0.00     0.186 HD
ATOM     27  H7  UNL     1      16.968  30.424  14.722  1.00  0.00     0.187 HD
BRANCH  23  28
HETATM   28  C10 UNL     1      20.928  30.567  12.440  1.00  0.00     0.368 C 
BRANCH  28  29
HETATM   29  N5  UNL     1      21.644  29.395  11.969  1.00  0.00    -0.047 N 
ATOM     30  H53 UNL     1      22.627  29.596  11.787  1.00  0.00     0.277 HD
ATOM     31  H52 UNL     1      21.767  28.701  12.705  1.00  0.00     0.277 HD
ATOM     32  H51 UNL     1      21.175  29.006  11.150  1.00  0.00     0.277 HD
ENDBRANCH  28  29
BRANCH  28  33
HETATM   33  O4  UNL     1      21.806  31.377  13.143  1.00  0.00    -0.365 OA
ATOM     34  H4  UNL     1      22.709  31.121  12.995  1.00  0.00     0.212 HD
ENDBRANCH  28  33
ENDBRANCH  23  28
ENDBRANCH  19  21
ENDBRANCH  18  19
ENDBRANCH   1  18
TORSDOF 9
ENDMDL
MODEL 4
REMARK VINA RESULT: -8.016905030      1.783      2.082
REMARK  9 active torsions:
REMARK  status: ('A' for Active; 'I' for Inactive)
REMARK    1  A    between atoms: N1_1  and  C1_4 
REMARK    2  A    between atoms: N4_12  and  C4_14 
REMARK    3  A    between atoms: C4_14  and  C5_15 
REMARK    4  A    between atoms: C5_15  and  O2_16 
REMARK    5  A    between atoms: O2_16  and  C6_17 
REMARK    6  A    between atoms: C6_17  and  C7_19 
REMARK    7  A    between atoms: C9_21  and  C10_22 
REMARK    8  A    between atoms: C10_22  and  N5_23 
REMARK    9  A    between atoms: C10_22  and  O4_27 
ROOT
HETATM    1  C5  UNL     1      21.067  28.671  10.592  1.00  0.00     0.199 C 
ENDROOT
BRANCH   1   2
HETATM    2  C4  UNL     1      20.013  27.606  10.771  1.00  0.00     0.165 C 
BRANCH   2   3
HETATM    3  N4  UNL     1      18.711  27.996  10.363  1.00  0.00    -0.223 N 
HETATM    4  C3  UNL     1      17.695  27.854  11.146  1.00  0.00     0.696 A 
HETATM    5  N3  UNL     1      17.751  27.341  12.386  1.00  0.00    -0.140 N 
HETATM    6  N8  UNL     1      16.463  28.246  10.702  1.00  0.00    -0.022 N 
HETATM    7  C2  UNL     1      16.657  27.215  13.160  1.00  0.00     0.352 A 
ATOM      8  H3  UNL     1      18.653  27.036  12.753  1.00  0.00     0.189 HD
HETATM    9  N2  UNL     1      15.458  27.611  12.694  1.00  0.00    -0.141 N 
HETATM   10  O1  UNL     1      16.719  26.729  14.331  1.00  0.00    -0.246 OA
HETATM   11  C1  UNL     1      15.361  28.132  11.453  1.00  0.00     0.694 A 
ATOM     12  H2  UNL     1      14.625  27.519  13.277  1.00  0.00     0.189 HD
ATOM     13  H8  UNL     1      16.381  28.641   9.765  1.00  0.00     0.203 HD
ATOM     14  H4  UNL     1      18.575  28.396   9.434  1.00  0.00     0.177 HD
BRANCH  11  15
HETATM   15  N1  UNL     1      14.191  28.495  11.059  1.00  0.00    -0.234 N 
ATOM     16  H12 UNL     1      13.569  27.896  10.516  1.00  0.00     0.174 HD
ATOM     17  H11 UNL     1      13.886  29.435  11.312  1.00  0.00     0.174 HD
ENDBRANCH  11  15
ENDBRANCH   2   3
ENDBRANCH   1   2
BRANCH   1  18
HETATM   18  O2  UNL     1      21.626  29.144  11.784  1.00  0.00    -0.315 OA
BRANCH  18  19
HETATM   19  C6  UNL     1      21.227  30.222  12.520  1.00  0.00     0.311 C 
HETATM   20  O3  UNL     1      22.082  31.096  12.810  1.00  0.00    -0.258 OA
BRANCH  19  21
HETATM   21  C7  UNL     1      19.844  30.402  12.986  1.00  0.00     0.125 A 
HETATM   22  C8  UNL     1      19.369  30.089  14.239  1.00  0.00     0.068 A 
HETATM   23  C9  UNL     1      18.023  30.418  14.247  1.00  0.00     0.083 A 
HETATM   24  N6  UNL     1      17.750  30.906  13.024  1.00  0.00    -0.300 N 
HETATM   25  N7  UNL     1      18.826  30.900  12.268  1.00  0.00    -0.295 N 
ATOM     26  H6  UNL     1      16.833  31.235  12.724  1.00  0.00     0.186 HD
ATOM     27  H7  UNL     1      18.877  31.220  11.301  1.00  0.00     0.187 HD
BRANCH  23  28
HETATM   28  C10 UNL     1      17.117  30.242  15.407  1.00  0.00     0.368 C 
BRANCH  28  29
HETATM   29  N5  UNL     1      17.814  29.566  16.484  1.00  0.00    -0.047 N 
ATOM     30  H53 UNL     1      17.605  28.568  16.507  1.00  0.00     0.277 HD
ATOM     31  H52 UNL     1      18.817  29.504  16.311  1.00  0.00     0.277 HD
ATOM     32  H51 UNL     1      17.607  30.020  17.374  1.00  0.00     0.277 HD
ENDBRANCH  28  29
BRANCH  28  33
HETATM   33  O4  UNL     1      15.995  29.504  15.064  1.00  0.00    -0.365 OA
ATOM     34  H4  UNL     1      15.309  29.592  15.716  1.00  0.00     0.212 HD
ENDBRANCH  28  33
ENDBRANCH  23  28
ENDBRANCH  19  21
ENDBRANCH  18  19
ENDBRANCH   1  18
TORSDOF 9
ENDMDL
MODEL 5
REMARK VINA RESULT: -8.005734193      1.740      4.456
REMARK  9 active torsions:
REMARK  status: ('A' for Active; 'I' for Inactive)
REMARK    1  A    between atoms: N1_1  and  C1_4 
REMARK    2  A    between atoms: N4_12  and  C4_14 
REMARK    3  A    between atoms: C4_14  and  C5_15 
REMARK    4  A    between atoms: C5_15  and  O2_16 
REMARK    5  A    between atoms: O2_16  and  C6_17 
REMARK    6  A    between atoms: C6_17  and  C7_19 
REMARK    7  A    between atoms: C9_21  and  C10_22 
REMARK    8  A    between atoms: C10_22  and  N5_23 
REMARK    9  A    between atoms: C10_22  and  O4_27 
ROOT
HETATM    1  C5  UNL     1      21.412  29.906  11.642  1.00  0.00     0.199 C 
ENDROOT
BRANCH   1   2
HETATM    2  C4  UNL     1      20.537  30.606  12.654  1.00  0.00     0.165 C 
BRANCH   2   3
HETATM    3  N4  UNL     1      20.294  29.857  13.835  1.00  0.00    -0.223 N 
HETATM    4  C3  UNL     1      19.225  30.040  14.534  1.00  0.00     0.696 A 
HETATM    5  N3  UNL     1      18.259  30.924  14.236  1.00  0.00    -0.140 N 
HETATM    6  N8  UNL     1      19.043  29.292  15.664  1.00  0.00    -0.022 N 
HETATM    7  C2  UNL     1      17.163  31.073  15.003  1.00  0.00     0.352 A 
ATOM      8  H3  UNL     1      18.359  31.501  13.402  1.00  0.00     0.189 HD
HETATM    9  N2  UNL     1      17.012  30.321  16.110  1.00  0.00    -0.141 N 
HETATM   10  O1  UNL     1      16.254  31.911  14.715  1.00  0.00    -0.246 OA
HETATM   11  C1  UNL     1      17.962  29.422  16.442  1.00  0.00     0.694 A 
ATOM     12  H2  UNL     1      16.183  30.429  16.695  1.00  0.00     0.189 HD
ATOM     13  H8  UNL     1      19.756  28.610  15.922  1.00  0.00     0.203 HD
ATOM     14  H4  UNL     1      20.978  29.162  14.137  1.00  0.00     0.177 HD
BRANCH  11  15
HETATM   15  N1  UNL     1      17.766  28.729  17.509  1.00  0.00    -0.234 N 
ATOM     16  H12 UNL     1      17.187  29.045  18.287  1.00  0.00     0.174 HD
ATOM     17  H11 UNL     1      18.222  27.818  17.561  1.00  0.00     0.174 HD
ENDBRANCH  11  15
ENDBRANCH   2   3
ENDBRANCH   1   2
BRANCH   1  18
HETATM   18  O2  UNL     1      20.856  28.743  11.097  1.00  0.00    -0.315 OA
BRANCH  18  19
HETATM   19  C6  UNL     1      19.994  28.648  10.042  1.00  0.00     0.311 C 
HETATM   20  O3  UNL     1      20.458  28.325   8.921  1.00  0.00    -0.258 OA
BRANCH  19  21
HETATM   21  C7  UNL     1      18.551  28.904  10.165  1.00  0.00     0.125 A 
HETATM   22  C8  UNL     1      17.767  28.586  11.250  1.00  0.00     0.068 A 
HETATM   23  C9  UNL     1      16.481  29.001  10.945  1.00  0.00     0.083 A 
HETATM   24  N6  UNL     1      16.544  29.541   9.714  1.00  0.00    -0.300 N 
HETATM   25  N7  UNL     1      17.770  29.487   9.243  1.00  0.00    -0.295 N 
ATOM     26  H6  UNL     1      15.749  29.938   9.214  1.00  0.00     0.186 HD
ATOM     27  H7  UNL     1      18.076  29.831   8.332  1.00  0.00     0.187 HD
BRANCH  23  28
HETATM   28  C10 UNL     1      15.309  28.852  11.839  1.00  0.00     0.368 C 
BRANCH  28  29
HETATM   29  N5  UNL     1      14.142  28.463  11.069  1.00  0.00    -0.047 N 
ATOM     30  H53 UNL     1      13.413  29.176  11.093  1.00  0.00     0.277 HD
ATOM     31  H52 UNL     1      14.327  28.472  10.066  1.00  0.00     0.277 HD
ATOM     32  H51 UNL     1      13.800  27.556  11.387  1.00  0.00     0.277 HD
ENDBRANCH  28  29
BRANCH  28  33
HETATM   33  O4  UNL     1      15.031  30.033  12.511  1.00  0.00    -0.365 OA
ATOM     34  H4  UNL     1      14.118  30.279  12.416  1.00  0.00     0.212 HD
ENDBRANCH  28  33
ENDBRANCH  23  28
ENDBRANCH  19  21
ENDBRANCH  18  19
ENDBRANCH   1  18
TORSDOF 9
ENDMDL
