MODEL 1
REMARK VINA RESULT: -8.774552223      0.000      0.000
REMARK  7 active torsions:
REMARK  status: ('A' for Active; 'I' for Inactive)
REMARK    1  A    between atoms: N1_1  and  C1_4 
REMARK    2  A    between atoms: N5_18  and  C7_19 
REMARK    3  A    between atoms: C7_19  and  C8_20 
REMARK    4  A    between atoms: C8_20  and  C9_21 
REMARK    5  A    between atoms: C9_21  and  N6_22 
REMARK       I    between atoms: N6_22  and  C10_24 
REMARK    6  A    between atoms: N8_26  and  N9_28 
REMARK    7  A    between atoms: N9_28  and  N10_30 
ROOT
HETATM    1  C1  UNL     1      19.397  28.411  10.373  1.00  0.00     0.682 A 
HETATM    2  N2  UNL     1      18.690  28.714   9.253  1.00  0.00    -0.175 N 
ATOM      3  H2  UNL     1      18.369  27.961   8.644  1.00  0.00     0.186 HD
HETATM    4  C2  UNL     1      18.408  29.980   8.934  1.00  0.00     0.143 A 
HETATM    5  N3  UNL     1      17.708  30.327   7.819  1.00  0.00    -0.337 N 
ATOM      6  H3  UNL     1      17.375  29.595   7.192  1.00  0.00     0.168 HD
HETATM    7  C3  UNL     1      17.445  31.617   7.526  1.00  0.00     0.184 A 
HETATM    8  N4  UNL     1      17.863  32.619   8.325  1.00  0.00    -0.319 N 
ATOM      9  H4  UNL     1      17.658  33.591   8.096  1.00  0.00     0.169 HD
HETATM   10  C4  UNL     1      18.560  32.302   9.436  1.00  0.00     0.265 A 
HETATM   11  O1  UNL     1      18.962  33.215  10.200  1.00  0.00    -0.267 OA
HETATM   12  C5  UNL     1      18.851  30.990   9.775  1.00  0.00     0.145 A 
HETATM   13  C6  UNL     1      19.568  30.655  10.910  1.00  0.00     0.281 A 
HETATM   14  O2  UNL     1      19.962  31.594  11.664  1.00  0.00    -0.266 OA
HETATM   15  N5  UNL     1      19.839  29.361  11.208  1.00  0.00    -0.147 N 
ENDROOT
BRANCH  15  16
HETATM   16  C7  UNL     1      20.556  29.138  12.433  1.00  0.00     0.153 C 
BRANCH  16  17
HETATM   17  C8  UNL     1      19.736  28.677  13.585  1.00  0.00     0.041 C 
BRANCH  17  18
HETATM   18  C9  UNL     1      19.338  29.716  14.572  1.00  0.00     0.124 C 
BRANCH  18  19
HETATM   19  N6  UNL     1      18.230  30.549  14.170  1.00  0.00    -0.363 N 
HETATM   20  C10 UNL     1      16.946  30.088  13.875  1.00  0.00     0.204 C 
HETATM   21  N7  UNL     1      16.384  28.845  14.268  1.00  0.00    -0.062 NA
HETATM   22  N8  UNL     1      16.164  30.859  13.167  1.00  0.00    -0.260 N 
ATOM     23  H8  UNL     1      16.517  31.765  12.857  1.00  0.00     0.191 HD
ATOM     24  H6  UNL     1      18.398  31.552  14.097  1.00  0.00     0.162 HD
BRANCH  22  25
HETATM   25  N9  UNL     1      14.879  30.494  12.823  1.00  0.00    -0.247 N 
ATOM     26  H9  UNL     1      14.091  30.963  13.271  1.00  0.00     0.207 HD
BRANCH  25  27
HETATM   27  N10 UNL     1      14.629  29.493  11.871  1.00  0.00    -0.331 N 
ATOM     28 2H10 UNL     1      14.166  29.760  11.003  1.00  0.00     0.178 HD
ATOM     29 1H10 UNL     1      14.899  28.522  12.033  1.00  0.00     0.178 HD
ENDBRANCH  25  27
ENDBRANCH  22  25
ENDBRANCH  18  19
ENDBRANCH  17  18
ENDBRANCH  16  17
ENDBRANCH  15  16
BRANCH   1  30
HETATM   30  N1  UNL     1      19.629  27.158  10.548  1.00  0.00    -0.234 N 
ATOM     31  H12 UNL     1      19.582  26.472   9.795  1.00  0.00     0.174 HD
ATOM     32  H11 UNL     1      19.843  26.888  11.509  1.00  0.00     0.174 HD
ENDBRANCH   1  30
TORSDOF 7
ENDMDL
MODEL 2
REMARK VINA RESULT: -8.315110396      1.933      2.718
REMARK  7 active torsions:
REMARK  status: ('A' for Active; 'I' for Inactive)
REMARK    1  A    between atoms: N1_1  and  C1_4 
REMARK    2  A    between atoms: N5_18  and  C7_19 
REMARK    3  A    between atoms: C7_19  and  C8_20 
REMARK    4  A    between atoms: C8_20  and  C9_21 
REMARK    5  A    between atoms: C9_21  and  N6_22 
REMARK       I    between atoms: N6_22  and  C10_24 
REMARK    6  A    between atoms: N8_26  and  N9_28 
REMARK    7  A    between atoms: N9_28  and  N10_30 
ROOT
HETATM    1  C1  UNL     1      19.328  28.507  10.241  1.00  0.00     0.682 A 
HETATM    2  N2  UNL     1      18.636  28.816   9.113  1.00  0.00    -0.175 N 
ATOM      3  H2  UNL     1      18.306  28.065   8.506  1.00  0.00     0.186 HD
HETATM    4  C2  UNL     1      18.381  30.086   8.784  1.00  0.00     0.143 A 
HETATM    5  N3  UNL     1      17.696  30.438   7.662  1.00  0.00    -0.337 N 
ATOM      6  H3  UNL     1      17.354  29.708   7.036  1.00  0.00     0.168 HD
HETATM    7  C3  UNL     1      17.459  31.731   7.358  1.00  0.00     0.184 A 
HETATM    8  N4  UNL     1      17.890  32.730   8.154  1.00  0.00    -0.319 N 
ATOM      9  H4  UNL     1      17.706  33.704   7.917  1.00  0.00     0.169 HD
HETATM   10  C4  UNL     1      18.572  32.407   9.273  1.00  0.00     0.265 A 
HETATM   11  O1  UNL     1      18.985  33.317  10.034  1.00  0.00    -0.267 OA
HETATM   12  C5  UNL     1      18.835  31.092   9.622  1.00  0.00     0.145 A 
HETATM   13  C6  UNL     1      19.537  30.751  10.766  1.00  0.00     0.281 A 
HETATM   14  O2  UNL     1      19.943  31.687  11.516  1.00  0.00    -0.266 OA
HETATM   15  N5  UNL     1      19.781  29.454  11.074  1.00  0.00    -0.147 N 
ENDROOT
BRANCH  15  16
HETATM   16  C7  UNL     1      20.485  29.226  12.305  1.00  0.00     0.153 C 
BRANCH  16  17
HETATM   17  C8  UNL     1      19.660  28.712  13.432  1.00  0.00     0.041 C 
BRANCH  17  18
HETATM   18  C9  UNL     1      18.607  29.623  13.952  1.00  0.00     0.124 C 
BRANCH  18  19
HETATM   19  N6  UNL     1      18.608  29.807  15.383  1.00  0.00    -0.363 N 
HETATM   20  C10 UNL     1      18.289  28.822  16.318  1.00  0.00     0.204 C 
HETATM   21  N7  UNL     1      18.287  27.419  16.100  1.00  0.00    -0.062 NA
HETATM   22  N8  UNL     1      17.953  29.203  17.522  1.00  0.00    -0.260 N 
ATOM     23  H8  UNL     1      17.937  30.201  17.735  1.00  0.00     0.191 HD
ATOM     24  H6  UNL     1      18.863  30.728  15.739  1.00  0.00     0.162 HD
BRANCH  22  25
HETATM   25  N9  UNL     1      17.620  28.307  18.517  1.00  0.00    -0.247 N 
ATOM     26  H9  UNL     1      17.595  27.310  18.301  1.00  0.00     0.207 HD
BRANCH  25  27
HETATM   27  N10 UNL     1      17.314  28.732  19.818  1.00  0.00    -0.331 N 
ATOM     28 2H10 UNL     1      17.001  29.694  19.949  1.00  0.00     0.178 HD
ATOM     29 1H10 UNL     1      17.398  28.106  20.619  1.00  0.00     0.178 HD
ENDBRANCH  25  27
ENDBRANCH  22  25
ENDBRANCH  18  19
ENDBRANCH  17  18
ENDBRANCH  16  17
ENDBRANCH  15  16
BRANCH   1  30
HETATM   30  N1  UNL     1      19.535  27.251  10.426  1.00  0.00    -0.234 N 
ATOM     31  H12 UNL     1      19.151  26.733  11.216  1.00  0.00     0.174 HD
ATOM     32  H11 UNL     1      20.137  26.806   9.733  1.00  0.00     0.174 HD
ENDBRANCH   1  30
TORSDOF 7
ENDMDL
MODEL 3
REMARK VINA RESULT: -8.275775245      3.934      5.799
REMARK  7 active torsions:
REMARK  status: ('A' for Active; 'I' for Inactive)
REMARK    1  A    between atoms: N1_1  and  C1_4 
REMARK    2  A    between atoms: N5_18  and  C7_19 
REMARK    3  A    between atoms: C7_19  and  C8_20 
REMARK    4  A    between atoms: C8_20  and  C9_21 
REMARK    5  A    between atoms: C9_21  and  N6_22 
REMARK       I    between atoms: N6_22  and  C10_24 
REMARK    6  A    between atoms: N8_26  and  N9_28 
REMARK    7  A    between atoms: N9_28  and  N10_30 
ROOT
HETATM    1  C1  UNL     1      16.278  28.688  11.128  1.00  0.00     0.682 A 
HETATM    2  N2  UNL     1      15.988  27.420  10.736  1.00  0.00    -0.175 N 
ATOM      3  H2  UNL     1      16.099  27.161   9.755  1.00  0.00     0.186 HD
HETATM    4  C2  UNL     1      15.557  26.507  11.611  1.00  0.00     0.143 A 
HETATM    5  N3  UNL     1      15.250  25.228  11.258  1.00  0.00    -0.337 N 
ATOM      6  H3  UNL     1      15.352  24.940  10.285  1.00  0.00     0.168 HD
HETATM    7  C3  UNL     1      14.814  24.332  12.168  1.00  0.00     0.184 A 
HETATM    8  N4  UNL     1      14.664  24.665  13.466  1.00  0.00    -0.319 N 
ATOM      9  H4  UNL     1      14.334  23.981  14.147  1.00  0.00     0.169 HD
HETATM   10  C4  UNL     1      14.961  25.926  13.841  1.00  0.00     0.265 A 
HETATM   11  O1  UNL     1      14.832  26.265  15.044  1.00  0.00    -0.267 OA
HETATM   12  C5  UNL     1      15.413  26.877  12.939  1.00  0.00     0.145 A 
HETATM   13  C6  UNL     1      15.717  28.174  13.313  1.00  0.00     0.281 A 
HETATM   14  O2  UNL     1      15.578  28.490  14.532  1.00  0.00    -0.266 OA
HETATM   15  N5  UNL     1      16.151  29.080  12.403  1.00  0.00    -0.147 N 
ENDROOT
BRANCH  15  16
HETATM   16  C7  UNL     1      16.471  30.381  12.920  1.00  0.00     0.153 C 
BRANCH  16  17
HETATM   17  C8  UNL     1      17.901  30.780  12.822  1.00  0.00     0.041 C 
BRANCH  17  18
HETATM   18  C9  UNL     1      18.876  29.937  13.562  1.00  0.00     0.124 C 
BRANCH  18  19
HETATM   19  N6  UNL     1      18.808  30.043  15.000  1.00  0.00    -0.363 N 
HETATM   20  C10 UNL     1      18.527  28.988  15.869  1.00  0.00     0.204 C 
HETATM   21  N7  UNL     1      18.638  27.603  15.580  1.00  0.00    -0.062 NA
HETATM   22  N8  UNL     1      18.117  29.279  17.076  1.00  0.00    -0.260 N 
ATOM     23  H8  UNL     1      18.019  30.260  17.338  1.00  0.00     0.191 HD
ATOM     24  H6  UNL     1      18.979  30.960  15.413  1.00  0.00     0.162 HD
BRANCH  22  25
HETATM   25  N9  UNL     1      17.813  28.309  18.008  1.00  0.00    -0.247 N 
ATOM     26  H9  UNL     1      17.844  27.327  17.733  1.00  0.00     0.207 HD
BRANCH  25  27
HETATM   27  N10 UNL     1      17.463  28.640  19.326  1.00  0.00    -0.331 N 
ATOM     28 2H10 UNL     1      18.060  29.293  19.833  1.00  0.00     0.178 HD
ATOM     29 1H10 UNL     1      16.637  28.243  19.776  1.00  0.00     0.178 HD
ENDBRANCH  25  27
ENDBRANCH  22  25
ENDBRANCH  18  19
ENDBRANCH  17  18
ENDBRANCH  16  17
ENDBRANCH  15  16
BRANCH   1  30
HETATM   30  N1  UNL     1      16.651  29.478  10.184  1.00  0.00    -0.234 N 
ATOM     31  H12 UNL     1      16.046  29.742   9.407  1.00  0.00     0.174 HD
ATOM     32  H11 UNL     1      17.614  29.808  10.252  1.00  0.00     0.174 HD
ENDBRANCH   1  30
TORSDOF 7
ENDMDL
MODEL 4
REMARK VINA RESULT: -8.226148584      3.320      5.936
REMARK  7 active torsions:
REMARK  status: ('A' for Active; 'I' for Inactive)
REMARK    1  A    between atoms: N1_1  and  C1_4 
REMARK    2  A    between atoms: N5_18  and  C7_19 
REMARK    3  A    between atoms: C7_19  and  C8_20 
REMARK    4  A    between atoms: C8_20  and  C9_21 
REMARK    5  A    between atoms: C9_21  and  N6_22 
REMARK       I    between atoms: N6_22  and  C10_24 
REMARK    6  A    between atoms: N8_26  and  N9_28 
REMARK    7  A    between atoms: N9_28  and  N10_30 
ROOT
HETATM    1  C1  UNL     1      16.321  28.794  10.729  1.00  0.00     0.682 A 
HETATM    2  N2  UNL     1      15.555  27.675  10.645  1.00  0.00    -0.175 N 
ATOM      3  H2  UNL     1      15.091  27.450   9.765  1.00  0.00     0.186 HD
HETATM    4  C2  UNL     1      15.398  26.864  11.695  1.00  0.00     0.143 A 
HETATM    5  N3  UNL     1      14.635  25.737  11.655  1.00  0.00    -0.337 N 
ATOM      6  H3  UNL     1      14.159  25.487  10.788  1.00  0.00     0.168 HD
HETATM    7  C3  UNL     1      14.495  24.942  12.736  1.00  0.00     0.184 A 
HETATM    8  N4  UNL     1      15.105  25.230  13.903  1.00  0.00    -0.319 N 
ATOM      9  H4  UNL     1      14.994  24.623  14.715  1.00  0.00     0.169 HD
HETATM   10  C4  UNL     1      15.866  26.342  13.970  1.00  0.00     0.265 A 
HETATM   11  O1  UNL     1      16.448  26.635  15.045  1.00  0.00    -0.267 OA
HETATM   12  C5  UNL     1      16.037  27.185  12.883  1.00  0.00     0.145 A 
HETATM   13  C6  UNL     1      16.813  28.329  12.942  1.00  0.00     0.281 A 
HETATM   14  O2  UNL     1      17.388  28.603  14.037  1.00  0.00    -0.266 OA
HETATM   15  N5  UNL     1      16.954  29.134  11.860  1.00  0.00    -0.147 N 
ENDROOT
BRANCH  15  16
HETATM   16  C7  UNL     1      17.814  30.271  12.035  1.00  0.00     0.153 C 
BRANCH  16  17
HETATM   17  C8  UNL     1      19.076  30.251  11.246  1.00  0.00     0.041 C 
BRANCH  17  18
HETATM   18  C9  UNL     1      19.256  31.347  10.258  1.00  0.00     0.124 C 
BRANCH  18  19
HETATM   19  N6  UNL     1      18.300  32.423  10.356  1.00  0.00    -0.363 N 
HETATM   20  C10 UNL     1      18.009  33.332   9.339  1.00  0.00     0.204 C 
HETATM   21  N7  UNL     1      18.272  33.163   7.954  1.00  0.00    -0.062 NA
HETATM   22  N8  UNL     1      17.437  34.461   9.668  1.00  0.00    -0.260 N 
ATOM     23  H8  UNL     1      17.225  34.635  10.651  1.00  0.00     0.191 HD
ATOM     24  H6  UNL     1      17.797  32.526  11.238  1.00  0.00     0.162 HD
BRANCH  22  25
HETATM   25  N9  UNL     1      17.110  35.424   8.737  1.00  0.00    -0.247 N 
ATOM     26  H9  UNL     1      17.782  36.163   8.527  1.00  0.00     0.207 HD
BRANCH  25  27
HETATM   27  N10 UNL     1      15.875  35.413   8.070  1.00  0.00    -0.331 N 
ATOM     28 2H10 UNL     1      15.877  35.306   7.056  1.00  0.00     0.178 HD
ATOM     29 1H10 UNL     1      14.994  35.507   8.576  1.00  0.00     0.178 HD
ENDBRANCH  25  27
ENDBRANCH  22  25
ENDBRANCH  18  19
ENDBRANCH  17  18
ENDBRANCH  16  17
ENDBRANCH  15  16
BRANCH   1  30
HETATM   30  N1  UNL     1      16.364  29.506   9.659  1.00  0.00    -0.234 N 
ATOM     31  H12 UNL     1      16.991  29.304   8.880  1.00  0.00     0.174 HD
ATOM     32  H11 UNL     1      15.738  30.311   9.651  1.00  0.00     0.174 HD
ENDBRANCH   1  30
TORSDOF 7
ENDMDL
MODEL 5
REMARK VINA RESULT: -8.198126079      2.703      5.851
REMARK  7 active torsions:
REMARK  status: ('A' for Active; 'I' for Inactive)
REMARK    1  A    between atoms: N1_1  and  C1_4 
REMARK    2  A    between atoms: N5_18  and  C7_19 
REMARK    3  A    between atoms: C7_19  and  C8_20 
REMARK    4  A    between atoms: C8_20  and  C9_21 
REMARK    5  A    between atoms: C9_21  and  N6_22 
REMARK       I    between atoms: N6_22  and  C10_24 
REMARK    6  A    between atoms: N8_26  and  N9_28 
REMARK    7  A    between atoms: N9_28  and  N10_30 
ROOT
HETATM    1  C1  UNL     1      20.423  30.004  12.420  1.00  0.00     0.682 A 
HETATM    2  N2  UNL     1      20.192  30.256  13.735  1.00  0.00    -0.175 N 
ATOM      3  H2  UNL     1      20.741  30.970  14.212  1.00  0.00     0.186 HD
HETATM    4  C2  UNL     1      19.258  29.584  14.413  1.00  0.00     0.143 A 
HETATM    5  N3  UNL     1      18.998  29.802  15.732  1.00  0.00    -0.337 N 
ATOM      6  H3  UNL     1      19.532  30.510  16.235  1.00  0.00     0.168 HD
HETATM    7  C3  UNL     1      18.049  29.102  16.388  1.00  0.00     0.184 A 
HETATM    8  N4  UNL     1      17.317  28.156  15.765  1.00  0.00    -0.319 N 
ATOM      9  H4  UNL     1      16.602  27.632  16.269  1.00  0.00     0.169 HD
HETATM   10  C4  UNL     1      17.555  27.920  14.458  1.00  0.00     0.265 A 
HETATM   11  O1  UNL     1      16.888  27.045  13.852  1.00  0.00    -0.267 OA
HETATM   12  C5  UNL     1      18.519  28.617  13.747  1.00  0.00     0.145 A 
HETATM   13  C6  UNL     1      18.774  28.381  12.408  1.00  0.00     0.281 A 
HETATM   14  O2  UNL     1      18.088  27.493  11.819  1.00  0.00    -0.266 OA
HETATM   15  N5  UNL     1      19.729  29.078  11.744  1.00  0.00    -0.147 N 
ENDROOT
BRANCH  15  16
HETATM   16  C7  UNL     1      19.873  28.769  10.349  1.00  0.00     0.153 C 
BRANCH  16  17
HETATM   17  C8  UNL     1      18.875  29.400   9.443  1.00  0.00     0.041 C 
BRANCH  17  18
HETATM   18  C9  UNL     1      19.179  30.780   8.982  1.00  0.00     0.124 C 
BRANCH  18  19
HETATM   19  N6  UNL     1      18.354  31.814   9.561  1.00  0.00    -0.363 N 
HETATM   20  C10 UNL     1      18.033  33.022   8.942  1.00  0.00     0.204 C 
HETATM   21  N7  UNL     1      18.104  33.305   7.552  1.00  0.00    -0.062 NA
HETATM   22  N8  UNL     1      17.622  34.008   9.695  1.00  0.00    -0.260 N 
ATOM     23  H8  UNL     1      17.552  33.861  10.702  1.00  0.00     0.191 HD
ATOM     24  H6  UNL     1      17.978  31.648  10.494  1.00  0.00     0.162 HD
BRANCH  22  25
HETATM   25  N9  UNL     1      17.280  35.241   9.179  1.00  0.00    -0.247 N 
ATOM     26  H9  UNL     1      17.892  36.040   9.350  1.00  0.00     0.207 HD
BRANCH  25  27
HETATM   27  N10 UNL     1      16.111  35.424   8.424  1.00  0.00    -0.331 N 
ATOM     28 2H10 UNL     1      16.162  35.279   7.416  1.00  0.00     0.178 HD
ATOM     29 1H10 UNL     1      15.230  35.693   8.861  1.00  0.00     0.178 HD
ENDBRANCH  25  27
ENDBRANCH  22  25
ENDBRANCH  18  19
ENDBRANCH  17  18
ENDBRANCH  16  17
ENDBRANCH  15  16
BRANCH   1  30
HETATM   30  N1  UNL     1      21.371  30.695  11.891  1.00  0.00    -0.234 N 
ATOM     31  H12 UNL     1      22.226  30.939  12.389  1.00  0.00     0.174 HD
ATOM     32  H11 UNL     1      21.196  31.007  10.936  1.00  0.00     0.174 HD
ENDBRANCH   1  30
TORSDOF 7
ENDMDL
