MODEL 1
REMARK VINA RESULT: -8.215474608      0.000      0.000
REMARK  9 active torsions:
REMARK  status: ('A' for Active; 'I' for Inactive)
REMARK    1  A    between atoms: N1_1  and  C1_5 
REMARK    2  A    between atoms: C1_5  and  C2_6 
REMARK    3  A    between atoms: C2_6  and  N2_7 
REMARK    4  A    between atoms: N2_7  and  C3_9 
REMARK    5  A    between atoms: C4_12  and  C5_13 
REMARK       I    between atoms: C5_13  and  N4_15 
REMARK    6  A    between atoms: N4_15  and  N5_17 
REMARK    7  A    between atoms: C6_20  and  N6_21 
REMARK    8  A    between atoms: C7_24  and  N7_25 
REMARK    9  A    between atoms: N7_25  and  N8_27 
ROOT
HETATM    1  C3  UNL     1      16.182  28.814  10.964  1.00  0.00     0.680 A 
HETATM    2  N3  UNL     1      16.110  29.506  12.097  1.00  0.00    -0.184 N 
ATOM      3  H3  UNL     1      15.202  29.636  12.542  1.00  0.00     0.184 HD
HETATM    4  C4  UNL     1      17.238  30.058  12.694  1.00  0.00     0.155 A 
HETATM    5  C6  UNL     1      18.440  29.861  12.072  1.00  0.00     0.181 A 
HETATM    6  C7  UNL     1      18.454  29.131  10.894  1.00  0.00     0.171 A 
HETATM    7  N11 UNL     1      17.355  28.623  10.358  1.00  0.00    -0.173 N 
ATOM      8  H11 UNL     1      17.406  28.091   9.490  1.00  0.00     0.186 HD
ENDROOT
BRANCH   1   9
HETATM    9  N2  UNL     1      15.118  28.292  10.401  1.00  0.00    -0.224 N 
ATOM     10  H2  UNL     1      14.795  28.605   9.485  1.00  0.00     0.177 HD
BRANCH   9  11
HETATM   11  C2  UNL     1      14.422  27.258  11.128  1.00  0.00     0.165 C 
BRANCH  11  12
HETATM   12  C1  UNL     1      15.433  26.210  11.542  1.00  0.00     0.249 C 
BRANCH  12  13
HETATM   13  N1  UNL     1      14.776  24.933  11.574  1.00  0.00    -0.078 N 
ATOM     14  H13 UNL     1      14.010  24.903  12.247  1.00  0.00     0.274 HD
ATOM     15  H12 UNL     1      14.229  24.753  10.732  1.00  0.00     0.274 HD
ATOM     16  H11 UNL     1      15.478  24.214  11.746  1.00  0.00     0.274 HD
ENDBRANCH  12  13
ENDBRANCH  11  12
ENDBRANCH   9  11
ENDBRANCH   1   9
BRANCH   4  17
HETATM   17  C5  UNL     1      17.033  30.826  13.860  1.00  0.00     0.289 C 
HETATM   18  O1  UNL     1      16.039  31.653  13.839  1.00  0.00    -0.264 OA
HETATM   19  N4  UNL     1      17.756  30.821  15.051  1.00  0.00    -0.271 N 
ATOM     20  H4  UNL     1      18.556  30.196  15.155  1.00  0.00     0.189 HD
BRANCH  19  21
HETATM   21  N5  UNL     1      17.386  31.687  16.135  1.00  0.00    -0.342 N 
ATOM     22  H52 UNL     1      16.680  32.404  15.969  1.00  0.00     0.176 HD
ATOM     23  H51 UNL     1      17.821  31.587  17.052  1.00  0.00     0.176 HD
ENDBRANCH  19  21
ENDBRANCH   4  17
BRANCH   6  24
HETATM   24  N7  UNL     1      19.588  28.955  10.311  1.00  0.00    -0.281 N 
ATOM     25  H7  UNL     1      20.159  29.765  10.069  1.00  0.00     0.188 HD
BRANCH  24  26
HETATM   26  N8  UNL     1      20.044  27.682  10.008  1.00  0.00    -0.274 N 
HETATM   27  C8  UNL     1      21.259  27.367  10.256  1.00  0.00     0.215 C 
HETATM   28  N9  UNL     1      22.128  28.313  10.832  1.00  0.00    -0.065 NA
HETATM   29  N10 UNL     1      21.686  26.059   9.942  1.00  0.00    -0.065 NA
ATOM     30  H8  UNL     1      19.414  26.999   9.589  1.00  0.00     0.189 HD
ENDBRANCH  24  26
ENDBRANCH   6  24
BRANCH   5  31
HETATM   31  N6  UNL     1      19.697  30.361  12.488  1.00  0.00    -0.109 N 
HETATM   32  O2  UNL     1      20.293  29.697  13.392  1.00  0.00    -0.532 OA
HETATM   33  O3  UNL     1      20.356  31.420  11.961  1.00  0.00    -0.532 OA
ENDBRANCH   5  31
TORSDOF 9
ENDMDL
MODEL 2
REMARK VINA RESULT: -8.158663420      1.012      1.053
REMARK  9 active torsions:
REMARK  status: ('A' for Active; 'I' for Inactive)
REMARK    1  A    between atoms: N1_1  and  C1_5 
REMARK    2  A    between atoms: C1_5  and  C2_6 
REMARK    3  A    between atoms: C2_6  and  N2_7 
REMARK    4  A    between atoms: N2_7  and  C3_9 
REMARK    5  A    between atoms: C4_12  and  C5_13 
REMARK       I    between atoms: C5_13  and  N4_15 
REMARK    6  A    between atoms: N4_15  and  N5_17 
REMARK    7  A    between atoms: C6_20  and  N6_21 
REMARK    8  A    between atoms: C7_24  and  N7_25 
REMARK    9  A    between atoms: N7_25  and  N8_27 
ROOT
HETATM    1  C3  UNL     1      16.896  27.404  11.489  1.00  0.00     0.680 A 
HETATM    2  N3  UNL     1      16.702  28.225  12.517  1.00  0.00    -0.184 N 
ATOM      3  H3  UNL     1      15.858  28.123  13.080  1.00  0.00     0.184 HD
HETATM    4  C4  UNL     1      17.617  29.219  12.846  1.00  0.00     0.155 A 
HETATM    5  C6  UNL     1      18.738  29.325  12.072  1.00  0.00     0.181 A 
HETATM    6  C7  UNL     1      18.888  28.442  11.014  1.00  0.00     0.171 A 
HETATM    7  N11 UNL     1      17.991  27.509  10.734  1.00  0.00    -0.173 N 
ATOM      8  H11 UNL     1      18.137  26.877   9.947  1.00  0.00     0.186 HD
ENDROOT
BRANCH   1   9
HETATM    9  N2  UNL     1      16.034  26.465  11.177  1.00  0.00    -0.224 N 
ATOM     10  H2  UNL     1      16.197  25.835  10.391  1.00  0.00     0.177 HD
BRANCH   9  11
HETATM   11  C2  UNL     1      14.846  26.358  11.991  1.00  0.00     0.165 C 
BRANCH  11  12
HETATM   12  C1  UNL     1      14.804  24.966  12.584  1.00  0.00     0.249 C 
BRANCH  12  13
HETATM   13  N1  UNL     1      14.793  24.015  11.508  1.00  0.00    -0.078 N 
ATOM     14  H13 UNL     1      14.210  23.202  11.710  1.00  0.00     0.274 HD
ATOM     15  H12 UNL     1      14.284  24.352  10.691  1.00  0.00     0.274 HD
ATOM     16  H11 UNL     1      15.757  23.762  11.292  1.00  0.00     0.274 HD
ENDBRANCH  12  13
ENDBRANCH  11  12
ENDBRANCH   9  11
ENDBRANCH   1   9
BRANCH   4  17
HETATM   17  C5  UNL     1      17.274  30.071  13.918  1.00  0.00     0.289 C 
HETATM   18  O1  UNL     1      16.053  30.496  13.950  1.00  0.00    -0.264 OA
HETATM   19  N4  UNL     1      18.073  30.528  14.964  1.00  0.00    -0.271 N 
ATOM     20  H4  UNL     1      19.050  30.240  15.017  1.00  0.00     0.189 HD
BRANCH  19  21
HETATM   21  N5  UNL     1      17.534  31.401  15.969  1.00  0.00    -0.342 N 
ATOM     22  H52 UNL     1      17.854  31.295  16.932  1.00  0.00     0.176 HD
ATOM     23  H51 UNL     1      16.845  32.112  15.725  1.00  0.00     0.176 HD
ENDBRANCH  19  21
ENDBRANCH   4  17
BRANCH   6  24
HETATM   24  N7  UNL     1      19.943  28.552  10.287  1.00  0.00    -0.281 N 
ATOM     25  H7  UNL     1      20.277  29.479  10.022  1.00  0.00     0.188 HD
BRANCH  24  26
HETATM   26  N8  UNL     1      20.634  27.429   9.857  1.00  0.00    -0.274 N 
HETATM   27  C8  UNL     1      21.888  27.326  10.091  1.00  0.00     0.215 C 
HETATM   28  N9  UNL     1      22.561  28.353  10.780  1.00  0.00    -0.065 NA
HETATM   29  N10 UNL     1      22.555  26.165   9.647  1.00  0.00    -0.065 NA
ATOM     30  H8  UNL     1      20.144  26.688   9.356  1.00  0.00     0.189 HD
ENDBRANCH  24  26
ENDBRANCH   6  24
BRANCH   5  31
HETATM   31  N6  UNL     1      19.772  30.281  12.212  1.00  0.00    -0.109 N 
HETATM   32  O2  UNL     1      20.686  30.000  13.048  1.00  0.00    -0.532 OA
HETATM   33  O3  UNL     1      19.923  31.414  11.486  1.00  0.00    -0.532 OA
ENDBRANCH   5  31
TORSDOF 9
ENDMDL
MODEL 3
REMARK VINA RESULT: -8.157697360      1.788      5.075
REMARK  9 active torsions:
REMARK  status: ('A' for Active; 'I' for Inactive)
REMARK    1  A    between atoms: N1_1  and  C1_5 
REMARK    2  A    between atoms: C1_5  and  C2_6 
REMARK    3  A    between atoms: C2_6  and  N2_7 
REMARK    4  A    between atoms: N2_7  and  C3_9 
REMARK    5  A    between atoms: C4_12  and  C5_13 
REMARK       I    between atoms: C5_13  and  N4_15 
REMARK    6  A    between atoms: N4_15  and  N5_17 
REMARK    7  A    between atoms: C6_20  and  N6_21 
REMARK    8  A    between atoms: C7_24  and  N7_25 
REMARK    9  A    between atoms: N7_25  and  N8_27 
ROOT
HETATM    1  C3  UNL     1      17.273  27.776  12.437  1.00  0.00     0.680 A 
HETATM    2  N3  UNL     1      18.070  27.524  11.403  1.00  0.00    -0.184 N 
ATOM      3  H3  UNL     1      17.850  26.741  10.787  1.00  0.00     0.184 HD
HETATM    4  C4  UNL     1      19.195  28.296  11.136  1.00  0.00     0.155 A 
HETATM    5  C6  UNL     1      19.459  29.339  11.980  1.00  0.00     0.181 A 
HETATM    6  C7  UNL     1      18.593  29.555  13.041  1.00  0.00     0.171 A 
HETATM    7  N11 UNL     1      17.532  28.795  13.260  1.00  0.00    -0.173 N 
ATOM      8  H11 UNL     1      16.917  28.986  14.051  1.00  0.00     0.186 HD
ENDROOT
BRANCH   1   9
HETATM    9  N2  UNL     1      16.210  27.049  12.689  1.00  0.00    -0.224 N 
ATOM     10  H2  UNL     1      15.866  26.926  13.641  1.00  0.00     0.177 HD
BRANCH   9  11
HETATM   11  C2  UNL     1      15.549  26.430  11.565  1.00  0.00     0.165 C 
BRANCH  11  12
HETATM   12  C1  UNL     1      14.390  27.313  11.154  1.00  0.00     0.249 C 
BRANCH  12  13
HETATM   13  N1  UNL     1      14.755  28.011   9.954  1.00  0.00    -0.078 N 
ATOM     14  H13 UNL     1      14.184  28.840   9.794  1.00  0.00     0.274 HD
ATOM     15  H12 UNL     1      15.659  28.477  10.031  1.00  0.00     0.274 HD
ATOM     16  H11 UNL     1      14.719  27.353   9.176  1.00  0.00     0.274 HD
ENDBRANCH  12  13
ENDBRANCH  11  12
ENDBRANCH   9  11
ENDBRANCH   1   9
BRANCH   4  17
HETATM   17  C5  UNL     1      20.002  27.895  10.049  1.00  0.00     0.289 C 
HETATM   18  O1  UNL     1      20.036  28.692   9.031  1.00  0.00    -0.264 OA
HETATM   19  N4  UNL     1      20.779  26.747   9.911  1.00  0.00    -0.271 N 
ATOM     20  H4  UNL     1      20.811  26.064  10.668  1.00  0.00     0.189 HD
BRANCH  19  21
HETATM   21  N5  UNL     1      21.536  26.516   8.713  1.00  0.00    -0.342 N 
ATOM     22  H52 UNL     1      22.061  27.292   8.309  1.00  0.00     0.176 HD
ATOM     23  H51 UNL     1      21.550  25.595   8.276  1.00  0.00     0.176 HD
ENDBRANCH  19  21
ENDBRANCH   4  17
BRANCH   6  24
HETATM   24  N7  UNL     1      18.850  30.535  13.834  1.00  0.00    -0.281 N 
ATOM     25  H7  UNL     1      19.509  31.257  13.543  1.00  0.00     0.188 HD
BRANCH  24  26
HETATM   26  N8  UNL     1      18.246  30.623  15.079  1.00  0.00    -0.274 N 
HETATM   27  C8  UNL     1      17.215  31.366  15.233  1.00  0.00     0.215 C 
HETATM   28  N9  UNL     1      16.701  32.092  14.141  1.00  0.00    -0.065 NA
HETATM   29  N10 UNL     1      16.621  31.424  16.511  1.00  0.00    -0.065 NA
ATOM     30  H8  UNL     1      18.621  30.099  15.868  1.00  0.00     0.189 HD
ENDBRANCH  24  26
ENDBRANCH   6  24
BRANCH   5  31
HETATM   31  N6  UNL     1      20.561  30.222  11.911  1.00  0.00    -0.109 N 
HETATM   32  O2  UNL     1      20.297  31.425  11.598  1.00  0.00    -0.532 OA
HETATM   33  O3  UNL     1      21.846  29.931  12.224  1.00  0.00    -0.532 OA
ENDBRANCH   5  31
TORSDOF 9
ENDMDL
MODEL 4
REMARK VINA RESULT: -8.108661493      1.781      5.014
REMARK  9 active torsions:
REMARK  status: ('A' for Active; 'I' for Inactive)
REMARK    1  A    between atoms: N1_1  and  C1_5 
REMARK    2  A    between atoms: C1_5  and  C2_6 
REMARK    3  A    between atoms: C2_6  and  N2_7 
REMARK    4  A    between atoms: N2_7  and  C3_9 
REMARK    5  A    between atoms: C4_12  and  C5_13 
REMARK       I    between atoms: C5_13  and  N4_15 
REMARK    6  A    between atoms: N4_15  and  N5_17 
REMARK    7  A    between atoms: C6_20  and  N6_21 
REMARK    8  A    between atoms: C7_24  and  N7_25 
REMARK    9  A    between atoms: N7_25  and  N8_27 
ROOT
HETATM    1  C3  UNL     1      17.114  27.888  12.383  1.00  0.00     0.680 A 
HETATM    2  N3  UNL     1      17.936  27.594  11.380  1.00  0.00    -0.184 N 
ATOM      3  H3  UNL     1      17.722  26.797  10.781  1.00  0.00     0.184 HD
HETATM    4  C4  UNL     1      19.080  28.343  11.124  1.00  0.00     0.155 A 
HETATM    5  C6  UNL     1      19.335  29.406  11.945  1.00  0.00     0.181 A 
HETATM    6  C7  UNL     1      18.443  29.664  12.973  1.00  0.00     0.171 A 
HETATM    7  N11 UNL     1      17.365  28.926  13.184  1.00  0.00    -0.173 N 
ATOM      8  H11 UNL     1      16.731  29.149  13.952  1.00  0.00     0.186 HD
ENDROOT
BRANCH   1   9
HETATM    9  N2  UNL     1      16.034  27.184  12.625  1.00  0.00    -0.224 N 
ATOM     10  H2  UNL     1      15.484  27.331  13.472  1.00  0.00     0.177 HD
BRANCH   9  11
HETATM   11  C2  UNL     1      15.656  26.192  11.647  1.00  0.00     0.165 C 
BRANCH  11  12
HETATM   12  C1  UNL     1      14.947  25.065  12.367  1.00  0.00     0.249 C 
BRANCH  12  13
HETATM   13  N1  UNL     1      14.789  23.970  11.452  1.00  0.00    -0.078 N 
ATOM     14  H13 UNL     1      14.666  23.076  11.928  1.00  0.00     0.274 HD
ATOM     15  H12 UNL     1      13.894  23.993  10.964  1.00  0.00     0.274 HD
ATOM     16  H11 UNL     1      15.584  23.968  10.813  1.00  0.00     0.274 HD
ENDBRANCH  12  13
ENDBRANCH  11  12
ENDBRANCH   9  11
ENDBRANCH   1   9
BRANCH   4  17
HETATM   17  C5  UNL     1      19.910  27.899  10.072  1.00  0.00     0.289 C 
HETATM   18  O1  UNL     1      19.989  28.669   9.035  1.00  0.00    -0.264 OA
HETATM   19  N4  UNL     1      20.670  26.734   9.986  1.00  0.00    -0.271 N 
ATOM     20  H4  UNL     1      20.666  26.071  10.761  1.00  0.00     0.189 HD
BRANCH  19  21
HETATM   21  N5  UNL     1      21.458  26.459   8.818  1.00  0.00    -0.342 N 
ATOM     22  H52 UNL     1      21.678  25.488   8.594  1.00  0.00     0.176 HD
ATOM     23  H51 UNL     1      21.789  27.219   8.223  1.00  0.00     0.176 HD
ENDBRANCH  19  21
ENDBRANCH   4  17
BRANCH   6  24
HETATM   24  N7  UNL     1      18.693  30.663  13.745  1.00  0.00    -0.281 N 
ATOM     25  H7  UNL     1      19.270  31.431  13.403  1.00  0.00     0.188 HD
BRANCH  24  26
HETATM   26  N8  UNL     1      18.189  30.711  15.036  1.00  0.00    -0.274 N 
HETATM   27  C8  UNL     1      17.115  31.366  15.275  1.00  0.00     0.215 C 
HETATM   28  N9  UNL     1      16.454  32.037  14.229  1.00  0.00    -0.065 NA
HETATM   29  N10 UNL     1      16.627  31.385  16.598  1.00  0.00    -0.065 NA
ATOM     30  H8  UNL     1      18.671  30.227  15.792  1.00  0.00     0.189 HD
ENDBRANCH  24  26
ENDBRANCH   6  24
BRANCH   5  31
HETATM   31  N6  UNL     1      20.452  30.271  11.881  1.00  0.00    -0.109 N 
HETATM   32  O2  UNL     1      20.215  31.468  11.529  1.00  0.00    -0.532 OA
HETATM   33  O3  UNL     1      21.723  29.971  12.238  1.00  0.00    -0.532 OA
ENDBRANCH   5  31
TORSDOF 9
ENDMDL
MODEL 5
REMARK VINA RESULT: -8.011657434      2.547      5.141
REMARK  9 active torsions:
REMARK  status: ('A' for Active; 'I' for Inactive)
REMARK    1  A    between atoms: N1_1  and  C1_5 
REMARK    2  A    between atoms: C1_5  and  C2_6 
REMARK    3  A    between atoms: C2_6  and  N2_7 
REMARK    4  A    between atoms: N2_7  and  C3_9 
REMARK    5  A    between atoms: C4_12  and  C5_13 
REMARK       I    between atoms: C5_13  and  N4_15 
REMARK    6  A    between atoms: N4_15  and  N5_17 
REMARK    7  A    between atoms: C6_20  and  N6_21 
REMARK    8  A    between atoms: C7_24  and  N7_25 
REMARK    9  A    between atoms: N7_25  and  N8_27 
ROOT
HETATM    1  C3  UNL     1      19.701  28.554  12.843  1.00  0.00     0.680 A 
HETATM    2  N3  UNL     1      19.460  28.855  14.116  1.00  0.00    -0.184 N 
ATOM      3  H3  UNL     1      20.213  29.242  14.684  1.00  0.00     0.184 HD
HETATM    4  C4  UNL     1      18.211  28.657  14.694  1.00  0.00     0.155 A 
HETATM    5  C6  UNL     1      17.224  28.140  13.902  1.00  0.00     0.181 A 
HETATM    6  C7  UNL     1      17.533  27.845  12.583  1.00  0.00     0.171 A 
HETATM    7  N11 UNL     1      18.737  28.048  12.071  1.00  0.00    -0.173 N 
ATOM      8  H11 UNL     1      18.925  27.819  11.095  1.00  0.00     0.186 HD
ENDROOT
BRANCH   1   9
HETATM    9  N2  UNL     1      20.879  28.741  12.296  1.00  0.00    -0.224 N 
ATOM     10  H2  UNL     1      21.717  28.854  12.867  1.00  0.00     0.177 HD
BRANCH   9  11
HETATM   11  C2  UNL     1      20.943  28.779  10.854  1.00  0.00     0.165 C 
BRANCH  11  12
HETATM   12  C1  UNL     1      21.797  27.620  10.388  1.00  0.00     0.249 C 
BRANCH  12  13
HETATM   13  N1  UNL     1      20.960  26.697   9.676  1.00  0.00    -0.078 N 
ATOM     14  H13 UNL     1      19.967  26.849   9.856  1.00  0.00     0.274 HD
ATOM     15  H12 UNL     1      20.947  26.873   8.671  1.00  0.00     0.274 HD
ATOM     16  H11 UNL     1      21.259  25.749   9.904  1.00  0.00     0.274 HD
ENDBRANCH  12  13
ENDBRANCH  11  12
ENDBRANCH   9  11
ENDBRANCH   1   9
BRANCH   4  17
HETATM   17  C5  UNL     1      18.090  28.954  16.068  1.00  0.00     0.289 C 
HETATM   18  O1  UNL     1      18.023  30.206  16.385  1.00  0.00    -0.264 OA
HETATM   19  N4  UNL     1      18.031  28.080  17.152  1.00  0.00    -0.271 N 
ATOM     20  H4  UNL     1      18.076  27.073  16.992  1.00  0.00     0.189 HD
BRANCH  19  21
HETATM   21  N5  UNL     1      17.908  28.582  18.491  1.00  0.00    -0.342 N 
ATOM     22  H52 UNL     1      18.754  28.710  19.046  1.00  0.00     0.176 HD
ATOM     23  H51 UNL     1      16.991  28.806  18.880  1.00  0.00     0.176 HD
ENDBRANCH  19  21
ENDBRANCH   4  17
BRANCH   6  24
HETATM   24  N7  UNL     1      16.601  27.353  11.845  1.00  0.00    -0.281 N 
ATOM     25  H7  UNL     1      16.176  26.462  12.100  1.00  0.00     0.188 HD
BRANCH  24  26
HETATM   26  N8  UNL     1      16.165  28.017  10.709  1.00  0.00    -0.274 N 
HETATM   27  C8  UNL     1      14.913  28.078  10.449  1.00  0.00     0.215 C 
HETATM   28  N9  UNL     1      13.985  27.468  11.315  1.00  0.00    -0.065 NA
HETATM   29  N10 UNL     1      14.506  28.769   9.289  1.00  0.00    -0.065 NA
ATOM     30  H8  UNL     1      16.839  28.456  10.082  1.00  0.00     0.189 HD
ENDBRANCH  24  26
ENDBRANCH   6  24
BRANCH   5  31
HETATM   31  N6  UNL     1      15.901  27.831  14.296  1.00  0.00    -0.109 N 
HETATM   32  O2  UNL     1      15.073  28.794  14.284  1.00  0.00    -0.532 OA
HETATM   33  O3  UNL     1      15.419  26.603  14.601  1.00  0.00    -0.532 OA
ENDBRANCH   5  31
TORSDOF 9
ENDMDL
