MODEL 1
REMARK VINA RESULT: -7.745053865      0.000      0.000
REMARK  10 active torsions:
REMARK  status: ('A' for Active; 'I' for Inactive)
REMARK    1  A    between atoms: N1_1  and  C1_4 
REMARK    2  A    between atoms: C2_7  and  N3_8 
REMARK    3  A    between atoms: N3_8  and  C3_10 
REMARK    4  A    between atoms: C3_10  and  C4_11 
REMARK    5  A    between atoms: C4_11  and  O1_12 
REMARK    6  A    between atoms: C8_22  and  N6_23 
REMARK    7  A    between atoms: N7_26  and  C9_27 
REMARK    8  A    between atoms: C9_27  and  C10_28 
REMARK    9  A    between atoms: C10_28  and  C11_30 
REMARK   10  A    between atoms: C11_30  and  O4_31 
ROOT
HETATM    1  C1  UNL     1      15.254  27.591  11.251  1.00  0.00     0.134 A 
HETATM    2  N2  UNL     1      15.633  28.393  10.247  1.00  0.00    -0.176 N 
ATOM      3  H2  UNL     1      15.054  28.428   9.408  1.00  0.00     0.186 HD
HETATM    4  C2  UNL     1      16.727  29.145  10.293  1.00  0.00     0.681 A 
HETATM    5  N4  UNL     1      17.510  29.115  11.393  1.00  0.00    -0.175 N 
ATOM      6  H4  UNL     1      18.350  29.693  11.429  1.00  0.00     0.186 HD
HETATM    7  C5  UNL     1      17.196  28.337  12.437  1.00  0.00     0.159 A 
HETATM    8  C6  UNL     1      16.040  27.548  12.378  1.00  0.00     0.122 A 
HETATM    9  C7  UNL     1      15.707  26.730  13.458  1.00  0.00     0.277 A 
HETATM   10  O2  UNL     1      14.672  26.030  13.394  1.00  0.00    -0.266 OA
HETATM   11  N5  UNL     1      16.526  26.742  14.516  1.00  0.00    -0.155 N 
ATOM     12  H5  UNL     1      16.290  26.145  15.309  1.00  0.00     0.187 HD
HETATM   13  C8  UNL     1      17.625  27.478  14.598  1.00  0.00     0.683 A 
HETATM   14  N7  UNL     1      17.934  28.271  13.533  1.00  0.00    -0.160 N 
ENDROOT
BRANCH   4  15
HETATM   15  N3  UNL     1      17.103  29.921   9.336  1.00  0.00    -0.224 N 
ATOM     16  H3  UNL     1      16.379  30.285   8.717  1.00  0.00     0.177 HD
BRANCH  15  17
HETATM   17  C3  UNL     1      18.450  30.313   9.069  1.00  0.00     0.164 C 
BRANCH  17  18
HETATM   18  C4  UNL     1      18.534  31.824   9.274  1.00  0.00     0.184 C 
BRANCH  18  19
HETATM   19  O1  UNL     1      18.133  32.206  10.534  1.00  0.00    -0.399 OA
ATOM     20  H1  UNL     1      18.255  33.135  10.687  1.00  0.00     0.209 HD
ENDBRANCH  18  19
ENDBRANCH  17  18
ENDBRANCH  15  17
ENDBRANCH   4  15
BRANCH   1  21
HETATM   21  N1  UNL     1      14.190  26.861  11.206  1.00  0.00    -0.384 N 
ATOM     22  H12 UNL     1      13.376  27.208  10.698  1.00  0.00     0.157 HD
ATOM     23  H11 UNL     1      14.121  25.949  11.656  1.00  0.00     0.157 HD
ENDBRANCH   1  21
BRANCH  14  24
HETATM   24  C9  UNL     1      19.127  29.077  13.661  1.00  0.00     0.229 C 
BRANCH  24  25
HETATM   25  C10 UNL     1      18.746  30.502  13.506  1.00  0.00     0.168 C 
HETATM   26  O3  UNL     1      19.434  31.215  12.811  1.00  0.00    -0.294 OA
BRANCH  25  27
HETATM   27  C11 UNL     1      17.552  31.093  14.169  1.00  0.00     0.244 C 
BRANCH  27  28
HETATM   28  O4  UNL     1      16.713  31.722  13.255  1.00  0.00    -0.394 OA
ATOM     29  H4  UNL     1      15.821  31.778  13.576  1.00  0.00     0.209 HD
ENDBRANCH  27  28
ENDBRANCH  25  27
ENDBRANCH  24  25
ENDBRANCH  14  24
BRANCH  13  30
HETATM   30  N6  UNL     1      18.398  27.470  15.630  1.00  0.00    -0.234 N 
ATOM     31  H62 UNL     1      18.570  26.594  16.123  1.00  0.00     0.174 HD
ATOM     32  H61 UNL     1      18.856  28.309  15.988  1.00  0.00     0.174 HD
ENDBRANCH  13  30
TORSDOF 10
ENDMDL
MODEL 2
REMARK VINA RESULT: -7.726711730      0.972      1.163
REMARK  10 active torsions:
REMARK  status: ('A' for Active; 'I' for Inactive)
REMARK    1  A    between atoms: N1_1  and  C1_4 
REMARK    2  A    between atoms: C2_7  and  N3_8 
REMARK    3  A    between atoms: N3_8  and  C3_10 
REMARK    4  A    between atoms: C3_10  and  C4_11 
REMARK    5  A    between atoms: C4_11  and  O1_12 
REMARK    6  A    between atoms: C8_22  and  N6_23 
REMARK    7  A    between atoms: N7_26  and  C9_27 
REMARK    8  A    between atoms: C9_27  and  C10_28 
REMARK    9  A    between atoms: C10_28  and  C11_30 
REMARK   10  A    between atoms: C11_30  and  O4_31 
ROOT
HETATM    1  C1  UNL     1      15.374  27.221  11.375  1.00  0.00     0.134 A 
HETATM    2  N2  UNL     1      15.706  28.041  10.368  1.00  0.00    -0.176 N 
ATOM      3  H2  UNL     1      15.288  27.879   9.451  1.00  0.00     0.186 HD
HETATM    4  C2  UNL     1      16.553  29.054  10.507  1.00  0.00     0.681 A 
HETATM    5  N4  UNL     1      17.120  29.289  11.710  1.00  0.00    -0.175 N 
ATOM      6  H4  UNL     1      17.769  30.068  11.817  1.00  0.00     0.186 HD
HETATM    7  C5  UNL     1      16.838  28.511  12.764  1.00  0.00     0.159 A 
HETATM    8  C6  UNL     1      15.943  27.445  12.606  1.00  0.00     0.122 A 
HETATM    9  C7  UNL     1      15.647  26.626  13.696  1.00  0.00     0.277 A 
HETATM   10  O2  UNL     1      14.847  25.676  13.543  1.00  0.00    -0.266 OA
HETATM   11  N5  UNL     1      16.245  26.907  14.859  1.00  0.00    -0.155 N 
ATOM     12  H5  UNL     1      16.035  26.312  15.661  1.00  0.00     0.187 HD
HETATM   13  C8  UNL     1      17.094  27.909  15.036  1.00  0.00     0.683 A 
HETATM   14  N7  UNL     1      17.371  28.698  13.960  1.00  0.00    -0.160 N 
ENDROOT
BRANCH   4  15
HETATM   15  N3  UNL     1      16.880  29.850   9.549  1.00  0.00    -0.224 N 
ATOM     16  H3  UNL     1      16.123  30.323   9.054  1.00  0.00     0.177 HD
BRANCH  15  17
HETATM   17  C3  UNL     1      18.213  30.127   9.120  1.00  0.00     0.164 C 
BRANCH  17  18
HETATM   18  C4  UNL     1      18.467  31.616   9.349  1.00  0.00     0.184 C 
BRANCH  18  19
HETATM   19  O1  UNL     1      18.277  31.985  10.661  1.00  0.00    -0.399 OA
ATOM     20  H1  UNL     1      17.930  32.865  10.743  1.00  0.00     0.209 HD
ENDBRANCH  18  19
ENDBRANCH  17  18
ENDBRANCH  15  17
ENDBRANCH   4  15
BRANCH   1  21
HETATM   21  N1  UNL     1      14.551  26.236  11.239  1.00  0.00    -0.384 N 
ATOM     22  H12 UNL     1      14.815  25.452  10.643  1.00  0.00     0.157 HD
ATOM     23  H11 UNL     1      13.642  26.203  11.701  1.00  0.00     0.157 HD
ENDBRANCH   1  21
BRANCH  14  24
HETATM   24  C9  UNL     1      18.284  29.795  14.189  1.00  0.00     0.229 C 
BRANCH  24  25
HETATM   25  C10 UNL     1      17.490  31.037  14.357  1.00  0.00     0.168 C 
HETATM   26  O3  UNL     1      17.025  31.566  13.374  1.00  0.00    -0.294 OA
BRANCH  25  27
HETATM   27  C11 UNL     1      17.241  31.659  15.685  1.00  0.00     0.244 C 
BRANCH  27  28
HETATM   28  O4  UNL     1      16.577  30.790  16.546  1.00  0.00    -0.394 OA
ATOM     29  H4  UNL     1      15.849  31.216  16.983  1.00  0.00     0.209 HD
ENDBRANCH  27  28
ENDBRANCH  25  27
ENDBRANCH  24  25
ENDBRANCH  14  24
BRANCH  13  30
HETATM   30  N6  UNL     1      17.658  28.158  16.169  1.00  0.00    -0.234 N 
ATOM     31  H62 UNL     1      17.105  28.554  16.930  1.00  0.00     0.174 HD
ATOM     32  H61 UNL     1      18.646  27.978  16.349  1.00  0.00     0.174 HD
ENDBRANCH  13  30
TORSDOF 10
ENDMDL
MODEL 3
REMARK VINA RESULT: -7.726577832      0.955      1.113
REMARK  10 active torsions:
REMARK  status: ('A' for Active; 'I' for Inactive)
REMARK    1  A    between atoms: N1_1  and  C1_4 
REMARK    2  A    between atoms: C2_7  and  N3_8 
REMARK    3  A    between atoms: N3_8  and  C3_10 
REMARK    4  A    between atoms: C3_10  and  C4_11 
REMARK    5  A    between atoms: C4_11  and  O1_12 
REMARK    6  A    between atoms: C8_22  and  N6_23 
REMARK    7  A    between atoms: N7_26  and  C9_27 
REMARK    8  A    between atoms: C9_27  and  C10_28 
REMARK    9  A    between atoms: C10_28  and  C11_30 
REMARK   10  A    between atoms: C11_30  and  O4_31 
ROOT
HETATM    1  C1  UNL     1      15.388  27.162  11.422  1.00  0.00     0.134 A 
HETATM    2  N2  UNL     1      15.732  28.000  10.435  1.00  0.00    -0.176 N 
ATOM      3  H2  UNL     1      15.326  27.856   9.511  1.00  0.00     0.186 HD
HETATM    4  C2  UNL     1      16.578  29.010  10.604  1.00  0.00     0.681 A 
HETATM    5  N4  UNL     1      17.129  29.222  11.818  1.00  0.00    -0.175 N 
ATOM      6  H4  UNL     1      17.778  29.999  11.948  1.00  0.00     0.186 HD
HETATM    7  C5  UNL     1      16.834  28.425  12.854  1.00  0.00     0.159 A 
HETATM    8  C6  UNL     1      15.941  27.362  12.665  1.00  0.00     0.122 A 
HETATM    9  C7  UNL     1      15.630  26.523  13.735  1.00  0.00     0.277 A 
HETATM   10  O2  UNL     1      14.832  25.578  13.554  1.00  0.00    -0.266 OA
HETATM   11  N5  UNL     1      16.214  26.782  14.911  1.00  0.00    -0.155 N 
ATOM     12  H5  UNL     1      15.993  26.172  15.699  1.00  0.00     0.187 HD
HETATM   13  C8  UNL     1      17.061  27.780  15.118  1.00  0.00     0.683 A 
HETATM   14  N7  UNL     1      17.352  28.589  14.060  1.00  0.00    -0.160 N 
ENDROOT
BRANCH   4  15
HETATM   15  N3  UNL     1      16.917  29.824   9.665  1.00  0.00    -0.224 N 
ATOM     16  H3  UNL     1      16.171  30.350   9.209  1.00  0.00     0.177 HD
BRANCH  15  17
HETATM   17  C3  UNL     1      18.251  30.051   9.208  1.00  0.00     0.164 C 
BRANCH  17  18
HETATM   18  C4  UNL     1      18.538  31.544   9.361  1.00  0.00     0.184 C 
BRANCH  18  19
HETATM   19  O1  UNL     1      18.278  32.000  10.634  1.00  0.00    -0.399 OA
ATOM     20  H1  UNL     1      19.055  32.337  11.063  1.00  0.00     0.209 HD
ENDBRANCH  18  19
ENDBRANCH  17  18
ENDBRANCH  15  17
ENDBRANCH   4  15
BRANCH   1  21
HETATM   21  N1  UNL     1      14.565  26.180  11.258  1.00  0.00    -0.384 N 
ATOM     22  H12 UNL     1      14.862  25.240  11.517  1.00  0.00     0.157 HD
ATOM     23  H11 UNL     1      13.626  26.299  10.877  1.00  0.00     0.157 HD
ENDBRANCH   1  21
BRANCH  14  24
HETATM   24  C9  UNL     1      18.263  29.681  14.321  1.00  0.00     0.229 C 
BRANCH  24  25
HETATM   25  C10 UNL     1      17.519  30.749  15.033  1.00  0.00     0.168 C 
HETATM   26  O3  UNL     1      17.721  30.908  16.215  1.00  0.00    -0.294 OA
BRANCH  25  27
HETATM   27  C11 UNL     1      16.536  31.634  14.353  1.00  0.00     0.244 C 
BRANCH  27  28
HETATM   28  O4  UNL     1      16.885  31.872  13.028  1.00  0.00    -0.394 OA
ATOM     29  H4  UNL     1      16.211  31.576  12.427  1.00  0.00     0.209 HD
ENDBRANCH  27  28
ENDBRANCH  25  27
ENDBRANCH  24  25
ENDBRANCH  14  24
BRANCH  13  30
HETATM   30  N6  UNL     1      17.610  28.008  16.262  1.00  0.00    -0.234 N 
ATOM     31  H62 UNL     1      18.131  27.264  16.727  1.00  0.00     0.174 HD
ATOM     32  H61 UNL     1      17.550  28.909  16.737  1.00  0.00     0.174 HD
ENDBRANCH  13  30
TORSDOF 10
ENDMDL
MODEL 4
REMARK VINA RESULT: -7.671676937      2.204      4.144
REMARK  10 active torsions:
REMARK  status: ('A' for Active; 'I' for Inactive)
REMARK    1  A    between atoms: N1_1  and  C1_4 
REMARK    2  A    between atoms: C2_7  and  N3_8 
REMARK    3  A    between atoms: N3_8  and  C3_10 
REMARK    4  A    between atoms: C3_10  and  C4_11 
REMARK    5  A    between atoms: C4_11  and  O1_12 
REMARK    6  A    between atoms: C8_22  and  N6_23 
REMARK    7  A    between atoms: N7_26  and  C9_27 
REMARK    8  A    between atoms: C9_27  and  C10_28 
REMARK    9  A    between atoms: C10_28  and  C11_30 
REMARK   10  A    between atoms: C11_30  and  O4_31 
ROOT
HETATM    1  C1  UNL     1      17.217  27.927  14.295  1.00  0.00     0.134 A 
HETATM    2  N2  UNL     1      16.512  27.284  13.353  1.00  0.00    -0.176 N 
ATOM      3  H2  UNL     1      15.729  26.699  13.646  1.00  0.00     0.186 HD
HETATM    4  C2  UNL     1      16.786  27.373  12.056  1.00  0.00     0.681 A 
HETATM    5  N4  UNL     1      17.818  28.140  11.643  1.00  0.00    -0.175 N 
ATOM      6  H4  UNL     1      18.027  28.209  10.647  1.00  0.00     0.186 HD
HETATM    7  C5  UNL     1      18.569  28.811  12.527  1.00  0.00     0.159 A 
HETATM    8  C6  UNL     1      18.272  28.711  13.892  1.00  0.00     0.122 A 
HETATM    9  C7  UNL     1      19.050  29.403  14.820  1.00  0.00     0.277 A 
HETATM   10  O2  UNL     1      18.776  29.305  16.037  1.00  0.00    -0.266 OA
HETATM   11  N5  UNL     1      20.061  30.141  14.349  1.00  0.00    -0.155 N 
ATOM     12  H5  UNL     1      20.636  30.649  15.021  1.00  0.00     0.187 HD
HETATM   13  C8  UNL     1      20.364  30.254  13.063  1.00  0.00     0.683 A 
HETATM   14  N7  UNL     1      19.592  29.571  12.172  1.00  0.00    -0.160 N 
ENDROOT
BRANCH   4  15
HETATM   15  N3  UNL     1      16.117  26.761  11.140  1.00  0.00    -0.224 N 
ATOM     16  H3  UNL     1      16.644  26.189  10.480  1.00  0.00     0.177 HD
BRANCH  15  17
HETATM   17  C3  UNL     1      14.701  26.818  10.972  1.00  0.00     0.164 C 
BRANCH  17  18
HETATM   18  C4  UNL     1      14.334  28.269  10.669  1.00  0.00     0.184 C 
BRANCH  18  19
HETATM   19  O1  UNL     1      14.566  28.605   9.355  1.00  0.00    -0.399 OA
ATOM     20  H1  UNL     1      15.483  28.533   9.119  1.00  0.00     0.209 HD
ENDBRANCH  18  19
ENDBRANCH  17  18
ENDBRANCH  15  17
ENDBRANCH   4  15
BRANCH   1  21
HETATM   21  N1  UNL     1      16.950  27.840  15.555  1.00  0.00    -0.384 N 
ATOM     22  H12 UNL     1      16.007  28.060  15.875  1.00  0.00     0.157 HD
ATOM     23  H11 UNL     1      17.641  27.562  16.253  1.00  0.00     0.157 HD
ENDBRANCH   1  21
BRANCH  14  24
HETATM   24  C9  UNL     1      19.933  29.731  10.776  1.00  0.00     0.229 C 
BRANCH  24  25
HETATM   25  C10 UNL     1      19.092  30.813  10.210  1.00  0.00     0.168 C 
HETATM   26  O3  UNL     1      19.117  31.903  10.736  1.00  0.00    -0.294 OA
BRANCH  25  27
HETATM   27  C11 UNL     1      18.219  30.616   9.022  1.00  0.00     0.244 C 
BRANCH  27  28
HETATM   28  O4  UNL     1      17.064  29.909   9.342  1.00  0.00    -0.394 OA
ATOM     29  H4  UNL     1      17.077  29.031   8.979  1.00  0.00     0.209 HD
ENDBRANCH  27  28
ENDBRANCH  25  27
ENDBRANCH  24  25
ENDBRANCH  14  24
BRANCH  13  30
HETATM   30  N6  UNL     1      21.345  30.973  12.635  1.00  0.00    -0.234 N 
ATOM     31  H62 UNL     1      21.950  31.448  13.304  1.00  0.00     0.174 HD
ATOM     32  H61 UNL     1      21.552  31.095  11.643  1.00  0.00     0.174 HD
ENDBRANCH  13  30
TORSDOF 10
ENDMDL
MODEL 5
REMARK VINA RESULT: -7.596693759      2.045      4.054
REMARK  10 active torsions:
REMARK  status: ('A' for Active; 'I' for Inactive)
REMARK    1  A    between atoms: N1_1  and  C1_4 
REMARK    2  A    between atoms: C2_7  and  N3_8 
REMARK    3  A    between atoms: N3_8  and  C3_10 
REMARK    4  A    between atoms: C3_10  and  C4_11 
REMARK    5  A    between atoms: C4_11  and  O1_12 
REMARK    6  A    between atoms: C8_22  and  N6_23 
REMARK    7  A    between atoms: N7_26  and  C9_27 
REMARK    8  A    between atoms: C9_27  and  C10_28 
REMARK    9  A    between atoms: C10_28  and  C11_30 
REMARK   10  A    between atoms: C11_30  and  O4_31 
ROOT
HETATM    1  C1  UNL     1      19.614  29.939  12.446  1.00  0.00     0.134 A 
HETATM    2  N2  UNL     1      19.761  30.107  11.125  1.00  0.00    -0.176 N 
ATOM      3  H2  UNL     1      20.458  30.775  10.794  1.00  0.00     0.186 HD
HETATM    4  C2  UNL     1      19.042  29.446  10.225  1.00  0.00     0.681 A 
HETATM    5  N4  UNL     1      18.113  28.557  10.637  1.00  0.00    -0.175 N 
ATOM      6  H4  UNL     1      17.561  28.048   9.946  1.00  0.00     0.186 HD
HETATM    7  C5  UNL     1      17.908  28.335  11.942  1.00  0.00     0.159 A 
HETATM    8  C6  UNL     1      18.671  29.038  12.883  1.00  0.00     0.122 A 
HETATM    9  C7  UNL     1      18.463  28.818  14.245  1.00  0.00     0.277 A 
HETATM   10  O2  UNL     1      19.150  29.452  15.075  1.00  0.00    -0.266 OA
HETATM   11  N5  UNL     1      17.524  27.929  14.588  1.00  0.00    -0.155 N 
ATOM     12  H5  UNL     1      17.364  27.764  15.582  1.00  0.00     0.187 HD
HETATM   13  C8  UNL     1      16.788  27.250  13.720  1.00  0.00     0.683 A 
HETATM   14  N7  UNL     1      17.007  27.479  12.394  1.00  0.00    -0.160 N 
ENDROOT
BRANCH   4  15
HETATM   15  N3  UNL     1      19.173  29.598   8.952  1.00  0.00    -0.224 N 
ATOM     16  H3  UNL     1      19.349  28.760   8.397  1.00  0.00     0.177 HD
BRANCH  15  17
HETATM   17  C3  UNL     1      19.092  30.840   8.254  1.00  0.00     0.164 C 
BRANCH  17  18
HETATM   18  C4  UNL     1      17.635  31.041   7.845  1.00  0.00     0.184 C 
BRANCH  18  19
HETATM   19  O1  UNL     1      16.883  29.899   8.005  1.00  0.00    -0.399 OA
ATOM     20  H1  UNL     1      15.994  30.086   8.282  1.00  0.00     0.209 HD
ENDBRANCH  18  19
ENDBRANCH  17  18
ENDBRANCH  15  17
ENDBRANCH   4  15
BRANCH   1  21
HETATM   21  N1  UNL     1      20.314  30.581  13.320  1.00  0.00    -0.384 N 
ATOM     22  H12 UNL     1      21.122  31.118  13.006  1.00  0.00     0.157 HD
ATOM     23  H11 UNL     1      20.098  30.579  14.317  1.00  0.00     0.157 HD
ENDBRANCH   1  21
BRANCH  14  24
HETATM   24  C9  UNL     1      16.203  26.709  11.471  1.00  0.00     0.229 C 
BRANCH  24  25
HETATM   25  C10 UNL     1      14.868  27.347  11.370  1.00  0.00     0.168 C 
HETATM   26  O3  UNL     1      13.914  26.776  11.848  1.00  0.00    -0.294 OA
BRANCH  25  27
HETATM   27  C11 UNL     1      14.653  28.660  10.706  1.00  0.00     0.244 C 
BRANCH  27  28
HETATM   28  O4  UNL     1      14.628  28.540   9.320  1.00  0.00    -0.394 OA
ATOM     29  H4  UNL     1      14.516  27.638   9.046  1.00  0.00     0.209 HD
ENDBRANCH  27  28
ENDBRANCH  25  27
ENDBRANCH  24  25
ENDBRANCH  14  24
BRANCH  13  30
HETATM   30  N6  UNL     1      15.888  26.398  14.078  1.00  0.00    -0.234 N 
ATOM     31  H62 UNL     1      15.953  25.433  13.757  1.00  0.00     0.174 HD
ATOM     32  H61 UNL     1      15.099  26.644  14.678  1.00  0.00     0.174 HD
ENDBRANCH  13  30
TORSDOF 10
ENDMDL
