MODEL 1
REMARK VINA RESULT: -7.636581533      0.000      0.000
REMARK  11 active torsions:
REMARK  status: ('A' for Active; 'I' for Inactive)
REMARK    1  A    between atoms: C2_2  and  O1_4 
REMARK    2  A    between atoms: O1_4  and  C4_5 
REMARK    3  A    between atoms: C5_6  and  O2_7 
REMARK    4  A    between atoms: C6_9  and  C7_10 
REMARK    5  A    between atoms: N2_14  and  N3_15 
REMARK    6  A    between atoms: C9_22  and  N6_23 
REMARK    7  A    between atoms: C10_26  and  C11_27 
REMARK    8  A    between atoms: C11_27  and  O3_28 
REMARK    9  A    between atoms: O3_28  and  C12_29 
REMARK   10  A    between atoms: C12_29  and  C13_30 
REMARK   11  A    between atoms: C13_30  and  O4_31 
ROOT
HETATM    1  C4  UNL     1      18.369  29.006  12.812  1.00  0.00     0.120 A 
HETATM    2  C5  UNL     1      19.535  28.630  12.107  1.00  0.00     0.131 A 
HETATM    3  C6  UNL     1      19.493  27.769  11.032  1.00  0.00     0.116 A 
HETATM    4  N5  UNL     1      18.254  27.306  10.693  1.00  0.00    -0.337 N 
ATOM      5  H5  UNL     1      18.180  26.667   9.902  1.00  0.00     0.167 HD
HETATM    6  C9  UNL     1      17.135  27.641  11.336  1.00  0.00     0.114 A 
HETATM    7  C10 UNL     1      17.153  28.514  12.432  1.00  0.00     0.066 A 
ENDROOT
BRANCH   3   8
HETATM    8  C7  UNL     1      20.558  27.386  10.338  1.00  0.00     0.152 A 
HETATM    9  N1  UNL     1      20.835  26.171   9.656  1.00  0.00    -0.333 N 
HETATM   10  C8  UNL     1      21.994  26.190   9.096  1.00  0.00     0.228 A 
ATOM     11  H1  UNL     1      20.193  25.379   9.616  1.00  0.00     0.168 HD
HETATM   12  N2  UNL     1      22.642  27.427   9.333  1.00  0.00    -0.197 N 
HETATM   13  N4  UNL     1      21.723  28.168  10.116  1.00  0.00    -0.262 N 
ATOM     14  H4  UNL     1      21.875  29.114  10.465  1.00  0.00     0.191 HD
BRANCH  12  15
HETATM   15  N3  UNL     1      23.882  27.887   8.929  1.00  0.00    -0.323 N 
ATOM     16  H32 UNL     1      24.653  27.290   8.630  1.00  0.00     0.179 HD
ATOM     17  H31 UNL     1      24.247  28.837   8.855  1.00  0.00     0.179 HD
ENDBRANCH  12  15
ENDBRANCH   3   8
BRANCH   2  18
HETATM   18  O2  UNL     1      20.680  29.172  12.562  1.00  0.00    -0.356 OA
ATOM     19  H2  UNL     1      21.432  28.591  12.559  1.00  0.00     0.218 HD
ENDBRANCH   2  18
BRANCH   1  20
HETATM   20  O1  UNL     1      18.489  29.884  13.895  1.00  0.00    -0.343 OA
BRANCH  20  21
HETATM   21  C2  UNL     1      18.821  29.381  15.194  1.00  0.00     0.121 C 
HETATM   22  C1  UNL     1      17.779  29.903  16.207  1.00  0.00     0.040 C 
HETATM   23  C3  UNL     1      18.846  27.881  15.248  1.00  0.00     0.040 C 
ENDBRANCH  20  21
ENDBRANCH   1  20
BRANCH   6  24
HETATM   24  N6  UNL     1      15.999  27.163  10.959  1.00  0.00    -0.385 N 
ATOM     25  H62 UNL     1      15.917  26.152  10.843  1.00  0.00     0.157 HD
ATOM     26  H61 UNL     1      15.210  27.785  10.783  1.00  0.00     0.157 HD
ENDBRANCH   6  24
BRANCH   7  27
HETATM   27  C11 UNL     1      16.028  28.844  13.035  1.00  0.00     0.152 C 
BRANCH  27  28
HETATM   28  O3  UNL     1      15.239  27.835  13.566  1.00  0.00    -0.360 OA
BRANCH  28  29
HETATM   29  C12 UNL     1      15.798  26.874  14.445  1.00  0.00     0.200 C 
BRANCH  29  30
HETATM   30  C13 UNL     1      15.101  25.556  14.293  1.00  0.00     0.190 C 
BRANCH  30  31
HETATM   31  O4  UNL     1      15.286  25.006  13.039  1.00  0.00    -0.399 OA
ATOM     32  H4  UNL     1      15.111  24.072  13.025  1.00  0.00     0.209 HD
ENDBRANCH  30  31
ENDBRANCH  29  30
ENDBRANCH  28  29
ENDBRANCH  27  28
ENDBRANCH   7  27
TORSDOF 11
ENDMDL
MODEL 2
REMARK VINA RESULT: -7.498325507      2.931      3.720
REMARK  11 active torsions:
REMARK  status: ('A' for Active; 'I' for Inactive)
REMARK    1  A    between atoms: C2_2  and  O1_4 
REMARK    2  A    between atoms: O1_4  and  C4_5 
REMARK    3  A    between atoms: C5_6  and  O2_7 
REMARK    4  A    between atoms: C6_9  and  C7_10 
REMARK    5  A    between atoms: N2_14  and  N3_15 
REMARK    6  A    between atoms: C9_22  and  N6_23 
REMARK    7  A    between atoms: C10_26  and  C11_27 
REMARK    8  A    between atoms: C11_27  and  O3_28 
REMARK    9  A    between atoms: O3_28  and  C12_29 
REMARK   10  A    between atoms: C12_29  and  C13_30 
REMARK   11  A    between atoms: C13_30  and  O4_31 
ROOT
HETATM    1  C4  UNL     1      17.446  28.226  12.287  1.00  0.00     0.120 A 
HETATM    2  C5  UNL     1      17.945  29.029  11.236  1.00  0.00     0.131 A 
HETATM    3  C6  UNL     1      17.154  29.420  10.177  1.00  0.00     0.116 A 
HETATM    4  N5  UNL     1      15.862  28.981  10.211  1.00  0.00    -0.337 N 
ATOM      5  H5  UNL     1      15.244  29.249   9.445  1.00  0.00     0.167 HD
HETATM    6  C9  UNL     1      15.359  28.224  11.186  1.00  0.00     0.114 A 
HETATM    7  C10 UNL     1      16.144  27.814  12.272  1.00  0.00     0.066 A 
ENDROOT
BRANCH   3   8
HETATM    8  C7  UNL     1      17.575  30.173   9.168  1.00  0.00     0.152 A 
HETATM    9  N1  UNL     1      18.865  30.682   8.862  1.00  0.00    -0.333 N 
HETATM   10  C8  UNL     1      18.861  31.379   7.780  1.00  0.00     0.228 A 
ATOM     11  H1  UNL     1      19.695  30.515   9.432  1.00  0.00     0.168 HD
HETATM   12  N2  UNL     1      17.560  31.424   7.222  1.00  0.00    -0.197 N 
HETATM   13  N4  UNL     1      16.763  30.660   8.108  1.00  0.00    -0.262 N 
ATOM     14  H4  UNL     1      15.764  30.486   8.002  1.00  0.00     0.191 HD
BRANCH  12  15
HETATM   15  N3  UNL     1      17.090  32.047   6.079  1.00  0.00    -0.323 N 
ATOM     16  H32 UNL     1      17.107  31.636   5.146  1.00  0.00     0.179 HD
ATOM     17  H31 UNL     1      16.668  32.966   5.949  1.00  0.00     0.179 HD
ENDBRANCH  12  15
ENDBRANCH   3   8
BRANCH   2  18
HETATM   18  O2  UNL     1      19.239  29.381  11.348  1.00  0.00    -0.356 OA
ATOM     19  H2  UNL     1      19.697  29.506  10.525  1.00  0.00     0.218 HD
ENDBRANCH   2  18
BRANCH   1  20
HETATM   20  O1  UNL     1      18.308  27.867  13.330  1.00  0.00    -0.343 OA
BRANCH  20  21
HETATM   21  C2  UNL     1      18.248  28.558  14.583  1.00  0.00     0.121 C 
HETATM   22  C1  UNL     1      18.414  27.530  15.722  1.00  0.00     0.040 C 
HETATM   23  C3  UNL     1      19.309  29.612  14.716  1.00  0.00     0.040 C 
ENDBRANCH  20  21
ENDBRANCH   1  20
BRANCH   6  24
HETATM   24  N6  UNL     1      14.128  27.846  11.149  1.00  0.00    -0.385 N 
ATOM     25  H62 UNL     1      13.710  27.657  10.238  1.00  0.00     0.157 HD
ATOM     26  H61 UNL     1      13.594  27.744  12.012  1.00  0.00     0.157 HD
ENDBRANCH   6  24
BRANCH   7  27
HETATM   27  C11 UNL     1      15.615  27.082  13.233  1.00  0.00     0.152 C 
BRANCH  27  28
HETATM   28  O3  UNL     1      15.787  25.706  13.191  1.00  0.00    -0.360 OA
BRANCH  28  29
HETATM   29  C12 UNL     1      14.698  24.855  12.876  1.00  0.00     0.200 C 
BRANCH  29  30
HETATM   30  C13 UNL     1      14.959  24.124  11.595  1.00  0.00     0.190 C 
BRANCH  30  31
HETATM   31  O4  UNL     1      14.102  23.054  11.417  1.00  0.00    -0.399 OA
ATOM     32  H4  UNL     1      13.409  23.245  10.796  1.00  0.00     0.209 HD
ENDBRANCH  30  31
ENDBRANCH  29  30
ENDBRANCH  28  29
ENDBRANCH  27  28
ENDBRANCH   7  27
TORSDOF 11
ENDMDL
MODEL 3
REMARK VINA RESULT: -7.459727400      3.502      5.081
REMARK  11 active torsions:
REMARK  status: ('A' for Active; 'I' for Inactive)
REMARK    1  A    between atoms: C2_2  and  O1_4 
REMARK    2  A    between atoms: O1_4  and  C4_5 
REMARK    3  A    between atoms: C5_6  and  O2_7 
REMARK    4  A    between atoms: C6_9  and  C7_10 
REMARK    5  A    between atoms: N2_14  and  N3_15 
REMARK    6  A    between atoms: C9_22  and  N6_23 
REMARK    7  A    between atoms: C10_26  and  C11_27 
REMARK    8  A    between atoms: C11_27  and  O3_28 
REMARK    9  A    between atoms: O3_28  and  C12_29 
REMARK   10  A    between atoms: C12_29  and  C13_30 
REMARK   11  A    between atoms: C13_30  and  O4_31 
ROOT
HETATM    1  C4  UNL     1      18.093  28.651  11.989  1.00  0.00     0.120 A 
HETATM    2  C5  UNL     1      17.803  29.435  10.849  1.00  0.00     0.131 A 
HETATM    3  C6  UNL     1      18.455  30.622  10.594  1.00  0.00     0.116 A 
HETATM    4  N5  UNL     1      19.397  30.989  11.511  1.00  0.00    -0.337 N 
ATOM      5  H5  UNL     1      19.903  31.861  11.358  1.00  0.00     0.167 HD
HETATM    6  C9  UNL     1      19.695  30.273  12.596  1.00  0.00     0.114 A 
HETATM    7  C10 UNL     1      19.045  29.064  12.877  1.00  0.00     0.066 A 
ENDROOT
BRANCH   3   8
HETATM    8  C7  UNL     1      18.220  31.393   9.538  1.00  0.00     0.152 A 
HETATM    9  N1  UNL     1      18.433  32.783   9.338  1.00  0.00    -0.333 N 
HETATM   10  C8  UNL     1      18.071  33.158   8.160  1.00  0.00     0.228 A 
ATOM     11  H1  UNL     1      18.825  33.409  10.042  1.00  0.00     0.168 HD
HETATM   12  N2  UNL     1      17.568  32.059   7.421  1.00  0.00    -0.197 N 
HETATM   13  N4  UNL     1      17.670  30.957   8.304  1.00  0.00    -0.262 N 
ATOM     14  H4  UNL     1      17.392  29.999   8.086  1.00  0.00     0.191 HD
BRANCH  12  15
HETATM   15  N3  UNL     1      17.074  31.991   6.131  1.00  0.00    -0.323 N 
ATOM     16  H32 UNL     1      17.567  31.575   5.341  1.00  0.00     0.179 HD
ATOM     17  H31 UNL     1      16.189  32.317   5.739  1.00  0.00     0.179 HD
ENDBRANCH  12  15
ENDBRANCH   3   8
BRANCH   2  18
HETATM   18  O2  UNL     1      16.850  28.939  10.039  1.00  0.00    -0.356 OA
ATOM     19  H2  UNL     1      15.984  29.311  10.157  1.00  0.00     0.218 HD
ENDBRANCH   2  18
BRANCH   1  20
HETATM   20  O1  UNL     1      17.389  27.458  12.184  1.00  0.00    -0.343 OA
BRANCH  20  21
HETATM   21  C2  UNL     1      16.112  27.474  12.831  1.00  0.00     0.121 C 
HETATM   22  C1  UNL     1      15.067  26.856  11.877  1.00  0.00     0.040 C 
HETATM   23  C3  UNL     1      16.106  26.710  14.124  1.00  0.00     0.040 C 
ENDBRANCH  20  21
ENDBRANCH   1  20
BRANCH   6  24
HETATM   24  N6  UNL     1      20.597  30.684  13.420  1.00  0.00    -0.385 N 
ATOM     25  H62 UNL     1      20.582  31.665  13.699  1.00  0.00     0.157 HD
ATOM     26  H61 UNL     1      21.302  30.038  13.777  1.00  0.00     0.157 HD
ENDBRANCH   6  24
BRANCH   7  27
HETATM   27  C11 UNL     1      19.375  28.368  13.946  1.00  0.00     0.152 C 
BRANCH  27  28
HETATM   28  O3  UNL     1      19.270  28.971  15.191  1.00  0.00    -0.360 OA
BRANCH  28  29
HETATM   29  C12 UNL     1      18.010  29.092  15.827  1.00  0.00     0.200 C 
BRANCH  29  30
HETATM   30  C13 UNL     1      17.455  30.470  15.633  1.00  0.00     0.190 C 
BRANCH  30  31
HETATM   31  O4  UNL     1      16.633  30.857  16.675  1.00  0.00    -0.399 OA
ATOM     32  H4  UNL     1      15.848  31.297  16.371  1.00  0.00     0.209 HD
ENDBRANCH  30  31
ENDBRANCH  29  30
ENDBRANCH  28  29
ENDBRANCH  27  28
ENDBRANCH   7  27
TORSDOF 11
ENDMDL
MODEL 4
REMARK VINA RESULT: -7.401388225      2.798      5.855
REMARK  11 active torsions:
REMARK  status: ('A' for Active; 'I' for Inactive)
REMARK    1  A    between atoms: C2_2  and  O1_4 
REMARK    2  A    between atoms: O1_4  and  C4_5 
REMARK    3  A    between atoms: C5_6  and  O2_7 
REMARK    4  A    between atoms: C6_9  and  C7_10 
REMARK    5  A    between atoms: N2_14  and  N3_15 
REMARK    6  A    between atoms: C9_22  and  N6_23 
REMARK    7  A    between atoms: C10_26  and  C11_27 
REMARK    8  A    between atoms: C11_27  and  O3_28 
REMARK    9  A    between atoms: O3_28  and  C12_29 
REMARK   10  A    between atoms: C12_29  and  C13_30 
REMARK   11  A    between atoms: C13_30  and  O4_31 
ROOT
HETATM    1  C4  UNL     1      17.118  29.598  12.709  1.00  0.00     0.120 A 
HETATM    2  C5  UNL     1      16.355  28.433  12.955  1.00  0.00     0.131 A 
HETATM    3  C6  UNL     1      16.442  27.320  12.147  1.00  0.00     0.116 A 
HETATM    4  N5  UNL     1      17.310  27.417  11.098  1.00  0.00    -0.337 N 
ATOM      5  H5  UNL     1      17.403  26.613  10.477  1.00  0.00     0.167 HD
HETATM    6  C9  UNL     1      18.044  28.499  10.838  1.00  0.00     0.114 A 
HETATM    7  C10 UNL     1      17.973  29.643  11.645  1.00  0.00     0.066 A 
ENDROOT
BRANCH   3   8
HETATM    8  C7  UNL     1      15.748  26.204  12.335  1.00  0.00     0.152 A 
HETATM    9  N1  UNL     1      15.091  25.701  13.490  1.00  0.00    -0.333 N 
HETATM   10  C8  UNL     1      14.522  24.569  13.263  1.00  0.00     0.228 A 
ATOM     11  H1  UNL     1      15.072  26.180  14.391  1.00  0.00     0.168 HD
HETATM   12  N2  UNL     1      14.728  24.169  11.920  1.00  0.00    -0.197 N 
HETATM   13  N4  UNL     1      15.501  25.210  11.351  1.00  0.00    -0.262 N 
ATOM     14  H4  UNL     1      15.829  25.241  10.385  1.00  0.00     0.191 HD
BRANCH  12  15
HETATM   15  N3  UNL     1      14.306  23.040  11.240  1.00  0.00    -0.323 N 
ATOM     16  H32 UNL     1      14.308  22.096  11.626  1.00  0.00     0.179 HD
ATOM     17  H31 UNL     1      13.939  22.932  10.294  1.00  0.00     0.179 HD
ENDBRANCH  12  15
ENDBRANCH   3   8
BRANCH   2  18
HETATM   18  O2  UNL     1      15.546  28.494  14.028  1.00  0.00    -0.356 OA
ATOM     19  H2  UNL     1      14.632  28.298  13.858  1.00  0.00     0.218 HD
ENDBRANCH   2  18
BRANCH   1  20
HETATM   20  O1  UNL     1      16.977  30.691  13.572  1.00  0.00    -0.343 OA
BRANCH  20  21
HETATM   21  C2  UNL     1      17.903  30.882  14.648  1.00  0.00     0.121 C 
HETATM   22  C1  UNL     1      17.117  31.317  15.903  1.00  0.00     0.040 C 
HETATM   23  C3  UNL     1      18.687  29.642  14.966  1.00  0.00     0.040 C 
ENDBRANCH  20  21
ENDBRANCH   1  20
BRANCH   6  24
HETATM   24  N6  UNL     1      18.842  28.517   9.828  1.00  0.00    -0.385 N 
ATOM     25  H62 UNL     1      18.651  27.883   9.051  1.00  0.00     0.157 HD
ATOM     26  H61 UNL     1      19.642  29.151   9.813  1.00  0.00     0.157 HD
ENDBRANCH   6  24
BRANCH   7  27
HETATM   27  C11 UNL     1      18.726  30.691  11.376  1.00  0.00     0.152 C 
BRANCH  27  28
HETATM   28  O3  UNL     1      18.172  31.739  10.657  1.00  0.00    -0.360 OA
BRANCH  28  29
HETATM   29  C12 UNL     1      18.826  32.245   9.506  1.00  0.00     0.200 C 
BRANCH  29  30
HETATM   30  C13 UNL     1      18.145  33.488   9.020  1.00  0.00     0.190 C 
BRANCH  30  31
HETATM   31  O4  UNL     1      17.459  34.140  10.028  1.00  0.00    -0.399 OA
ATOM     32  H4  UNL     1      17.794  35.015  10.185  1.00  0.00     0.209 HD
ENDBRANCH  30  31
ENDBRANCH  29  30
ENDBRANCH  28  29
ENDBRANCH  27  28
ENDBRANCH   7  27
TORSDOF 11
ENDMDL
MODEL 5
REMARK VINA RESULT: -7.350651845      2.666      5.641
REMARK  11 active torsions:
REMARK  status: ('A' for Active; 'I' for Inactive)
REMARK    1  A    between atoms: C2_2  and  O1_4 
REMARK    2  A    between atoms: O1_4  and  C4_5 
REMARK    3  A    between atoms: C5_6  and  O2_7 
REMARK    4  A    between atoms: C6_9  and  C7_10 
REMARK    5  A    between atoms: N2_14  and  N3_15 
REMARK    6  A    between atoms: C9_22  and  N6_23 
REMARK    7  A    between atoms: C10_26  and  C11_27 
REMARK    8  A    between atoms: C11_27  and  O3_28 
REMARK    9  A    between atoms: O3_28  and  C12_29 
REMARK   10  A    between atoms: C12_29  and  C13_30 
REMARK   11  A    between atoms: C13_30  and  O4_31 
ROOT
HETATM    1  C4  UNL     1      16.884  29.790  12.615  1.00  0.00     0.120 A 
HETATM    2  C5  UNL     1      16.201  28.589  12.914  1.00  0.00     0.131 A 
HETATM    3  C6  UNL     1      16.288  27.478  12.103  1.00  0.00     0.116 A 
HETATM    4  N5  UNL     1      17.075  27.614  10.996  1.00  0.00    -0.337 N 
ATOM      5  H5  UNL     1      17.165  26.814  10.370  1.00  0.00     0.167 HD
HETATM    6  C9  UNL     1      17.733  28.732  10.685  1.00  0.00     0.114 A 
HETATM    7  C10 UNL     1      17.659  29.873  11.494  1.00  0.00     0.066 A 
ENDROOT
BRANCH   3   8
HETATM    8  C7  UNL     1      15.667  26.328  12.340  1.00  0.00     0.152 A 
HETATM    9  N1  UNL     1      15.134  25.790  13.541  1.00  0.00    -0.333 N 
HETATM   10  C8  UNL     1      14.604  24.632  13.353  1.00  0.00     0.228 A 
ATOM     11  H1  UNL     1      15.167  26.265  14.444  1.00  0.00     0.168 HD
HETATM   12  N2  UNL     1      14.716  24.247  11.994  1.00  0.00    -0.197 N 
HETATM   13  N4  UNL     1      15.388  25.327  11.371  1.00  0.00    -0.262 N 
ATOM     14  H4  UNL     1      15.632  25.377  10.382  1.00  0.00     0.191 HD
BRANCH  12  15
HETATM   15  N3  UNL     1      14.294  23.102  11.344  1.00  0.00    -0.323 N 
ATOM     16  H32 UNL     1      14.465  22.151  11.673  1.00  0.00     0.179 HD
ATOM     17  H31 UNL     1      13.771  22.985  10.476  1.00  0.00     0.179 HD
ENDBRANCH  12  15
ENDBRANCH   3   8
BRANCH   2  18
HETATM   18  O2  UNL     1      15.466  28.612  14.041  1.00  0.00    -0.356 OA
ATOM     19  H2  UNL     1      15.218  29.478  14.344  1.00  0.00     0.218 HD
ENDBRANCH   2  18
BRANCH   1  20
HETATM   20  O1  UNL     1      16.747  30.878  13.484  1.00  0.00    -0.343 OA
BRANCH  20  21
HETATM   21  C2  UNL     1      17.681  31.065  14.554  1.00  0.00     0.121 C 
HETATM   22  C1  UNL     1      16.912  31.555  15.800  1.00  0.00     0.040 C 
HETATM   23  C3  UNL     1      18.426  29.808  14.901  1.00  0.00     0.040 C 
ENDBRANCH  20  21
ENDBRANCH   1  20
BRANCH   6  24
HETATM   24  N6  UNL     1      18.457  28.786   9.621  1.00  0.00    -0.385 N 
ATOM     25  H62 UNL     1      18.338  28.055   8.919  1.00  0.00     0.157 HD
ATOM     26  H61 UNL     1      19.129  29.544   9.492  1.00  0.00     0.157 HD
ENDBRANCH   6  24
BRANCH   7  27
HETATM   27  C11 UNL     1      18.337  30.958  11.172  1.00  0.00     0.152 C 
BRANCH  27  28
HETATM   28  O3  UNL     1      19.561  31.181  11.784  1.00  0.00    -0.360 OA
BRANCH  28  29
HETATM   29  C12 UNL     1      20.604  30.228  11.673  1.00  0.00     0.200 C 
BRANCH  29  30
HETATM   30  C13 UNL     1      21.491  30.280  12.880  1.00  0.00     0.190 C 
BRANCH  30  31
HETATM   31  O4  UNL     1      21.886  31.568  13.186  1.00  0.00    -0.399 OA
ATOM     32  H4  UNL     1      22.745  31.596  13.591  1.00  0.00     0.209 HD
ENDBRANCH  30  31
ENDBRANCH  29  30
ENDBRANCH  28  29
ENDBRANCH  27  28
ENDBRANCH   7  27
TORSDOF 11
ENDMDL
