MODEL 1
REMARK VINA RESULT: -7.874862901      0.000      0.000
REMARK  8 active torsions:
REMARK  status: ('A' for Active; 'I' for Inactive)
REMARK    1  A    between atoms: C2_7  and  N3_8 
REMARK    2  A    between atoms: N3_8  and  N4_9 
REMARK    3  A    between atoms: N3_8  and  C3_12 
REMARK    4  A    between atoms: N4_9  and  O1_10 
REMARK    5  A    between atoms: C4_17  and  N7_18 
REMARK    6  A    between atoms: N7_18  and  C5_20 
REMARK    7  A    between atoms: C5_20  and  C6_21 
REMARK    8  A    between atoms: C6_21  and  N8_22 
ROOT
HETATM    1  N1  UNL     1      21.107  25.466  45.110  1.00  0.00    -0.234 N 
ATOM      2  H11 UNL     1      21.274  24.796  45.860  1.00  0.00     0.174 HD
ATOM      3  H12 UNL     1      20.493  26.259  45.297  1.00  0.00     0.174 HD
HETATM    4  C1  UNL     1      21.678  25.282  43.966  1.00  0.00     0.705 A 
HETATM    5  N2  UNL     1      21.452  26.189  42.952  1.00  0.00    -0.020 N 
ATOM      6  H2  UNL     1      20.839  26.985  43.132  1.00  0.00     0.203 HD
HETATM    7  C2  UNL     1      22.001  26.065  41.754  1.00  0.00     0.733 A 
HETATM    8  N6  UNL     1      22.825  24.981  41.542  1.00  0.00    -0.020 N 
ATOM      9  H6  UNL     1      23.264  24.858  40.630  1.00  0.00     0.203 HD
HETATM   10  C4  UNL     1      23.062  24.083  42.514  1.00  0.00     0.707 A 
HETATM   11  N10 UNL     1      22.486  24.239  43.720  1.00  0.00    -0.022 N 
ATOM     12  H10 UNL     1      22.665  23.557  44.456  1.00  0.00     0.203 HD
ENDROOT
BRANCH  10  13
HETATM   13  N7  UNL     1      23.820  23.067  42.337  1.00  0.00    -0.223 N 
ATOM     14  H7  UNL     1      24.820  23.240  42.445  1.00  0.00     0.177 HD
BRANCH  13  15
HETATM   15  C5  UNL     1      23.462  21.735  42.011  1.00  0.00     0.168 C 
BRANCH  15  16
HETATM   16  C6  UNL     1      22.804  21.574  40.664  1.00  0.00     0.294 C 
BRANCH  16  17
HETATM   17  N8  UNL     1      21.427  21.162  40.727  1.00  0.00     0.117 N 
HETATM   18  C7  UNL     1      21.086  20.656  39.400  1.00  0.00     0.302 C 
HETATM   19  C8  UNL     1      19.694  21.161  39.140  1.00  0.00     0.264 C 
HETATM   20  N9  UNL     1      19.704  22.439  39.843  1.00  0.00    -0.047 N 
HETATM   21  C9  UNL     1      20.502  22.201  41.039  1.00  0.00     0.502 C 
ATOM     22  H92 UNL     1      20.032  23.221  39.275  1.00  0.00     0.279 HD
ATOM     23  H91 UNL     1      18.776  22.814  40.032  1.00  0.00     0.279 HD
ENDBRANCH  16  17
ENDBRANCH  15  16
ENDBRANCH  13  15
ENDBRANCH  10  13
BRANCH   7  24
HETATM   24  N3  UNL     1      21.791  26.941  40.665  1.00  0.00    -0.039 N 
BRANCH  24  25
HETATM   25  N4  UNL     1      21.001  28.138  40.941  1.00  0.00     0.043 NA
BRANCH  25  26
HETATM   26  O1  UNL     1      21.883  29.022  41.454  1.00  0.00    -0.276 OA
ATOM     27  H1  UNL     1      21.379  29.535  42.075  1.00  0.00     0.240 HD
ENDBRANCH  25  26
ENDBRANCH  24  25
BRANCH  24  28
HETATM   28  C3  UNL     1      22.254  26.877  39.364  1.00  0.00     0.223 C 
HETATM   29  N5  UNL     1      23.299  27.780  38.950  1.00  0.00    -0.068 NA
HETATM   30  S1  UNL     1      21.745  25.846  38.240  1.00  0.00    -0.042 SA
ENDBRANCH  24  28
ENDBRANCH   7  24
TORSDOF 8
ENDMDL
MODEL 2
REMARK VINA RESULT: -7.601379672      3.413      5.353
REMARK  8 active torsions:
REMARK  status: ('A' for Active; 'I' for Inactive)
REMARK    1  A    between atoms: C2_7  and  N3_8 
REMARK    2  A    between atoms: N3_8  and  N4_9 
REMARK    3  A    between atoms: N3_8  and  C3_12 
REMARK    4  A    between atoms: N4_9  and  O1_10 
REMARK    5  A    between atoms: C4_17  and  N7_18 
REMARK    6  A    between atoms: N7_18  and  C5_20 
REMARK    7  A    between atoms: C5_20  and  C6_21 
REMARK    8  A    between atoms: C6_21  and  N8_22 
ROOT
HETATM    1  N1  UNL     1      23.229  20.599  40.783  1.00  0.00    -0.234 N 
ATOM      2  H11 UNL     1      23.591  20.204  39.915  1.00  0.00     0.174 HD
ATOM      3  H12 UNL     1      23.414  20.102  41.654  1.00  0.00     0.174 HD
HETATM    4  C1  UNL     1      22.559  21.702  40.738  1.00  0.00     0.705 A 
HETATM    5  N2  UNL     1      22.070  22.236  41.912  1.00  0.00    -0.020 N 
ATOM      6  H2  UNL     1      22.251  21.745  42.789  1.00  0.00     0.203 HD
HETATM    7  C2  UNL     1      21.374  23.362  41.945  1.00  0.00     0.733 A 
HETATM    8  N6  UNL     1      21.147  24.002  40.746  1.00  0.00    -0.020 N 
ATOM      9  H6  UNL     1      20.615  24.871  40.737  1.00  0.00     0.203 HD
HETATM   10  C4  UNL     1      21.613  23.503  39.588  1.00  0.00     0.707 A 
HETATM   11  N10 UNL     1      22.316  22.356  39.592  1.00  0.00    -0.022 N 
ATOM     12  H10 UNL     1      22.668  21.977  38.713  1.00  0.00     0.203 HD
ENDROOT
BRANCH  10  13
HETATM   13  N7  UNL     1      21.409  24.080  38.463  1.00  0.00    -0.223 N 
ATOM     14  H7  UNL     1      21.211  23.457  37.680  1.00  0.00     0.177 HD
BRANCH  13  15
HETATM   15  C5  UNL     1      21.422  25.464  38.157  1.00  0.00     0.168 C 
BRANCH  15  16
HETATM   16  C6  UNL     1      20.162  25.974  37.505  1.00  0.00     0.294 C 
BRANCH  16  17
HETATM   17  N8  UNL     1      18.958  25.662  38.226  1.00  0.00     0.117 N 
HETATM   18  C7  UNL     1      17.870  25.699  37.251  1.00  0.00     0.302 C 
HETATM   19  C8  UNL     1      16.727  26.357  37.972  1.00  0.00     0.264 C 
HETATM   20  N9  UNL     1      17.425  27.286  38.853  1.00  0.00    -0.047 N 
HETATM   21  C9  UNL     1      18.627  26.575  39.270  1.00  0.00     0.502 C 
ATOM     22  H92 UNL     1      17.608  28.197  38.433  1.00  0.00     0.279 HD
ATOM     23  H91 UNL     1      16.857  27.628  39.628  1.00  0.00     0.279 HD
ENDBRANCH  16  17
ENDBRANCH  15  16
ENDBRANCH  13  15
ENDBRANCH  10  13
BRANCH   7  24
HETATM   24  N3  UNL     1      20.822  23.947  43.106  1.00  0.00    -0.039 N 
BRANCH  24  25
HETATM   25  N4  UNL     1      19.411  23.670  43.362  1.00  0.00     0.043 NA
BRANCH  25  26
HETATM   26  O1  UNL     1      19.167  22.507  42.724  1.00  0.00    -0.276 OA
ATOM     27  H1  UNL     1      18.807  21.935  43.392  1.00  0.00     0.240 HD
ENDBRANCH  25  26
ENDBRANCH  24  25
BRANCH  24  28
HETATM   28  C3  UNL     1      21.417  24.719  44.087  1.00  0.00     0.223 C 
HETATM   29  N5  UNL     1      20.703  24.957  45.317  1.00  0.00    -0.068 NA
HETATM   30  S1  UNL     1      22.882  25.375  44.000  1.00  0.00    -0.042 SA
ENDBRANCH  24  28
ENDBRANCH   7  24
TORSDOF 8
ENDMDL
MODEL 3
REMARK VINA RESULT: -7.598977589      2.854      5.833
REMARK  8 active torsions:
REMARK  status: ('A' for Active; 'I' for Inactive)
REMARK    1  A    between atoms: C2_7  and  N3_8 
REMARK    2  A    between atoms: N3_8  and  N4_9 
REMARK    3  A    between atoms: N3_8  and  C3_12 
REMARK    4  A    between atoms: N4_9  and  O1_10 
REMARK    5  A    between atoms: C4_17  and  N7_18 
REMARK    6  A    between atoms: N7_18  and  C5_20 
REMARK    7  A    between atoms: C5_20  and  C6_21 
REMARK    8  A    between atoms: C6_21  and  N8_22 
ROOT
HETATM    1  N1  UNL     1      19.653  20.582  40.146  1.00  0.00    -0.234 N 
ATOM      2  H11 UNL     1      19.340  20.241  39.237  1.00  0.00     0.174 HD
ATOM      3  H12 UNL     1      19.741  19.912  40.910  1.00  0.00     0.174 HD
HETATM    4  C1  UNL     1      19.924  21.837  40.285  1.00  0.00     0.705 A 
HETATM    5  N2  UNL     1      20.348  22.298  41.514  1.00  0.00    -0.020 N 
ATOM      6  H2  UNL     1      20.439  21.633  42.284  1.00  0.00     0.203 HD
HETATM    7  C2  UNL     1      20.643  23.570  41.733  1.00  0.00     0.733 A 
HETATM    8  N6  UNL     1      20.512  24.442  40.674  1.00  0.00    -0.020 N 
ATOM      9  H6  UNL     1      20.731  25.428  40.810  1.00  0.00     0.203 HD
HETATM   10  C4  UNL     1      20.101  24.019  39.467  1.00  0.00     0.707 A 
HETATM   11  N10 UNL     1      19.809  22.719  39.280  1.00  0.00    -0.022 N 
ATOM     12  H10 UNL     1      19.496  22.399  38.364  1.00  0.00     0.203 HD
ENDROOT
BRANCH  10  13
HETATM   13  N7  UNL     1      19.968  24.814  38.471  1.00  0.00    -0.223 N 
ATOM     14  H7  UNL     1      19.152  24.648  37.883  1.00  0.00     0.177 HD
BRANCH  13  15
HETATM   15  C5  UNL     1      20.800  25.891  38.076  1.00  0.00     0.168 C 
BRANCH  15  16
HETATM   16  C6  UNL     1      21.047  25.980  36.591  1.00  0.00     0.294 C 
BRANCH  16  17
HETATM   17  N8  UNL     1      22.435  26.103  36.232  1.00  0.00     0.117 N 
HETATM   18  C7  UNL     1      23.148  26.467  37.455  1.00  0.00     0.302 C 
HETATM   19  C8  UNL     1      24.164  27.485  37.020  1.00  0.00     0.264 C 
HETATM   20  N9  UNL     1      23.466  28.159  35.931  1.00  0.00    -0.047 N 
HETATM   21  C9  UNL     1      22.718  27.106  35.258  1.00  0.00     0.502 C 
ATOM     22  H92 UNL     1      22.891  28.946  36.233  1.00  0.00     0.279 HD
ATOM     23  H91 UNL     1      24.078  28.692  35.314  1.00  0.00     0.279 HD
ENDBRANCH  16  17
ENDBRANCH  15  16
ENDBRANCH  13  15
ENDBRANCH  10  13
BRANCH   7  24
HETATM   24  N3  UNL     1      21.056  24.111  42.971  1.00  0.00    -0.039 N 
BRANCH  24  25
HETATM   25  N4  UNL     1      20.002  24.357  43.953  1.00  0.00     0.043 NA
BRANCH  25  26
HETATM   26  O1  UNL     1      18.865  23.957  43.346  1.00  0.00    -0.276 OA
ATOM     27  H1  UNL     1      18.501  23.297  43.923  1.00  0.00     0.240 HD
ENDBRANCH  25  26
ENDBRANCH  24  25
BRANCH  24  28
HETATM   28  C3  UNL     1      22.321  24.413  43.437  1.00  0.00     0.223 C 
HETATM   29  N5  UNL     1      22.455  25.166  44.659  1.00  0.00    -0.068 NA
HETATM   30  S1  UNL     1      23.703  23.971  42.743  1.00  0.00    -0.042 SA
ENDBRANCH  24  28
ENDBRANCH   7  24
TORSDOF 8
ENDMDL
MODEL 4
REMARK VINA RESULT: -7.582845991      3.120      5.716
REMARK  8 active torsions:
REMARK  status: ('A' for Active; 'I' for Inactive)
REMARK    1  A    between atoms: C2_7  and  N3_8 
REMARK    2  A    between atoms: N3_8  and  N4_9 
REMARK    3  A    between atoms: N3_8  and  C3_12 
REMARK    4  A    between atoms: N4_9  and  O1_10 
REMARK    5  A    between atoms: C4_17  and  N7_18 
REMARK    6  A    between atoms: N7_18  and  C5_20 
REMARK    7  A    between atoms: C5_20  and  C6_21 
REMARK    8  A    between atoms: C6_21  and  N8_22 
ROOT
HETATM    1  N1  UNL     1      20.297  25.113  38.153  1.00  0.00    -0.234 N 
ATOM      2  H11 UNL     1      19.931  26.061  38.249  1.00  0.00     0.174 HD
ATOM      3  H12 UNL     1      20.535  24.779  37.219  1.00  0.00     0.174 HD
HETATM    4  C1  UNL     1      20.440  24.386  39.210  1.00  0.00     0.705 A 
HETATM    5  N2  UNL     1      20.934  23.105  39.079  1.00  0.00    -0.020 N 
ATOM      6  H2  UNL     1      21.175  22.764  38.148  1.00  0.00     0.203 HD
HETATM    7  C2  UNL     1      21.107  22.302  40.118  1.00  0.00     0.733 A 
HETATM    8  N6  UNL     1      20.774  22.791  41.361  1.00  0.00    -0.020 N 
ATOM      9  H6  UNL     1      20.896  22.197  42.181  1.00  0.00     0.203 HD
HETATM   10  C4  UNL     1      20.291  24.036  41.516  1.00  0.00     0.707 A 
HETATM   11  N10 UNL     1      20.126  24.825  40.439  1.00  0.00    -0.022 N 
ATOM     12  H10 UNL     1      19.758  25.769  40.557  1.00  0.00     0.203 HD
ENDROOT
BRANCH  10  13
HETATM   13  N7  UNL     1      19.970  24.508  42.662  1.00  0.00    -0.223 N 
ATOM     14  H7  UNL     1      19.085  24.174  43.044  1.00  0.00     0.177 HD
BRANCH  13  15
HETATM   15  C5  UNL     1      20.676  25.432  43.473  1.00  0.00     0.168 C 
BRANCH  15  16
HETATM   16  C6  UNL     1      21.835  24.842  44.235  1.00  0.00     0.294 C 
BRANCH  16  17
HETATM   17  N8  UNL     1      23.120  25.097  43.644  1.00  0.00     0.117 N 
HETATM   18  C7  UNL     1      22.871  25.884  42.438  1.00  0.00     0.302 C 
HETATM   19  C8  UNL     1      23.825  25.334  41.414  1.00  0.00     0.264 C 
HETATM   20  N9  UNL     1      23.895  23.928  41.796  1.00  0.00    -0.047 N 
HETATM   21  C9  UNL     1      23.845  23.933  43.252  1.00  0.00     0.502 C 
ATOM     22  H92 UNL     1      23.181  23.345  41.359  1.00  0.00     0.279 HD
ATOM     23  H91 UNL     1      24.699  23.434  41.411  1.00  0.00     0.279 HD
ENDBRANCH  16  17
ENDBRANCH  15  16
ENDBRANCH  13  15
ENDBRANCH  10  13
BRANCH   7  24
HETATM   24  N3  UNL     1      21.582  20.972  40.051  1.00  0.00    -0.039 N 
BRANCH  24  25
HETATM   25  N4  UNL     1      20.567  19.923  40.031  1.00  0.00     0.043 NA
BRANCH  25  26
HETATM   26  O1  UNL     1      19.391  20.579  40.124  1.00  0.00    -0.276 OA
ATOM     27  H1  UNL     1      18.743  19.898  40.261  1.00  0.00     0.240 HD
ENDBRANCH  25  26
ENDBRANCH  24  25
BRANCH  24  28
HETATM   28  C3  UNL     1      22.873  20.489  39.954  1.00  0.00     0.223 C 
HETATM   29  N5  UNL     1      23.810  20.784  41.010  1.00  0.00    -0.068 NA
HETATM   30  S1  UNL     1      23.444  19.580  38.757  1.00  0.00    -0.042 SA
ENDBRANCH  24  28
ENDBRANCH   7  24
TORSDOF 8
ENDMDL
MODEL 5
REMARK VINA RESULT: -7.573535002      3.212      5.324
REMARK  8 active torsions:
REMARK  status: ('A' for Active; 'I' for Inactive)
REMARK    1  A    between atoms: C2_7  and  N3_8 
REMARK    2  A    between atoms: N3_8  and  N4_9 
REMARK    3  A    between atoms: N3_8  and  C3_12 
REMARK    4  A    between atoms: N4_9  and  O1_10 
REMARK    5  A    between atoms: C4_17  and  N7_18 
REMARK    6  A    between atoms: N7_18  and  C5_20 
REMARK    7  A    between atoms: C5_20  and  C6_21 
REMARK    8  A    between atoms: C6_21  and  N8_22 
ROOT
HETATM    1  N1  UNL     1      17.870  25.950  36.984  1.00  0.00    -0.234 N 
ATOM      2  H11 UNL     1      16.981  25.644  37.378  1.00  0.00     0.174 HD
ATOM      3  H12 UNL     1      17.853  26.609  36.205  1.00  0.00     0.174 HD
HETATM    4  C1  UNL     1      18.969  25.494  37.487  1.00  0.00     0.705 A 
HETATM    5  N2  UNL     1      20.172  25.908  36.953  1.00  0.00    -0.020 N 
ATOM      6  H2  UNL     1      20.163  26.567  36.174  1.00  0.00     0.203 HD
HETATM    7  C2  UNL     1      21.337  25.483  37.415  1.00  0.00     0.733 A 
HETATM    8  N6  UNL     1      21.317  24.595  38.469  1.00  0.00    -0.020 N 
ATOM      9  H6  UNL     1      22.197  24.249  38.848  1.00  0.00     0.203 HD
HETATM   10  C4  UNL     1      20.158  24.176  39.007  1.00  0.00     0.707 A 
HETATM   11  N10 UNL     1      18.992  24.628  38.511  1.00  0.00    -0.022 N 
ATOM     12  H10 UNL     1      18.113  24.309  38.920  1.00  0.00     0.203 HD
ENDROOT
BRANCH  10  13
HETATM   13  N7  UNL     1      20.117  23.348  39.983  1.00  0.00    -0.223 N 
ATOM     14  H7  UNL     1      19.315  22.718  39.991  1.00  0.00     0.177 HD
BRANCH  13  15
HETATM   15  C5  UNL     1      21.032  23.188  41.054  1.00  0.00     0.168 C 
BRANCH  15  16
HETATM   16  C6  UNL     1      20.499  23.602  42.402  1.00  0.00     0.294 C 
BRANCH  16  17
HETATM   17  N8  UNL     1      21.090  24.804  42.925  1.00  0.00     0.117 N 
HETATM   18  C7  UNL     1      22.530  24.686  42.706  1.00  0.00     0.302 C 
HETATM   19  C8  UNL     1      23.157  25.242  43.954  1.00  0.00     0.264 C 
HETATM   20  N9  UNL     1      22.181  24.867  44.971  1.00  0.00    -0.047 N 
HETATM   21  C9  UNL     1      20.886  25.017  44.320  1.00  0.00     0.502 C 
ATOM     22  H92 UNL     1      22.337  23.943  45.373  1.00  0.00     0.279 HD
ATOM     23  H91 UNL     1      22.270  25.389  45.842  1.00  0.00     0.279 HD
ENDBRANCH  16  17
ENDBRANCH  15  16
ENDBRANCH  13  15
ENDBRANCH  10  13
BRANCH   7  24
HETATM   24  N3  UNL     1      22.602  25.845  36.899  1.00  0.00    -0.039 N 
BRANCH  24  25
HETATM   25  N4  UNL     1      23.724  24.990  37.277  1.00  0.00     0.043 NA
BRANCH  25  26
HETATM   26  O1  UNL     1      23.451  23.795  36.714  1.00  0.00    -0.276 OA
ATOM     27  H1  UNL     1      24.184  23.626  36.134  1.00  0.00     0.240 HD
ENDBRANCH  25  26
ENDBRANCH  24  25
BRANCH  24  28
HETATM   28  C3  UNL     1      22.956  26.869  36.041  1.00  0.00     0.223 C 
HETATM   29  N5  UNL     1      22.020  27.287  35.028  1.00  0.00    -0.068 NA
HETATM   30  S1  UNL     1      24.343  27.683  36.079  1.00  0.00    -0.042 SA
ENDBRANCH  24  28
ENDBRANCH   7  24
TORSDOF 8
ENDMDL
