MODEL 1
REMARK VINA RESULT: -8.008136526      0.000      0.000
REMARK  9 active torsions:
REMARK  status: ('A' for Active; 'I' for Inactive)
REMARK    1  A    between atoms: N1_1  and  C1_4 
REMARK    2  A    between atoms: C4_12  and  C5_13 
REMARK    3  A    between atoms: C5_13  and  C6_14 
REMARK    4  A    between atoms: C6_14  and  N4_15 
REMARK    5  A    between atoms: C6_14  and  C7_19 
REMARK    6  A    between atoms: C8_21  and  N5_22 
REMARK    7  A    between atoms: C9_24  and  C10_25 
REMARK    8  A    between atoms: C10_25  and  N6_26 
REMARK    9  A    between atoms: C10_25  and  O3_30 
ROOT
HETATM    1  C1  UNL     1      23.328  19.820  39.044  1.00  0.00     0.680 A 
HETATM    2  N2  UNL     1      23.547  19.439  40.310  1.00  0.00    -0.154 N 
ATOM      3  H2  UNL     1      23.786  18.465  40.497  1.00  0.00     0.187 HD
HETATM    4  C2  UNL     1      23.462  20.299  41.346  1.00  0.00     0.290 A 
HETATM    5  O1  UNL     1      23.668  19.932  42.530  1.00  0.00    -0.265 OA
HETATM    6  C3  UNL     1      23.142  21.613  41.121  1.00  0.00     0.147 A 
HETATM    7  N3  UNL     1      23.044  22.510  42.100  1.00  0.00    -0.349 N 
ATOM      8  H3  UNL     1      23.213  22.202  43.057  1.00  0.00     0.166 HD
HETATM    9  C4  UNL     1      22.732  23.806  41.891  1.00  0.00     0.057 A 
HETATM   10  C8  UNL     1      22.498  24.230  40.613  1.00  0.00     0.129 A 
HETATM   11  N7  UNL     1      22.605  23.283  39.609  1.00  0.00    -0.325 N 
ATOM     12  H7  UNL     1      22.436  23.577  38.647  1.00  0.00     0.169 HD
HETATM   13  C11 UNL     1      22.915  22.018  39.833  1.00  0.00     0.155 A 
HETATM   14  N8  UNL     1      23.018  21.101  38.837  1.00  0.00    -0.174 N 
ATOM     15  H8  UNL     1      22.850  21.408  37.879  1.00  0.00     0.186 HD
ENDROOT
BRANCH  10  16
HETATM   16  N5  UNL     1      22.130  25.356  40.299  1.00  0.00    -0.350 N 
HETATM   17  C9  UNL     1      22.019  26.484  39.596  1.00  0.00     0.122 C 
ATOM     18  H5  UNL     1      21.506  25.565  41.078  1.00  0.00     0.166 HD
BRANCH  17  19
HETATM   19  C10 UNL     1      21.427  27.694  40.363  1.00  0.00     0.356 C 
BRANCH  19  20
HETATM   20  N6  UNL     1      21.944  27.747  41.711  1.00  0.00    -0.048 N 
ATOM     21  H63 UNL     1      21.571  26.993  42.288  1.00  0.00     0.277 HD
ATOM     22  H62 UNL     1      22.932  27.493  41.748  1.00  0.00     0.277 HD
ATOM     23  H61 UNL     1      21.772  28.662  42.127  1.00  0.00     0.277 HD
ENDBRANCH  19  20
BRANCH  19  24
HETATM   24  O3  UNL     1      20.058  27.439  40.447  1.00  0.00    -0.366 OA
ATOM     25  H3  UNL     1      19.833  27.584  41.359  1.00  0.00     0.212 HD
ENDBRANCH  19  24
ENDBRANCH  17  19
ENDBRANCH  10  16
BRANCH   9  26
HETATM   26  C5  UNL     1      22.778  24.678  43.079  1.00  0.00     0.101 C 
BRANCH  26  27
HETATM   27  C6  UNL     1      21.556  24.585  43.964  1.00  0.00     0.249 C 
BRANCH  27  28
HETATM   28  N4  UNL     1      21.526  25.609  44.932  1.00  0.00    -0.069 N 
ATOM     29  H43 UNL     1      22.464  25.829  45.267  1.00  0.00     0.275 HD
ATOM     30  H42 UNL     1      21.289  26.508  44.512  1.00  0.00     0.275 HD
ATOM     31  H41 UNL     1      20.899  25.385  45.705  1.00  0.00     0.275 HD
ENDBRANCH  27  28
BRANCH  27  32
HETATM   32  C7  UNL     1      20.307  24.575  43.121  1.00  0.00     0.264 C 
HETATM   33  O2  UNL     1      19.876  25.593  42.621  1.00  0.00    -0.305 OA
ENDBRANCH  27  32
ENDBRANCH  26  27
ENDBRANCH   9  26
BRANCH   1  34
HETATM   34  N1  UNL     1      23.428  18.944  38.105  1.00  0.00    -0.234 N 
ATOM     35  H12 UNL     1      23.821  19.138  37.184  1.00  0.00     0.174 HD
ATOM     36  H11 UNL     1      23.100  17.994  38.281  1.00  0.00     0.174 HD
ENDBRANCH   1  34
TORSDOF 9
ENDMDL
MODEL 2
REMARK VINA RESULT: -7.790037991      2.243      2.321
REMARK  9 active torsions:
REMARK  status: ('A' for Active; 'I' for Inactive)
REMARK    1  A    between atoms: N1_1  and  C1_4 
REMARK    2  A    between atoms: C4_12  and  C5_13 
REMARK    3  A    between atoms: C5_13  and  C6_14 
REMARK    4  A    between atoms: C6_14  and  N4_15 
REMARK    5  A    between atoms: C6_14  and  C7_19 
REMARK    6  A    between atoms: C8_21  and  N5_22 
REMARK    7  A    between atoms: C9_24  and  C10_25 
REMARK    8  A    between atoms: C10_25  and  N6_26 
REMARK    9  A    between atoms: C10_25  and  O3_30 
ROOT
HETATM    1  C1  UNL     1      23.001  20.198  39.209  1.00  0.00     0.680 A 
HETATM    2  N2  UNL     1      23.274  20.192  40.522  1.00  0.00    -0.154 N 
ATOM      3  H2  UNL     1      23.818  19.421  40.907  1.00  0.00     0.187 HD
HETATM    4  C2  UNL     1      22.853  21.171  41.350  1.00  0.00     0.290 A 
HETATM    5  O1  UNL     1      23.113  21.156  42.579  1.00  0.00    -0.265 OA
HETATM    6  C3  UNL     1      22.119  22.218  40.855  1.00  0.00     0.147 A 
HETATM    7  N3  UNL     1      21.676  23.214  41.619  1.00  0.00    -0.349 N 
ATOM      8  H3  UNL     1      21.893  23.192  42.615  1.00  0.00     0.166 HD
HETATM    9  C4  UNL     1      20.956  24.251  41.145  1.00  0.00     0.057 A 
HETATM   10  C8  UNL     1      20.654  24.289  39.811  1.00  0.00     0.129 A 
HETATM   11  N7  UNL     1      21.123  23.244  39.033  1.00  0.00    -0.325 N 
ATOM     12  H7  UNL     1      20.912  23.252  38.035  1.00  0.00     0.169 HD
HETATM   13  C11 UNL     1      21.831  22.238  39.516  1.00  0.00     0.155 A 
HETATM   14  N8  UNL     1      22.286  21.223  38.739  1.00  0.00    -0.174 N 
ATOM     15  H8  UNL     1      22.071  21.244  37.743  1.00  0.00     0.186 HD
ENDROOT
BRANCH  10  16
HETATM   16  N5  UNL     1      19.943  25.128  39.272  1.00  0.00    -0.350 N 
HETATM   17  C9  UNL     1      19.493  26.323  38.885  1.00  0.00     0.122 C 
ATOM     18  H5  UNL     1      19.244  24.523  38.842  1.00  0.00     0.166 HD
BRANCH  17  19
HETATM   19  C10 UNL     1      18.026  26.357  38.389  1.00  0.00     0.356 C 
BRANCH  19  20
HETATM   20  N6  UNL     1      17.139  26.788  39.444  1.00  0.00    -0.048 N 
ATOM     21  H63 UNL     1      16.441  26.077  39.665  1.00  0.00     0.277 HD
ATOM     22  H62 UNL     1      17.614  26.822  40.347  1.00  0.00     0.277 HD
ATOM     23  H61 UNL     1      16.707  27.681  39.210  1.00  0.00     0.277 HD
ENDBRANCH  19  20
BRANCH  19  24
HETATM   24  O3  UNL     1      17.711  25.030  38.091  1.00  0.00    -0.366 OA
ATOM     25  H3  UNL     1      16.768  24.971  38.187  1.00  0.00     0.212 HD
ENDBRANCH  19  24
ENDBRANCH  17  19
ENDBRANCH  10  16
BRANCH   9  26
HETATM   26  C5  UNL     1      20.646  25.317  42.114  1.00  0.00     0.101 C 
BRANCH  26  27
HETATM   27  C6  UNL     1      21.297  25.135  43.466  1.00  0.00     0.249 C 
BRANCH  27  28
HETATM   28  N4  UNL     1      22.383  26.013  43.652  1.00  0.00    -0.069 N 
ATOM     29  H43 UNL     1      23.115  25.581  44.217  1.00  0.00     0.275 HD
ATOM     30  H42 UNL     1      22.905  26.146  42.785  1.00  0.00     0.275 HD
ATOM     31  H41 UNL     1      22.089  26.906  44.048  1.00  0.00     0.275 HD
ENDBRANCH  27  28
BRANCH  27  32
HETATM   32  C7  UNL     1      20.268  25.278  44.558  1.00  0.00     0.264 C 
HETATM   33  O2  UNL     1      20.492  24.898  45.688  1.00  0.00    -0.305 OA
ENDBRANCH  27  32
ENDBRANCH  26  27
ENDBRANCH   9  26
BRANCH   1  34
HETATM   34  N1  UNL     1      23.436  19.231  38.480  1.00  0.00    -0.234 N 
ATOM     35  H12 UNL     1      22.835  18.613  37.934  1.00  0.00     0.174 HD
ATOM     36  H11 UNL     1      24.442  19.062  38.434  1.00  0.00     0.174 HD
ENDBRANCH   1  34
TORSDOF 9
ENDMDL
MODEL 3
REMARK VINA RESULT: -7.610343418      2.121      2.552
REMARK  9 active torsions:
REMARK  status: ('A' for Active; 'I' for Inactive)
REMARK    1  A    between atoms: N1_1  and  C1_4 
REMARK    2  A    between atoms: C4_12  and  C5_13 
REMARK    3  A    between atoms: C5_13  and  C6_14 
REMARK    4  A    between atoms: C6_14  and  N4_15 
REMARK    5  A    between atoms: C6_14  and  C7_19 
REMARK    6  A    between atoms: C8_21  and  N5_22 
REMARK    7  A    between atoms: C9_24  and  C10_25 
REMARK    8  A    between atoms: C10_25  and  N6_26 
REMARK    9  A    between atoms: C10_25  and  O3_30 
ROOT
HETATM    1  C1  UNL     1      23.425  19.410  39.030  1.00  0.00     0.680 A 
HETATM    2  N2  UNL     1      23.663  19.392  40.349  1.00  0.00    -0.154 N 
ATOM      3  H2  UNL     1      24.144  18.587  40.751  1.00  0.00     0.187 HD
HETATM    4  C2  UNL     1      23.290  20.401  41.163  1.00  0.00     0.290 A 
HETATM    5  O1  UNL     1      23.518  20.375  42.398  1.00  0.00    -0.265 OA
HETATM    6  C3  UNL     1      22.643  21.494  40.646  1.00  0.00     0.147 A 
HETATM    7  N3  UNL     1      22.251  22.522  41.395  1.00  0.00    -0.349 N 
ATOM      8  H3  UNL     1      22.441  22.491  42.397  1.00  0.00     0.166 HD
HETATM    9  C4  UNL     1      21.615  23.604  40.899  1.00  0.00     0.057 A 
HETATM   10  C8  UNL     1      21.350  23.655  39.558  1.00  0.00     0.129 A 
HETATM   11  N7  UNL     1      21.766  22.577  38.796  1.00  0.00    -0.325 N 
ATOM     12  H7  UNL     1      21.581  22.594  37.793  1.00  0.00     0.169 HD
HETATM   13  C11 UNL     1      22.391  21.527  39.301  1.00  0.00     0.155 A 
HETATM   14  N8  UNL     1      22.794  20.479  38.539  1.00  0.00    -0.174 N 
ATOM     15  H8  UNL     1      22.606  20.510  37.537  1.00  0.00     0.186 HD
ENDROOT
BRANCH  10  16
HETATM   16  N5  UNL     1      20.713  24.539  38.999  1.00  0.00    -0.350 N 
HETATM   17  C9  UNL     1      20.072  25.695  38.818  1.00  0.00     0.122 C 
ATOM     18  H5  UNL     1      20.596  24.120  38.076  1.00  0.00     0.166 HD
BRANCH  17  19
HETATM   19  C10 UNL     1      19.129  25.752  37.590  1.00  0.00     0.356 C 
BRANCH  19  20
HETATM   20  N6  UNL     1      18.214  24.634  37.597  1.00  0.00    -0.048 N 
ATOM     21  H63 UNL     1      18.113  24.223  36.668  1.00  0.00     0.277 HD
ATOM     22  H62 UNL     1      18.607  23.826  38.080  1.00  0.00     0.277 HD
ATOM     23  H61 UNL     1      17.313  24.908  37.989  1.00  0.00     0.277 HD
ENDBRANCH  19  20
BRANCH  19  24
HETATM   24  O3  UNL     1      19.963  25.605  36.481  1.00  0.00    -0.366 OA
ATOM     25  H3  UNL     1      20.846  25.707  36.817  1.00  0.00     0.212 HD
ENDBRANCH  19  24
ENDBRANCH  17  19
ENDBRANCH  10  16
BRANCH   9  26
HETATM   26  C5  UNL     1      21.356  24.693  41.857  1.00  0.00     0.101 C 
BRANCH  26  27
HETATM   27  C6  UNL     1      22.556  25.565  42.146  1.00  0.00     0.249 C 
BRANCH  27  28
HETATM   28  N4  UNL     1      22.248  26.937  42.054  1.00  0.00    -0.069 N 
ATOM     29  H43 UNL     1      22.166  27.233  41.081  1.00  0.00     0.275 HD
ATOM     30  H42 UNL     1      21.292  27.123  42.360  1.00  0.00     0.275 HD
ATOM     31  H41 UNL     1      22.918  27.514  42.562  1.00  0.00     0.275 HD
ENDBRANCH  27  28
BRANCH  27  32
HETATM   32  C7  UNL     1      23.139  25.212  43.490  1.00  0.00     0.264 C 
HETATM   33  O2  UNL     1      23.879  24.261  43.627  1.00  0.00    -0.305 OA
ENDBRANCH  27  32
ENDBRANCH  26  27
ENDBRANCH   9  26
BRANCH   1  34
HETATM   34  N1  UNL     1      23.811  18.411  38.315  1.00  0.00    -0.234 N 
ATOM     35  H12 UNL     1      24.116  18.489  37.345  1.00  0.00     0.174 HD
ATOM     36  H11 UNL     1      23.817  17.480  38.732  1.00  0.00     0.174 HD
ENDBRANCH   1  34
TORSDOF 9
ENDMDL
MODEL 4
REMARK VINA RESULT: -7.549050107      4.461      7.106
REMARK  9 active torsions:
REMARK  status: ('A' for Active; 'I' for Inactive)
REMARK    1  A    between atoms: N1_1  and  C1_4 
REMARK    2  A    between atoms: C4_12  and  C5_13 
REMARK    3  A    between atoms: C5_13  and  C6_14 
REMARK    4  A    between atoms: C6_14  and  N4_15 
REMARK    5  A    between atoms: C6_14  and  C7_19 
REMARK    6  A    between atoms: C8_21  and  N5_22 
REMARK    7  A    between atoms: C9_24  and  C10_25 
REMARK    8  A    between atoms: C10_25  and  N6_26 
REMARK    9  A    between atoms: C10_25  and  O3_30 
ROOT
HETATM    1  C1  UNL     1      15.297  26.360  37.449  1.00  0.00     0.680 A 
HETATM    2  N2  UNL     1      15.213  26.851  38.693  1.00  0.00    -0.154 N 
ATOM      3  H2  UNL     1      14.299  27.119  39.056  1.00  0.00     0.187 HD
HETATM    4  C2  UNL     1      16.297  27.003  39.483  1.00  0.00     0.290 A 
HETATM    5  O1  UNL     1      16.208  27.465  40.648  1.00  0.00    -0.265 OA
HETATM    6  C3  UNL     1      17.538  26.651  39.017  1.00  0.00     0.147 A 
HETATM    7  N3  UNL     1      18.645  26.776  39.746  1.00  0.00    -0.349 N 
ATOM      8  H3  UNL     1      18.562  27.152  40.691  1.00  0.00     0.166 HD
HETATM    9  C4  UNL     1      19.870  26.431  39.302  1.00  0.00     0.057 A 
HETATM   10  C8  UNL     1      19.996  25.930  38.035  1.00  0.00     0.129 A 
HETATM   11  N7  UNL     1      18.833  25.808  37.292  1.00  0.00    -0.325 N 
ATOM     12  H7  UNL     1      18.902  25.435  36.346  1.00  0.00     0.169 HD
HETATM   13  C11 UNL     1      17.640  26.149  37.748  1.00  0.00     0.155 A 
HETATM   14  N8  UNL     1      16.510  26.020  37.008  1.00  0.00    -0.174 N 
ATOM     15  H8  UNL     1      16.592  25.643  36.063  1.00  0.00     0.186 HD
ENDROOT
BRANCH  10  16
HETATM   16  N5  UNL     1      21.056  25.656  37.487  1.00  0.00    -0.350 N 
HETATM   17  C9  UNL     1      21.964  25.520  36.519  1.00  0.00     0.122 C 
ATOM     18  H5  UNL     1      21.587  25.307  38.284  1.00  0.00     0.166 HD
BRANCH  17  19
HETATM   19  C10 UNL     1      23.153  24.582  36.845  1.00  0.00     0.356 C 
BRANCH  19  20
HETATM   20  N6  UNL     1      22.995  23.994  38.155  1.00  0.00    -0.048 N 
ATOM     21  H63 UNL     1      23.753  24.262  38.784  1.00  0.00     0.277 HD
ATOM     22  H62 UNL     1      22.218  24.412  38.667  1.00  0.00     0.277 HD
ATOM     23  H61 UNL     1      22.902  22.981  38.087  1.00  0.00     0.277 HD
ENDBRANCH  19  20
BRANCH  19  24
HETATM   24  O3  UNL     1      24.273  25.413  36.890  1.00  0.00    -0.366 OA
ATOM     25  H3  UNL     1      24.621  25.410  36.006  1.00  0.00     0.212 HD
ENDBRANCH  19  24
ENDBRANCH  17  19
ENDBRANCH  10  16
BRANCH   9  26
HETATM   26  C5  UNL     1      20.964  26.534  40.284  1.00  0.00     0.101 C 
BRANCH  26  27
HETATM   27  C6  UNL     1      21.786  27.796  40.169  1.00  0.00     0.249 C 
BRANCH  27  28
HETATM   28  N4  UNL     1      21.946  28.439  41.413  1.00  0.00    -0.069 N 
ATOM     29  H43 UNL     1      22.932  28.522  41.662  1.00  0.00     0.275 HD
ATOM     30  H42 UNL     1      21.711  29.430  41.351  1.00  0.00     0.275 HD
ATOM     31  H41 UNL     1      21.415  27.978  42.152  1.00  0.00     0.275 HD
ENDBRANCH  27  28
BRANCH  27  32
HETATM   32  C7  UNL     1      23.113  27.492  39.522  1.00  0.00     0.264 C 
HETATM   33  O2  UNL     1      23.386  27.909  38.417  1.00  0.00    -0.305 OA
ENDBRANCH  27  32
ENDBRANCH  26  27
ENDBRANCH   9  26
BRANCH   1  34
HETATM   34  N1  UNL     1      14.220  26.242  36.754  1.00  0.00    -0.234 N 
ATOM     35  H12 UNL     1      13.310  26.599  37.047  1.00  0.00     0.174 HD
ATOM     36  H11 UNL     1      14.264  25.765  35.853  1.00  0.00     0.174 HD
ENDBRANCH   1  34
TORSDOF 9
ENDMDL
MODEL 5
REMARK VINA RESULT: -7.510019271      3.788      6.416
REMARK  9 active torsions:
REMARK  status: ('A' for Active; 'I' for Inactive)
REMARK    1  A    between atoms: N1_1  and  C1_4 
REMARK    2  A    between atoms: C4_12  and  C5_13 
REMARK    3  A    between atoms: C5_13  and  C6_14 
REMARK    4  A    between atoms: C6_14  and  N4_15 
REMARK    5  A    between atoms: C6_14  and  C7_19 
REMARK    6  A    between atoms: C8_21  and  N5_22 
REMARK    7  A    between atoms: C9_24  and  C10_25 
REMARK    8  A    between atoms: C10_25  and  N6_26 
REMARK    9  A    between atoms: C10_25  and  O3_30 
ROOT
HETATM    1  C1  UNL     1      24.519  26.648  36.373  1.00  0.00     0.680 A 
HETATM    2  N2  UNL     1      23.612  27.107  35.499  1.00  0.00    -0.154 N 
ATOM      3  H2  UNL     1      23.934  27.627  34.684  1.00  0.00     0.187 HD
HETATM    4  C2  UNL     1      22.288  26.904  35.661  1.00  0.00     0.290 A 
HETATM    5  O1  UNL     1      21.446  27.338  34.836  1.00  0.00    -0.265 OA
HETATM    6  C3  UNL     1      21.831  26.207  36.750  1.00  0.00     0.147 A 
HETATM    7  N3  UNL     1      20.538  25.972  36.966  1.00  0.00    -0.349 N 
ATOM      8  H3  UNL     1      19.863  26.329  36.290  1.00  0.00     0.166 HD
HETATM    9  C4  UNL     1      20.075  25.287  38.031  1.00  0.00     0.057 A 
HETATM   10  C8  UNL     1      20.970  24.807  38.947  1.00  0.00     0.129 A 
HETATM   11  N7  UNL     1      22.310  25.061  38.705  1.00  0.00    -0.325 N 
ATOM     12  H7  UNL     1      22.996  24.712  39.373  1.00  0.00     0.169 HD
HETATM   13  C11 UNL     1      22.744  25.733  37.653  1.00  0.00     0.155 A 
HETATM   14  N8  UNL     1      24.061  25.971  37.429  1.00  0.00    -0.174 N 
ATOM     15  H8  UNL     1      24.738  25.614  38.103  1.00  0.00     0.186 HD
ENDROOT
BRANCH  10  16
HETATM   16  N5  UNL     1      20.676  24.242  39.992  1.00  0.00    -0.350 N 
HETATM   17  C9  UNL     1      20.546  24.024  41.303  1.00  0.00     0.122 C 
ATOM     18  H5  UNL     1      20.265  23.384  39.625  1.00  0.00     0.166 HD
BRANCH  17  19
HETATM   19  C10 UNL     1      20.280  22.554  41.713  1.00  0.00     0.356 C 
BRANCH  19  20
HETATM   20  N6  UNL     1      19.626  21.836  40.644  1.00  0.00    -0.048 N 
ATOM     21  H63 UNL     1      19.241  22.469  39.942  1.00  0.00     0.277 HD
ATOM     22  H62 UNL     1      20.296  21.343  40.054  1.00  0.00     0.277 HD
ATOM     23  H61 UNL     1      18.914  21.206  41.015  1.00  0.00     0.277 HD
ENDBRANCH  19  20
BRANCH  19  24
HETATM   24  O3  UNL     1      19.383  22.629  42.779  1.00  0.00    -0.366 OA
ATOM     25  H3  UNL     1      19.860  23.063  43.476  1.00  0.00     0.212 HD
ENDBRANCH  19  24
ENDBRANCH  17  19
ENDBRANCH  10  16
BRANCH   9  26
HETATM   26  C5  UNL     1      18.624  25.028  38.049  1.00  0.00     0.101 C 
BRANCH  26  27
HETATM   27  C6  UNL     1      17.771  26.274  38.002  1.00  0.00     0.249 C 
BRANCH  27  28
HETATM   28  N4  UNL     1      16.425  25.982  37.702  1.00  0.00    -0.069 N 
ATOM     29  H43 UNL     1      16.099  25.166  38.221  1.00  0.00     0.275 HD
ATOM     30  H42 UNL     1      15.797  26.684  38.095  1.00  0.00     0.275 HD
ATOM     31  H41 UNL     1      16.272  25.868  36.700  1.00  0.00     0.275 HD
ENDBRANCH  27  28
BRANCH  27  32
HETATM   32  C7  UNL     1      17.902  27.038  39.295  1.00  0.00     0.264 C 
HETATM   33  O2  UNL     1      16.924  27.400  39.915  1.00  0.00    -0.305 OA
ENDBRANCH  27  32
ENDBRANCH  26  27
ENDBRANCH   9  26
BRANCH   1  34
HETATM   34  N1  UNL     1      25.766  26.879  36.153  1.00  0.00    -0.234 N 
ATOM     35  H12 UNL     1      26.112  27.458  35.387  1.00  0.00     0.174 HD
ATOM     36  H11 UNL     1      26.461  26.466  36.775  1.00  0.00     0.174 HD
ENDBRANCH   1  34
TORSDOF 9
ENDMDL
