MODEL 1
REMARK VINA RESULT: -8.593814284      0.000      0.000
REMARK  10 active torsions:
REMARK  status: ('A' for Active; 'I' for Inactive)
REMARK    1  A    between atoms: O1_2  and  C2_3 
REMARK    2  A    between atoms: C2_3  and  O2_4 
REMARK    3  A    between atoms: C2_3  and  C3_6 
REMARK    4  A    between atoms: C3_6  and  O3_7 
REMARK    5  A    between atoms: C3_6  and  C4_9 
REMARK    6  A    between atoms: C4_9  and  C5_13 
REMARK    7  A    between atoms: C5_13  and  O4_14 
REMARK    8  A    between atoms: N3_19  and  C7_20 
REMARK    9  A    between atoms: C8_23  and  N5_24 
REMARK   10  A    between atoms: N6_26  and  C9_28 
ROOT
HETATM    1  C7  UNL     1      -4.031 -43.330  23.753  1.00  0.00     0.728 A 
HETATM    2  N4  UNL     1      -3.251 -43.768  22.745  1.00  0.00    -0.018 N 
ATOM      3  H4  UNL     1      -2.821 -43.082  22.124  1.00  0.00     0.203 HD
HETATM    4  C8  UNL     1      -3.013 -45.092  22.523  1.00  0.00     0.726 A 
HETATM    5  N11 UNL     1      -3.568 -46.008  23.328  1.00  0.00    -0.020 N 
ATOM      6  H11 UNL     1      -3.401 -47.003  23.176  1.00  0.00     0.203 HD
HETATM    7  C13 UNL     1      -4.350 -45.595  24.339  1.00  0.00     0.705 A 
HETATM    8  N12 UNL     1      -4.878 -46.468  25.102  1.00  0.00    -0.234 N 
ATOM      9 1H12 UNL     1      -5.471 -46.154  25.869  1.00  0.00     0.174 HD
ATOM     10 2H12 UNL     1      -4.708 -47.462  24.948  1.00  0.00     0.174 HD
HETATM   11  N13 UNL     1      -4.577 -44.263  24.545  1.00  0.00    -0.020 N 
ATOM     12  H13 UNL     1      -5.175 -43.973  25.319  1.00  0.00     0.203 HD
ENDROOT
BRANCH   1  13
HETATM   13  N3  UNL     1      -4.253 -41.921  23.946  1.00  0.00    -0.123 N 
HETATM   14  N2  UNL     1      -4.256 -41.035  22.869  1.00  0.00    -0.296 N 
HETATM   15  C6  UNL     1      -3.993 -39.770  22.972  1.00  0.00     0.124 C 
ATOM     16  H2  UNL     1      -4.478 -41.405  21.945  1.00  0.00     0.186 HD
HETATM   17  C5  UNL     1      -3.677 -39.258  24.296  1.00  0.00     0.133 C 
HETATM   18  C15 UNL     1      -4.416 -39.947  25.406  1.00  0.00     0.072 C 
HETATM   19  C14 UNL     1      -4.470 -41.433  25.262  1.00  0.00     0.172 C 
BRANCH  17  20
HETATM   20  C4  UNL     1      -3.985 -37.769  24.316  1.00  0.00     0.054 C 
HETATM   21  N1  UNL     1      -5.174 -37.395  24.258  1.00  0.00    -0.401 N 
ATOM     22  H12 UNL     1      -5.381 -36.396  24.272  1.00  0.00     0.155 HD
ATOM     23  H11 UNL     1      -5.975 -38.019  24.160  1.00  0.00     0.155 HD
BRANCH  20  24
HETATM   24  C3  UNL     1      -2.839 -36.877  24.456  1.00  0.00     0.221 C 
BRANCH  24  25
HETATM   25  C2  UNL     1      -2.952 -35.488  23.954  1.00  0.00     0.290 C 
BRANCH  25  26
HETATM   26  O1  UNL     1      -1.787 -34.804  23.727  1.00  0.00    -0.363 OA
HETATM   27  C1  UNL     1      -1.636 -33.674  24.505  1.00  0.00     0.204 C 
ENDBRANCH  25  26
BRANCH  25  28
HETATM   28  O2  UNL     1      -3.606 -34.769  25.044  1.00  0.00    -0.368 OA
ATOM     29  H2  UNL     1      -3.241 -35.142  25.837  1.00  0.00     0.212 HD
ENDBRANCH  25  28
ENDBRANCH  24  25
BRANCH  24  30
HETATM   30  O3  UNL     1      -2.556 -36.713  25.865  1.00  0.00    -0.385 OA
ATOM     31  H3  UNL     1      -2.296 -37.582  26.147  1.00  0.00     0.210 HD
ENDBRANCH  24  30
ENDBRANCH  20  24
ENDBRANCH  17  20
BRANCH  17  32
HETATM   32  O4  UNL     1      -2.297 -39.346  24.493  1.00  0.00    -0.378 OA
ATOM     33  H4  UNL     1      -1.958 -39.744  23.699  1.00  0.00     0.211 HD
ENDBRANCH  17  32
ENDBRANCH   1  13
BRANCH   4  34
HETATM   34  N5  UNL     1      -2.168 -45.385  21.421  1.00  0.00    -0.117 N 
HETATM   35  N6  UNL     1      -0.971 -45.014  21.366  1.00  0.00    -0.116 N 
ATOM     36  H6  UNL     1      -0.427 -45.263  20.540  1.00  0.00     0.206 HD
ATOM     37  H5  UNL     1      -2.550 -45.920  20.642  1.00  0.00     0.206 HD
BRANCH  35  38
HETATM   38  C9  UNL     1      -0.332 -44.267  22.390  1.00  0.00     0.713 A 
HETATM   39  N7  UNL     1       0.014 -42.987  22.155  1.00  0.00    -0.172 N 
HETATM   40  C10 UNL     1       0.614 -42.221  23.051  1.00  0.00     0.138 A 
ATOM     41  H7  UNL     1      -0.197 -42.589  21.240  1.00  0.00     0.186 HD
HETATM   42  N8  UNL     1       0.934 -41.001  22.802  1.00  0.00    -0.383 N 
HETATM   43  C11 UNL     1       0.902 -42.760  24.291  1.00  0.00     0.066 A 
ATOM     44  H82 UNL     1       0.722 -40.603  21.886  1.00  0.00     0.157 HD
ATOM     45  H81 UNL     1       1.396 -40.410  23.493  1.00  0.00     0.157 HD
HETATM   46  C12 UNL     1       1.570 -41.932  25.312  1.00  0.00     0.074 C 
HETATM   47  N9  UNL     1       0.550 -44.041  24.509  1.00  0.00    -0.287 N 
HETATM   48  N10 UNL     1      -0.049 -44.788  23.599  1.00  0.00    -0.130 N 
ATOM     49  H9  UNL     1       0.754 -44.454  25.419  1.00  0.00     0.187 HD
ATOM     50  H10 UNL     1      -0.297 -45.754  23.812  1.00  0.00     0.205 HD
ENDBRANCH  35  38
ENDBRANCH   4  34
TORSDOF 10
ENDMDL
MODEL 2
REMARK VINA RESULT: -7.872225659      1.021      1.654
REMARK  10 active torsions:
REMARK  status: ('A' for Active; 'I' for Inactive)
REMARK    1  A    between atoms: O1_2  and  C2_3 
REMARK    2  A    between atoms: C2_3  and  O2_4 
REMARK    3  A    between atoms: C2_3  and  C3_6 
REMARK    4  A    between atoms: C3_6  and  O3_7 
REMARK    5  A    between atoms: C3_6  and  C4_9 
REMARK    6  A    between atoms: C4_9  and  C5_13 
REMARK    7  A    between atoms: C5_13  and  O4_14 
REMARK    8  A    between atoms: N3_19  and  C7_20 
REMARK    9  A    between atoms: C8_23  and  N5_24 
REMARK   10  A    between atoms: N6_26  and  C9_28 
ROOT
HETATM    1  C7  UNL     1      -4.004 -43.488  23.673  1.00  0.00     0.728 A 
HETATM    2  N4  UNL     1      -3.173 -43.831  22.670  1.00  0.00    -0.018 N 
ATOM      3  H4  UNL     1      -2.758 -43.092  22.102  1.00  0.00     0.203 HD
HETATM    4  C8  UNL     1      -2.864 -45.128  22.383  1.00  0.00     0.726 A 
HETATM    5  N11 UNL     1      -3.399 -46.113  23.118  1.00  0.00    -0.020 N 
ATOM      6  H11 UNL     1      -3.179 -47.088  22.916  1.00  0.00     0.203 HD
HETATM    7  C13 UNL     1      -4.231 -45.794  24.123  1.00  0.00     0.705 A 
HETATM    8  N12 UNL     1      -4.739 -46.733  24.819  1.00  0.00    -0.234 N 
ATOM      9 1H12 UNL     1      -5.370 -46.490  25.582  1.00  0.00     0.174 HD
ATOM     10 2H12 UNL     1      -4.517 -47.708  24.616  1.00  0.00     0.174 HD
HETATM   11  N13 UNL     1      -4.528 -44.488  24.394  1.00  0.00    -0.020 N 
ATOM     12  H13 UNL     1      -5.163 -44.271  25.162  1.00  0.00     0.203 HD
ENDROOT
BRANCH   1  13
HETATM   13  N3  UNL     1      -4.299 -42.104  23.936  1.00  0.00    -0.123 N 
HETATM   14  N2  UNL     1      -4.313 -41.160  22.910  1.00  0.00    -0.296 N 
HETATM   15  C6  UNL     1      -4.115 -39.891  23.091  1.00  0.00     0.124 C 
ATOM     16  H2  UNL     1      -4.490 -41.486  21.959  1.00  0.00     0.186 HD
HETATM   17  C5  UNL     1      -3.864 -39.441  24.450  1.00  0.00     0.133 C 
HETATM   18  C15 UNL     1      -4.603 -40.225  25.496  1.00  0.00     0.072 C 
HETATM   19  C14 UNL     1      -4.580 -41.701  25.269  1.00  0.00     0.172 C 
BRANCH  17  20
HETATM   20  C4  UNL     1      -4.245 -37.971  24.542  1.00  0.00     0.054 C 
HETATM   21  N1  UNL     1      -5.398 -37.622  24.219  1.00  0.00    -0.401 N 
ATOM     22  H12 UNL     1      -5.653 -36.636  24.281  1.00  0.00     0.155 HD
ATOM     23  H11 UNL     1      -6.115 -38.251  23.855  1.00  0.00     0.155 HD
BRANCH  20  24
HETATM   24  C3  UNL     1      -3.219 -37.072  25.061  1.00  0.00     0.221 C 
BRANCH  24  25
HETATM   25  C2  UNL     1      -2.395 -37.518  26.208  1.00  0.00     0.290 C 
BRANCH  25  26
HETATM   26  O1  UNL     1      -3.039 -37.751  27.394  1.00  0.00    -0.363 OA
HETATM   27  C1  UNL     1      -2.447 -38.720  28.177  1.00  0.00     0.204 C 
ENDBRANCH  25  26
BRANCH  25  28
HETATM   28  O2  UNL     1      -1.514 -36.384  26.473  1.00  0.00    -0.368 OA
ATOM     29  H2  UNL     1      -1.767 -35.724  25.839  1.00  0.00     0.212 HD
ENDBRANCH  25  28
ENDBRANCH  24  25
BRANCH  24  30
HETATM   30  O3  UNL     1      -2.253 -36.827  24.014  1.00  0.00    -0.385 OA
ATOM     31  H3  UNL     1      -1.506 -36.463  24.475  1.00  0.00     0.210 HD
ENDBRANCH  24  30
ENDBRANCH  20  24
ENDBRANCH  17  20
BRANCH  17  32
HETATM   32  O4  UNL     1      -2.488 -39.475  24.687  1.00  0.00    -0.378 OA
ATOM     33  H4  UNL     1      -2.379 -40.063  25.425  1.00  0.00     0.211 HD
ENDBRANCH  17  32
ENDBRANCH   1  13
BRANCH   4  34
HETATM   34  N5  UNL     1      -1.973 -45.319  21.296  1.00  0.00    -0.117 N 
HETATM   35  N6  UNL     1      -0.791 -44.898  21.305  1.00  0.00    -0.116 N 
ATOM     36  H6  UNL     1      -0.210 -45.074  20.485  1.00  0.00     0.206 HD
ATOM     37  H5  UNL     1      -2.307 -45.819  20.472  1.00  0.00     0.206 HD
BRANCH  35  38
HETATM   38  C9  UNL     1      -0.217 -44.192  22.394  1.00  0.00     0.713 A 
HETATM   39  N7  UNL     1       0.160 -42.910  22.224  1.00  0.00    -0.172 N 
HETATM   40  C10 UNL     1       0.704 -42.180  23.184  1.00  0.00     0.138 A 
ATOM     41  H7  UNL     1       0.019 -42.481  21.310  1.00  0.00     0.186 HD
HETATM   42  N8  UNL     1       1.055 -40.957  22.995  1.00  0.00    -0.383 N 
HETATM   43  C11 UNL     1       0.897 -42.760  24.424  1.00  0.00     0.066 A 
ATOM     44  H82 UNL     1       0.913 -40.529  22.080  1.00  0.00     0.157 HD
ATOM     45  H81 UNL     1       1.475 -40.394  23.735  1.00  0.00     0.157 HD
HETATM   46  C12 UNL     1       1.502 -41.973  25.514  1.00  0.00     0.074 C 
HETATM   47  N9  UNL     1       0.515 -44.042  24.576  1.00  0.00    -0.287 N 
HETATM   48  N10 UNL     1      -0.027 -44.753  23.603  1.00  0.00    -0.130 N 
ATOM     49  H9  UNL     1       0.650 -44.486  25.484  1.00  0.00     0.187 HD
ATOM     50  H10 UNL     1      -0.301 -45.721  23.768  1.00  0.00     0.205 HD
ENDBRANCH  35  38
ENDBRANCH   4  34
TORSDOF 10
ENDMDL
MODEL 3
REMARK VINA RESULT: -7.854868498      5.174      7.030
REMARK  10 active torsions:
REMARK  status: ('A' for Active; 'I' for Inactive)
REMARK    1  A    between atoms: O1_2  and  C2_3 
REMARK    2  A    between atoms: C2_3  and  O2_4 
REMARK    3  A    between atoms: C2_3  and  C3_6 
REMARK    4  A    between atoms: C3_6  and  O3_7 
REMARK    5  A    between atoms: C3_6  and  C4_9 
REMARK    6  A    between atoms: C4_9  and  C5_13 
REMARK    7  A    between atoms: C5_13  and  O4_14 
REMARK    8  A    between atoms: N3_19  and  C7_20 
REMARK    9  A    between atoms: C8_23  and  N5_24 
REMARK   10  A    between atoms: N6_26  and  C9_28 
ROOT
HETATM    1  C7  UNL     1      -4.685 -42.391  25.920  1.00  0.00     0.728 A 
HETATM    2  N4  UNL     1      -4.733 -43.348  24.973  1.00  0.00    -0.018 N 
ATOM      3  H4  UNL     1      -4.813 -44.323  25.266  1.00  0.00     0.203 HD
HETATM    4  C8  UNL     1      -4.679 -43.067  23.640  1.00  0.00     0.726 A 
HETATM    5  N11 UNL     1      -4.573 -41.793  23.237  1.00  0.00    -0.020 N 
ATOM      6  H11 UNL     1      -4.530 -41.566  22.244  1.00  0.00     0.203 HD
HETATM    7  C13 UNL     1      -4.523 -40.822  24.163  1.00  0.00     0.705 A 
HETATM    8  N12 UNL     1      -4.422 -39.612  23.776  1.00  0.00    -0.234 N 
ATOM      9 1H12 UNL     1      -4.384 -38.875  24.480  1.00  0.00     0.174 HD
ATOM     10 2H12 UNL     1      -4.380 -39.386  22.782  1.00  0.00     0.174 HD
HETATM   11  N13 UNL     1      -4.579 -41.124  25.495  1.00  0.00    -0.020 N 
ATOM     12  H13 UNL     1      -4.538 -40.369  26.179  1.00  0.00     0.203 HD
ENDROOT
BRANCH   1  13
HETATM   13  N3  UNL     1      -4.746 -42.739  27.315  1.00  0.00    -0.123 N 
HETATM   14  N2  UNL     1      -4.866 -44.066  27.725  1.00  0.00    -0.296 N 
HETATM   15  C6  UNL     1      -5.370 -44.430  28.863  1.00  0.00     0.124 C 
ATOM     16  H2  UNL     1      -4.537 -44.795  27.092  1.00  0.00     0.186 HD
HETATM   17  C5  UNL     1      -5.835 -43.380  29.754  1.00  0.00     0.133 C 
HETATM   18  C15 UNL     1      -5.026 -42.116  29.680  1.00  0.00     0.072 C 
HETATM   19  C14 UNL     1      -4.683 -41.703  28.286  1.00  0.00     0.172 C 
BRANCH  17  20
HETATM   20  C4  UNL     1      -5.819 -43.920  31.175  1.00  0.00     0.054 C 
HETATM   21  N1  UNL     1      -5.529 -45.119  31.365  1.00  0.00    -0.401 N 
ATOM     22  H12 UNL     1      -5.518 -45.481  32.318  1.00  0.00     0.155 HD
ATOM     23  H11 UNL     1      -5.332 -45.793  30.625  1.00  0.00     0.155 HD
BRANCH  20  24
HETATM   24  C3  UNL     1      -6.101 -42.956  32.234  1.00  0.00     0.221 C 
BRANCH  24  25
HETATM   25  C2  UNL     1      -7.227 -43.223  33.159  1.00  0.00     0.290 C 
BRANCH  25  26
HETATM   26  O1  UNL     1      -7.879 -42.140  33.686  1.00  0.00    -0.363 OA
HETATM   27  C1  UNL     1      -8.688 -42.438  34.763  1.00  0.00     0.204 C 
ENDBRANCH  25  26
BRANCH  25  28
HETATM   28  O2  UNL     1      -6.598 -43.878  34.302  1.00  0.00    -0.368 OA
ATOM     29  H2  UNL     1      -5.664 -43.788  34.153  1.00  0.00     0.212 HD
ENDBRANCH  25  28
ENDBRANCH  24  25
BRANCH  24  30
HETATM   30  O3  UNL     1      -4.948 -42.881  33.104  1.00  0.00    -0.385 OA
ATOM     31  H3  UNL     1      -4.696 -41.966  33.068  1.00  0.00     0.210 HD
ENDBRANCH  24  30
ENDBRANCH  20  24
ENDBRANCH  17  20
BRANCH  17  32
HETATM   32  O4  UNL     1      -7.180 -43.121  29.479  1.00  0.00    -0.378 OA
ATOM     33  H4  UNL     1      -7.254 -43.175  28.534  1.00  0.00     0.211 HD
ENDBRANCH  17  32
ENDBRANCH   1  13
BRANCH   4  34
HETATM   34  N5  UNL     1      -4.742 -44.190  22.775  1.00  0.00    -0.117 N 
HETATM   35  N6  UNL     1      -3.718 -44.781  22.355  1.00  0.00    -0.116 N 
ATOM     36  H6  UNL     1      -3.845 -45.582  21.735  1.00  0.00     0.206 HD
ATOM     37  H5  UNL     1      -5.658 -44.531  22.483  1.00  0.00     0.206 HD
BRANCH  35  38
HETATM   38  C9  UNL     1      -2.395 -44.399  22.694  1.00  0.00     0.713 A 
HETATM   39  N7  UNL     1      -1.859 -43.302  22.125  1.00  0.00    -0.172 N 
HETATM   40  C10 UNL     1      -0.633 -42.876  22.382  1.00  0.00     0.138 A 
ATOM     41  H7  UNL     1      -2.426 -42.774  21.462  1.00  0.00     0.186 HD
HETATM   42  N8  UNL     1      -0.144 -41.825  21.825  1.00  0.00    -0.383 N 
HETATM   43  C11 UNL     1       0.138 -43.592  23.280  1.00  0.00     0.066 A 
ATOM     44  H82 UNL     1      -0.713 -41.297  21.163  1.00  0.00     0.157 HD
ATOM     45  H81 UNL     1       0.801 -41.497  22.024  1.00  0.00     0.157 HD
HETATM   46  C12 UNL     1       1.508 -43.144  23.588  1.00  0.00     0.074 C 
HETATM   47  N9  UNL     1      -0.414 -44.686  23.839  1.00  0.00    -0.287 N 
HETATM   48  N10 UNL     1      -1.640 -45.093  23.567  1.00  0.00    -0.130 N 
ATOM     49  H9  UNL     1       0.141 -45.225  24.503  1.00  0.00     0.187 HD
ATOM     50  H10 UNL     1      -2.015 -45.928  24.017  1.00  0.00     0.205 HD
ENDBRANCH  35  38
ENDBRANCH   4  34
TORSDOF 10
ENDMDL
MODEL 4
REMARK VINA RESULT: -7.819728370      1.677      2.651
REMARK  10 active torsions:
REMARK  status: ('A' for Active; 'I' for Inactive)
REMARK    1  A    between atoms: O1_2  and  C2_3 
REMARK    2  A    between atoms: C2_3  and  O2_4 
REMARK    3  A    between atoms: C2_3  and  C3_6 
REMARK    4  A    between atoms: C3_6  and  O3_7 
REMARK    5  A    between atoms: C3_6  and  C4_9 
REMARK    6  A    between atoms: C4_9  and  C5_13 
REMARK    7  A    between atoms: C5_13  and  O4_14 
REMARK    8  A    between atoms: N3_19  and  C7_20 
REMARK    9  A    between atoms: C8_23  and  N5_24 
REMARK   10  A    between atoms: N6_26  and  C9_28 
ROOT
HETATM    1  C7  UNL     1      -4.989 -42.180  24.451  1.00  0.00     0.728 A 
HETATM    2  N4  UNL     1      -4.213 -43.196  24.877  1.00  0.00    -0.018 N 
ATOM      3  H4  UNL     1      -3.339 -42.977  25.357  1.00  0.00     0.203 HD
HETATM    4  C8  UNL     1      -4.549 -44.504  24.692  1.00  0.00     0.726 A 
HETATM    5  N11 UNL     1      -5.692 -44.811  24.064  1.00  0.00    -0.020 N 
ATOM      6  H11 UNL     1      -5.958 -45.784  23.917  1.00  0.00     0.203 HD
HETATM    7  C13 UNL     1      -6.481 -43.814  23.631  1.00  0.00     0.705 A 
HETATM    8  N12 UNL     1      -7.568 -44.109  23.033  1.00  0.00    -0.234 N 
ATOM      9 1H12 UNL     1      -8.166 -43.352  22.704  1.00  0.00     0.174 HD
ATOM     10 2H12 UNL     1      -7.832 -45.084  22.887  1.00  0.00     0.174 HD
HETATM   11  N13 UNL     1      -6.127 -42.509  23.825  1.00  0.00    -0.020 N 
ATOM     12  H13 UNL     1      -6.742 -41.769  23.486  1.00  0.00     0.203 HD
ENDROOT
BRANCH   1  13
HETATM   13  N3  UNL     1      -4.590 -40.814  24.670  1.00  0.00    -0.123 N 
HETATM   14  N2  UNL     1      -5.365 -39.950  25.443  1.00  0.00    -0.296 N 
HETATM   15  C6  UNL     1      -5.346 -38.659  25.324  1.00  0.00     0.124 C 
ATOM     16  H2  UNL     1      -5.984 -40.357  26.144  1.00  0.00     0.186 HD
HETATM   17  C5  UNL     1      -4.459 -38.093  24.321  1.00  0.00     0.133 C 
HETATM   18  C15 UNL     1      -3.186 -38.867  24.128  1.00  0.00     0.072 C 
HETATM   19  C14 UNL     1      -3.384 -40.347  24.083  1.00  0.00     0.172 C 
BRANCH  17  20
HETATM   20  C4  UNL     1      -4.137 -36.662  24.724  1.00  0.00     0.054 C 
HETATM   21  N1  UNL     1      -5.048 -35.939  25.175  1.00  0.00    -0.401 N 
ATOM     22  H12 UNL     1      -4.831 -34.980  25.446  1.00  0.00     0.155 HD
ATOM     23  H11 UNL     1      -6.023 -36.223  25.266  1.00  0.00     0.155 HD
BRANCH  20  24
HETATM   24  C3  UNL     1      -2.741 -36.256  24.594  1.00  0.00     0.221 C 
BRANCH  24  25
HETATM   25  C2  UNL     1      -2.438 -34.905  24.068  1.00  0.00     0.290 C 
BRANCH  25  26
HETATM   26  O1  UNL     1      -1.130 -34.619  23.782  1.00  0.00    -0.363 OA
HETATM   27  C1  UNL     1      -0.575 -33.647  24.589  1.00  0.00     0.204 C 
ENDBRANCH  25  26
BRANCH  25  28
HETATM   28  O2  UNL     1      -2.788 -34.010  25.168  1.00  0.00    -0.368 OA
ATOM     29  H2  UNL     1      -3.535 -34.419  25.588  1.00  0.00     0.212 HD
ENDBRANCH  25  28
ENDBRANCH  24  25
BRANCH  24  30
HETATM   30  O3  UNL     1      -2.139 -36.258  25.909  1.00  0.00    -0.385 OA
ATOM     31  H3  UNL     1      -2.169 -37.171  26.171  1.00  0.00     0.210 HD
ENDBRANCH  24  30
ENDBRANCH  20  24
ENDBRANCH  17  20
BRANCH  17  32
HETATM   32  O4  UNL     1      -5.157 -37.983  23.116  1.00  0.00    -0.378 OA
ATOM     33  H4  UNL     1      -5.436 -38.867  22.910  1.00  0.00     0.211 HD
ENDBRANCH  17  32
ENDBRANCH   1  13
BRANCH   4  34
HETATM   34  N5  UNL     1      -3.623 -45.451  25.201  1.00  0.00    -0.117 N 
HETATM   35  N6  UNL     1      -2.524 -45.693  24.646  1.00  0.00    -0.116 N 
ATOM     36  H6  UNL     1      -1.911 -46.388  25.072  1.00  0.00     0.206 HD
ATOM     37  H5  UNL     1      -3.860 -45.956  26.055  1.00  0.00     0.206 HD
BRANCH  35  38
HETATM   38  C9  UNL     1      -2.087 -45.052  23.457  1.00  0.00     0.713 A 
HETATM   39  N7  UNL     1      -1.478 -43.854  23.539  1.00  0.00    -0.172 N 
HETATM   40  C10 UNL     1      -1.041 -43.187  22.483  1.00  0.00     0.138 A 
ATOM     41  H7  UNL     1      -1.347 -43.440  24.462  1.00  0.00     0.186 HD
HETATM   42  N8  UNL     1      -0.463 -42.044  22.589  1.00  0.00    -0.383 N 
HETATM   43  C11 UNL     1      -1.219 -43.747  21.231  1.00  0.00     0.066 A 
ATOM     44  H82 UNL     1      -0.331 -41.631  23.512  1.00  0.00     0.157 HD
ATOM     45  H81 UNL     1      -0.126 -41.530  21.774  1.00  0.00     0.157 HD
HETATM   46  C12 UNL     1      -0.745 -43.030  20.035  1.00  0.00     0.074 C 
HETATM   47  N9  UNL     1      -1.831 -44.946  21.168  1.00  0.00    -0.287 N 
HETATM   48  N10 UNL     1      -2.258 -45.594  22.236  1.00  0.00    -0.130 N 
ATOM     49  H9  UNL     1      -1.969 -45.373  20.252  1.00  0.00     0.187 HD
ATOM     50  H10 UNL     1      -2.715 -46.500  22.137  1.00  0.00     0.205 HD
ENDBRANCH  35  38
ENDBRANCH   4  34
TORSDOF 10
ENDMDL
MODEL 5
REMARK VINA RESULT: -7.737095987      3.705      5.573
REMARK  10 active torsions:
REMARK  status: ('A' for Active; 'I' for Inactive)
REMARK    1  A    between atoms: O1_2  and  C2_3 
REMARK    2  A    between atoms: C2_3  and  O2_4 
REMARK    3  A    between atoms: C2_3  and  C3_6 
REMARK    4  A    between atoms: C3_6  and  O3_7 
REMARK    5  A    between atoms: C3_6  and  C4_9 
REMARK    6  A    between atoms: C4_9  and  C5_13 
REMARK    7  A    between atoms: C5_13  and  O4_14 
REMARK    8  A    between atoms: N3_19  and  C7_20 
REMARK    9  A    between atoms: C8_23  and  N5_24 
REMARK   10  A    between atoms: N6_26  and  C9_28 
ROOT
HETATM    1  C7  UNL     1      -2.905 -39.813  24.628  1.00  0.00     0.728 A 
HETATM    2  N4  UNL     1      -3.434 -40.984  25.035  1.00  0.00    -0.018 N 
ATOM      3  H4  UNL     1      -3.110 -41.388  25.914  1.00  0.00     0.203 HD
HETATM    4  C8  UNL     1      -4.384 -41.649  24.319  1.00  0.00     0.726 A 
HETATM    5  N11 UNL     1      -4.822 -41.134  23.161  1.00  0.00    -0.020 N 
ATOM      6  H11 UNL     1      -5.532 -41.619  22.613  1.00  0.00     0.203 HD
HETATM    7  C13 UNL     1      -4.309 -39.968  22.736  1.00  0.00     0.705 A 
HETATM    8  N12 UNL     1      -4.726 -39.481  21.635  1.00  0.00    -0.234 N 
ATOM      9 1H12 UNL     1      -4.336 -38.596  21.312  1.00  0.00     0.174 HD
ATOM     10 2H12 UNL     1      -5.437 -39.968  21.088  1.00  0.00     0.174 HD
HETATM   11  N13 UNL     1      -3.357 -39.316  23.468  1.00  0.00    -0.020 N 
ATOM     12  H13 UNL     1      -2.981 -38.433  23.124  1.00  0.00     0.203 HD
ENDROOT
BRANCH   1  13
HETATM   13  N3  UNL     1      -1.904 -39.149  25.420  1.00  0.00    -0.123 N 
HETATM   14  N2  UNL     1      -0.984 -39.873  26.178  1.00  0.00    -0.296 N 
HETATM   15  C6  UNL     1      -0.382 -39.404  27.226  1.00  0.00     0.124 C 
ATOM     16  H2  UNL     1      -0.772 -40.828  25.891  1.00  0.00     0.186 HD
HETATM   17  C5  UNL     1      -0.694 -38.040  27.623  1.00  0.00     0.133 C 
HETATM   18  C15 UNL     1      -0.983 -37.122  26.470  1.00  0.00     0.072 C 
HETATM   19  C14 UNL     1      -1.860 -37.729  25.423  1.00  0.00     0.172 C 
BRANCH  17  20
HETATM   20  C4  UNL     1       0.474 -37.501  28.432  1.00  0.00     0.054 C 
HETATM   21  N1  UNL     1       1.363 -36.846  27.851  1.00  0.00    -0.401 N 
ATOM     22  H12 UNL     1       2.147 -36.484  28.394  1.00  0.00     0.155 HD
ATOM     23  H11 UNL     1       1.391 -36.668  26.847  1.00  0.00     0.155 HD
BRANCH  20  24
HETATM   24  C3  UNL     1       0.435 -37.756  29.868  1.00  0.00     0.221 C 
BRANCH  24  25
HETATM   25  C2  UNL     1       1.709 -37.995  30.585  1.00  0.00     0.290 C 
BRANCH  25  26
HETATM   26  O1  UNL     1       1.685 -38.870  31.639  1.00  0.00    -0.363 OA
HETATM   27  C1  UNL     1       2.712 -39.791  31.631  1.00  0.00     0.204 C 
ENDBRANCH  25  26
BRANCH  25  28
HETATM   28  O2  UNL     1       2.031 -36.700  31.177  1.00  0.00    -0.368 OA
ATOM     29  H2  UNL     1       1.930 -36.075  30.469  1.00  0.00     0.212 HD
ENDBRANCH  25  28
ENDBRANCH  24  25
BRANCH  24  30
HETATM   30  O3  UNL     1      -0.118 -36.593  30.525  1.00  0.00    -0.385 OA
ATOM     31  H3  UNL     1      -0.412 -36.045  29.807  1.00  0.00     0.210 HD
ENDBRANCH  24  30
ENDBRANCH  20  24
ENDBRANCH  17  20
BRANCH  17  32
HETATM   32  O4  UNL     1      -1.771 -38.068  28.513  1.00  0.00    -0.378 OA
ATOM     33  H4  UNL     1      -2.523 -37.799  28.000  1.00  0.00     0.211 HD
ENDBRANCH  17  32
ENDBRANCH   1  13
BRANCH   4  34
HETATM   34  N5  UNL     1      -4.837 -42.868  24.887  1.00  0.00    -0.117 N 
HETATM   35  N6  UNL     1      -4.284 -43.971  24.658  1.00  0.00    -0.116 N 
ATOM     36  H6  UNL     1      -4.667 -44.804  25.104  1.00  0.00     0.206 HD
ATOM     37  H5  UNL     1      -5.645 -42.847  25.509  1.00  0.00     0.206 HD
BRANCH  35  38
HETATM   38  C9  UNL     1      -3.154 -44.122  23.812  1.00  0.00     0.713 A 
HETATM   39  N7  UNL     1      -1.919 -44.047  24.342  1.00  0.00    -0.172 N 
HETATM   40  C10 UNL     1      -0.813 -44.175  23.627  1.00  0.00     0.138 A 
ATOM     41  H7  UNL     1      -1.831 -43.883  25.345  1.00  0.00     0.186 HD
HETATM   42  N8  UNL     1       0.356 -44.098  24.158  1.00  0.00    -0.383 N 
HETATM   43  C11 UNL     1      -0.930 -44.396  22.268  1.00  0.00     0.066 A 
ATOM     44  H82 UNL     1       0.442 -43.935  25.162  1.00  0.00     0.157 HD
ATOM     45  H81 UNL     1       1.209 -44.197  23.607  1.00  0.00     0.157 HD
HETATM   46  C12 UNL     1       0.283 -44.543  21.443  1.00  0.00     0.074 C 
HETATM   47  N9  UNL     1      -2.173 -44.469  21.755  1.00  0.00    -0.287 N 
HETATM   48  N10 UNL     1      -3.263 -44.338  22.488  1.00  0.00    -0.130 N 
ATOM     49  H9  UNL     1      -2.277 -44.632  20.753  1.00  0.00     0.187 HD
ATOM     50  H10 UNL     1      -4.184 -44.402  22.053  1.00  0.00     0.205 HD
ENDBRANCH  35  38
ENDBRANCH   4  34
TORSDOF 10
ENDMDL
