MODEL 1
REMARK VINA RESULT: -6.059056329      0.000      0.000
REMARK  7 active torsions:
REMARK  status: ('A' for Active; 'I' for Inactive)
REMARK    1  A    between atoms: C3_3  and  O1_4 
REMARK    2  A    between atoms: O1_4  and  C4_5 
REMARK    3  A    between atoms: C5_6  and  O2_7 
REMARK    4  A    between atoms: C6_10  and  C7_11 
REMARK    5  A    between atoms: C6_10  and  C9_13 
REMARK    6  A    between atoms: C9_13  and  O4_14 
REMARK    7  A    between atoms: C10_17  and  O6_18 
ROOT
HETATM    1  C1  UNL     1      -6.997   1.049  17.232  1.00  0.00     0.014 C 
HETATM    2  C2  UNL     1      -6.726   2.079  16.666  1.00  0.00    -0.091 C 
HETATM    3  C3  UNL     1      -6.424   3.312  15.977  1.00  0.00     0.261 C 
ENDROOT
BRANCH   3   4
HETATM    4  O1  UNL     1      -6.150   3.062  14.624  1.00  0.00    -0.364 OA
BRANCH   4   5
HETATM    5  C4  UNL     1      -4.888   3.492  14.266  1.00  0.00     0.232 C 
HETATM    6  C5  UNL     1      -3.989   2.320  13.960  1.00  0.00     0.294 C 
HETATM    7  O3  UNL     1      -3.198   2.511  12.845  1.00  0.00    -0.317 OA
HETATM    8  C6  UNL     1      -3.892   2.823  11.701  1.00  0.00     0.209 C 
HETATM    9  O5  UNL     1      -5.003   3.615  11.922  1.00  0.00    -0.317 OA
HETATM   10  C10 UNL     1      -4.909   4.401  13.057  1.00  0.00     0.296 C 
BRANCH   6  11
HETATM   11  O2  UNL     1      -4.689   1.108  13.927  1.00  0.00    -0.368 OA
ATOM     12  H2  UNL     1      -5.558   1.204  13.556  1.00  0.00     0.212 HD
ENDBRANCH   6  11
BRANCH   8  13
HETATM   13  C7  UNL     1      -2.933   3.473  10.763  1.00  0.00     0.033 C 
HETATM   14  C8  UNL     1      -1.750   3.923  11.153  1.00  0.00     0.012 C 
ENDBRANCH   8  13
BRANCH   8  15
HETATM   15  C9  UNL     1      -4.397   1.567  10.981  1.00  0.00     0.237 C 
BRANCH  15  16
HETATM   16  O4  UNL     1      -5.772   1.521  10.975  1.00  0.00    -0.395 OA
ATOM     17  H4  UNL     1      -6.082   0.628  10.880  1.00  0.00     0.209 HD
ENDBRANCH  15  16
ENDBRANCH   8  15
BRANCH  10  18
HETATM   18  O6  UNL     1      -6.039   5.198  13.114  1.00  0.00    -0.363 OA
HETATM   19  C11 UNL     1      -5.831   6.344  12.348  1.00  0.00     0.204 C 
ENDBRANCH  10  18
ENDBRANCH   4   5
ENDBRANCH   3   4
TORSDOF 7
ENDMDL
MODEL 2
REMARK VINA RESULT: -6.012907048      1.779      3.253
REMARK  7 active torsions:
REMARK  status: ('A' for Active; 'I' for Inactive)
REMARK    1  A    between atoms: C3_3  and  O1_4 
REMARK    2  A    between atoms: O1_4  and  C4_5 
REMARK    3  A    between atoms: C5_6  and  O2_7 
REMARK    4  A    between atoms: C6_10  and  C7_11 
REMARK    5  A    between atoms: C6_10  and  C9_13 
REMARK    6  A    between atoms: C9_13  and  O4_14 
REMARK    7  A    between atoms: C10_17  and  O6_18 
ROOT
HETATM    1  C1  UNL     1      -6.562   2.160  17.350  1.00  0.00     0.014 C 
HETATM    2  C2  UNL     1      -5.738   1.472  16.800  1.00  0.00    -0.091 C 
HETATM    3  C3  UNL     1      -4.735   0.656  16.157  1.00  0.00     0.261 C 
ENDROOT
BRANCH   3   4
HETATM    4  O1  UNL     1      -3.900   1.449  15.357  1.00  0.00    -0.364 OA
BRANCH   4   5
HETATM    5  C4  UNL     1      -4.604   2.100  14.364  1.00  0.00     0.232 C 
HETATM    6  C5  UNL     1      -4.140   3.529  14.226  1.00  0.00     0.294 C 
HETATM    7  O3  UNL     1      -4.012   3.941  12.915  1.00  0.00    -0.317 OA
HETATM    8  C6  UNL     1      -3.188   3.153  12.148  1.00  0.00     0.209 C 
HETATM    9  O5  UNL     1      -3.254   1.808  12.462  1.00  0.00    -0.317 OA
HETATM   10  C10 UNL     1      -4.463   1.425  13.018  1.00  0.00     0.296 C 
BRANCH   6  11
HETATM   11  O2  UNL     1      -2.999   3.793  14.991  1.00  0.00    -0.368 OA
ATOM     12  H2  UNL     1      -2.843   4.724  15.097  1.00  0.00     0.212 HD
ENDBRANCH   6  11
BRANCH   8  13
HETATM   13  C7  UNL     1      -3.540   3.401  10.721  1.00  0.00     0.033 C 
HETATM   14  C8  UNL     1      -3.926   4.587  10.278  1.00  0.00     0.012 C 
ENDBRANCH   8  13
BRANCH   8  15
HETATM   15  C9  UNL     1      -1.716   3.556  12.294  1.00  0.00     0.237 C 
BRANCH  15  16
HETATM   16  O4  UNL     1      -0.885   2.492  12.026  1.00  0.00    -0.395 OA
ATOM     17  H4  UNL     1      -0.450   2.603  11.189  1.00  0.00     0.209 HD
ENDBRANCH  15  16
ENDBRANCH   8  15
BRANCH  10  18
HETATM   18  O6  UNL     1      -4.426   0.054  13.205  1.00  0.00    -0.363 OA
HETATM   19  C11 UNL     1      -4.126  -0.566  11.992  1.00  0.00     0.204 C 
ENDBRANCH  10  18
ENDBRANCH   4   5
ENDBRANCH   3   4
TORSDOF 7
ENDMDL
MODEL 3
REMARK VINA RESULT: -5.944297493      1.815      5.205
REMARK  7 active torsions:
REMARK  status: ('A' for Active; 'I' for Inactive)
REMARK    1  A    between atoms: C3_3  and  O1_4 
REMARK    2  A    between atoms: O1_4  and  C4_5 
REMARK    3  A    between atoms: C5_6  and  O2_7 
REMARK    4  A    between atoms: C6_10  and  C7_11 
REMARK    5  A    between atoms: C6_10  and  C9_13 
REMARK    6  A    between atoms: C9_13  and  O4_14 
REMARK    7  A    between atoms: C10_17  and  O6_18 
ROOT
HETATM    1  C1  UNL     1       0.509   3.980  11.391  1.00  0.00     0.014 C 
HETATM    2  C2  UNL     1      -0.671   3.734  11.371  1.00  0.00    -0.091 C 
HETATM    3  C3  UNL     1      -2.089   3.458  11.362  1.00  0.00     0.261 C 
ENDROOT
BRANCH   3   4
HETATM    4  O1  UNL     1      -2.483   2.888  12.582  1.00  0.00    -0.364 OA
BRANCH   4   5
HETATM    5  C4  UNL     1      -3.692   3.391  13.019  1.00  0.00     0.232 C 
HETATM    6  C5  UNL     1      -4.765   2.334  12.962  1.00  0.00     0.294 C 
HETATM    7  O3  UNL     1      -5.592   2.330  14.067  1.00  0.00    -0.317 OA
HETATM    8  C6  UNL     1      -4.936   2.204  15.268  1.00  0.00     0.209 C 
HETATM    9  O5  UNL     1      -3.713   2.845  15.305  1.00  0.00    -0.317 OA
HETATM   10  C10 UNL     1      -3.621   3.918  14.435  1.00  0.00     0.296 C 
BRANCH   6  11
HETATM   11  O2  UNL     1      -4.248   1.067  12.667  1.00  0.00    -0.368 OA
ATOM     12  H2  UNL     1      -4.585   0.723  11.848  1.00  0.00     0.212 HD
ENDBRANCH   6  11
BRANCH   8  13
HETATM   13  C7  UNL     1      -5.852   2.710  16.330  1.00  0.00     0.033 C 
HETATM   14  C8  UNL     1      -6.745   1.936  16.928  1.00  0.00     0.012 C 
ENDBRANCH   8  13
BRANCH   8  15
HETATM   15  C9  UNL     1      -4.662   0.736  15.616  1.00  0.00     0.237 C 
BRANCH  15  16
HETATM   16  O4  UNL     1      -3.521   0.615  16.377  1.00  0.00    -0.395 OA
ATOM     17  H4  UNL     1      -2.979  -0.101  16.064  1.00  0.00     0.209 HD
ENDBRANCH  15  16
ENDBRANCH   8  15
BRANCH  10  18
HETATM   18  O6  UNL     1      -2.388   4.516  14.630  1.00  0.00    -0.363 OA
HETATM   19  C11 UNL     1      -2.456   5.849  14.226  1.00  0.00     0.204 C 
ENDBRANCH  10  18
ENDBRANCH   4   5
ENDBRANCH   3   4
TORSDOF 7
ENDMDL
MODEL 4
REMARK VINA RESULT: -5.624711459      1.246      1.395
REMARK  7 active torsions:
REMARK  status: ('A' for Active; 'I' for Inactive)
REMARK    1  A    between atoms: C3_3  and  O1_4 
REMARK    2  A    between atoms: O1_4  and  C4_5 
REMARK    3  A    between atoms: C5_6  and  O2_7 
REMARK    4  A    between atoms: C6_10  and  C7_11 
REMARK    5  A    between atoms: C6_10  and  C9_13 
REMARK    6  A    between atoms: C9_13  and  O4_14 
REMARK    7  A    between atoms: C10_17  and  O6_18 
ROOT
HETATM    1  C1  UNL     1      -6.974   1.039  17.338  1.00  0.00     0.014 C 
HETATM    2  C2  UNL     1      -6.795   2.145  16.894  1.00  0.00    -0.091 C 
HETATM    3  C3  UNL     1      -6.599   3.469  16.351  1.00  0.00     0.261 C 
ENDROOT
BRANCH   3   4
HETATM    4  O1  UNL     1      -6.175   3.391  15.016  1.00  0.00    -0.364 OA
BRANCH   4   5
HETATM    5  C4  UNL     1      -5.122   4.245  14.760  1.00  0.00     0.232 C 
HETATM    6  C5  UNL     1      -3.822   3.485  14.681  1.00  0.00     0.294 C 
HETATM    7  O3  UNL     1      -3.004   3.899  13.649  1.00  0.00    -0.317 OA
HETATM    8  C6  UNL     1      -3.592   3.864  12.407  1.00  0.00     0.209 C 
HETATM    9  O5  UNL     1      -4.935   4.189  12.417  1.00  0.00    -0.317 OA
HETATM   10  C10 UNL     1      -5.301   5.013  13.468  1.00  0.00     0.296 C 
BRANCH   6  11
HETATM   11  O2  UNL     1      -4.015   2.099  14.696  1.00  0.00    -0.368 OA
ATOM     12  H2  UNL     1      -4.043   1.749  15.578  1.00  0.00     0.212 HD
ENDBRANCH   6  11
BRANCH   8  13
HETATM   13  C7  UNL     1      -2.814   4.776  11.521  1.00  0.00     0.033 C 
HETATM   14  C8  UNL     1      -1.749   5.441  11.943  1.00  0.00     0.012 C 
ENDBRANCH   8  13
BRANCH   8  15
HETATM   15  C9  UNL     1      -3.491   2.473  11.769  1.00  0.00     0.237 C 
BRANCH  15  16
HETATM   16  O4  UNL     1      -2.311   1.856  12.117  1.00  0.00    -0.395 OA
ATOM     17  H4  UNL     1      -2.286   1.672  13.049  1.00  0.00     0.209 HD
ENDBRANCH  15  16
ENDBRANCH   8  15
BRANCH  10  18
HETATM   18  O6  UNL     1      -6.640   5.326  13.314  1.00  0.00    -0.363 OA
HETATM   19  C11 UNL     1      -6.755   6.474  12.531  1.00  0.00     0.204 C 
ENDBRANCH  10  18
ENDBRANCH   4   5
ENDBRANCH   3   4
TORSDOF 7
ENDMDL
MODEL 5
REMARK VINA RESULT: -5.601720359      1.546      3.249
REMARK  7 active torsions:
REMARK  status: ('A' for Active; 'I' for Inactive)
REMARK    1  A    between atoms: C3_3  and  O1_4 
REMARK    2  A    between atoms: O1_4  and  C4_5 
REMARK    3  A    between atoms: C5_6  and  O2_7 
REMARK    4  A    between atoms: C6_10  and  C7_11 
REMARK    5  A    between atoms: C6_10  and  C9_13 
REMARK    6  A    between atoms: C9_13  and  O4_14 
REMARK    7  A    between atoms: C10_17  and  O6_18 
ROOT
HETATM    1  C1  UNL     1      -6.767   1.031  17.159  1.00  0.00     0.014 C 
HETATM    2  C2  UNL     1      -6.541   2.048  16.553  1.00  0.00    -0.091 C 
HETATM    3  C3  UNL     1      -6.272   3.255  15.806  1.00  0.00     0.261 C 
ENDROOT
BRANCH   3   4
HETATM    4  O1  UNL     1      -4.988   3.205  15.242  1.00  0.00    -0.364 OA
BRANCH   4   5
HETATM    5  C4  UNL     1      -5.005   3.507  13.896  1.00  0.00     0.232 C 
HETATM    6  C5  UNL     1      -4.568   4.931  13.660  1.00  0.00     0.294 C 
HETATM    7  O3  UNL     1      -3.717   5.074  12.583  1.00  0.00    -0.317 OA
HETATM    8  C6  UNL     1      -2.591   4.290  12.639  1.00  0.00     0.209 C 
HETATM    9  O5  UNL     1      -2.804   3.050  13.210  1.00  0.00    -0.317 OA
HETATM   10  C10 UNL     1      -4.106   2.597  13.088  1.00  0.00     0.296 C 
BRANCH   6  11
HETATM   11  O2  UNL     1      -4.077   5.536  14.822  1.00  0.00    -0.368 OA
ATOM     12  H2  UNL     1      -3.157   5.760  14.751  1.00  0.00     0.212 HD
ENDBRANCH   6  11
BRANCH   8  13
HETATM   13  C7  UNL     1      -2.063   4.170  11.250  1.00  0.00     0.033 C 
HETATM   14  C8  UNL     1      -0.770   4.056  10.987  1.00  0.00     0.012 C 
ENDBRANCH   8  13
BRANCH   8  15
HETATM   15  C9  UNL     1      -1.475   4.953  13.456  1.00  0.00     0.237 C 
BRANCH  15  16
HETATM   16  O4  UNL     1      -1.319   4.330  14.673  1.00  0.00    -0.395 OA
ATOM     17  H4  UNL     1      -0.403   4.297  14.923  1.00  0.00     0.209 HD
ENDBRANCH  15  16
ENDBRANCH   8  15
BRANCH  10  18
HETATM   18  O6  UNL     1      -4.162   1.322  13.622  1.00  0.00    -0.363 OA
HETATM   19  C11 UNL     1      -4.197   0.391  12.585  1.00  0.00     0.204 C 
ENDBRANCH  10  18
ENDBRANCH   4   5
ENDBRANCH   3   4
TORSDOF 7
ENDMDL
