MODEL 1
REMARK VINA RESULT: -7.451173769      0.000      0.000
REMARK  2 active torsions:
REMARK  status: ('A' for Active; 'I' for Inactive)
REMARK       I    between atoms: C2_2  and  N1_4 
REMARK    1  A    between atoms: N1_4  and  C3_6 
REMARK    2  A    between atoms: C6_10  and  C7_11 
ROOT
HETATM    1  C7  UNL     1      14.947   2.294 -36.925  1.00  0.00     0.122 A 
HETATM    2  N2  UNL     1      14.204   3.236 -37.554  1.00  0.00    -0.331 N 
ATOM      3  H2  UNL     1      14.556   3.915 -38.227  1.00  0.00     0.168 HD
HETATM    4  C8  UNL     1      12.933   3.132 -37.149  1.00  0.00     0.153 A 
HETATM    5  C9  UNL     1      11.860   3.958 -37.597  1.00  0.00     0.121 C 
HETATM    6  N3  UNL     1      10.999   4.644 -37.959  1.00  0.00    -0.190 NA
HETATM    7  C10 UNL     1      12.874   2.099 -36.242  1.00  0.00     0.153 A 
HETATM    8  C11 UNL     1      11.689   1.621 -35.537  1.00  0.00     0.121 C 
HETATM    9  N4  UNL     1      10.751   1.248 -34.971  1.00  0.00    -0.190 NA
HETATM   10  N5  UNL     1      14.120   1.620 -36.137  1.00  0.00    -0.331 N 
ATOM     11  H5  UNL     1      14.395   0.845 -35.535  1.00  0.00     0.168 HD
ENDROOT
BRANCH   1  12
HETATM   12  C6  UNL     1      16.418   2.062 -37.159  1.00  0.00     0.070 A 
HETATM   13  C3  UNL     1      17.335   3.001 -36.921  1.00  0.00     0.093 A 
HETATM   14  S1  UNL     1      18.753   2.351 -37.713  1.00  0.00    -0.071 SA
HETATM   15  C4  UNL     1      18.087   0.893 -38.299  1.00  0.00     0.037 A 
HETATM   16  C5  UNL     1      16.797   0.944 -37.878  1.00  0.00     0.067 A 
HETATM   17  C13 UNL     1      18.721  -0.228 -39.101  1.00  0.00     0.227 A 
HETATM   18  N6  UNL     1      15.975  -0.202 -38.234  1.00  0.00    -0.321 N 
HETATM   19  C12 UNL     1      16.530  -1.275 -38.971  1.00  0.00     0.217 A 
ATOM     20  H6  UNL     1      14.995  -0.232 -37.952  1.00  0.00     0.169 HD
HETATM   21  N7  UNL     1      15.790  -2.283 -39.279  1.00  0.00    -0.365 N 
HETATM   22  O2  UNL     1      17.830  -1.247 -39.353  1.00  0.00    -0.317 OA
ATOM     23  H72 UNL     1      14.811  -2.304 -38.992  1.00  0.00     0.159 HD
ATOM     24  H71 UNL     1      16.190  -3.057 -39.810  1.00  0.00     0.159 HD
BRANCH  13  25
HETATM   25  N1  UNL     1      17.406   4.251 -36.245  1.00  0.00    -0.321 N 
HETATM   26  C2  UNL     1      18.316   4.773 -35.337  1.00  0.00     0.218 C 
HETATM   27  C1  UNL     1      18.015   6.162 -34.790  1.00  0.00     0.117 C 
HETATM   28  O1  UNL     1      19.361   4.285 -34.881  1.00  0.00    -0.274 OA
ATOM     29  H1  UNL     1      16.640   4.886 -36.472  1.00  0.00     0.169 HD
ENDBRANCH  13  25
ENDBRANCH   1  12
TORSDOF 2
ENDMDL
MODEL 2
REMARK VINA RESULT: -7.339128266      3.218      7.035
REMARK  2 active torsions:
REMARK  status: ('A' for Active; 'I' for Inactive)
REMARK       I    between atoms: C2_2  and  N1_4 
REMARK    1  A    between atoms: N1_4  and  C3_6 
REMARK    2  A    between atoms: C6_10  and  C7_11 
ROOT
HETATM    1  C7  UNL     1      16.922  -2.412 -39.009  1.00  0.00     0.122 A 
HETATM    2  N2  UNL     1      16.786  -2.947 -40.246  1.00  0.00    -0.331 N 
ATOM      3  H2  UNL     1      16.797  -2.423 -41.121  1.00  0.00     0.168 HD
HETATM    4  C8  UNL     1      16.633  -4.270 -40.136  1.00  0.00     0.153 A 
HETATM    5  C9  UNL     1      16.461  -5.170 -41.229  1.00  0.00     0.121 C 
HETATM    6  N3  UNL     1      16.309  -5.888 -42.126  1.00  0.00    -0.190 NA
HETATM    7  C10 UNL     1      16.674  -4.579 -38.795  1.00  0.00     0.153 A 
HETATM    8  C11 UNL     1      16.549  -5.905 -38.199  1.00  0.00     0.121 C 
HETATM    9  N4  UNL     1      16.442  -6.955 -37.725  1.00  0.00    -0.190 NA
HETATM   10  N5  UNL     1      16.851  -3.420 -38.149  1.00  0.00    -0.331 N 
ATOM     11  H5  UNL     1      16.920  -3.324 -37.136  1.00  0.00     0.168 HD
ENDROOT
BRANCH   1  12
HETATM   12  C6  UNL     1      17.168  -0.953 -38.725  1.00  0.00     0.070 A 
HETATM   13  C3  UNL     1      18.391  -0.418 -38.740  1.00  0.00     0.093 A 
HETATM   14  S1  UNL     1      18.131   1.137 -37.983  1.00  0.00    -0.071 SA
HETATM   15  C4  UNL     1      16.453   1.019 -37.699  1.00  0.00     0.037 A 
HETATM   16  C5  UNL     1      16.136  -0.209 -38.186  1.00  0.00     0.067 A 
HETATM   17  C13 UNL     1      15.489   2.004 -37.062  1.00  0.00     0.227 A 
HETATM   18  N6  UNL     1      14.733  -0.581 -38.083  1.00  0.00    -0.321 N 
HETATM   19  C12 UNL     1      13.799   0.312 -37.508  1.00  0.00     0.217 A 
ATOM     20  H6  UNL     1      14.422  -1.489 -38.428  1.00  0.00     0.169 HD
HETATM   21  N7  UNL     1      12.561  -0.032 -37.424  1.00  0.00    -0.365 N 
HETATM   22  O2  UNL     1      14.199   1.522 -37.045  1.00  0.00    -0.317 OA
ATOM     23  H72 UNL     1      12.260  -0.942 -37.772  1.00  0.00     0.159 HD
ATOM     24  H71 UNL     1      11.887   0.613 -37.009  1.00  0.00     0.159 HD
BRANCH  13  25
HETATM   25  N1  UNL     1      19.691  -0.787 -39.186  1.00  0.00    -0.321 N 
HETATM   26  C2  UNL     1      20.132  -1.516 -40.281  1.00  0.00     0.218 C 
HETATM   27  C1  UNL     1      21.633  -1.741 -40.392  1.00  0.00     0.117 C 
HETATM   28  O1  UNL     1      19.492  -2.031 -41.211  1.00  0.00    -0.274 OA
ATOM     29  H1  UNL     1      20.443  -0.450 -38.585  1.00  0.00     0.169 HD
ENDBRANCH  13  25
ENDBRANCH   1  12
TORSDOF 2
ENDMDL
MODEL 3
REMARK VINA RESULT: -7.262600620      0.094      1.790
REMARK  2 active torsions:
REMARK  status: ('A' for Active; 'I' for Inactive)
REMARK       I    between atoms: C2_2  and  N1_4 
REMARK    1  A    between atoms: N1_4  and  C3_6 
REMARK    2  A    between atoms: C6_10  and  C7_11 
ROOT
HETATM    1  C7  UNL     1      14.947   2.295 -37.014  1.00  0.00     0.122 A 
HETATM    2  N2  UNL     1      14.117   1.610 -36.191  1.00  0.00    -0.331 N 
ATOM      3  H2  UNL     1      14.387   0.825 -35.599  1.00  0.00     0.168 HD
HETATM    4  C8  UNL     1      12.888   2.128 -36.280  1.00  0.00     0.153 A 
HETATM    5  C9  UNL     1      11.749   1.665 -35.557  1.00  0.00     0.121 C 
HETATM    6  N3  UNL     1      10.828   1.270 -34.973  1.00  0.00    -0.190 NA
HETATM    7  C10 UNL     1      12.943   3.165 -37.182  1.00  0.00     0.153 A 
HETATM    8  C11 UNL     1      11.837   4.023 -37.597  1.00  0.00     0.121 C 
HETATM    9  N4  UNL     1      10.960   4.698 -37.932  1.00  0.00    -0.190 NA
HETATM   10  N5  UNL     1      14.212   3.230 -37.602  1.00  0.00    -0.331 N 
ATOM     11  H5  UNL     1      14.566   3.904 -38.281  1.00  0.00     0.168 HD
ENDROOT
BRANCH   1  12
HETATM   12  C6  UNL     1      16.426   2.040 -37.151  1.00  0.00     0.070 A 
HETATM   13  C3  UNL     1      17.340   2.966 -36.853  1.00  0.00     0.093 A 
HETATM   14  S1  UNL     1      18.797   2.293 -37.550  1.00  0.00    -0.071 SA
HETATM   15  C4  UNL     1      18.149   0.844 -38.176  1.00  0.00     0.037 A 
HETATM   16  C5  UNL     1      16.835   0.916 -37.842  1.00  0.00     0.067 A 
HETATM   17  C13 UNL     1      18.818  -0.288 -38.934  1.00  0.00     0.227 A 
HETATM   18  N6  UNL     1      16.021  -0.219 -38.251  1.00  0.00    -0.321 N 
HETATM   19  C12 UNL     1      16.607  -1.302 -38.948  1.00  0.00     0.217 A 
ATOM     20  H6  UNL     1      15.024  -0.233 -38.034  1.00  0.00     0.169 HD
HETATM   21  N7  UNL     1      15.873  -2.299 -39.304  1.00  0.00    -0.365 N 
HETATM   22  O2  UNL     1      17.930  -1.294 -39.243  1.00  0.00    -0.317 OA
ATOM     23  H72 UNL     1      14.878  -2.304 -39.082  1.00  0.00     0.159 HD
ATOM     24  H71 UNL     1      16.296  -3.080 -39.806  1.00  0.00     0.159 HD
BRANCH  13  25
HETATM   25  N1  UNL     1      17.385   4.216 -36.176  1.00  0.00    -0.321 N 
HETATM   26  C2  UNL     1      18.302   4.769 -35.293  1.00  0.00     0.218 C 
HETATM   27  C1  UNL     1      17.967   6.144 -34.733  1.00  0.00     0.117 C 
HETATM   28  O1  UNL     1      19.378   4.319 -34.870  1.00  0.00    -0.274 OA
ATOM     29  H1  UNL     1      16.590   4.822 -36.378  1.00  0.00     0.169 HD
ENDBRANCH  13  25
ENDBRANCH   1  12
TORSDOF 2
ENDMDL
MODEL 4
REMARK VINA RESULT: -7.232294483      3.251      7.205
REMARK  2 active torsions:
REMARK  status: ('A' for Active; 'I' for Inactive)
REMARK       I    between atoms: C2_2  and  N1_4 
REMARK    1  A    between atoms: N1_4  and  C3_6 
REMARK    2  A    between atoms: C6_10  and  C7_11 
ROOT
HETATM    1  C7  UNL     1      17.019  -2.448 -39.071  1.00  0.00     0.122 A 
HETATM    2  N2  UNL     1      16.902  -3.416 -38.131  1.00  0.00    -0.331 N 
ATOM      3  H2  UNL     1      16.998  -3.279 -37.125  1.00  0.00     0.168 HD
HETATM    4  C8  UNL     1      16.642  -4.581 -38.733  1.00  0.00     0.153 A 
HETATM    5  C9  UNL     1      16.454  -5.827 -38.064  1.00  0.00     0.121 C 
HETATM    6  N3  UNL     1      16.316  -6.835 -37.509  1.00  0.00    -0.190 NA
HETATM    7  C10 UNL     1      16.594  -4.342 -40.087  1.00  0.00     0.153 A 
HETATM    8  C11 UNL     1      16.337  -5.320 -41.140  1.00  0.00     0.121 C 
HETATM    9  N4  UNL     1      16.142  -6.096 -41.975  1.00  0.00    -0.190 NA
HETATM   10  N5  UNL     1      16.829  -3.033 -40.246  1.00  0.00    -0.331 N 
ATOM     11  H5  UNL     1      16.858  -2.553 -41.145  1.00  0.00     0.168 HD
ENDROOT
BRANCH   1  12
HETATM   12  C6  UNL     1      17.259  -0.989 -38.777  1.00  0.00     0.070 A 
HETATM   13  C3  UNL     1      18.481  -0.452 -38.783  1.00  0.00     0.093 A 
HETATM   14  S1  UNL     1      18.214   1.098 -38.018  1.00  0.00    -0.071 SA
HETATM   15  C4  UNL     1      16.534   0.974 -37.743  1.00  0.00     0.037 A 
HETATM   16  C5  UNL     1      16.223  -0.251 -38.239  1.00  0.00     0.067 A 
HETATM   17  C13 UNL     1      15.565   1.953 -37.106  1.00  0.00     0.227 A 
HETATM   18  N6  UNL     1      14.821  -0.627 -38.146  1.00  0.00    -0.321 N 
HETATM   19  C12 UNL     1      13.881   0.260 -37.570  1.00  0.00     0.217 A 
ATOM     20  H6  UNL     1      14.514  -1.535 -38.497  1.00  0.00     0.169 HD
HETATM   21  N7  UNL     1      12.644  -0.087 -37.494  1.00  0.00    -0.365 N 
HETATM   22  O2  UNL     1      14.276   1.468 -37.098  1.00  0.00    -0.317 OA
ATOM     23  H72 UNL     1      12.347  -0.996 -37.849  1.00  0.00     0.159 HD
ATOM     24  H71 UNL     1      11.966   0.553 -37.079  1.00  0.00     0.159 HD
BRANCH  13  25
HETATM   25  N1  UNL     1      19.784  -0.815 -39.225  1.00  0.00    -0.321 N 
HETATM   26  C2  UNL     1      20.231  -1.552 -40.312  1.00  0.00     0.218 C 
HETATM   27  C1  UNL     1      21.735  -1.766 -40.420  1.00  0.00     0.117 C 
HETATM   28  O1  UNL     1      19.596  -2.081 -41.236  1.00  0.00    -0.274 OA
ATOM     29  H1  UNL     1      20.533  -0.466 -38.626  1.00  0.00     0.169 HD
ENDBRANCH  13  25
ENDBRANCH   1  12
TORSDOF 2
ENDMDL
MODEL 5
REMARK VINA RESULT: -7.015812337      1.785      5.163
REMARK  2 active torsions:
REMARK  status: ('A' for Active; 'I' for Inactive)
REMARK       I    between atoms: C2_2  and  N1_4 
REMARK    1  A    between atoms: N1_4  and  C3_6 
REMARK    2  A    between atoms: C6_10  and  C7_11 
ROOT
HETATM    1  C7  UNL     1      15.842   2.649 -36.803  1.00  0.00     0.122 A 
HETATM    2  N2  UNL     1      15.204   1.459 -36.684  1.00  0.00    -0.331 N 
ATOM      3  H2  UNL     1      15.647   0.572 -36.447  1.00  0.00     0.168 HD
HETATM    4  C8  UNL     1      13.902   1.635 -36.928  1.00  0.00     0.153 A 
HETATM    5  C9  UNL     1      12.915   0.605 -36.895  1.00  0.00     0.121 C 
HETATM    6  N3  UNL     1      12.125  -0.243 -36.877  1.00  0.00    -0.190 NA
HETATM    7  C10 UNL     1      13.712   2.969 -37.208  1.00  0.00     0.153 A 
HETATM    8  C11 UNL     1      12.449   3.623 -37.534  1.00  0.00     0.121 C 
HETATM    9  N4  UNL     1      11.449   4.140 -37.801  1.00  0.00    -0.190 NA
HETATM   10  N5  UNL     1      14.917   3.545 -37.121  1.00  0.00    -0.331 N 
ATOM     11  H5  UNL     1      15.099   4.536 -37.278  1.00  0.00     0.168 HD
ENDROOT
BRANCH   1  12
HETATM   12  C6  UNL     1      17.312   2.866 -36.552  1.00  0.00     0.070 A 
HETATM   13  C3  UNL     1      18.256   2.238 -37.256  1.00  0.00     0.093 A 
HETATM   14  S1  UNL     1      19.696   2.548 -36.312  1.00  0.00    -0.071 SA
HETATM   15  C4  UNL     1      19.003   3.483 -35.065  1.00  0.00     0.037 A 
HETATM   16  C5  UNL     1      17.687   3.529 -35.400  1.00  0.00     0.067 A 
HETATM   17  C13 UNL     1      19.638   4.132 -33.850  1.00  0.00     0.227 A 
HETATM   18  N6  UNL     1      16.837   4.289 -34.496  1.00  0.00    -0.321 N 
HETATM   19  C12 UNL     1      17.390   4.920 -33.358  1.00  0.00     0.217 A 
ATOM     20  H6  UNL     1      15.837   4.366 -34.684  1.00  0.00     0.169 HD
HETATM   21  N7  UNL     1      16.625   5.589 -32.567  1.00  0.00    -0.365 N 
HETATM   22  O2  UNL     1      18.717   4.824 -33.096  1.00  0.00    -0.317 OA
ATOM     23  H72 UNL     1      15.627   5.660 -32.764  1.00  0.00     0.159 HD
ATOM     24  H71 UNL     1      17.024   6.044 -31.746  1.00  0.00     0.159 HD
BRANCH  13  25
HETATM   25  N1  UNL     1      18.339   1.477 -38.455  1.00  0.00    -0.321 N 
HETATM   26  C2  UNL     1      17.806   0.249 -38.822  1.00  0.00     0.218 C 
HETATM   27  C1  UNL     1      18.167  -0.265 -40.208  1.00  0.00     0.117 C 
HETATM   28  O1  UNL     1      17.066  -0.523 -38.193  1.00  0.00    -0.274 OA
ATOM     29  H1  UNL     1      18.897   1.919 -39.185  1.00  0.00     0.169 HD
ENDBRANCH  13  25
ENDBRANCH   1  12
TORSDOF 2
ENDMDL
