MODEL 1
REMARK VINA RESULT: -7.001048280      0.000      0.000
REMARK  4 active torsions:
REMARK  status: ('A' for Active; 'I' for Inactive)
REMARK    1  A    between atoms: C5_7  and  S1_8 
REMARK    2  A    between atoms: S1_8  and  C6_9 
REMARK    3  A    between atoms: C7_12  and  N3_13 
REMARK    4  A    between atoms: C8_18  and  N5_19 
ROOT
HETATM    1  C6  UNL     1      11.218   3.868 -37.470  1.00  0.00     0.115 A 
HETATM    2  N2  UNL     1      10.482   4.641 -38.346  1.00  0.00    -0.184 N 
ATOM      3  H2  UNL     1      10.493   4.374 -39.331  1.00  0.00     0.185 HD
HETATM    4  C7  UNL     1       9.768   5.693 -38.013  1.00  0.00     0.678 A 
HETATM    5  N4  UNL     1       9.729   6.071 -36.731  1.00  0.00    -0.176 N 
ATOM      6  H4  UNL     1       9.175   6.886 -36.473  1.00  0.00     0.186 HD
HETATM    7  C8  UNL     1      10.399   5.409 -35.772  1.00  0.00     0.138 A 
HETATM    8  C9  UNL     1      11.152   4.290 -36.168  1.00  0.00     0.122 A 
HETATM    9  C10 UNL     1      11.844   3.625 -35.111  1.00  0.00     0.106 C 
HETATM   10  N6  UNL     1      12.386   3.118 -34.246  1.00  0.00    -0.191 NA
ENDROOT
BRANCH   1  11
HETATM   11  S1  UNL     1      12.068   2.548 -38.147  1.00  0.00    -0.068 SA
BRANCH  11  12
HETATM   12  C5  UNL     1      13.325   1.693 -37.230  1.00  0.00     0.043 A 
HETATM   13  C4  UNL     1      14.538   2.235 -36.921  1.00  0.00     0.084 A 
HETATM   14  N1  UNL     1      14.964   3.521 -37.220  1.00  0.00    -0.361 N 
HETATM   15  C12 UNL     1      15.433   1.456 -36.253  1.00  0.00     0.102 A 
HETATM   16  C3  UNL     1      16.182   3.937 -36.861  1.00  0.00     0.113 A 
ATOM     17  H1  UNL     1      14.340   4.156 -37.720  1.00  0.00     0.165 HD
HETATM   18  C2  UNL     1      17.091   3.158 -36.187  1.00  0.00     0.021 A 
HETATM   19  C1  UNL     1      18.430   3.633 -35.799  1.00  0.00     0.069 C 
HETATM   20  N7  UNL     1      16.678   1.913 -35.897  1.00  0.00    -0.351 N 
ATOM     21  H7  UNL     1      17.310   1.287 -35.396  1.00  0.00     0.166 HD
HETATM   22  S2  UNL     1      14.597  -0.015 -36.056  1.00  0.00    -0.081 SA
HETATM   23  C11 UNL     1      13.143   0.375 -36.815  1.00  0.00     0.073 A 
ENDBRANCH  11  12
ENDBRANCH   1  11
BRANCH   7  24
HETATM   24  N5  UNL     1      10.342   5.797 -34.547  1.00  0.00    -0.384 N 
ATOM     25  H52 UNL     1       9.534   6.293 -34.171  1.00  0.00     0.157 HD
ATOM     26  H51 UNL     1      11.117   5.617 -33.909  1.00  0.00     0.157 HD
ENDBRANCH   7  24
BRANCH   4  27
HETATM   27  N3  UNL     1       9.085   6.396 -38.884  1.00  0.00    -0.234 N 
ATOM     28  H32 UNL     1       9.192   7.410 -38.871  1.00  0.00     0.174 HD
ATOM     29  H31 UNL     1       8.456   5.974 -39.567  1.00  0.00     0.174 HD
ENDBRANCH   4  27
TORSDOF 4
ENDMDL
MODEL 2
REMARK VINA RESULT: -6.797428762      8.263     10.512
REMARK  4 active torsions:
REMARK  status: ('A' for Active; 'I' for Inactive)
REMARK    1  A    between atoms: C5_7  and  S1_8 
REMARK    2  A    between atoms: S1_8  and  C6_9 
REMARK    3  A    between atoms: C7_12  and  N3_13 
REMARK    4  A    between atoms: C8_18  and  N5_19 
ROOT
HETATM    1  C6  UNL     1      19.391   9.881 -38.594  1.00  0.00     0.115 A 
HETATM    2  N2  UNL     1      18.523  10.460 -39.499  1.00  0.00    -0.184 N 
ATOM      3  H2  UNL     1      17.532  10.468 -39.257  1.00  0.00     0.185 HD
HETATM    4  C7  UNL     1      18.870  11.000 -40.645  1.00  0.00     0.678 A 
HETATM    5  N4  UNL     1      20.162  11.008 -40.993  1.00  0.00    -0.176 N 
ATOM      6  H4  UNL     1      20.432  11.428 -41.882  1.00  0.00     0.186 HD
HETATM    7  C8  UNL     1      21.115  10.479 -40.206  1.00  0.00     0.138 A 
HETATM    8  C9  UNL     1      20.703   9.910 -38.989  1.00  0.00     0.122 A 
HETATM    9  C10 UNL     1      21.755   9.362 -38.195  1.00  0.00     0.106 C 
HETATM   10  N6  UNL     1      22.616   8.932 -37.584  1.00  0.00    -0.191 NA
ENDROOT
BRANCH   1  11
HETATM   11  S1  UNL     1      18.696   9.242 -37.170  1.00  0.00    -0.068 SA
BRANCH  11  12
HETATM   12  C5  UNL     1      18.774  10.122 -35.630  1.00  0.00     0.043 A 
HETATM   13  C4  UNL     1      18.246   9.655 -34.462  1.00  0.00     0.084 A 
HETATM   14  N1  UNL     1      17.621   8.431 -34.275  1.00  0.00    -0.361 N 
HETATM   15  C12 UNL     1      18.333  10.450 -33.360  1.00  0.00     0.102 A 
HETATM   16  C3  UNL     1      17.144   8.086 -33.076  1.00  0.00     0.113 A 
ATOM     17  H1  UNL     1      17.524   7.788 -35.062  1.00  0.00     0.165 HD
HETATM   18  C2  UNL     1      17.226   8.881 -31.959  1.00  0.00     0.021 A 
HETATM   19  C1  UNL     1      16.694   8.484 -30.645  1.00  0.00     0.069 C 
HETATM   20  N7  UNL     1      17.833  10.066 -32.140  1.00  0.00    -0.351 N 
ATOM     21  H7  UNL     1      17.924  10.700 -31.346  1.00  0.00     0.166 HD
HETATM   22  S2  UNL     1      19.139  11.833 -33.941  1.00  0.00    -0.081 SA
HETATM   23  C11 UNL     1      19.351  11.389 -35.553  1.00  0.00     0.073 A 
ENDBRANCH  11  12
ENDBRANCH   1  11
BRANCH   7  24
HETATM   24  N5  UNL     1      22.350  10.502 -40.569  1.00  0.00    -0.384 N 
ATOM     25  H52 UNL     1      23.066  10.988 -40.029  1.00  0.00     0.157 HD
ATOM     26  H51 UNL     1      22.649  10.027 -41.420  1.00  0.00     0.157 HD
ENDBRANCH   7  24
BRANCH   4  27
HETATM   27  N3  UNL     1      18.006  11.537 -41.472  1.00  0.00    -0.234 N 
ATOM     28  H32 UNL     1      17.328  12.198 -41.094  1.00  0.00     0.174 HD
ATOM     29  H31 UNL     1      17.985  11.322 -42.469  1.00  0.00     0.174 HD
ENDBRANCH   4  27
TORSDOF 4
ENDMDL
MODEL 3
REMARK VINA RESULT: -6.748579044      4.115      5.691
REMARK  4 active torsions:
REMARK  status: ('A' for Active; 'I' for Inactive)
REMARK    1  A    between atoms: C5_7  and  S1_8 
REMARK    2  A    between atoms: S1_8  and  C6_9 
REMARK    3  A    between atoms: C7_12  and  N3_13 
REMARK    4  A    between atoms: C8_18  and  N5_19 
ROOT
HETATM    1  C6  UNL     1      14.088   1.084 -36.755  1.00  0.00     0.115 A 
HETATM    2  N2  UNL     1      14.364   1.920 -35.692  1.00  0.00    -0.184 N 
ATOM      3  H2  UNL     1      15.149   1.669 -35.089  1.00  0.00     0.185 HD
HETATM    4  C7  UNL     1      13.698   3.013 -35.393  1.00  0.00     0.678 A 
HETATM    5  N4  UNL     1      12.665   3.372 -36.162  1.00  0.00    -0.176 N 
ATOM      6  H4  UNL     1      12.148   4.220 -35.931  1.00  0.00     0.186 HD
HETATM    7  C8  UNL     1      12.286   2.650 -37.231  1.00  0.00     0.138 A 
HETATM    8  C9  UNL     1      13.023   1.488 -37.516  1.00  0.00     0.122 A 
HETATM    9  C10 UNL     1      12.577   0.759 -38.660  1.00  0.00     0.106 C 
HETATM   10  N6  UNL     1      12.196   0.198 -39.576  1.00  0.00    -0.191 NA
ENDROOT
BRANCH   1  11
HETATM   11  S1  UNL     1      15.100  -0.282 -36.935  1.00  0.00    -0.068 SA
BRANCH  11  12
HETATM   12  C5  UNL     1      16.460  -0.279 -38.077  1.00  0.00     0.043 A 
HETATM   13  C4  UNL     1      16.762  -1.326 -38.897  1.00  0.00     0.084 A 
HETATM   14  N1  UNL     1      16.054  -2.513 -39.009  1.00  0.00    -0.361 N 
HETATM   15  C12 UNL     1      17.861  -1.215 -39.693  1.00  0.00     0.102 A 
HETATM   16  C3  UNL     1      16.453  -3.468 -39.854  1.00  0.00     0.113 A 
ATOM     17  H1  UNL     1      15.220  -2.660 -38.439  1.00  0.00     0.165 HD
HETATM   18  C2  UNL     1      17.560  -3.365 -40.661  1.00  0.00     0.021 A 
HETATM   19  C1  UNL     1      17.985  -4.427 -41.587  1.00  0.00     0.069 C 
HETATM   20  N7  UNL     1      18.245  -2.215 -40.553  1.00  0.00    -0.351 N 
ATOM     21  H7  UNL     1      19.077  -2.079 -41.128  1.00  0.00     0.166 HD
HETATM   22  S2  UNL     1      18.468   0.328 -39.305  1.00  0.00    -0.081 SA
HETATM   23  C11 UNL     1      17.334   0.805 -38.153  1.00  0.00     0.073 A 
ENDBRANCH  11  12
ENDBRANCH   1  11
BRANCH   7  24
HETATM   24  N5  UNL     1      11.287   3.022 -37.951  1.00  0.00    -0.384 N 
ATOM     25  H52 UNL     1      10.415   3.355 -37.540  1.00  0.00     0.157 HD
ATOM     26  H51 UNL     1      11.342   2.994 -38.969  1.00  0.00     0.157 HD
ENDBRANCH   7  24
BRANCH   4  27
HETATM   27  N3  UNL     1      13.999   3.774 -34.370  1.00  0.00    -0.234 N 
ATOM     28  H32 UNL     1      14.862   3.577 -33.863  1.00  0.00     0.174 HD
ATOM     29  H31 UNL     1      13.411   4.549 -34.062  1.00  0.00     0.174 HD
ENDBRANCH   4  27
TORSDOF 4
ENDMDL
MODEL 4
REMARK VINA RESULT: -6.692922586      1.846      2.517
REMARK  4 active torsions:
REMARK  status: ('A' for Active; 'I' for Inactive)
REMARK    1  A    between atoms: C5_7  and  S1_8 
REMARK    2  A    between atoms: S1_8  and  C6_9 
REMARK    3  A    between atoms: C7_12  and  N3_13 
REMARK    4  A    between atoms: C8_18  and  N5_19 
ROOT
HETATM    1  C6  UNL     1      11.383   3.617 -37.079  1.00  0.00     0.115 A 
HETATM    2  N2  UNL     1      10.513   3.986 -38.086  1.00  0.00    -0.184 N 
ATOM      3  H2  UNL     1      10.581   3.485 -38.972  1.00  0.00     0.185 HD
HETATM    4  C7  UNL     1       9.605   4.932 -37.995  1.00  0.00     0.678 A 
HETATM    5  N4  UNL     1       9.488   5.609 -36.848  1.00  0.00    -0.176 N 
ATOM      6  H4  UNL     1       8.783   6.343 -36.776  1.00  0.00     0.186 HD
HETATM    7  C8  UNL     1      10.271   5.354 -35.785  1.00  0.00     0.138 A 
HETATM    8  C9  UNL     1      11.230   4.336 -35.923  1.00  0.00     0.122 A 
HETATM    9  C10 UNL     1      12.034   4.107 -34.765  1.00  0.00     0.106 C 
HETATM   10  N6  UNL     1      12.661   3.949 -33.827  1.00  0.00    -0.191 NA
ENDROOT
BRANCH   1  11
HETATM   11  S1  UNL     1      12.478   2.356 -37.442  1.00  0.00    -0.068 SA
BRANCH  11  12
HETATM   12  C5  UNL     1      14.123   2.342 -36.775  1.00  0.00     0.043 A 
HETATM   13  C4  UNL     1      14.477   1.667 -35.644  1.00  0.00     0.084 A 
HETATM   14  N1  UNL     1      13.648   0.864 -34.873  1.00  0.00    -0.361 N 
HETATM   15  C12 UNL     1      15.763   1.777 -35.211  1.00  0.00     0.102 A 
HETATM   16  C3  UNL     1      14.115   0.251 -33.782  1.00  0.00     0.113 A 
ATOM     17  H1  UNL     1      12.672   0.740 -35.144  1.00  0.00     0.165 HD
HETATM   18  C2  UNL     1      15.411   0.356 -33.338  1.00  0.00     0.021 A 
HETATM   19  C1  UNL     1      15.908  -0.326 -32.132  1.00  0.00     0.069 C 
HETATM   20  N7  UNL     1      16.213   1.133 -34.084  1.00  0.00    -0.351 N 
ATOM     21  H7  UNL     1      17.187   1.249 -33.804  1.00  0.00     0.166 HD
HETATM   22  S2  UNL     1      16.474   2.808 -36.364  1.00  0.00    -0.081 SA
HETATM   23  C11 UNL     1      15.147   3.083 -37.366  1.00  0.00     0.073 A 
ENDBRANCH  11  12
ENDBRANCH   1  11
BRANCH   7  24
HETATM   24  N5  UNL     1      10.134   6.023 -34.695  1.00  0.00    -0.384 N 
ATOM     25  H52 UNL     1      10.700   5.837 -33.867  1.00  0.00     0.157 HD
ATOM     26  H51 UNL     1       9.443   6.770 -34.629  1.00  0.00     0.157 HD
ENDBRANCH   7  24
BRANCH   4  27
HETATM   27  N3  UNL     1       8.802   5.247 -38.981  1.00  0.00    -0.234 N 
ATOM     28  H32 UNL     1       8.995   4.854 -39.902  1.00  0.00     0.174 HD
ATOM     29  H31 UNL     1       7.998   5.865 -38.867  1.00  0.00     0.174 HD
ENDBRANCH   4  27
TORSDOF 4
ENDMDL
MODEL 5
REMARK VINA RESULT: -6.682878172      4.913      6.517
REMARK  4 active torsions:
REMARK  status: ('A' for Active; 'I' for Inactive)
REMARK    1  A    between atoms: C5_7  and  S1_8 
REMARK    2  A    between atoms: S1_8  and  C6_9 
REMARK    3  A    between atoms: C7_12  and  N3_13 
REMARK    4  A    between atoms: C8_18  and  N5_19 
ROOT
HETATM    1  C6  UNL     1      14.585  -0.309 -37.046  1.00  0.00     0.115 A 
HETATM    2  N2  UNL     1      13.920  -0.232 -38.253  1.00  0.00    -0.184 N 
ATOM      3  H2  UNL     1      14.380  -0.635 -39.070  1.00  0.00     0.185 HD
HETATM    4  C7  UNL     1      12.741   0.320 -38.436  1.00  0.00     0.678 A 
HETATM    5  N4  UNL     1      12.108   0.857 -37.387  1.00  0.00    -0.176 N 
ATOM      6  H4  UNL     1      11.193   1.285 -37.528  1.00  0.00     0.186 HD
HETATM    7  C8  UNL     1      12.640   0.851 -36.153  1.00  0.00     0.138 A 
HETATM    8  C9  UNL     1      13.902   0.253 -36.000  1.00  0.00     0.122 A 
HETATM    9  C10 UNL     1      14.421   0.276 -34.670  1.00  0.00     0.106 C 
HETATM   10  N6  UNL     1      14.809   0.312 -33.599  1.00  0.00    -0.191 NA
ENDROOT
BRANCH   1  11
HETATM   11  S1  UNL     1      16.113  -1.075 -37.065  1.00  0.00    -0.068 SA
BRANCH  11  12
HETATM   12  C5  UNL     1      17.007  -1.313 -38.580  1.00  0.00     0.043 A 
HETATM   13  C4  UNL     1      17.009  -2.481 -39.284  1.00  0.00     0.084 A 
HETATM   14  N1  UNL     1      16.297  -3.631 -38.970  1.00  0.00    -0.361 N 
HETATM   15  C12 UNL     1      17.774  -2.548 -40.407  1.00  0.00     0.102 A 
HETATM   16  C3  UNL     1      16.381  -4.717 -39.743  1.00  0.00     0.113 A 
ATOM     17  H1  UNL     1      15.703  -3.646 -38.140  1.00  0.00     0.165 HD
HETATM   18  C2  UNL     1      17.151  -4.794 -40.878  1.00  0.00     0.021 A 
HETATM   19  C1  UNL     1      17.232  -6.000 -41.718  1.00  0.00     0.069 C 
HETATM   20  N7  UNL     1      17.839  -3.681 -41.182  1.00  0.00    -0.351 N 
ATOM     21  H7  UNL     1      18.429  -3.677 -42.015  1.00  0.00     0.166 HD
HETATM   22  S2  UNL     1      18.486  -1.003 -40.485  1.00  0.00    -0.081 SA
HETATM   23  C11 UNL     1      17.810  -0.303 -39.109  1.00  0.00     0.073 A 
ENDBRANCH  11  12
ENDBRANCH   1  11
BRANCH   7  24
HETATM   24  N5  UNL     1      12.006   1.377 -35.164  1.00  0.00    -0.384 N 
ATOM     25  H52 UNL     1      11.601   2.311 -35.213  1.00  0.00     0.157 HD
ATOM     26  H51 UNL     1      11.890   0.863 -34.291  1.00  0.00     0.157 HD
ENDBRANCH   7  24
BRANCH   4  27
HETATM   27  N3  UNL     1      12.150   0.370 -39.604  1.00  0.00    -0.234 N 
ATOM     28  H32 UNL     1      12.728   0.274 -40.439  1.00  0.00     0.174 HD
ATOM     29  H31 UNL     1      11.144   0.500 -39.712  1.00  0.00     0.174 HD
ENDBRANCH   4  27
TORSDOF 4
ENDMDL
