MODEL 1
REMARK VINA RESULT: -6.980998941      0.000      0.000
REMARK  7 active torsions:
REMARK  status: ('A' for Active; 'I' for Inactive)
REMARK    1  A    between atoms: C2_2  and  C4_4 
REMARK    2  A    between atoms: C4_4  and  C5_5 
REMARK    3  A    between atoms: C10_11  and  C11_12 
REMARK    4  A    between atoms: C11_12  and  C12_13 
REMARK    5  A    between atoms: C15_18  and  N1_19 
REMARK    6  A    between atoms: C19_28  and  C20_29 
REMARK    7  A    between atoms: C20_29  and  C21_30 
ROOT
HETATM    1  C12 UNL     1      17.664   9.809   3.685  1.00  0.00     0.071 C 
HETATM    2  C13 UNL     1      16.662   9.564   4.745  1.00  0.00     0.202 C 
HETATM    3  O2  UNL     1      17.207   9.432   5.899  1.00  0.00    -0.289 OA
HETATM    4  C14 UNL     1      15.215   9.433   4.836  1.00  0.00     0.235 C 
HETATM    5  O3  UNL     1      14.903   8.463   5.572  1.00  0.00    -0.286 OA
HETATM    6  C15 UNL     1      14.040  10.113   4.312  1.00  0.00     0.359 C 
HETATM    7  C16 UNL     1      14.259  11.263   3.453  1.00  0.00     0.298 C 
HETATM    8  O4  UNL     1      13.150  11.629   2.927  1.00  0.00    -0.262 OA
HETATM    9  O5  UNL     1      15.272  12.066   3.039  1.00  0.00    -0.314 OA
HETATM   10  C17 UNL     1      16.650  11.841   2.686  1.00  0.00     0.132 C 
HETATM   11  C18 UNL     1      17.417  12.474   3.863  1.00  0.00     0.040 C 
HETATM   12  C19 UNL     1      16.964  10.416   2.461  1.00  0.00     0.027 C 
ENDROOT
BRANCH   1  13
HETATM   13  C11 UNL     1      18.411   8.577   3.358  1.00  0.00     0.019 C 
BRANCH  13  14
HETATM   14  C10 UNL     1      19.897   8.641   3.381  1.00  0.00     0.013 C 
HETATM   15  C5  UNL     1      20.448   9.936   3.994  1.00  0.00     0.061 C 
HETATM   16  C6  UNL     1      21.047   9.174   5.124  1.00  0.00     0.139 C 
HETATM   17  O1  UNL     1      21.612   9.428   6.149  1.00  0.00    -0.297 OA
HETATM   18  C7  UNL     1      20.639   7.901   4.428  1.00  0.00     0.018 C 
HETATM   19  C8  UNL     1      21.874   7.147   3.923  1.00  0.00     0.023 C 
HETATM   20  C9  UNL     1      19.880   7.041   5.376  1.00  0.00     0.023 C 
BRANCH  15  21
HETATM   21  C4  UNL     1      21.515  10.625   3.213  1.00  0.00     0.016 C 
BRANCH  21  22
HETATM   22  C2  UNL     1      21.161  10.808   1.755  1.00  0.00    -0.022 C 
HETATM   23  C1  UNL     1      21.220  12.224   1.297  1.00  0.00     0.009 C 
HETATM   24  C3  UNL     1      22.212  10.021   0.961  1.00  0.00     0.009 C 
ENDBRANCH  21  22
ENDBRANCH  15  21
ENDBRANCH  13  14
ENDBRANCH   1  13
BRANCH  12  25
HETATM   25  C20 UNL     1      17.588   9.960   1.211  1.00  0.00     0.012 C 
BRANCH  25  26
HETATM   26  C21 UNL     1      17.451  10.678  -0.055  1.00  0.00    -0.022 C 
HETATM   27  C22 UNL     1      16.398   9.869  -0.897  1.00  0.00     0.009 C 
HETATM   28  C23 UNL     1      18.640  10.708  -0.981  1.00  0.00     0.009 C 
ENDBRANCH  25  26
ENDBRANCH  12  25
BRANCH   6  29
HETATM   29  N1  UNL     1      13.251   9.119   3.558  1.00  0.00    -0.059 N 
ATOM     30  H13 UNL     1      12.371   8.879   4.016  1.00  0.00     0.275 HD
ATOM     31  H12 UNL     1      12.854   9.497   2.697  1.00  0.00     0.275 HD
ATOM     32  H11 UNL     1      13.849   8.309   3.398  1.00  0.00     0.275 HD
ENDBRANCH   6  29
TORSDOF 7
ENDMDL
MODEL 2
REMARK VINA RESULT: -6.975028636      1.893      3.203
REMARK  7 active torsions:
REMARK  status: ('A' for Active; 'I' for Inactive)
REMARK    1  A    between atoms: C2_2  and  C4_4 
REMARK    2  A    between atoms: C4_4  and  C5_5 
REMARK    3  A    between atoms: C10_11  and  C11_12 
REMARK    4  A    between atoms: C11_12  and  C12_13 
REMARK    5  A    between atoms: C15_18  and  N1_19 
REMARK    6  A    between atoms: C19_28  and  C20_29 
REMARK    7  A    between atoms: C20_29  and  C21_30 
ROOT
HETATM    1  C12 UNL     1      17.596   9.838   3.277  1.00  0.00     0.071 C 
HETATM    2  C13 UNL     1      16.575   8.768   3.276  1.00  0.00     0.202 C 
HETATM    3  O2  UNL     1      16.777   7.912   4.211  1.00  0.00    -0.289 OA
HETATM    4  C14 UNL     1      15.393   8.421   2.500  1.00  0.00     0.235 C 
HETATM    5  O3  UNL     1      15.379   7.191   2.241  1.00  0.00    -0.286 OA
HETATM    6  C15 UNL     1      14.233   9.103   1.946  1.00  0.00     0.359 C 
HETATM    7  C16 UNL     1      14.120  10.530   2.184  1.00  0.00     0.298 C 
HETATM    8  O4  UNL     1      13.161  11.012   1.484  1.00  0.00    -0.262 OA
HETATM    9  O5  UNL     1      14.713  11.508   2.917  1.00  0.00    -0.314 OA
HETATM   10  C17 UNL     1      16.074  11.797   3.287  1.00  0.00     0.132 C 
HETATM   11  C18 UNL     1      16.100  11.468   4.793  1.00  0.00     0.040 C 
HETATM   12  C19 UNL     1      17.062  11.044   2.491  1.00  0.00     0.027 C 
ENDROOT
BRANCH   1  13
HETATM   13  C11 UNL     1      18.887   9.347   2.754  1.00  0.00     0.019 C 
BRANCH  13  14
HETATM   14  C10 UNL     1      19.910   8.903   3.739  1.00  0.00     0.013 C 
HETATM   15  C5  UNL     1      20.630   7.609   3.336  1.00  0.00     0.061 C 
HETATM   16  C6  UNL     1      21.921   8.340   3.206  1.00  0.00     0.139 C 
HETATM   17  O1  UNL     1      23.032   8.094   2.833  1.00  0.00    -0.297 OA
HETATM   18  C7  UNL     1      21.235   9.564   3.757  1.00  0.00     0.018 C 
HETATM   19  C8  UNL     1      21.767   9.891   5.156  1.00  0.00     0.023 C 
HETATM   20  C9  UNL     1      21.476  10.716   2.847  1.00  0.00     0.023 C 
BRANCH  15  21
HETATM   21  C4  UNL     1      20.734   6.563   4.394  1.00  0.00     0.016 C 
BRANCH  21  22
HETATM   22  C2  UNL     1      21.092   5.199   3.848  1.00  0.00    -0.022 C 
HETATM   23  C1  UNL     1      22.402   4.684   4.334  1.00  0.00     0.009 C 
HETATM   24  C3  UNL     1      20.003   4.243   4.352  1.00  0.00     0.009 C 
ENDBRANCH  21  22
ENDBRANCH  15  21
ENDBRANCH  13  14
ENDBRANCH   1  13
BRANCH  12  25
HETATM   25  C20 UNL     1      18.144  11.730   1.770  1.00  0.00     0.012 C 
BRANCH  25  26
HETATM   26  C21 UNL     1      18.193  11.824   0.311  1.00  0.00    -0.022 C 
HETATM   27  C22 UNL     1      16.888  11.120  -0.210  1.00  0.00     0.009 C 
HETATM   28  C23 UNL     1      19.274  11.060  -0.409  1.00  0.00     0.009 C 
ENDBRANCH  25  26
ENDBRANCH  12  25
BRANCH   6  29
HETATM   29  N1  UNL     1      14.239   8.878   0.488  1.00  0.00    -0.059 N 
ATOM     30  H13 UNL     1      13.768   8.014   0.217  1.00  0.00     0.275 HD
ATOM     31  H12 UNL     1      13.633   9.525  -0.016  1.00  0.00     0.275 HD
ATOM     32  H11 UNL     1      15.209   8.916   0.176  1.00  0.00     0.275 HD
ENDBRANCH   6  29
TORSDOF 7
ENDMDL
MODEL 3
REMARK VINA RESULT: -6.910364385      3.555      5.793
REMARK  7 active torsions:
REMARK  status: ('A' for Active; 'I' for Inactive)
REMARK    1  A    between atoms: C2_2  and  C4_4 
REMARK    2  A    between atoms: C4_4  and  C5_5 
REMARK    3  A    between atoms: C10_11  and  C11_12 
REMARK    4  A    between atoms: C11_12  and  C12_13 
REMARK    5  A    between atoms: C15_18  and  N1_19 
REMARK    6  A    between atoms: C19_28  and  C20_29 
REMARK    7  A    between atoms: C20_29  and  C21_30 
ROOT
HETATM    1  C12 UNL     1      21.850   9.623   3.358  1.00  0.00     0.071 C 
HETATM    2  C13 UNL     1      22.147  10.943   2.761  1.00  0.00     0.202 C 
HETATM    3  O2  UNL     1      23.356  11.310   2.986  1.00  0.00    -0.289 OA
HETATM    4  C14 UNL     1      21.436  11.945   1.980  1.00  0.00     0.235 C 
HETATM    5  O3  UNL     1      21.673  13.099   2.420  1.00  0.00    -0.286 OA
HETATM    6  C15 UNL     1      20.535  11.976   0.838  1.00  0.00     0.359 C 
HETATM    7  C16 UNL     1      20.188  10.707   0.225  1.00  0.00     0.298 C 
HETATM    8  O4  UNL     1      19.253  10.881  -0.633  1.00  0.00    -0.262 OA
HETATM    9  O5  UNL     1      20.549   9.399   0.278  1.00  0.00    -0.314 OA
HETATM   10  C17 UNL     1      20.930   8.508   1.342  1.00  0.00     0.132 C 
HETATM   11  C18 UNL     1      22.439   8.304   1.099  1.00  0.00     0.040 C 
HETATM   12  C19 UNL     1      20.604   9.033   2.683  1.00  0.00     0.027 C 
ENDROOT
BRANCH   1  13
HETATM   13  C11 UNL     1      21.707   9.718   4.825  1.00  0.00     0.019 C 
BRANCH  13  14
HETATM   14  C10 UNL     1      22.312   8.639   5.652  1.00  0.00     0.013 C 
HETATM   15  C5  UNL     1      23.081   7.594   4.833  1.00  0.00     0.061 C 
HETATM   16  C6  UNL     1      24.362   7.999   5.475  1.00  0.00     0.139 C 
HETATM   17  O1  UNL     1      25.525   7.740   5.349  1.00  0.00    -0.297 OA
HETATM   18  C7  UNL     1      23.572   8.905   6.384  1.00  0.00     0.018 C 
HETATM   19  C8  UNL     1      23.600   8.377   7.822  1.00  0.00     0.023 C 
HETATM   20  C9  UNL     1      24.152  10.275   6.342  1.00  0.00     0.023 C 
BRANCH  15  21
HETATM   21  C4  UNL     1      22.777   6.168   5.144  1.00  0.00     0.016 C 
BRANCH  21  22
HETATM   22  C2  UNL     1      22.199   5.413   3.969  1.00  0.00    -0.022 C 
HETATM   23  C1  UNL     1      23.051   5.460   2.749  1.00  0.00     0.009 C 
HETATM   24  C3  UNL     1      22.105   3.947   4.412  1.00  0.00     0.009 C 
ENDBRANCH  21  22
ENDBRANCH  15  21
ENDBRANCH  13  14
ENDBRANCH   1  13
BRANCH  12  25
HETATM   25  C20 UNL     1      19.802   8.252   3.634  1.00  0.00     0.012 C 
BRANCH  25  26
HETATM   26  C21 UNL     1      18.391   8.528   3.901  1.00  0.00    -0.022 C 
HETATM   27  C22 UNL     1      18.099   9.933   3.258  1.00  0.00     0.009 C 
HETATM   28  C23 UNL     1      17.973   8.743   5.333  1.00  0.00     0.009 C 
ENDBRANCH  25  26
ENDBRANCH  12  25
BRANCH   6  29
HETATM   29  N1  UNL     1      19.288  12.633   1.275  1.00  0.00    -0.059 N 
ATOM     30  H13 UNL     1      19.441  13.341   1.994  1.00  0.00     0.275 HD
ATOM     31  H12 UNL     1      18.892  13.247   0.564  1.00  0.00     0.275 HD
ATOM     32  H11 UNL     1      18.642  11.901   1.570  1.00  0.00     0.275 HD
ENDBRANCH   6  29
TORSDOF 7
ENDMDL
MODEL 4
REMARK VINA RESULT: -6.776645187      2.297      5.886
REMARK  7 active torsions:
REMARK  status: ('A' for Active; 'I' for Inactive)
REMARK    1  A    between atoms: C2_2  and  C4_4 
REMARK    2  A    between atoms: C4_4  and  C5_5 
REMARK    3  A    between atoms: C10_11  and  C11_12 
REMARK    4  A    between atoms: C11_12  and  C12_13 
REMARK    5  A    between atoms: C15_18  and  N1_19 
REMARK    6  A    between atoms: C19_28  and  C20_29 
REMARK    7  A    between atoms: C20_29  and  C21_30 
ROOT
HETATM    1  C12 UNL     1      18.361   9.971   4.298  1.00  0.00     0.071 C 
HETATM    2  C13 UNL     1      17.647  11.043   3.572  1.00  0.00     0.202 C 
HETATM    3  O2  UNL     1      17.519  12.102   4.287  1.00  0.00    -0.289 OA
HETATM    4  C14 UNL     1      17.048  11.227   2.258  1.00  0.00     0.235 C 
HETATM    5  O3  UNL     1      15.928  11.788   2.357  1.00  0.00    -0.286 OA
HETATM    6  C15 UNL     1      17.390  10.942   0.873  1.00  0.00     0.359 C 
HETATM    7  C16 UNL     1      18.668  10.303   0.617  1.00  0.00     0.298 C 
HETATM    8  O4  UNL     1      18.738   9.950  -0.613  1.00  0.00    -0.262 OA
HETATM    9  O5  UNL     1      19.807   9.967   1.275  1.00  0.00    -0.314 OA
HETATM   10  C17 UNL     1      20.091   9.464   2.594  1.00  0.00     0.132 C 
HETATM   11  C18 UNL     1      20.745  10.673   3.291  1.00  0.00     0.040 C 
HETATM   12  C19 UNL     1      18.895   8.947   3.286  1.00  0.00     0.027 C 
ENDROOT
BRANCH   1  13
HETATM   13  C11 UNL     1      17.499   9.354   5.327  1.00  0.00     0.019 C 
BRANCH  13  14
HETATM   14  C10 UNL     1      16.074   9.778   5.382  1.00  0.00     0.013 C 
HETATM   15  C5  UNL     1      15.126   8.850   4.610  1.00  0.00     0.061 C 
HETATM   16  C6  UNL     1      14.447   8.452   5.875  1.00  0.00     0.139 C 
HETATM   17  O1  UNL     1      13.609   7.664   6.208  1.00  0.00    -0.297 OA
HETATM   18  C7  UNL     1      15.276   9.485   6.595  1.00  0.00     0.018 C 
HETATM   19  C8  UNL     1      14.391  10.642   7.073  1.00  0.00     0.023 C 
HETATM   20  C9  UNL     1      15.947   8.853   7.762  1.00  0.00     0.023 C 
BRANCH  15  21
HETATM   21  C4  UNL     1      14.159   9.520   3.694  1.00  0.00     0.016 C 
BRANCH  21  22
HETATM   22  C2  UNL     1      13.254   8.548   2.971  1.00  0.00    -0.022 C 
HETATM   23  C1  UNL     1      12.126   9.201   2.251  1.00  0.00     0.009 C 
HETATM   24  C3  UNL     1      14.132   7.853   1.922  1.00  0.00     0.009 C 
ENDBRANCH  21  22
ENDBRANCH  15  21
ENDBRANCH  13  14
ENDBRANCH   1  13
BRANCH  12  25
HETATM   25  C20 UNL     1      18.861   7.586   3.839  1.00  0.00     0.012 C 
BRANCH  25  26
HETATM   26  C21 UNL     1      20.061   6.878   4.287  1.00  0.00    -0.022 C 
HETATM   27  C22 UNL     1      19.623   5.383   4.501  1.00  0.00     0.009 C 
HETATM   28  C23 UNL     1      20.629   7.238   5.636  1.00  0.00     0.009 C 
ENDBRANCH  25  26
ENDBRANCH  12  25
BRANCH   6  29
HETATM   29  N1  UNL     1      16.326  10.080   0.322  1.00  0.00    -0.059 N 
ATOM     30  H13 UNL     1      15.518  10.001   0.940  1.00  0.00     0.275 HD
ATOM     31  H12 UNL     1      15.846  10.501  -0.473  1.00  0.00     0.275 HD
ATOM     32  H11 UNL     1      16.746   9.178   0.099  1.00  0.00     0.275 HD
ENDBRANCH   6  29
TORSDOF 7
ENDMDL
MODEL 5
REMARK VINA RESULT: -6.769008493      1.985      2.915
REMARK  7 active torsions:
REMARK  status: ('A' for Active; 'I' for Inactive)
REMARK    1  A    between atoms: C2_2  and  C4_4 
REMARK    2  A    between atoms: C4_4  and  C5_5 
REMARK    3  A    between atoms: C10_11  and  C11_12 
REMARK    4  A    between atoms: C11_12  and  C12_13 
REMARK    5  A    between atoms: C15_18  and  N1_19 
REMARK    6  A    between atoms: C19_28  and  C20_29 
REMARK    7  A    between atoms: C20_29  and  C21_30 
ROOT
HETATM    1  C12 UNL     1      16.958   9.070   4.522  1.00  0.00     0.071 C 
HETATM    2  C13 UNL     1      16.939   8.914   5.993  1.00  0.00     0.202 C 
HETATM    3  O2  UNL     1      18.022   9.341   6.533  1.00  0.00    -0.289 OA
HETATM    4  C14 UNL     1      16.020   8.406   7.001  1.00  0.00     0.235 C 
HETATM    5  O3  UNL     1      16.629   7.693   7.838  1.00  0.00    -0.286 OA
HETATM    6  C15 UNL     1      14.599   8.499   7.303  1.00  0.00     0.359 C 
HETATM    7  C16 UNL     1      13.778   9.306   6.418  1.00  0.00     0.298 C 
HETATM    8  O4  UNL     1      12.540   9.136   6.700  1.00  0.00    -0.262 OA
HETATM    9  O5  UNL     1      13.917  10.181   5.390  1.00  0.00    -0.314 OA
HETATM   10  C17 UNL     1      14.798  10.261   4.254  1.00  0.00     0.132 C 
HETATM   11  C18 UNL     1      15.717  11.446   4.611  1.00  0.00     0.040 C 
HETATM   12  C19 UNL     1      15.519   9.000   3.991  1.00  0.00     0.027 C 
ENDROOT
BRANCH   1  13
HETATM   13  C11 UNL     1      17.844   8.073   3.888  1.00  0.00     0.019 C 
BRANCH  13  14
HETATM   14  C10 UNL     1      19.006   8.576   3.107  1.00  0.00     0.013 C 
HETATM   15  C5  UNL     1      19.214  10.092   3.221  1.00  0.00     0.061 C 
HETATM   16  C6  UNL     1      20.516   9.885   3.912  1.00  0.00     0.139 C 
HETATM   17  O1  UNL     1      21.340  10.568   4.451  1.00  0.00    -0.297 OA
HETATM   18  C7  UNL     1      20.373   8.408   3.649  1.00  0.00     0.018 C 
HETATM   19  C8  UNL     1      21.415   7.944   2.625  1.00  0.00     0.023 C 
HETATM   20  C9  UNL     1      20.555   7.660   4.922  1.00  0.00     0.023 C 
BRANCH  15  21
HETATM   21  C4  UNL     1      19.421  10.821   1.937  1.00  0.00     0.016 C 
BRANCH  21  22
HETATM   22  C2  UNL     1      18.352  10.530   0.908  1.00  0.00    -0.022 C 
HETATM   23  C1  UNL     1      17.100  11.311   1.108  1.00  0.00     0.009 C 
HETATM   24  C3  UNL     1      18.944  10.943  -0.446  1.00  0.00     0.009 C 
ENDBRANCH  21  22
ENDBRANCH  15  21
ENDBRANCH  13  14
ENDBRANCH   1  13
BRANCH  12  25
HETATM   25  C20 UNL     1      15.470   8.353   2.672  1.00  0.00     0.012 C 
BRANCH  25  26
HETATM   26  C21 UNL     1      14.461   8.677   1.663  1.00  0.00    -0.022 C 
HETATM   27  C22 UNL     1      13.194   7.822   2.033  1.00  0.00     0.009 C 
HETATM   28  C23 UNL     1      14.724   8.253   0.241  1.00  0.00     0.009 C 
ENDBRANCH  25  26
ENDBRANCH  12  25
BRANCH   6  29
HETATM   29  N1  UNL     1      14.057   7.127   7.311  1.00  0.00    -0.059 N 
ATOM     30  H13 UNL     1      14.780   6.412   7.229  1.00  0.00     0.275 HD
ATOM     31  H12 UNL     1      13.696   6.847   8.223  1.00  0.00     0.275 HD
ATOM     32  H11 UNL     1      13.356   7.069   6.572  1.00  0.00     0.275 HD
ENDBRANCH   6  29
TORSDOF 7
ENDMDL
