MODEL 1
REMARK VINA RESULT: -9.082957121      0.000      0.000
REMARK  7 active torsions:
REMARK  status: ('A' for Active; 'I' for Inactive)
REMARK    1  A    between atoms: N1_2  and  C2_3 
REMARK    2  A    between atoms: N1_2  and  C17_27 
REMARK    3  A    between atoms: C9_13  and  N4_14 
REMARK    4  A    between atoms: N4_14  and  C10_16 
REMARK    5  A    between atoms: C10_16  and  C11_17 
REMARK    6  A    between atoms: C11_17  and  C12_18 
REMARK    7  A    between atoms: C12_18  and  N5_19 
ROOT
HETATM    1  C2  UNL     1      15.216   9.983   4.164  1.00  0.00     0.106 A 
HETATM    2  C3  UNL     1      15.944  11.153   4.211  1.00  0.00     0.079 A 
HETATM    3  C4  UNL     1      16.686  11.577   3.108  1.00  0.00     0.051 A 
HETATM    4  N2  UNL     1      17.474  12.640   2.851  1.00  0.00    -0.363 N 
ATOM      5  H2  UNL     1      17.671  13.392   3.511  1.00  0.00     0.165 HD
HETATM    6  C5  UNL     1      17.967  12.568   1.592  1.00  0.00     0.112 A 
HETATM    7  C6  UNL     1      17.460  11.408   1.045  1.00  0.00     0.076 A 
HETATM    8  C7  UNL     1      17.756  10.975  -0.293  1.00  0.00     0.102 C 
HETATM    9  N3  UNL     1      17.991  10.609  -1.383  1.00  0.00    -0.191 NA
HETATM   10  C8  UNL     1      16.655  10.766   1.968  1.00  0.00     0.057 A 
HETATM   11  C9  UNL     1      15.920   9.599   1.944  1.00  0.00     0.116 A 
HETATM   12  N6  UNL     1      15.228   9.250   3.042  1.00  0.00    -0.328 N 
ATOM     13  H6  UNL     1      14.686   8.386   3.020  1.00  0.00     0.169 HD
ENDROOT
BRANCH  11  14
HETATM   14  N4  UNL     1      15.942   8.905   0.857  1.00  0.00    -0.375 N 
ATOM     15  H4  UNL     1      16.799   8.404   0.623  1.00  0.00     0.161 HD
BRANCH  14  16
HETATM   16  C10 UNL     1      14.828   8.797  -0.043  1.00  0.00     0.123 C 
BRANCH  16  17
HETATM   17  C11 UNL     1      15.286   8.089  -1.302  1.00  0.00     0.050 C 
BRANCH  17  18
HETATM   18  C12 UNL     1      14.452   8.480  -2.502  1.00  0.00     0.274 C 
BRANCH  18  19
HETATM   19  N5  UNL     1      14.425   9.917  -2.690  1.00  0.00     0.092 N 
HETATM   20  C13 UNL     1      13.089  10.293  -3.115  1.00  0.00     0.298 C 
HETATM   21  C14 UNL     1      12.830   9.859  -4.548  1.00  0.00     0.198 C 
HETATM   22  O1  UNL     1      13.769  10.349  -5.433  1.00  0.00    -0.388 OA
HETATM   23  C15 UNL     1      15.018   9.885  -5.080  1.00  0.00     0.198 C 
HETATM   24  C16 UNL     1      15.361  10.357  -3.690  1.00  0.00     0.298 C 
ENDBRANCH  18  19
ENDBRANCH  17  18
ENDBRANCH  16  17
ENDBRANCH  14  16
ENDBRANCH  11  14
BRANCH   1  25
HETATM   25  N1  UNL     1      14.485   9.612   5.323  1.00  0.00    -0.367 N 
HETATM   26  C1  UNL     1      13.284   8.830   5.114  1.00  0.00     0.151 C 
BRANCH  25  27
HETATM   27  C17 UNL     1      14.964  10.025   6.624  1.00  0.00     0.085 C 
HETATM   28  C18 UNL     1      15.924   9.044   7.224  1.00  0.00     0.025 C 
HETATM   29  C19 UNL     1      15.382   8.103   8.226  1.00  0.00     0.002 C 
HETATM   30  C20 UNL     1      14.186   8.550   8.982  1.00  0.00     0.000 C 
HETATM   31  C21 UNL     1      13.179   9.317   8.192  1.00  0.00     0.002 C 
HETATM   32  C22 UNL     1      13.855  10.468   7.529  1.00  0.00     0.025 C 
ENDBRANCH  25  27
ENDBRANCH   1  25
TORSDOF 7
ENDMDL
MODEL 2
REMARK VINA RESULT: -8.980470803      1.315      1.718
REMARK  7 active torsions:
REMARK  status: ('A' for Active; 'I' for Inactive)
REMARK    1  A    between atoms: N1_2  and  C2_3 
REMARK    2  A    between atoms: N1_2  and  C17_27 
REMARK    3  A    between atoms: C9_13  and  N4_14 
REMARK    4  A    between atoms: N4_14  and  C10_16 
REMARK    5  A    between atoms: C10_16  and  C11_17 
REMARK    6  A    between atoms: C11_17  and  C12_18 
REMARK    7  A    between atoms: C12_18  and  N5_19 
ROOT
HETATM    1  C2  UNL     1      16.501   9.603   4.538  1.00  0.00     0.106 A 
HETATM    2  C3  UNL     1      17.789  10.091   4.601  1.00  0.00     0.079 A 
HETATM    3  C4  UNL     1      18.510  10.354   3.436  1.00  0.00     0.051 A 
HETATM    4  N2  UNL     1      19.747  10.821   3.175  1.00  0.00    -0.363 N 
ATOM      5  H2  UNL     1      20.431  11.087   3.884  1.00  0.00     0.165 HD
HETATM    6  C5  UNL     1      19.955  10.887   1.838  1.00  0.00     0.112 A 
HETATM    7  C6  UNL     1      18.792  10.442   1.246  1.00  0.00     0.076 A 
HETATM    8  C7  UNL     1      18.617  10.362  -0.178  1.00  0.00     0.102 C 
HETATM    9  N3  UNL     1      18.461  10.292  -1.340  1.00  0.00    -0.191 NA
HETATM   10  C8  UNL     1      17.869  10.101   2.218  1.00  0.00     0.057 A 
HETATM   11  C9  UNL     1      16.581   9.613   2.179  1.00  0.00     0.116 A 
HETATM   12  N6  UNL     1      15.943   9.381   3.339  1.00  0.00    -0.328 N 
ATOM     13  H6  UNL     1      14.990   9.020   3.307  1.00  0.00     0.169 HD
ENDROOT
BRANCH  11  14
HETATM   14  N4  UNL     1      16.058   9.405   1.018  1.00  0.00    -0.375 N 
ATOM     15  H4  UNL     1      16.439   8.649   0.447  1.00  0.00     0.161 HD
BRANCH  14  16
HETATM   16  C10 UNL     1      14.971  10.174   0.483  1.00  0.00     0.123 C 
BRANCH  16  17
HETATM   17  C11 UNL     1      14.092   9.263  -0.349  1.00  0.00     0.050 C 
BRANCH  17  18
HETATM   18  C12 UNL     1      14.658   9.048  -1.736  1.00  0.00     0.274 C 
BRANCH  18  19
HETATM   19  N5  UNL     1      14.772  10.295  -2.468  1.00  0.00     0.092 N 
HETATM   20  C13 UNL     1      13.433  10.764  -2.771  1.00  0.00     0.298 C 
HETATM   21  C14 UNL     1      12.786   9.911  -3.850  1.00  0.00     0.198 C 
HETATM   22  O1  UNL     1      13.542   9.844  -5.003  1.00  0.00    -0.388 OA
HETATM   23  C15 UNL     1      14.770   9.286  -4.715  1.00  0.00     0.198 C 
HETATM   24  C16 UNL     1      15.491  10.141  -3.704  1.00  0.00     0.298 C 
ENDBRANCH  18  19
ENDBRANCH  17  18
ENDBRANCH  16  17
ENDBRANCH  14  16
ENDBRANCH  11  14
BRANCH   1  25
HETATM   25  N1  UNL     1      15.827   9.357   5.763  1.00  0.00    -0.367 N 
HETATM   26  C1  UNL     1      16.601   8.738   6.820  1.00  0.00     0.151 C 
BRANCH  25  27
HETATM   27  C17 UNL     1      14.433   9.724   5.890  1.00  0.00     0.085 C 
HETATM   28  C18 UNL     1      14.183  10.649   7.041  1.00  0.00     0.025 C 
HETATM   29  C19 UNL     1      13.668  10.046   8.287  1.00  0.00     0.002 C 
HETATM   30  C20 UNL     1      12.895   8.786   8.148  1.00  0.00     0.000 C 
HETATM   31  C21 UNL     1      13.406   7.833   7.120  1.00  0.00     0.002 C 
HETATM   32  C22 UNL     1      13.518   8.539   5.813  1.00  0.00     0.025 C 
ENDBRANCH  25  27
ENDBRANCH   1  25
TORSDOF 7
ENDMDL
MODEL 3
REMARK VINA RESULT: -8.827752022      3.005      7.357
REMARK  7 active torsions:
REMARK  status: ('A' for Active; 'I' for Inactive)
REMARK    1  A    between atoms: N1_2  and  C2_3 
REMARK    2  A    between atoms: N1_2  and  C17_27 
REMARK    3  A    between atoms: C9_13  and  N4_14 
REMARK    4  A    between atoms: N4_14  and  C10_16 
REMARK    5  A    between atoms: C10_16  and  C11_17 
REMARK    6  A    between atoms: C11_17  and  C12_18 
REMARK    7  A    between atoms: C12_18  and  N5_19 
ROOT
HETATM    1  C2  UNL     1      15.632   9.752   1.678  1.00  0.00     0.106 A 
HETATM    2  C3  UNL     1      14.726  10.440   2.459  1.00  0.00     0.079 A 
HETATM    3  C4  UNL     1      14.721  10.291   3.845  1.00  0.00     0.051 A 
HETATM    4  N2  UNL     1      13.987  10.809   4.850  1.00  0.00    -0.363 N 
ATOM      5  H2  UNL     1      13.224  11.476   4.729  1.00  0.00     0.165 HD
HETATM    6  C5  UNL     1      14.404  10.320   6.041  1.00  0.00     0.112 A 
HETATM    7  C6  UNL     1      15.446   9.460   5.761  1.00  0.00     0.076 A 
HETATM    8  C7  UNL     1      16.160   8.736   6.776  1.00  0.00     0.102 C 
HETATM    9  N3  UNL     1      16.752   8.138   7.595  1.00  0.00    -0.191 NA
HETATM   10  C8  UNL     1      15.668   9.421   4.397  1.00  0.00     0.057 A 
HETATM   11  C9  UNL     1      16.564   8.743   3.597  1.00  0.00     0.116 A 
HETATM   12  N6  UNL     1      16.513   8.933   2.268  1.00  0.00    -0.328 N 
ATOM     13  H6  UNL     1      17.177   8.430   1.679  1.00  0.00     0.169 HD
ENDROOT
BRANCH  11  14
HETATM   14  N4  UNL     1      17.407   7.958   4.180  1.00  0.00    -0.375 N 
ATOM     15  H4  UNL     1      17.045   7.272   4.843  1.00  0.00     0.161 HD
BRANCH  14  16
HETATM   16  C10 UNL     1      18.823   7.995   3.948  1.00  0.00     0.123 C 
BRANCH  16  17
HETATM   17  C11 UNL     1      19.375   9.288   4.513  1.00  0.00     0.050 C 
BRANCH  17  18
HETATM   18  C12 UNL     1      20.339   9.954   3.555  1.00  0.00     0.274 C 
BRANCH  18  19
HETATM   19  N5  UNL     1      19.926   9.785   2.176  1.00  0.00     0.092 N 
HETATM   20  C13 UNL     1      21.017   9.163   1.450  1.00  0.00     0.298 C 
HETATM   21  C14 UNL     1      22.161  10.140   1.239  1.00  0.00     0.198 C 
HETATM   22  O1  UNL     1      21.763  11.299   0.603  1.00  0.00    -0.388 OA
HETATM   23  C15 UNL     1      20.809  11.937   1.367  1.00  0.00     0.198 C 
HETATM   24  C16 UNL     1      19.612  11.037   1.540  1.00  0.00     0.298 C 
ENDBRANCH  18  19
ENDBRANCH  17  18
ENDBRANCH  16  17
ENDBRANCH  14  16
ENDBRANCH  11  14
BRANCH   1  25
HETATM   25  N1  UNL     1      15.579   9.951   0.273  1.00  0.00    -0.367 N 
HETATM   26  C1  UNL     1      16.590  10.815  -0.302  1.00  0.00     0.151 C 
BRANCH  25  27
HETATM   27  C17 UNL     1      14.542   9.298  -0.495  1.00  0.00     0.085 C 
HETATM   28  C18 UNL     1      15.041   8.762  -1.801  1.00  0.00     0.025 C 
HETATM   29  C19 UNL     1      14.785   9.581  -3.004  1.00  0.00     0.002 C 
HETATM   30  C20 UNL     1      13.608  10.484  -2.957  1.00  0.00     0.000 C 
HETATM   31  C21 UNL     1      13.366  11.152  -1.645  1.00  0.00     0.002 C 
HETATM   32  C22 UNL     1      13.288  10.116  -0.577  1.00  0.00     0.025 C 
ENDBRANCH  25  27
ENDBRANCH   1  25
TORSDOF 7
ENDMDL
MODEL 4
REMARK VINA RESULT: -8.775074404      2.764      7.336
REMARK  7 active torsions:
REMARK  status: ('A' for Active; 'I' for Inactive)
REMARK    1  A    between atoms: N1_2  and  C2_3 
REMARK    2  A    between atoms: N1_2  and  C17_27 
REMARK    3  A    between atoms: C9_13  and  N4_14 
REMARK    4  A    between atoms: N4_14  and  C10_16 
REMARK    5  A    between atoms: C10_16  and  C11_17 
REMARK    6  A    between atoms: C11_17  and  C12_18 
REMARK    7  A    between atoms: C12_18  and  N5_19 
ROOT
HETATM    1  C2  UNL     1      15.042   9.007   1.483  1.00  0.00     0.106 A 
HETATM    2  C3  UNL     1      13.863   9.063   2.195  1.00  0.00     0.079 A 
HETATM    3  C4  UNL     1      13.869   9.053   3.590  1.00  0.00     0.051 A 
HETATM    4  N2  UNL     1      12.915   9.096   4.541  1.00  0.00    -0.363 N 
ATOM      5  H2  UNL     1      11.913   9.151   4.358  1.00  0.00     0.165 HD
HETATM    6  C5  UNL     1      13.474   9.057   5.773  1.00  0.00     0.112 A 
HETATM    7  C6  UNL     1      14.838   8.988   5.575  1.00  0.00     0.076 A 
HETATM    8  C7  UNL     1      15.785   8.930   6.654  1.00  0.00     0.102 C 
HETATM    9  N3  UNL     1      16.570   8.881   7.526  1.00  0.00    -0.191 NA
HETATM   10  C8  UNL     1      15.116   8.983   4.221  1.00  0.00     0.057 A 
HETATM   11  C9  UNL     1      16.284   8.928   3.489  1.00  0.00     0.116 A 
HETATM   12  N6  UNL     1      16.204   8.941   2.147  1.00  0.00    -0.328 N 
ATOM     13  H6  UNL     1      17.069   8.900   1.609  1.00  0.00     0.169 HD
ENDROOT
BRANCH  11  14
HETATM   14  N4  UNL     1      17.394   8.865   4.143  1.00  0.00    -0.375 N 
ATOM     15  H4  UNL     1      17.543   9.531   4.901  1.00  0.00     0.161 HD
BRANCH  14  16
HETATM   16  C10 UNL     1      18.431   7.912   3.865  1.00  0.00     0.123 C 
BRANCH  16  17
HETATM   17  C11 UNL     1      19.747   8.651   3.728  1.00  0.00     0.050 C 
BRANCH  17  18
HETATM   18  C12 UNL     1      19.608   9.892   2.873  1.00  0.00     0.274 C 
BRANCH  18  19
HETATM   19  N5  UNL     1      19.962   9.634   1.491  1.00  0.00     0.092 N 
HETATM   20  C13 UNL     1      21.305  10.134   1.268  1.00  0.00     0.298 C 
HETATM   21  C14 UNL     1      21.324  11.653   1.239  1.00  0.00     0.198 C 
HETATM   22  O1  UNL     1      20.455  12.182   0.305  1.00  0.00    -0.388 OA
HETATM   23  C15 UNL     1      19.168  11.789   0.604  1.00  0.00     0.198 C 
HETATM   24  C16 UNL     1      19.073  10.285   0.566  1.00  0.00     0.298 C 
ENDBRANCH  18  19
ENDBRANCH  17  18
ENDBRANCH  16  17
ENDBRANCH  14  16
ENDBRANCH  11  14
BRANCH   1  25
HETATM   25  N1  UNL     1      14.960   9.020   0.066  1.00  0.00    -0.367 N 
HETATM   26  C1  UNL     1      14.873   7.733  -0.594  1.00  0.00     0.151 C 
BRANCH  25  27
HETATM   27  C17 UNL     1      14.971  10.287  -0.632  1.00  0.00     0.085 C 
HETATM   28  C18 UNL     1      13.597  10.750  -1.009  1.00  0.00     0.025 C 
HETATM   29  C19 UNL     1      13.164  10.504  -2.400  1.00  0.00     0.002 C 
HETATM   30  C20 UNL     1      14.234  10.402  -3.423  1.00  0.00     0.000 C 
HETATM   31  C21 UNL     1      15.471   9.691  -2.985  1.00  0.00     0.002 C 
HETATM   32  C22 UNL     1      15.983  10.324  -1.738  1.00  0.00     0.025 C 
ENDBRANCH  25  27
ENDBRANCH   1  25
TORSDOF 7
ENDMDL
MODEL 5
REMARK VINA RESULT: -8.657766155      3.708      7.720
REMARK  7 active torsions:
REMARK  status: ('A' for Active; 'I' for Inactive)
REMARK    1  A    between atoms: N1_2  and  C2_3 
REMARK    2  A    between atoms: N1_2  and  C17_27 
REMARK    3  A    between atoms: C9_13  and  N4_14 
REMARK    4  A    between atoms: N4_14  and  C10_16 
REMARK    5  A    between atoms: C10_16  and  C11_17 
REMARK    6  A    between atoms: C11_17  and  C12_18 
REMARK    7  A    between atoms: C12_18  and  N5_19 
ROOT
HETATM    1  C2  UNL     1      16.006   9.847   1.934  1.00  0.00     0.106 A 
HETATM    2  C3  UNL     1      14.981  10.444   2.638  1.00  0.00     0.079 A 
HETATM    3  C4  UNL     1      14.825  10.215   4.004  1.00  0.00     0.051 A 
HETATM    4  N2  UNL     1      13.954  10.639   4.941  1.00  0.00    -0.363 N 
ATOM      5  H2  UNL     1      13.174  11.273   4.767  1.00  0.00     0.165 HD
HETATM    6  C5  UNL     1      14.258  10.102   6.147  1.00  0.00     0.112 A 
HETATM    7  C6  UNL     1      15.370   9.312   5.946  1.00  0.00     0.076 A 
HETATM    8  C7  UNL     1      16.003   8.566   6.999  1.00  0.00     0.102 C 
HETATM    9  N3  UNL     1      16.529   7.951   7.850  1.00  0.00    -0.191 NA
HETATM   10  C8  UNL     1      15.749   9.362   4.618  1.00  0.00     0.057 A 
HETATM   11  C9  UNL     1      16.766   8.775   3.895  1.00  0.00     0.116 A 
HETATM   12  N6  UNL     1      16.858   9.038   2.580  1.00  0.00    -0.328 N 
ATOM     13  H6  UNL     1      17.611   8.603   2.048  1.00  0.00     0.169 HD
ENDROOT
BRANCH  11  14
HETATM   14  N4  UNL     1      17.578   8.000   4.530  1.00  0.00    -0.375 N 
ATOM     15  H4  UNL     1      17.244   7.076   4.807  1.00  0.00     0.161 HD
BRANCH  14  16
HETATM   16  C10 UNL     1      18.925   8.362   4.871  1.00  0.00     0.123 C 
BRANCH  16  17
HETATM   17  C11 UNL     1      19.876   7.599   3.971  1.00  0.00     0.050 C 
BRANCH  17  18
HETATM   18  C12 UNL     1      20.459   8.483   2.890  1.00  0.00     0.274 C 
BRANCH  18  19
HETATM   19  N5  UNL     1      21.884   8.681   3.069  1.00  0.00     0.092 N 
HETATM   20  C13 UNL     1      22.271   9.873   2.338  1.00  0.00     0.298 C 
HETATM   21  C14 UNL     1      22.250   9.625   0.840  1.00  0.00     0.198 C 
HETATM   22  O1  UNL     1      23.039   8.556   0.463  1.00  0.00    -0.388 OA
HETATM   23  C15 UNL     1      22.582   7.410   1.078  1.00  0.00     0.198 C 
HETATM   24  C16 UNL     1      22.657   7.573   2.575  1.00  0.00     0.298 C 
ENDBRANCH  18  19
ENDBRANCH  17  18
ENDBRANCH  16  17
ENDBRANCH  14  16
ENDBRANCH  11  14
BRANCH   1  25
HETATM   25  N1  UNL     1      16.103  10.123   0.545  1.00  0.00    -0.367 N 
HETATM   26  C1  UNL     1      16.900  11.271   0.163  1.00  0.00     0.151 C 
BRANCH  25  27
HETATM   27  C17 UNL     1      15.417   9.266  -0.397  1.00  0.00     0.085 C 
HETATM   28  C18 UNL     1      16.118   9.181  -1.717  1.00  0.00     0.025 C 
HETATM   29  C19 UNL     1      15.599  10.031  -2.809  1.00  0.00     0.002 C 
HETATM   30  C20 UNL     1      14.165  10.406  -2.737  1.00  0.00     0.000 C 
HETATM   31  C21 UNL     1      13.650  10.708  -1.369  1.00  0.00     0.002 C 
HETATM   32  C22 UNL     1      13.948   9.557  -0.471  1.00  0.00     0.025 C 
ENDBRANCH  25  27
ENDBRANCH   1  25
TORSDOF 7
ENDMDL
