MODEL 1
REMARK VINA RESULT: -8.806293235      0.000      0.000
REMARK  8 active torsions:
REMARK  status: ('A' for Active; 'I' for Inactive)
REMARK    1  A    between atoms: C2_2  and  N1_3 
REMARK    2  A    between atoms: C2_2  and  C7_13 
REMARK       I    between atoms: N1_3  and  C3_5 
REMARK    3  A    between atoms: C3_5  and  C4_7 
REMARK    4  A    between atoms: C7_13  and  O3_15 
REMARK    5  A    between atoms: O3_15  and  C8_16 
REMARK    6  A    between atoms: C8_16  and  C9_17 
REMARK    7  A    between atoms: C9_17  and  N3_19 
REMARK    8  A    between atoms: N3_19  and  C10_21 
ROOT
HETATM    1  O3  UNL     1      16.161   9.358   2.242  1.00  0.00    -0.313 OA
ENDROOT
BRANCH   1   2
HETATM    2  C7  UNL     1      14.919   8.825   2.555  1.00  0.00     0.281 C 
HETATM    3  O2  UNL     1      14.720   7.598   2.367  1.00  0.00    -0.263 OA
BRANCH   2   4
HETATM    4  C2  UNL     1      13.895   9.754   3.099  1.00  0.00     0.180 C 
HETATM    5  C1  UNL     1      12.589   9.539   2.368  1.00  0.00     0.043 C 
BRANCH   4   6
HETATM    6  N1  UNL     1      13.796   9.535   4.503  1.00  0.00    -0.342 N 
HETATM    7  C3  UNL     1      14.458  10.354   5.450  1.00  0.00     0.269 C 
HETATM    8  O1  UNL     1      15.154  11.302   5.028  1.00  0.00    -0.266 OA
ATOM      9  H1  UNL     1      13.225   8.759   4.838  1.00  0.00     0.163 HD
BRANCH   7  10
HETATM   10  C4  UNL     1      14.327  10.091   6.908  1.00  0.00     0.107 A 
HETATM   11  C5  UNL     1      15.199   9.232   7.538  1.00  0.00     0.086 A 
HETATM   12  S1  UNL     1      14.633   9.279   9.149  1.00  0.00    -0.094 SA
HETATM   13  C6  UNL     1      13.341  10.370   8.932  1.00  0.00     0.138 A 
HETATM   14  N2  UNL     1      13.410  10.642   7.643  1.00  0.00    -0.355 N 
ATOM     15  H2  UNL     1      12.740  11.286   7.223  1.00  0.00     0.166 HD
ENDBRANCH   7  10
ENDBRANCH   4   6
ENDBRANCH   2   4
ENDBRANCH   1   2
BRANCH   1  16
HETATM   16  C8  UNL     1      16.273  10.700   1.810  1.00  0.00     0.247 C 
BRANCH  16  17
HETATM   17  C9  UNL     1      17.005  10.670   0.512  1.00  0.00     0.098 C 
HETATM   18  S2  UNL     1      18.202  11.768   0.291  1.00  0.00    -0.063 SA
BRANCH  17  19
HETATM   19  N3  UNL     1      16.633   9.692  -0.419  1.00  0.00    -0.373 N 
ATOM     20  H3  UNL     1      17.146   8.811  -0.406  1.00  0.00     0.161 HD
BRANCH  19  21
HETATM   21  C10 UNL     1      15.569   9.834  -1.406  1.00  0.00     0.032 C 
HETATM   22  C11 UNL     1      16.115   9.605  -2.710  1.00  0.00     0.035 C 
HETATM   23  C12 UNL     1      15.436   9.592  -3.988  1.00  0.00    -0.012 C 
HETATM   24  C13 UNL     1      14.624  10.775  -4.406  1.00  0.00     0.009 C 
HETATM   25  C15 UNL     1      14.228   8.777  -4.214  1.00  0.00     0.009 C 
HETATM   26  C14 UNL     1      13.437  10.013  -3.948  1.00  0.00    -0.013 C 
HETATM   27  C16 UNL     1      12.877  10.247  -2.650  1.00  0.00     0.009 C 
HETATM   28  C17 UNL     1      13.545  10.213  -1.371  1.00  0.00    -0.009 C 
HETATM   29  C18 UNL     1      14.362   9.056  -0.973  1.00  0.00     0.035 C 
HETATM   30  C19 UNL     1      14.750  11.052  -1.143  1.00  0.00     0.035 C 
ENDBRANCH  19  21
ENDBRANCH  17  19
ENDBRANCH  16  17
ENDBRANCH   1  16
TORSDOF 8
ENDMDL
MODEL 2
REMARK VINA RESULT: -8.323327651      4.192      6.148
REMARK  8 active torsions:
REMARK  status: ('A' for Active; 'I' for Inactive)
REMARK    1  A    between atoms: C2_2  and  N1_3 
REMARK    2  A    between atoms: C2_2  and  C7_13 
REMARK       I    between atoms: N1_3  and  C3_5 
REMARK    3  A    between atoms: C3_5  and  C4_7 
REMARK    4  A    between atoms: C7_13  and  O3_15 
REMARK    5  A    between atoms: O3_15  and  C8_16 
REMARK    6  A    between atoms: C8_16  and  C9_17 
REMARK    7  A    between atoms: C9_17  and  N3_19 
REMARK    8  A    between atoms: N3_19  and  C10_21 
ROOT
HETATM    1  O3  UNL     1      18.800  11.352   1.284  1.00  0.00    -0.313 OA
ENDROOT
BRANCH   1   2
HETATM    2  C7  UNL     1      19.825  10.980   0.427  1.00  0.00     0.281 C 
HETATM    3  O2  UNL     1      19.536  10.594  -0.734  1.00  0.00    -0.263 OA
BRANCH   2   4
HETATM    4  C2  UNL     1      21.214  11.064   0.947  1.00  0.00     0.180 C 
HETATM    5  C1  UNL     1      21.409  12.397   1.634  1.00  0.00     0.043 C 
BRANCH   4   6
HETATM    6  N1  UNL     1      21.436   9.951   1.807  1.00  0.00    -0.342 N 
HETATM    7  C3  UNL     1      22.208   8.829   1.418  1.00  0.00     0.269 C 
HETATM    8  O1  UNL     1      22.709   8.825   0.274  1.00  0.00    -0.266 OA
ATOM      9  H1  UNL     1      21.022   9.963   2.740  1.00  0.00     0.163 HD
BRANCH   7  10
HETATM   10  C4  UNL     1      22.415   7.688   2.348  1.00  0.00     0.107 A 
HETATM   11  C5  UNL     1      22.558   7.912   3.699  1.00  0.00     0.086 A 
HETATM   12  S1  UNL     1      22.763   6.325   4.296  1.00  0.00    -0.094 SA
HETATM   13  C6  UNL     1      22.656   5.481   2.819  1.00  0.00     0.138 A 
HETATM   14  N2  UNL     1      22.470   6.453   1.948  1.00  0.00    -0.355 N 
ATOM     15  H2  UNL     1      22.368   6.235   0.957  1.00  0.00     0.166 HD
ENDBRANCH   7  10
ENDBRANCH   4   6
ENDBRANCH   2   4
ENDBRANCH   1   2
BRANCH   1  16
HETATM   16  C8  UNL     1      17.552  11.769   0.766  1.00  0.00     0.247 C 
BRANCH  16  17
HETATM   17  C9  UNL     1      16.630  10.604   0.888  1.00  0.00     0.098 C 
HETATM   18  S2  UNL     1      15.825  10.421   2.304  1.00  0.00    -0.063 SA
BRANCH  17  19
HETATM   19  N3  UNL     1      16.502   9.760  -0.222  1.00  0.00    -0.373 N 
ATOM     20  H3  UNL     1      17.182   9.006  -0.321  1.00  0.00     0.161 HD
BRANCH  19  21
HETATM   21  C10 UNL     1      15.471   9.872  -1.247  1.00  0.00     0.032 C 
HETATM   22  C11 UNL     1      16.061   9.612  -2.526  1.00  0.00     0.035 C 
HETATM   23  C12 UNL     1      15.426   9.563  -3.825  1.00  0.00    -0.012 C 
HETATM   24  C13 UNL     1      14.625  10.731  -4.300  1.00  0.00     0.009 C 
HETATM   25  C15 UNL     1      14.229   8.737  -4.071  1.00  0.00     0.009 C 
HETATM   26  C14 UNL     1      13.425   9.976  -3.863  1.00  0.00    -0.013 C 
HETATM   27  C16 UNL     1      12.821  10.240  -2.591  1.00  0.00     0.009 C 
HETATM   28  C17 UNL     1      13.446  10.242  -1.290  1.00  0.00    -0.009 C 
HETATM   29  C18 UNL     1      14.253   9.099  -0.835  1.00  0.00     0.035 C 
HETATM   30  C19 UNL     1      14.640  11.093  -1.043  1.00  0.00     0.035 C 
ENDBRANCH  19  21
ENDBRANCH  17  19
ENDBRANCH  16  17
ENDBRANCH   1  16
TORSDOF 8
ENDMDL
MODEL 3
REMARK VINA RESULT: -8.255499846      2.420      9.040
REMARK  8 active torsions:
REMARK  status: ('A' for Active; 'I' for Inactive)
REMARK    1  A    between atoms: C2_2  and  N1_3 
REMARK    2  A    between atoms: C2_2  and  C7_13 
REMARK       I    between atoms: N1_3  and  C3_5 
REMARK    3  A    between atoms: C3_5  and  C4_7 
REMARK    4  A    between atoms: C7_13  and  O3_15 
REMARK    5  A    between atoms: O3_15  and  C8_16 
REMARK    6  A    between atoms: C8_16  and  C9_17 
REMARK    7  A    between atoms: C9_17  and  N3_19 
REMARK    8  A    between atoms: N3_19  and  C10_21 
ROOT
HETATM    1  O3  UNL     1      16.182  11.870   2.612  1.00  0.00    -0.313 OA
ENDROOT
BRANCH   1   2
HETATM    2  C7  UNL     1      17.405  12.241   2.071  1.00  0.00     0.281 C 
HETATM    3  O2  UNL     1      17.906  13.345   2.404  1.00  0.00    -0.263 OA
BRANCH   2   4
HETATM    4  C2  UNL     1      18.046  11.297   1.121  1.00  0.00     0.180 C 
HETATM    5  C1  UNL     1      18.653  10.148   1.894  1.00  0.00     0.043 C 
BRANCH   4   6
HETATM    6  N1  UNL     1      17.065  10.880   0.176  1.00  0.00    -0.342 N 
HETATM    7  C3  UNL     1      17.406  10.358  -1.096  1.00  0.00     0.269 C 
HETATM    8  O1  UNL     1      18.616  10.262  -1.391  1.00  0.00    -0.266 OA
ATOM      9  H1  UNL     1      16.079  10.962   0.425  1.00  0.00     0.163 HD
BRANCH   7  10
HETATM   10  C4  UNL     1      16.350   9.934  -2.053  1.00  0.00     0.107 A 
HETATM   11  C5  UNL     1      15.265   9.211  -1.612  1.00  0.00     0.086 A 
HETATM   12  S1  UNL     1      14.383   8.988  -3.058  1.00  0.00    -0.094 SA
HETATM   13  C6  UNL     1      15.427   9.814  -4.122  1.00  0.00     0.138 A 
HETATM   14  N2  UNL     1      16.393  10.216  -3.320  1.00  0.00    -0.355 N 
ATOM     15  H2  UNL     1      17.176  10.751  -3.695  1.00  0.00     0.166 HD
ENDBRANCH   7  10
ENDBRANCH   4   6
ENDBRANCH   2   4
ENDBRANCH   1   2
BRANCH   1  16
HETATM   16  C8  UNL     1      16.084  11.517   3.978  1.00  0.00     0.247 C 
BRANCH  16  17
HETATM   17  C9  UNL     1      15.079  10.420   4.062  1.00  0.00     0.098 C 
HETATM   18  S2  UNL     1      15.189   9.205   2.968  1.00  0.00    -0.063 SA
BRANCH  17  19
HETATM   19  N3  UNL     1      14.123  10.494   5.083  1.00  0.00    -0.373 N 
ATOM     20  H3  UNL     1      13.277  11.034   4.897  1.00  0.00     0.161 HD
BRANCH  19  21
HETATM   21  C10 UNL     1      14.240   9.860   6.390  1.00  0.00     0.032 C 
HETATM   22  C11 UNL     1      13.818  10.789   7.394  1.00  0.00     0.035 C 
HETATM   23  C12 UNL     1      13.715  10.595   8.825  1.00  0.00    -0.012 C 
HETATM   24  C13 UNL     1      14.906  10.123   9.594  1.00  0.00     0.009 C 
HETATM   25  C15 UNL     1      12.985   9.450   9.400  1.00  0.00     0.009 C 
HETATM   26  C14 UNL     1      14.305   8.769   9.529  1.00  0.00    -0.013 C 
HETATM   27  C16 UNL     1      14.732   7.829   8.535  1.00  0.00     0.009 C 
HETATM   28  C17 UNL     1      14.789   8.008   7.104  1.00  0.00    -0.009 C 
HETATM   29  C18 UNL     1      13.620   8.493   6.353  1.00  0.00     0.035 C 
HETATM   30  C19 UNL     1      15.545   9.151   6.530  1.00  0.00     0.035 C 
ENDBRANCH  19  21
ENDBRANCH  17  19
ENDBRANCH  16  17
ENDBRANCH   1  16
TORSDOF 8
ENDMDL
MODEL 4
REMARK VINA RESULT: -8.199992229      3.855      4.655
REMARK  8 active torsions:
REMARK  status: ('A' for Active; 'I' for Inactive)
REMARK    1  A    between atoms: C2_2  and  N1_3 
REMARK    2  A    between atoms: C2_2  and  C7_13 
REMARK       I    between atoms: N1_3  and  C3_5 
REMARK    3  A    between atoms: C3_5  and  C4_7 
REMARK    4  A    between atoms: C7_13  and  O3_15 
REMARK    5  A    between atoms: O3_15  and  C8_16 
REMARK    6  A    between atoms: C8_16  and  C9_17 
REMARK    7  A    between atoms: C9_17  and  N3_19 
REMARK    8  A    between atoms: N3_19  and  C10_21 
ROOT
HETATM    1  O3  UNL     1      16.703  10.362   3.076  1.00  0.00    -0.313 OA
ENDROOT
BRANCH   1   2
HETATM    2  C7  UNL     1      16.730   9.074   3.589  1.00  0.00     0.281 C 
HETATM    3  O2  UNL     1      15.916   8.226   3.145  1.00  0.00    -0.263 OA
BRANCH   2   4
HETATM    4  C2  UNL     1      17.733   8.781   4.645  1.00  0.00     0.180 C 
HETATM    5  C1  UNL     1      17.071   8.877   6.002  1.00  0.00     0.043 C 
BRANCH   4   6
HETATM    6  N1  UNL     1      18.294   7.498   4.384  1.00  0.00    -0.342 N 
HETATM    7  C3  UNL     1      19.644   7.183   4.674  1.00  0.00     0.269 C 
HETATM    8  O1  UNL     1      20.363   8.072   5.179  1.00  0.00    -0.266 OA
ATOM      9  H1  UNL     1      17.700   6.779   3.972  1.00  0.00     0.163 HD
BRANCH   7  10
HETATM   10  C4  UNL     1      20.189   5.831   4.386  1.00  0.00     0.107 A 
HETATM   11  C5  UNL     1      21.550   5.637   4.301  1.00  0.00     0.086 A 
HETATM   12  S1  UNL     1      21.643   3.964   3.965  1.00  0.00    -0.094 SA
HETATM   13  C6  UNL     1      19.975   3.614   3.953  1.00  0.00     0.138 A 
HETATM   14  N2  UNL     1      19.435   4.790   4.206  1.00  0.00    -0.355 N 
ATOM     15  H2  UNL     1      18.420   4.882   4.260  1.00  0.00     0.166 HD
ENDBRANCH   7  10
ENDBRANCH   4   6
ENDBRANCH   2   4
ENDBRANCH   1   2
BRANCH   1  16
HETATM   16  C8  UNL     1      15.818  10.693   2.023  1.00  0.00     0.247 C 
BRANCH  16  17
HETATM   17  C9  UNL     1      16.634  10.730   0.777  1.00  0.00     0.098 C 
HETATM   18  S2  UNL     1      17.782  11.894   0.658  1.00  0.00    -0.063 SA
BRANCH  17  19
HETATM   19  N3  UNL     1      16.377   9.756  -0.196  1.00  0.00    -0.373 N 
ATOM     20  H3  UNL     1      16.924   8.896  -0.156  1.00  0.00     0.161 HD
BRANCH  19  21
HETATM   21  C10 UNL     1      15.389   9.874  -1.262  1.00  0.00     0.032 C 
HETATM   22  C11 UNL     1      16.024   9.593  -2.514  1.00  0.00     0.035 C 
HETATM   23  C12 UNL     1      15.439   9.541  -3.837  1.00  0.00    -0.012 C 
HETATM   24  C13 UNL     1      14.675  10.717  -4.353  1.00  0.00     0.009 C 
HETATM   25  C15 UNL     1      14.239   8.732  -4.121  1.00  0.00     0.009 C 
HETATM   26  C14 UNL     1      13.448   9.985  -3.957  1.00  0.00    -0.013 C 
HETATM   27  C16 UNL     1      12.800  10.271  -2.711  1.00  0.00     0.009 C 
HETATM   28  C17 UNL     1      13.373  10.276  -1.387  1.00  0.00    -0.009 C 
HETATM   29  C18 UNL     1      14.144   9.125  -0.890  1.00  0.00     0.035 C 
HETATM   30  C19 UNL     1      14.570  11.110  -1.101  1.00  0.00     0.035 C 
ENDBRANCH  19  21
ENDBRANCH  17  19
ENDBRANCH  16  17
ENDBRANCH   1  16
TORSDOF 8
ENDMDL
MODEL 5
REMARK VINA RESULT: -8.173349364      1.484      1.975
REMARK  8 active torsions:
REMARK  status: ('A' for Active; 'I' for Inactive)
REMARK    1  A    between atoms: C2_2  and  N1_3 
REMARK    2  A    between atoms: C2_2  and  C7_13 
REMARK       I    between atoms: N1_3  and  C3_5 
REMARK    3  A    between atoms: C3_5  and  C4_7 
REMARK    4  A    between atoms: C7_13  and  O3_15 
REMARK    5  A    between atoms: O3_15  and  C8_16 
REMARK    6  A    between atoms: C8_16  and  C9_17 
REMARK    7  A    between atoms: C9_17  and  N3_19 
REMARK    8  A    between atoms: N3_19  and  C10_21 
ROOT
HETATM    1  O3  UNL     1      15.391  11.164   2.035  1.00  0.00    -0.313 OA
ENDROOT
BRANCH   1   2
HETATM    2  C7  UNL     1      15.592  11.624   3.328  1.00  0.00     0.281 C 
HETATM    3  O2  UNL     1      15.336  12.826   3.592  1.00  0.00    -0.263 OA
BRANCH   2   4
HETATM    4  C2  UNL     1      16.102  10.651   4.327  1.00  0.00     0.180 C 
HETATM    5  C1  UNL     1      17.579  10.890   4.546  1.00  0.00     0.043 C 
BRANCH   4   6
HETATM    6  N1  UNL     1      15.329  10.784   5.516  1.00  0.00    -0.342 N 
HETATM    7  C3  UNL     1      14.924   9.670   6.290  1.00  0.00     0.269 C 
HETATM    8  O1  UNL     1      15.262   8.530   5.908  1.00  0.00    -0.266 OA
ATOM      9  H1  UNL     1      15.058  11.719   5.821  1.00  0.00     0.163 HD
BRANCH   7  10
HETATM   10  C4  UNL     1      14.117   9.854   7.526  1.00  0.00     0.107 A 
HETATM   11  C5  UNL     1      13.678   8.759   8.235  1.00  0.00     0.086 A 
HETATM   12  S1  UNL     1      12.828   9.495   9.521  1.00  0.00    -0.094 SA
HETATM   13  C6  UNL     1      13.076  11.125   9.090  1.00  0.00     0.138 A 
HETATM   14  N2  UNL     1      13.795  11.023   7.989  1.00  0.00    -0.355 N 
ATOM     15  H2  UNL     1      14.098  11.865   7.500  1.00  0.00     0.166 HD
ENDBRANCH   7  10
ENDBRANCH   4   6
ENDBRANCH   2   4
ENDBRANCH   1   2
BRANCH   1  16
HETATM   16  C8  UNL     1      16.075  10.017   1.571  1.00  0.00     0.247 C 
BRANCH  16  17
HETATM   17  C9  UNL     1      16.849  10.440   0.370  1.00  0.00     0.098 C 
HETATM   18  S2  UNL     1      17.860  11.720   0.533  1.00  0.00    -0.063 SA
BRANCH  17  19
HETATM   19  N3  UNL     1      16.675   9.702  -0.807  1.00  0.00    -0.373 N 
ATOM     20  H3  UNL     1      17.402   9.028  -1.051  1.00  0.00     0.161 HD
BRANCH  19  21
HETATM   21  C10 UNL     1      15.538   9.819  -1.711  1.00  0.00     0.032 C 
HETATM   22  C11 UNL     1      15.980   9.556  -3.047  1.00  0.00     0.035 C 
HETATM   23  C12 UNL     1      15.203   9.510  -4.268  1.00  0.00    -0.012 C 
HETATM   24  C13 UNL     1      14.360  10.682  -4.651  1.00  0.00     0.009 C 
HETATM   25  C15 UNL     1      13.982   8.690  -4.378  1.00  0.00     0.009 C 
HETATM   26  C14 UNL     1      13.213   9.933  -4.083  1.00  0.00    -0.013 C 
HETATM   27  C16 UNL     1      12.756  10.201  -2.752  1.00  0.00     0.009 C 
HETATM   28  C17 UNL     1      13.522  10.200  -1.528  1.00  0.00    -0.009 C 
HETATM   29  C18 UNL     1      14.369   9.053  -1.165  1.00  0.00     0.035 C 
HETATM   30  C19 UNL     1      14.740  11.044  -1.416  1.00  0.00     0.035 C 
ENDBRANCH  19  21
ENDBRANCH  17  19
ENDBRANCH  16  17
ENDBRANCH   1  16
TORSDOF 8
ENDMDL
