MODEL 1
REMARK VINA RESULT: -9.909145973      0.000      0.000
REMARK  6 active torsions:
REMARK  status: ('A' for Active; 'I' for Inactive)
REMARK    1  A    between atoms: N3_10  and  C6_11 
REMARK    2  A    between atoms: C6_11  and  C7_12 
REMARK    3  A    between atoms: C6_11  and  C8_15 
REMARK       I    between atoms: C8_15  and  N4_17 
REMARK    4  A    between atoms: N4_17  and  C9_19 
REMARK    5  A    between atoms: C9_19  and  C11_22 
REMARK    6  A    between atoms: C11_22  and  C12_23 
ROOT
HETATM    1  C9  UNL     1      18.656  10.432   0.491  1.00  0.00     0.192 C 
HETATM    2  C10 UNL     1      19.852  11.303   0.391  1.00  0.00     0.084 C 
HETATM    3  N5  UNL     1      20.791  12.005   0.339  1.00  0.00    -0.195 NA
ENDROOT
BRANCH   1   4
HETATM    4  N4  UNL     1      17.740  11.185   1.372  1.00  0.00    -0.342 N 
HETATM    5  C8  UNL     1      17.802  10.997   2.774  1.00  0.00     0.254 C 
HETATM    6  O3  UNL     1      18.638  10.190   3.240  1.00  0.00    -0.271 OA
ATOM      7  H4  UNL     1      17.066  11.837   0.973  1.00  0.00     0.163 HD
BRANCH   5   8
HETATM    8  C6  UNL     1      16.896  11.735   3.706  1.00  0.00     0.301 C 
BRANCH   8   9
HETATM    9  N3  UNL     1      15.597  11.066   3.787  1.00  0.00    -0.256 N 
HETATM   10  N2  UNL     1      14.567  11.318   3.025  1.00  0.00    -0.239 N 
HETATM   11  N1  UNL     1      13.581  10.535   3.376  1.00  0.00    -0.288 N 
ATOM     12  H2  UNL     1      14.537  12.012   2.279  1.00  0.00     0.208 HD
HETATM   13  C5  UNL     1      13.963   9.747   4.390  1.00  0.00     0.051 A 
ATOM     14  H1  UNL     1      12.658  10.525   2.941  1.00  0.00     0.188 HD
HETATM   15  C4  UNL     1      13.262   8.676   5.183  1.00  0.00     0.061 C 
HETATM   16  C20 UNL     1      15.266  10.096   4.650  1.00  0.00     0.056 A 
HETATM   17  C3  UNL     1      13.784   8.818   6.599  1.00  0.00     0.010 C 
HETATM   18  C2  UNL     1      15.263   8.638   6.683  1.00  0.00    -0.012 C 
HETATM   19  C1  UNL     1      15.677   9.044   8.104  1.00  0.00     0.010 C 
HETATM   20  C21 UNL     1      16.073   9.438   5.731  1.00  0.00     0.065 C 
ENDBRANCH   8   9
BRANCH   8  21
HETATM   21  C7  UNL     1      16.754  13.127   3.278  1.00  0.00     0.208 C 
HETATM   22  O1  UNL     1      15.723  13.773   3.602  1.00  0.00    -0.646 OA
HETATM   23  O2  UNL     1      17.707  13.801   2.519  1.00  0.00    -0.646 OA
ENDBRANCH   8  21
ENDBRANCH   5   8
ENDBRANCH   1   4
BRANCH   1  24
HETATM   24  C11 UNL     1      18.013  10.191  -0.833  1.00  0.00     0.044 C 
BRANCH  24  25
HETATM   25  C12 UNL     1      16.539  10.323  -0.907  1.00  0.00    -0.011 C 
HETATM   26  C13 UNL     1      15.719   9.288  -0.236  1.00  0.00     0.010 C 
HETATM   27  C14 UNL     1      14.407   9.326  -0.991  1.00  0.00    -0.010 C 
HETATM   28  C15 UNL     1      13.643  10.595  -0.788  1.00  0.00     0.005 C 
HETATM   29  C18 UNL     1      14.852   9.423  -2.419  1.00  0.00    -0.010 C 
HETATM   30  C16 UNL     1      12.772  10.626  -2.050  1.00  0.00     0.001 C 
HETATM   31  C17 UNL     1      13.738  10.164  -3.111  1.00  0.00     0.005 C 
HETATM   32  C19 UNL     1      16.126  10.199  -2.385  1.00  0.00     0.010 C 
ENDBRANCH  24  25
ENDBRANCH   1  24
TORSDOF 6
ENDMDL
MODEL 2
REMARK VINA RESULT: -9.346926372      1.797      7.308
REMARK  6 active torsions:
REMARK  status: ('A' for Active; 'I' for Inactive)
REMARK    1  A    between atoms: N3_10  and  C6_11 
REMARK    2  A    between atoms: C6_11  and  C7_12 
REMARK    3  A    between atoms: C6_11  and  C8_15 
REMARK       I    between atoms: C8_15  and  N4_17 
REMARK    4  A    between atoms: N4_17  and  C9_19 
REMARK    5  A    between atoms: C9_19  and  C11_22 
REMARK    6  A    between atoms: C11_22  and  C12_23 
ROOT
HETATM    1  C9  UNL     1      17.058   9.202   5.560  1.00  0.00     0.192 C 
HETATM    2  C10 UNL     1      17.962   8.233   4.895  1.00  0.00     0.084 C 
HETATM    3  N5  UNL     1      18.678   7.484   4.344  1.00  0.00    -0.195 NA
ENDROOT
BRANCH   1   4
HETATM    4  N4  UNL     1      16.460   9.959   4.441  1.00  0.00    -0.342 N 
HETATM    5  C8  UNL     1      17.205  10.983   3.809  1.00  0.00     0.254 C 
HETATM    6  O3  UNL     1      18.364  11.229   4.216  1.00  0.00    -0.271 OA
ATOM      7  H4  UNL     1      15.515   9.743   4.125  1.00  0.00     0.163 HD
BRANCH   5   8
HETATM    8  C6  UNL     1      16.643  11.776   2.673  1.00  0.00     0.301 C 
BRANCH   8   9
HETATM    9  N3  UNL     1      17.227  11.331   1.407  1.00  0.00    -0.256 N 
HETATM   10  N2  UNL     1      18.478  11.471   1.059  1.00  0.00    -0.239 N 
HETATM   11  N1  UNL     1      18.645  10.959  -0.131  1.00  0.00    -0.288 N 
ATOM     12  H2  UNL     1      19.206  11.908   1.625  1.00  0.00     0.208 HD
HETATM   13  C5  UNL     1      17.483  10.470  -0.584  1.00  0.00     0.051 A 
ATOM     14  H1  UNL     1      19.529  10.936  -0.640  1.00  0.00     0.188 HD
HETATM   15  C4  UNL     1      17.084   9.783  -1.864  1.00  0.00     0.061 C 
HETATM   16  C20 UNL     1      16.572  10.714   0.415  1.00  0.00     0.056 A 
HETATM   17  C3  UNL     1      15.681  10.275  -2.163  1.00  0.00     0.010 C 
HETATM   18  C2  UNL     1      14.715   9.944  -1.075  1.00  0.00    -0.012 C 
HETATM   19  C1  UNL     1      13.418  10.701  -1.390  1.00  0.00     0.010 C 
HETATM   20  C21 UNL     1      15.130  10.313   0.301  1.00  0.00     0.065 C 
ENDBRANCH   8   9
BRANCH   8  21
HETATM   21  C7  UNL     1      16.869  13.205   2.892  1.00  0.00     0.208 C 
HETATM   22  O1  UNL     1      16.044  13.865   3.577  1.00  0.00    -0.646 OA
HETATM   23  O2  UNL     1      17.963  13.900   2.382  1.00  0.00    -0.646 OA
ENDBRANCH   8  21
ENDBRANCH   5   8
ENDBRANCH   1   4
BRANCH   1  24
HETATM   24  C11 UNL     1      15.989   8.533   6.356  1.00  0.00     0.044 C 
BRANCH  24  25
HETATM   25  C12 UNL     1      15.541   9.209   7.597  1.00  0.00    -0.011 C 
HETATM   26  C13 UNL     1      15.082   8.357   8.718  1.00  0.00     0.010 C 
HETATM   27  C14 UNL     1      14.151   9.264   9.497  1.00  0.00    -0.010 C 
HETATM   28  C15 UNL     1      14.853  10.406  10.159  1.00  0.00     0.005 C 
HETATM   29  C18 UNL     1      13.362   9.934   8.413  1.00  0.00    -0.010 C 
HETATM   30  C16 UNL     1      13.708  11.415  10.309  1.00  0.00     0.001 C 
HETATM   31  C17 UNL     1      12.988  11.273   8.993  1.00  0.00     0.005 C 
HETATM   32  C19 UNL     1      14.296  10.048   7.256  1.00  0.00     0.010 C 
ENDBRANCH  24  25
ENDBRANCH   1  24
TORSDOF 6
ENDMDL
MODEL 3
REMARK VINA RESULT: -9.210423620      4.242      7.895
REMARK  6 active torsions:
REMARK  status: ('A' for Active; 'I' for Inactive)
REMARK    1  A    between atoms: N3_10  and  C6_11 
REMARK    2  A    between atoms: C6_11  and  C7_12 
REMARK    3  A    between atoms: C6_11  and  C8_15 
REMARK       I    between atoms: C8_15  and  N4_17 
REMARK    4  A    between atoms: N4_17  and  C9_19 
REMARK    5  A    between atoms: C9_19  and  C11_22 
REMARK    6  A    between atoms: C11_22  and  C12_23 
ROOT
HETATM    1  C9  UNL     1      20.933   8.634   3.040  1.00  0.00     0.192 C 
HETATM    2  C10 UNL     1      21.640   8.145   1.831  1.00  0.00     0.084 C 
HETATM    3  N5  UNL     1      22.178   7.774   0.857  1.00  0.00    -0.195 NA
ENDROOT
BRANCH   1   4
HETATM    4  N4  UNL     1      19.579   8.967   2.552  1.00  0.00    -0.342 N 
HETATM    5  C8  UNL     1      19.237  10.316   2.294  1.00  0.00     0.254 C 
HETATM    6  O3  UNL     1      20.097  11.206   2.488  1.00  0.00    -0.271 OA
ATOM      7  H4  UNL     1      18.894   8.227   2.401  1.00  0.00     0.163 HD
BRANCH   5   8
HETATM    8  C6  UNL     1      17.880  10.701   1.800  1.00  0.00     0.301 C 
BRANCH   8   9
HETATM    9  N3  UNL     1      17.818  10.576   0.343  1.00  0.00    -0.256 N 
HETATM   10  N2  UNL     1      18.784  10.870  -0.484  1.00  0.00    -0.239 N 
HETATM   11  N1  UNL     1      18.380  10.637  -1.705  1.00  0.00    -0.288 N 
ATOM     12  H2  UNL     1      19.703  11.225  -0.220  1.00  0.00     0.208 HD
HETATM   13  C5  UNL     1      17.121  10.179  -1.689  1.00  0.00     0.051 A 
ATOM     14  H1  UNL     1      18.941  10.782  -2.545  1.00  0.00     0.188 HD
HETATM   15  C4  UNL     1      16.166   9.755  -2.773  1.00  0.00     0.061 C 
HETATM   16  C20 UNL     1      16.765  10.143  -0.363  1.00  0.00     0.056 A 
HETATM   17  C3  UNL     1      14.797  10.205  -2.301  1.00  0.00     0.010 C 
HETATM   18  C2  UNL     1      14.410   9.586  -1.000  1.00  0.00    -0.012 C 
HETATM   19  C1  UNL     1      13.138  10.304  -0.530  1.00  0.00     0.010 C 
HETATM   20  C21 UNL     1      15.411   9.680   0.091  1.00  0.00     0.065 C 
ENDBRANCH   8   9
BRANCH   8  21
HETATM   21  C7  UNL     1      17.549  12.059   2.234  1.00  0.00     0.208 C 
HETATM   22  O1  UNL     1      17.579  13.001   1.399  1.00  0.00    -0.646 OA
HETATM   23  O2  UNL     1      17.195  12.386   3.541  1.00  0.00    -0.646 OA
ENDBRANCH   8  21
ENDBRANCH   5   8
ENDBRANCH   1   4
BRANCH   1  24
HETATM   24  C11 UNL     1      20.854   7.601   4.112  1.00  0.00     0.044 C 
BRANCH  24  25
HETATM   25  C12 UNL     1      21.570   7.879   5.379  1.00  0.00    -0.011 C 
HETATM   26  C13 UNL     1      21.788   9.295   5.752  1.00  0.00     0.010 C 
HETATM   27  C14 UNL     1      23.009   9.245   6.648  1.00  0.00    -0.010 C 
HETATM   28  C15 UNL     1      22.760   8.552   7.949  1.00  0.00     0.005 C 
HETATM   29  C18 UNL     1      23.910   8.292   5.923  1.00  0.00    -0.010 C 
HETATM   30  C16 UNL     1      24.179   8.116   8.333  1.00  0.00     0.001 C 
HETATM   31  C17 UNL     1      24.735   7.654   7.010  1.00  0.00     0.005 C 
HETATM   32  C19 UNL     1      22.999   7.322   5.247  1.00  0.00     0.010 C 
ENDBRANCH  24  25
ENDBRANCH   1  24
TORSDOF 6
ENDMDL
MODEL 4
REMARK VINA RESULT: -9.183416864      1.562      2.242
REMARK  6 active torsions:
REMARK  status: ('A' for Active; 'I' for Inactive)
REMARK    1  A    between atoms: N3_10  and  C6_11 
REMARK    2  A    between atoms: C6_11  and  C7_12 
REMARK    3  A    between atoms: C6_11  and  C8_15 
REMARK       I    between atoms: C8_15  and  N4_17 
REMARK    4  A    between atoms: N4_17  and  C9_19 
REMARK    5  A    between atoms: C9_19  and  C11_22 
REMARK    6  A    between atoms: C11_22  and  C12_23 
ROOT
HETATM    1  C9  UNL     1      16.872  10.026   0.162  1.00  0.00     0.192 C 
HETATM    2  C10 UNL     1      18.236  10.432  -0.257  1.00  0.00     0.084 C 
HETATM    3  N5  UNL     1      19.324  10.752  -0.559  1.00  0.00    -0.195 NA
ENDROOT
BRANCH   1   4
HETATM    4  N4  UNL     1      16.808  10.410   1.588  1.00  0.00    -0.342 N 
HETATM    5  C8  UNL     1      16.233   9.523   2.528  1.00  0.00     0.254 C 
HETATM    6  O3  UNL     1      15.786   8.423   2.129  1.00  0.00    -0.271 OA
ATOM      7  H4  UNL     1      17.177  11.310   1.892  1.00  0.00     0.163 HD
BRANCH   5   8
HETATM    8  C6  UNL     1      16.145   9.867   3.981  1.00  0.00     0.301 C 
BRANCH   8   9
HETATM    9  N3  UNL     1      14.832   9.497   4.510  1.00  0.00    -0.256 N 
HETATM   10  N2  UNL     1      13.708   9.544   3.848  1.00  0.00    -0.239 N 
HETATM   11  N1  UNL     1      12.740   9.145   4.630  1.00  0.00    -0.288 N 
ATOM     12  H2  UNL     1      13.603   9.844   2.879  1.00  0.00     0.208 HD
HETATM   13  C5  UNL     1      13.230   8.826   5.835  1.00  0.00     0.051 A 
ATOM     14  H1  UNL     1      11.758   9.084   4.361  1.00  0.00     0.188 HD
HETATM   15  C4  UNL     1      12.595   8.319   7.104  1.00  0.00     0.061 C 
HETATM   16  C20 UNL     1      14.582   9.057   5.751  1.00  0.00     0.056 A 
HETATM   17  C3  UNL     1      13.366   8.981   8.230  1.00  0.00     0.010 C 
HETATM   18  C2  UNL     1      14.818   8.639   8.206  1.00  0.00    -0.012 C 
HETATM   19  C1  UNL     1      15.504   9.553   9.231  1.00  0.00     0.010 C 
HETATM   20  C21 UNL     1      15.510   8.819   6.906  1.00  0.00     0.065 C 
ENDBRANCH   8   9
BRANCH   8  21
HETATM   21  C7  UNL     1      16.422  11.289   4.182  1.00  0.00     0.208 C 
HETATM   22  O1  UNL     1      15.465  12.106   4.228  1.00  0.00    -0.646 OA
HETATM   23  O2  UNL     1      17.704  11.812   4.330  1.00  0.00    -0.646 OA
ENDBRANCH   8  21
ENDBRANCH   5   8
ENDBRANCH   1   4
BRANCH   1  24
HETATM   24  C11 UNL     1      15.806  10.728  -0.607  1.00  0.00     0.044 C 
BRANCH  24  25
HETATM   25  C12 UNL     1      15.207  10.005  -1.754  1.00  0.00    -0.011 C 
HETATM   26  C13 UNL     1      15.899  10.090  -3.060  1.00  0.00     0.010 C 
HETATM   27  C14 UNL     1      14.794   9.841  -4.067  1.00  0.00    -0.010 C 
HETATM   28  C15 UNL     1      14.255   8.447  -4.021  1.00  0.00     0.005 C 
HETATM   29  C18 UNL     1      13.663  10.659  -3.523  1.00  0.00    -0.010 C 
HETATM   30  C16 UNL     1      12.858   8.646  -4.621  1.00  0.00     0.001 C 
HETATM   31  C17 UNL     1      12.422   9.940  -3.983  1.00  0.00     0.005 C 
HETATM   32  C19 UNL     1      13.829  10.630  -2.040  1.00  0.00     0.010 C 
ENDBRANCH  24  25
ENDBRANCH   1  24
TORSDOF 6
ENDMDL
MODEL 5
REMARK VINA RESULT: -9.101640606      1.351      1.546
REMARK  6 active torsions:
REMARK  status: ('A' for Active; 'I' for Inactive)
REMARK    1  A    between atoms: N3_10  and  C6_11 
REMARK    2  A    between atoms: C6_11  and  C7_12 
REMARK    3  A    between atoms: C6_11  and  C8_15 
REMARK       I    between atoms: C8_15  and  N4_17 
REMARK    4  A    between atoms: N4_17  and  C9_19 
REMARK    5  A    between atoms: C9_19  and  C11_22 
REMARK    6  A    between atoms: C11_22  and  C12_23 
ROOT
HETATM    1  C9  UNL     1      18.385  10.592   1.337  1.00  0.00     0.192 C 
HETATM    2  C10 UNL     1      19.368  11.701   1.284  1.00  0.00     0.084 C 
HETATM    3  N5  UNL     1      20.133  12.591   1.267  1.00  0.00    -0.195 NA
ENDROOT
BRANCH   1   4
HETATM    4  N4  UNL     1      17.279  11.134   2.154  1.00  0.00    -0.342 N 
HETATM    5  C8  UNL     1      17.026  10.596   3.438  1.00  0.00     0.254 C 
HETATM    6  O3  UNL     1      17.750   9.665   3.859  1.00  0.00    -0.271 OA
ATOM      7  H4  UNL     1      16.701  11.892   1.793  1.00  0.00     0.163 HD
BRANCH   5   8
HETATM    8  C6  UNL     1      15.918  11.111   4.301  1.00  0.00     0.301 C 
BRANCH   8   9
HETATM    9  N3  UNL     1      14.992  10.029   4.635  1.00  0.00    -0.256 N 
HETATM   10  N2  UNL     1      14.423   9.227   3.777  1.00  0.00    -0.239 N 
HETATM   11  N1  UNL     1      13.662   8.385   4.425  1.00  0.00    -0.288 N 
ATOM     12  H2  UNL     1      14.551   9.253   2.765  1.00  0.00     0.208 HD
HETATM   13  C5  UNL     1      13.726   8.633   5.740  1.00  0.00     0.051 A 
ATOM     14  H1  UNL     1      13.102   7.650   3.994  1.00  0.00     0.188 HD
HETATM   15  C4  UNL     1      13.075   7.998   6.941  1.00  0.00     0.061 C 
HETATM   16  C20 UNL     1      14.587   9.696   5.868  1.00  0.00     0.056 A 
HETATM   17  C3  UNL     1      12.798   9.141   7.899  1.00  0.00     0.010 C 
HETATM   18  C2  UNL     1      14.041   9.860   8.305  1.00  0.00    -0.012 C 
HETATM   19  C1  UNL     1      13.596  11.118   9.063  1.00  0.00     0.010 C 
HETATM   20  C21 UNL     1      14.936  10.290   7.202  1.00  0.00     0.065 C 
ENDBRANCH   8   9
BRANCH   8  21
HETATM   21  C7  UNL     1      15.230  12.217   3.634  1.00  0.00     0.208 C 
HETATM   22  O1  UNL     1      14.124  12.008   3.069  1.00  0.00    -0.646 OA
HETATM   23  O2  UNL     1      15.729  13.516   3.582  1.00  0.00    -0.646 OA
ENDBRANCH   8  21
ENDBRANCH   5   8
ENDBRANCH   1   4
BRANCH   1  24
HETATM   24  C11 UNL     1      17.886  10.205  -0.013  1.00  0.00     0.044 C 
BRANCH  24  25
HETATM   25  C12 UNL     1      16.431  10.331  -0.262  1.00  0.00    -0.011 C 
HETATM   26  C13 UNL     1      15.550   9.251   0.239  1.00  0.00     0.010 C 
HETATM   27  C14 UNL     1      14.340   9.326  -0.670  1.00  0.00    -0.010 C 
HETATM   28  C15 UNL     1      13.539  10.575  -0.488  1.00  0.00     0.005 C 
HETATM   29  C18 UNL     1      14.957   9.514  -2.023  1.00  0.00    -0.010 C 
HETATM   30  C16 UNL     1      12.830  10.678  -1.844  1.00  0.00     0.001 C 
HETATM   31  C17 UNL     1      13.926  10.289  -2.802  1.00  0.00     0.005 C 
HETATM   32  C19 UNL     1      16.205  10.296  -1.784  1.00  0.00     0.010 C 
ENDBRANCH  24  25
ENDBRANCH   1  24
TORSDOF 6
ENDMDL
