MODEL 1
REMARK VINA RESULT: -6.168718560      0.000      0.000
REMARK  4 active torsions:
REMARK  status: ('A' for Active; 'I' for Inactive)
REMARK    1  A    between atoms: C2_2  and  C3_3 
REMARK    2  A    between atoms: N2_13  and  C9_14 
REMARK    3  A    between atoms: C9_14  and  C10_18 
REMARK    4  A    between atoms: C10_18  and  N4_19 
ROOT
HETATM    1  C3  UNL     1      24.150  38.967  24.507  1.00  0.00     0.011 C 
HETATM    2  C4  UNL     1      24.760  40.292  24.115  1.00  0.00     0.038 C 
HETATM    3  C5  UNL     1      24.157  40.503  22.745  1.00  0.00     0.143 C 
HETATM    4  C6  UNL     1      22.705  40.811  22.922  1.00  0.00     0.063 C 
HETATM    5  N1  UNL     1      22.261  41.996  22.767  1.00  0.00    -0.395 N 
ATOM      6  H11 UNL     1      21.270  42.207  22.888  1.00  0.00     0.156 HD
ATOM      7  H12 UNL     1      22.922  42.732  22.518  1.00  0.00     0.156 HD
HETATM    8  S1  UNL     1      21.545  39.518  23.360  1.00  0.00    -0.113 SA
HETATM    9  C7  UNL     1      22.402  37.932  23.138  1.00  0.00     0.106 C 
HETATM   10  C8  UNL     1      23.900  38.236  23.215  1.00  0.00     0.100 C 
HETATM   11  N2  UNL     1      24.253  39.179  22.164  1.00  0.00    -0.353 N 
ENDROOT
BRANCH  11  12
HETATM   12  C9  UNL     1      24.611  38.840  20.855  1.00  0.00     0.092 C 
HETATM   13  N3  UNL     1      24.277  39.627  19.883  1.00  0.00    -0.388 N 
ATOM     14  H32 UNL     1      23.758  40.481  20.089  1.00  0.00     0.157 HD
ATOM     15  H31 UNL     1      24.538  39.380  18.929  1.00  0.00     0.157 HD
BRANCH  12  16
HETATM   16  C10 UNL     1      25.369  37.597  20.555  1.00  0.00     0.204 C 
BRANCH  16  17
HETATM   17  N4  UNL     1      24.524  36.677  19.787  1.00  0.00    -0.349 N 
HETATM   18  C11 UNL     1      24.371  36.796  18.458  1.00  0.00     0.093 A 
HETATM   19  C12 UNL     1      23.536  35.813  18.004  1.00  0.00     0.038 A 
HETATM   20  C13 UNL     1      23.196  35.093  19.157  1.00  0.00     0.033 A 
HETATM   21  S2  UNL     1      22.303  33.779  19.776  1.00  0.00    -0.100 SA
HETATM   22  C16 UNL     1      23.798  35.614  20.265  1.00  0.00     0.052 A 
HETATM   23  C14 UNL     1      22.712  33.919  21.424  1.00  0.00     0.053 A 
HETATM   24  C15 UNL     1      23.544  35.001  21.444  1.00  0.00     0.038 A 
ENDBRANCH  16  17
ENDBRANCH  12  16
ENDBRANCH  11  12
BRANCH   1  25
HETATM   25  C2  UNL     1      25.059  38.189  25.435  1.00  0.00     0.002 C 
HETATM   26  C1  UNL     1      25.768  37.125  24.645  1.00  0.00     0.005 C 
ENDBRANCH   1  25
TORSDOF 4
ENDMDL
MODEL 2
REMARK VINA RESULT: -6.136357363      1.338      2.839
REMARK  4 active torsions:
REMARK  status: ('A' for Active; 'I' for Inactive)
REMARK    1  A    between atoms: C2_2  and  C3_3 
REMARK    2  A    between atoms: N2_13  and  C9_14 
REMARK    3  A    between atoms: C9_14  and  C10_18 
REMARK    4  A    between atoms: C10_18  and  N4_19 
ROOT
HETATM    1  C3  UNL     1      22.108  40.185  23.073  1.00  0.00     0.011 C 
HETATM    2  C4  UNL     1      21.975  38.681  23.139  1.00  0.00     0.038 C 
HETATM    3  C5  UNL     1      23.407  38.246  22.935  1.00  0.00     0.143 C 
HETATM    4  C6  UNL     1      24.175  38.595  24.169  1.00  0.00     0.063 C 
HETATM    5  N1  UNL     1      24.529  37.695  25.000  1.00  0.00    -0.395 N 
ATOM      6  H11 UNL     1      25.053  37.933  25.843  1.00  0.00     0.156 HD
ATOM      7  H12 UNL     1      24.276  36.727  24.802  1.00  0.00     0.156 HD
HETATM    8  S1  UNL     1      24.620  40.296  24.517  1.00  0.00    -0.113 SA
HETATM    9  C7  UNL     1      24.314  41.250  23.002  1.00  0.00     0.106 C 
HETATM   10  C8  UNL     1      23.295  40.449  22.186  1.00  0.00     0.100 C 
HETATM   11  N2  UNL     1      23.849  39.137  21.882  1.00  0.00    -0.353 N 
ENDROOT
BRANCH  11  12
HETATM   12  C9  UNL     1      24.649  38.830  20.777  1.00  0.00     0.092 C 
HETATM   13  N3  UNL     1      24.824  39.721  19.854  1.00  0.00    -0.388 N 
ATOM     14  H32 UNL     1      24.374  40.631  19.949  1.00  0.00     0.157 HD
ATOM     15  H31 UNL     1      25.407  39.496  19.048  1.00  0.00     0.157 HD
BRANCH  12  16
HETATM   16  C10 UNL     1      25.306  37.503  20.639  1.00  0.00     0.204 C 
BRANCH  16  17
HETATM   17  N4  UNL     1      24.456  36.612  19.843  1.00  0.00    -0.349 N 
HETATM   18  C11 UNL     1      24.330  36.752  18.514  1.00  0.00     0.093 A 
HETATM   19  C12 UNL     1      23.482  35.793  18.031  1.00  0.00     0.038 A 
HETATM   20  C13 UNL     1      23.107  35.065  19.167  1.00  0.00     0.033 A 
HETATM   21  S2  UNL     1      22.177  33.761  19.752  1.00  0.00    -0.100 SA
HETATM   22  C16 UNL     1      23.701  35.558  20.293  1.00  0.00     0.052 A 
HETATM   23  C14 UNL     1      22.560  33.870  21.409  1.00  0.00     0.053 A 
HETATM   24  C15 UNL     1      23.413  34.933  21.458  1.00  0.00     0.038 A 
ENDBRANCH  16  17
ENDBRANCH  12  16
ENDBRANCH  11  12
BRANCH   1  25
HETATM   25  C2  UNL     1      20.847  40.833  22.545  1.00  0.00     0.002 C 
HETATM   26  C1  UNL     1      19.672  40.339  23.342  1.00  0.00     0.005 C 
ENDBRANCH   1  25
TORSDOF 4
ENDMDL
MODEL 3
REMARK VINA RESULT: -6.093365344      2.676      4.062
REMARK  4 active torsions:
REMARK  status: ('A' for Active; 'I' for Inactive)
REMARK    1  A    between atoms: C2_2  and  C3_3 
REMARK    2  A    between atoms: N2_13  and  C9_14 
REMARK    3  A    between atoms: C9_14  and  C10_18 
REMARK    4  A    between atoms: C10_18  and  N4_19 
ROOT
HETATM    1  C3  UNL     1      23.799  38.328  25.407  1.00  0.00     0.011 C 
HETATM    2  C4  UNL     1      25.013  39.132  25.811  1.00  0.00     0.038 C 
HETATM    3  C5  UNL     1      24.455  40.536  25.804  1.00  0.00     0.143 C 
HETATM    4  C6  UNL     1      23.529  40.669  26.970  1.00  0.00     0.063 C 
HETATM    5  N1  UNL     1      23.869  41.328  28.007  1.00  0.00    -0.395 N 
ATOM      6  H11 UNL     1      23.238  41.420  28.804  1.00  0.00     0.156 HD
ATOM      7  H12 UNL     1      24.791  41.765  28.024  1.00  0.00     0.156 HD
HETATM    8  S1  UNL     1      21.910  39.903  26.942  1.00  0.00    -0.113 SA
HETATM    9  C7  UNL     1      21.594  39.382  25.231  1.00  0.00     0.106 C 
HETATM   10  C8  UNL     1      22.963  39.250  24.560  1.00  0.00     0.100 C 
HETATM   11  N2  UNL     1      23.645  40.537  24.604  1.00  0.00    -0.353 N 
ENDROOT
BRANCH  11  12
HETATM   12  C9  UNL     1      23.520  41.555  23.653  1.00  0.00     0.092 C 
HETATM   13  N3  UNL     1      23.961  42.739  23.932  1.00  0.00    -0.388 N 
ATOM     14  H32 UNL     1      24.392  42.909  24.841  1.00  0.00     0.157 HD
ATOM     15  H31 UNL     1      23.869  43.482  23.239  1.00  0.00     0.157 HD
BRANCH  12  16
HETATM   16  C10 UNL     1      22.892  41.307  22.328  1.00  0.00     0.204 C 
BRANCH  16  17
HETATM   17  N4  UNL     1      23.926  40.967  21.347  1.00  0.00    -0.349 N 
HETATM   18  C11 UNL     1      24.570  41.910  20.640  1.00  0.00     0.093 A 
HETATM   19  C12 UNL     1      25.477  41.317  19.805  1.00  0.00     0.038 A 
HETATM   20  C13 UNL     1      25.331  39.947  20.061  1.00  0.00     0.033 A 
HETATM   21  S2  UNL     1      25.875  38.381  19.660  1.00  0.00    -0.100 SA
HETATM   22  C16 UNL     1      24.378  39.715  21.010  1.00  0.00     0.052 A 
HETATM   23  C14 UNL     1      24.883  37.469  20.704  1.00  0.00     0.053 A 
HETATM   24  C15 UNL     1      24.148  38.425  21.343  1.00  0.00     0.038 A 
ENDBRANCH  16  17
ENDBRANCH  12  16
ENDBRANCH  11  12
BRANCH   1  25
HETATM   25  C2  UNL     1      24.187  37.068  24.664  1.00  0.00     0.002 C 
HETATM   26  C1  UNL     1      25.681  37.039  24.500  1.00  0.00     0.005 C 
ENDBRANCH   1  25
TORSDOF 4
ENDMDL
MODEL 4
REMARK VINA RESULT: -6.064000039      2.841      4.039
REMARK  4 active torsions:
REMARK  status: ('A' for Active; 'I' for Inactive)
REMARK    1  A    between atoms: C2_2  and  C3_3 
REMARK    2  A    between atoms: N2_13  and  C9_14 
REMARK    3  A    between atoms: C9_14  and  C10_18 
REMARK    4  A    between atoms: C10_18  and  N4_19 
ROOT
HETATM    1  C3  UNL     1      23.788  38.616  24.315  1.00  0.00     0.011 C 
HETATM    2  C4  UNL     1      24.931  39.493  24.771  1.00  0.00     0.038 C 
HETATM    3  C5  UNL     1      24.499  40.842  24.245  1.00  0.00     0.143 C 
HETATM    4  C6  UNL     1      23.338  41.306  25.066  1.00  0.00     0.063 C 
HETATM    5  N1  UNL     1      23.475  42.229  25.934  1.00  0.00    -0.395 N 
ATOM      6  H11 UNL     1      22.683  42.545  26.495  1.00  0.00     0.156 HD
ATOM      7  H12 UNL     1      24.398  42.646  26.058  1.00  0.00     0.156 HD
HETATM    8  S1  UNL     1      21.718  40.574  24.849  1.00  0.00    -0.113 SA
HETATM    9  C7  UNL     1      21.772  39.593  23.321  1.00  0.00     0.106 C 
HETATM   10  C8  UNL     1      23.247  39.267  23.071  1.00  0.00     0.100 C 
HETATM   11  N2  UNL     1      23.995  40.509  22.929  1.00  0.00    -0.353 N 
ENDROOT
BRANCH  11  12
HETATM   12  C9  UNL     1      24.173  41.218  21.736  1.00  0.00     0.092 C 
HETATM   13  N3  UNL     1      24.575  42.447  21.785  1.00  0.00    -0.388 N 
ATOM     14  H32 UNL     1      24.754  42.877  22.692  1.00  0.00     0.157 HD
ATOM     15  H31 UNL     1      24.705  42.964  20.915  1.00  0.00     0.157 HD
BRANCH  12  16
HETATM   16  C10 UNL     1      23.913  40.591  20.413  1.00  0.00     0.204 C 
BRANCH  16  17
HETATM   17  N4  UNL     1      25.024  39.701  20.061  1.00  0.00    -0.349 N 
HETATM   18  C11 UNL     1      24.911  38.364  20.132  1.00  0.00     0.093 A 
HETATM   19  C12 UNL     1      26.090  37.785  19.749  1.00  0.00     0.038 A 
HETATM   20  C13 UNL     1      26.921  38.871  19.443  1.00  0.00     0.033 A 
HETATM   21  S2  UNL     1      28.470  39.343  18.910  1.00  0.00    -0.100 SA
HETATM   22  C16 UNL     1      26.276  40.060  19.630  1.00  0.00     0.052 A 
HETATM   23  C14 UNL     1      28.267  41.035  18.937  1.00  0.00     0.053 A 
HETATM   24  C15 UNL     1      26.980  41.184  19.366  1.00  0.00     0.038 A 
ENDBRANCH  16  17
ENDBRANCH  12  16
ENDBRANCH  11  12
BRANCH   1  25
HETATM   25  C2  UNL     1      24.243  37.195  24.062  1.00  0.00     0.002 C 
HETATM   26  C1  UNL     1      25.681  37.061  24.479  1.00  0.00     0.005 C 
ENDBRANCH   1  25
TORSDOF 4
ENDMDL
MODEL 5
REMARK VINA RESULT: -6.014242885      3.451      5.114
REMARK  4 active torsions:
REMARK  status: ('A' for Active; 'I' for Inactive)
REMARK    1  A    between atoms: C2_2  and  C3_3 
REMARK    2  A    between atoms: N2_13  and  C9_14 
REMARK    3  A    between atoms: C9_14  and  C10_18 
REMARK    4  A    between atoms: C10_18  and  N4_19 
ROOT
HETATM    1  C3  UNL     1      24.874  38.035  25.436  1.00  0.00     0.011 C 
HETATM    2  C4  UNL     1      25.194  39.494  25.210  1.00  0.00     0.038 C 
HETATM    3  C5  UNL     1      23.906  40.152  25.648  1.00  0.00     0.143 C 
HETATM    4  C6  UNL     1      23.808  40.029  27.134  1.00  0.00     0.063 C 
HETATM    5  N1  UNL     1      24.012  41.034  27.891  1.00  0.00    -0.395 N 
ATOM      6  H11 UNL     1      23.946  40.951  28.906  1.00  0.00     0.156 HD
ATOM      7  H12 UNL     1      24.244  41.928  27.459  1.00  0.00     0.156 HD
HETATM    8  S1  UNL     1      23.400  38.459  27.896  1.00  0.00    -0.113 SA
HETATM    9  C7  UNL     1      22.812  37.360  26.574  1.00  0.00     0.106 C 
HETATM   10  C8  UNL     1      23.383  37.914  25.267  1.00  0.00     0.100 C 
HETATM   11  N2  UNL     1      22.906  39.276  25.073  1.00  0.00    -0.353 N 
ENDROOT
BRANCH  11  12
HETATM   12  C9  UNL     1      21.708  39.635  24.447  1.00  0.00     0.092 C 
HETATM   13  N3  UNL     1      20.671  39.908  25.173  1.00  0.00    -0.388 N 
ATOM     14  H32 UNL     1      20.747  39.857  26.189  1.00  0.00     0.157 HD
ATOM     15  H31 UNL     1      19.797  40.170  24.717  1.00  0.00     0.157 HD
BRANCH  12  16
HETATM   16  C10 UNL     1      21.597  39.710  22.966  1.00  0.00     0.204 C 
BRANCH  16  17
HETATM   17  N4  UNL     1      22.463  40.779  22.460  1.00  0.00    -0.349 N 
HETATM   18  C11 UNL     1      22.300  42.059  22.829  1.00  0.00     0.093 A 
HETATM   19  C12 UNL     1      23.239  42.838  22.210  1.00  0.00     0.038 A 
HETATM   20  C13 UNL     1      23.980  41.932  21.440  1.00  0.00     0.033 A 
HETATM   21  S2  UNL     1      25.280  41.754  20.351  1.00  0.00    -0.100 SA
HETATM   22  C16 UNL     1      23.514  40.657  21.584  1.00  0.00     0.052 A 
HETATM   23  C14 UNL     1      25.203  40.070  20.103  1.00  0.00     0.053 A 
HETATM   24  C15 UNL     1      24.152  39.691  20.886  1.00  0.00     0.038 A 
ENDBRANCH  16  17
ENDBRANCH  12  16
ENDBRANCH  11  12
BRANCH   1  25
HETATM   25  C2  UNL     1      25.631  37.144  24.474  1.00  0.00     0.002 C 
HETATM   26  C1  UNL     1      24.721  36.768  23.339  1.00  0.00     0.005 C 
ENDBRANCH   1  25
TORSDOF 4
ENDMDL
