MODEL 1
REMARK VINA RESULT: -5.493765639      0.000      0.000
REMARK  5 active torsions:
REMARK  status: ('A' for Active; 'I' for Inactive)
REMARK    1  A    between atoms: C2_2  and  N1_3 
REMARK    2  A    between atoms: N1_3  and  C3_5 
REMARK    3  A    between atoms: C3_5  and  N2_7 
REMARK    4  A    between atoms: N2_7  and  C4_9 
REMARK    5  A    between atoms: C7_12  and  N3_13 
ROOT
HETATM    1  C4  UNL     1      24.892  36.963  19.467  1.00  0.00     0.053 A 
HETATM    2  C5  UNL     1      24.530  36.600  18.201  1.00  0.00     0.033 A 
HETATM    3  C6  UNL     1      23.505  35.670  17.927  1.00  0.00     0.033 A 
HETATM    4  C7  UNL     1      22.828  35.093  18.964  1.00  0.00     0.049 A 
HETATM    5  C12 UNL     1      23.173  35.443  20.283  1.00  0.00     0.058 A 
HETATM    6  S2  UNL     1      22.714  35.085  21.869  1.00  0.00    -0.049 SA
HETATM    7  S3  UNL     1      24.146  36.384  22.242  1.00  0.00    -0.049 SA
HETATM    8  C13 UNL     1      24.160  36.338  20.537  1.00  0.00     0.058 A 
ENDROOT
BRANCH   1   9
HETATM    9  N2  UNL     1      25.925  37.851  19.733  1.00  0.00    -0.332 N 
ATOM     10  H2  UNL     1      26.827  37.412  19.913  1.00  0.00     0.168 HD
BRANCH   9  11
HETATM   11  C3  UNL     1      25.935  39.229  19.795  1.00  0.00     0.172 C 
HETATM   12  S1  UNL     1      24.727  40.148  20.353  1.00  0.00    -0.041 SA
BRANCH  11  13
HETATM   13  N1  UNL     1      27.133  39.929  19.354  1.00  0.00    -0.367 N 
ATOM     14  H1  UNL     1      27.155  40.947  19.286  1.00  0.00     0.161 HD
BRANCH  13  15
HETATM   15  C2  UNL     1      28.282  39.133  19.019  1.00  0.00     0.117 C 
HETATM   16  C1  UNL     1      29.303  40.028  18.344  1.00  0.00     0.026 C 
ENDBRANCH  13  15
ENDBRANCH  11  13
ENDBRANCH   9  11
ENDBRANCH   1   9
BRANCH   4  17
HETATM   17  N3  UNL     1      21.811  34.171  18.672  1.00  0.00    -0.376 N 
HETATM   18  C8  UNL     1      21.996  32.746  18.550  1.00  0.00     0.149 C 
HETATM   19  C9  UNL     1      21.237  32.154  17.384  1.00  0.00     0.187 C 
HETATM   20  O1  UNL     1      20.312  33.008  16.836  1.00  0.00    -0.388 OA
HETATM   21  C10 UNL     1      19.555  33.614  17.859  1.00  0.00     0.187 C 
HETATM   22  C11 UNL     1      20.443  34.670  18.469  1.00  0.00     0.149 C 
ENDBRANCH   4  17
TORSDOF 5
ENDMDL
MODEL 2
REMARK VINA RESULT: -5.361822911      0.786      1.319
REMARK  5 active torsions:
REMARK  status: ('A' for Active; 'I' for Inactive)
REMARK    1  A    between atoms: C2_2  and  N1_3 
REMARK    2  A    between atoms: N1_3  and  C3_5 
REMARK    3  A    between atoms: C3_5  and  N2_7 
REMARK    4  A    between atoms: N2_7  and  C4_9 
REMARK    5  A    between atoms: C7_12  and  N3_13 
ROOT
HETATM    1  C4  UNL     1      24.889  36.983  19.469  1.00  0.00     0.053 A 
HETATM    2  C5  UNL     1      24.500  36.620  18.212  1.00  0.00     0.033 A 
HETATM    3  C6  UNL     1      23.456  35.705  17.959  1.00  0.00     0.033 A 
HETATM    4  C7  UNL     1      22.787  35.144  19.011  1.00  0.00     0.049 A 
HETATM    5  C12 UNL     1      23.161  35.494  20.321  1.00  0.00     0.058 A 
HETATM    6  S2  UNL     1      22.723  35.149  21.916  1.00  0.00    -0.049 SA
HETATM    7  S3  UNL     1      24.182  36.427  22.260  1.00  0.00    -0.049 SA
HETATM    8  C13 UNL     1      24.166  36.374  20.555  1.00  0.00     0.058 A 
ENDROOT
BRANCH   1   9
HETATM    9  N2  UNL     1      25.941  37.855  19.714  1.00  0.00    -0.332 N 
ATOM     10  H2  UNL     1      26.839  37.401  19.883  1.00  0.00     0.168 HD
BRANCH   9  11
HETATM   11  C3  UNL     1      25.975  39.232  19.766  1.00  0.00     0.172 C 
HETATM   12  S1  UNL     1      24.782  40.176  20.314  1.00  0.00    -0.041 SA
BRANCH  11  13
HETATM   13  N1  UNL     1      27.187  39.909  19.325  1.00  0.00    -0.367 N 
ATOM     14  H1  UNL     1      27.234  40.926  19.269  1.00  0.00     0.161 HD
BRANCH  13  15
HETATM   15  C2  UNL     1      28.313  39.089  18.971  1.00  0.00     0.117 C 
HETATM   16  C1  UNL     1      29.333  39.958  18.262  1.00  0.00     0.026 C 
ENDBRANCH  13  15
ENDBRANCH  11  13
ENDBRANCH   9  11
ENDBRANCH   1   9
BRANCH   4  17
HETATM   17  N3  UNL     1      21.751  34.238  18.740  1.00  0.00    -0.376 N 
HETATM   18  C8  UNL     1      20.375  34.600  18.499  1.00  0.00     0.149 C 
HETATM   19  C9  UNL     1      19.397  33.681  19.196  1.00  0.00     0.187 C 
HETATM   20  O1  UNL     1      19.969  32.534  19.687  1.00  0.00    -0.388 OA
HETATM   21  C10 UNL     1      20.810  31.962  18.710  1.00  0.00     0.187 C 
HETATM   22  C11 UNL     1      22.064  32.802  18.692  1.00  0.00     0.149 C 
ENDBRANCH   4  17
TORSDOF 5
ENDMDL
MODEL 3
REMARK VINA RESULT: -5.284010030      2.420      3.090
REMARK  5 active torsions:
REMARK  status: ('A' for Active; 'I' for Inactive)
REMARK    1  A    between atoms: C2_2  and  N1_3 
REMARK    2  A    between atoms: N1_3  and  C3_5 
REMARK    3  A    between atoms: C3_5  and  N2_7 
REMARK    4  A    between atoms: N2_7  and  C4_9 
REMARK    5  A    between atoms: C7_12  and  N3_13 
ROOT
HETATM    1  C4  UNL     1      24.229  38.522  21.779  1.00  0.00     0.053 A 
HETATM    2  C5  UNL     1      24.789  38.102  20.607  1.00  0.00     0.033 A 
HETATM    3  C6  UNL     1      24.511  36.849  20.022  1.00  0.00     0.033 A 
HETATM    4  C7  UNL     1      23.640  35.997  20.644  1.00  0.00     0.049 A 
HETATM    5  C12 UNL     1      23.044  36.396  21.855  1.00  0.00     0.058 A 
HETATM    6  S2  UNL     1      21.955  35.807  23.005  1.00  0.00    -0.049 SA
HETATM    7  S3  UNL     1      22.350  37.559  23.813  1.00  0.00    -0.049 SA
HETATM    8  C13 UNL     1      23.317  37.604  22.409  1.00  0.00     0.058 A 
ENDROOT
BRANCH   1   9
HETATM    9  N2  UNL     1      24.533  39.742  22.369  1.00  0.00    -0.332 N 
ATOM     10  H2  UNL     1      25.252  39.697  23.091  1.00  0.00     0.168 HD
BRANCH   9  11
HETATM   11  C3  UNL     1      24.026  41.003  22.141  1.00  0.00     0.172 C 
HETATM   12  S1  UNL     1      22.553  41.510  22.575  1.00  0.00    -0.041 SA
BRANCH  11  13
HETATM   13  N1  UNL     1      24.882  41.982  21.485  1.00  0.00    -0.367 N 
ATOM     14  H1  UNL     1      25.421  42.659  22.025  1.00  0.00     0.161 HD
BRANCH  13  15
HETATM   15  C2  UNL     1      24.938  41.957  20.049  1.00  0.00     0.117 C 
HETATM   16  C1  UNL     1      26.275  41.377  19.633  1.00  0.00     0.026 C 
ENDBRANCH  13  15
ENDBRANCH  11  13
ENDBRANCH   9  11
ENDBRANCH   1   9
BRANCH   4  17
HETATM   17  N3  UNL     1      23.375  34.756  20.048  1.00  0.00    -0.376 N 
HETATM   18  C8  UNL     1      22.716  34.570  18.778  1.00  0.00     0.149 C 
HETATM   19  C9  UNL     1      21.712  33.440  18.798  1.00  0.00     0.187 C 
HETATM   20  O1  UNL     1      21.808  32.636  19.905  1.00  0.00    -0.388 OA
HETATM   21  C10 UNL     1      23.158  32.305  20.142  1.00  0.00     0.187 C 
HETATM   22  C11 UNL     1      23.790  33.532  20.750  1.00  0.00     0.149 C 
ENDBRANCH   4  17
TORSDOF 5
ENDMDL
MODEL 4
REMARK VINA RESULT: -5.220688422      1.763      2.548
REMARK  5 active torsions:
REMARK  status: ('A' for Active; 'I' for Inactive)
REMARK    1  A    between atoms: C2_2  and  N1_3 
REMARK    2  A    between atoms: N1_3  and  C3_5 
REMARK    3  A    between atoms: C3_5  and  N2_7 
REMARK    4  A    between atoms: N2_7  and  C4_9 
REMARK    5  A    between atoms: C7_12  and  N3_13 
ROOT
HETATM    1  C4  UNL     1      24.640  37.531  19.861  1.00  0.00     0.053 A 
HETATM    2  C5  UNL     1      24.423  36.978  18.632  1.00  0.00     0.033 A 
HETATM    3  C6  UNL     1      23.614  35.840  18.428  1.00  0.00     0.033 A 
HETATM    4  C7  UNL     1      23.008  35.248  19.501  1.00  0.00     0.049 A 
HETATM    5  C12 UNL     1      23.209  35.791  20.783  1.00  0.00     0.058 A 
HETATM    6  S2  UNL     1      22.746  35.510  22.384  1.00  0.00    -0.049 SA
HETATM    7  S3  UNL     1      23.878  37.098  22.658  1.00  0.00    -0.049 SA
HETATM    8  C13 UNL     1      23.989  36.885  20.970  1.00  0.00     0.058 A 
ENDROOT
BRANCH   1   9
HETATM    9  N2  UNL     1      25.466  38.629  20.061  1.00  0.00    -0.332 N 
ATOM     10  H2  UNL     1      26.452  38.401  20.194  1.00  0.00     0.168 HD
BRANCH   9  11
HETATM   11  C3  UNL     1      25.177  39.977  20.110  1.00  0.00     0.172 C 
HETATM   12  S1  UNL     1      26.210  41.167  19.751  1.00  0.00    -0.041 SA
BRANCH  11  13
HETATM   13  N1  UNL     1      23.828  40.378  20.483  1.00  0.00    -0.367 N 
ATOM     14  H1  UNL     1      23.060  40.336  19.813  1.00  0.00     0.161 HD
BRANCH  13  15
HETATM   15  C2  UNL     1      23.620  40.836  21.829  1.00  0.00     0.117 C 
HETATM   16  C1  UNL     1      22.204  40.483  22.241  1.00  0.00     0.026 C 
ENDBRANCH  13  15
ENDBRANCH  11  13
ENDBRANCH   9  11
ENDBRANCH   1   9
BRANCH   4  17
HETATM   17  N3  UNL     1      22.207  34.118  19.279  1.00  0.00    -0.376 N 
HETATM   18  C8  UNL     1      22.493  32.790  19.765  1.00  0.00     0.149 C 
HETATM   19  C9  UNL     1      22.223  31.718  18.734  1.00  0.00     0.187 C 
HETATM   20  O1  UNL     1      21.507  32.161  17.651  1.00  0.00    -0.388 OA
HETATM   21  C10 UNL     1      20.409  32.933  18.084  1.00  0.00     0.187 C 
HETATM   22  C11 UNL     1      20.973  34.271  18.494  1.00  0.00     0.149 C 
ENDBRANCH   4  17
TORSDOF 5
ENDMDL
MODEL 5
REMARK VINA RESULT: -5.192744139      4.772      6.338
REMARK  5 active torsions:
REMARK  status: ('A' for Active; 'I' for Inactive)
REMARK    1  A    between atoms: C2_2  and  N1_3 
REMARK    2  A    between atoms: N1_3  and  C3_5 
REMARK    3  A    between atoms: C3_5  and  N2_7 
REMARK    4  A    between atoms: N2_7  and  C4_9 
REMARK    5  A    between atoms: C7_12  and  N3_13 
ROOT
HETATM    1  C4  UNL     1      24.498  41.033  23.873  1.00  0.00     0.053 A 
HETATM    2  C5  UNL     1      24.451  39.859  24.568  1.00  0.00     0.033 A 
HETATM    3  C6  UNL     1      24.322  38.598  23.949  1.00  0.00     0.033 A 
HETATM    4  C7  UNL     1      24.240  38.525  22.586  1.00  0.00     0.049 A 
HETATM    5  C12 UNL     1      24.285  39.715  21.836  1.00  0.00     0.058 A 
HETATM    6  S2  UNL     1      24.235  40.220  20.224  1.00  0.00    -0.049 SA
HETATM    7  S3  UNL     1      24.414  41.975  21.098  1.00  0.00    -0.049 SA
HETATM    8  C13 UNL     1      24.408  40.923  22.441  1.00  0.00     0.058 A 
ENDROOT
BRANCH   1   9
HETATM    9  N2  UNL     1      24.587  42.274  24.488  1.00  0.00    -0.332 N 
ATOM     10  H2  UNL     1      25.462  42.439  24.987  1.00  0.00     0.168 HD
BRANCH   9  11
HETATM   11  C3  UNL     1      23.692  43.321  24.538  1.00  0.00     0.172 C 
HETATM   12  S1  UNL     1      22.086  43.184  24.408  1.00  0.00    -0.041 SA
BRANCH  11  13
HETATM   13  N1  UNL     1      24.214  44.663  24.755  1.00  0.00    -0.367 N 
ATOM     14  H1  UNL     1      24.942  44.842  25.447  1.00  0.00     0.161 HD
BRANCH  13  15
HETATM   15  C2  UNL     1      23.664  45.726  23.960  1.00  0.00     0.117 C 
HETATM   16  C1  UNL     1      24.683  46.846  23.886  1.00  0.00     0.026 C 
ENDBRANCH  13  15
ENDBRANCH  11  13
ENDBRANCH   9  11
ENDBRANCH   1   9
BRANCH   4  17
HETATM   17  N3  UNL     1      24.114  37.263  21.988  1.00  0.00    -0.376 N 
HETATM   18  C8  UNL     1      24.916  36.783  20.888  1.00  0.00     0.149 C 
HETATM   19  C9  UNL     1      24.104  36.044  19.849  1.00  0.00     0.187 C 
HETATM   20  O1  UNL     1      22.835  35.726  20.263  1.00  0.00    -0.388 OA
HETATM   21  C10 UNL     1      22.877  35.177  21.561  1.00  0.00     0.187 C 
HETATM   22  C11 UNL     1      23.093  36.337  22.501  1.00  0.00     0.149 C 
ENDBRANCH   4  17
TORSDOF 5
ENDMDL
