MODEL 1
REMARK VINA RESULT: -7.491439692      0.000      0.000
REMARK  6 active torsions:
REMARK  status: ('A' for Active; 'I' for Inactive)
REMARK    1  A    between atoms: C3_5  and  S1_6 
REMARK    2  A    between atoms: S1_6  and  C4_7 
REMARK    3  A    between atoms: C4_7  and  C5_8 
REMARK       I    between atoms: C5_8  and  N2_10 
REMARK    4  A    between atoms: N2_10  and  C6_12 
REMARK    5  A    between atoms: C11_21  and  C12_22 
REMARK       I    between atoms: C12_22  and  N5_24 
REMARK    6  A    between atoms: N5_24  and  C13_26 
ROOT
HETATM    1  C1  UNL     1      -8.181  48.308  39.355  1.00  0.00     0.071 C 
HETATM    2  C2  UNL     1      -7.958  46.838  39.462  1.00  0.00     0.041 A 
HETATM    3  N1  UNL     1      -8.764  46.118  40.318  1.00  0.00    -0.337 N 
ATOM      4  H1  UNL     1      -9.513  46.587  40.829  1.00  0.00     0.168 HD
HETATM    5  C3  UNL     1      -8.563  44.800  40.480  1.00  0.00     0.159 A 
HETATM    6  N3  UNL     1      -7.581  44.204  39.805  1.00  0.00    -0.279 N 
ATOM      7  H3  UNL     1      -7.426  43.204  39.926  1.00  0.00     0.189 HD
HETATM    8  N4  UNL     1      -6.818  44.874  38.998  1.00  0.00    -0.292 N 
ATOM      9  H4  UNL     1      -6.079  44.375  38.503  1.00  0.00     0.187 HD
HETATM   10  C11 UNL     1      -6.960  46.234  38.774  1.00  0.00     0.138 A 
ENDROOT
BRANCH   5  11
HETATM   11  S1  UNL     1      -9.618  43.855  41.589  1.00  0.00    -0.083 SA
BRANCH  11  12
HETATM   12  C4  UNL     1      -8.591  43.070  42.832  1.00  0.00     0.185 C 
BRANCH  12  13
HETATM   13  C5  UNL     1      -7.214  42.781  42.416  1.00  0.00     0.227 C 
HETATM   14  O1  UNL     1      -6.309  43.604  42.683  1.00  0.00    -0.273 OA
HETATM   15  N2  UNL     1      -6.856  41.597  41.713  1.00  0.00    -0.356 N 
ATOM     16  H2  UNL     1      -7.566  40.903  41.478  1.00  0.00     0.162 HD
BRANCH  15  17
HETATM   17  C6  UNL     1      -5.489  41.387  41.338  1.00  0.00     0.084 C 
HETATM   18  C7  UNL     1      -5.382  40.873  39.900  1.00  0.00     0.025 C 
HETATM   19  C8  UNL     1      -3.962  40.373  39.853  1.00  0.00     0.002 C 
HETATM   20  C9  UNL     1      -3.808  39.682  41.189  1.00  0.00     0.002 C 
HETATM   21  C10 UNL     1      -4.896  40.211  42.101  1.00  0.00     0.025 C 
ENDBRANCH  15  17
ENDBRANCH  12  13
ENDBRANCH  11  12
ENDBRANCH   5  11
BRANCH  10  22
HETATM   22  C12 UNL     1      -6.088  46.838  37.819  1.00  0.00     0.271 C 
HETATM   23  O2  UNL     1      -4.834  46.917  38.129  1.00  0.00    -0.266 OA
HETATM   24  N5  UNL     1      -6.411  47.353  36.577  1.00  0.00    -0.351 N 
ATOM     25  H5  UNL     1      -7.379  47.310  36.259  1.00  0.00     0.163 HD
BRANCH  24  26
HETATM   26  C13 UNL     1      -5.387  47.969  35.692  1.00  0.00     0.084 C 
HETATM   27  C14 UNL     1      -5.647  47.473  34.314  1.00  0.00     0.025 C 
HETATM   28  C15 UNL     1      -6.560  48.312  33.491  1.00  0.00     0.002 C 
HETATM   29  C16 UNL     1      -6.129  49.765  33.513  1.00  0.00     0.000 C 
HETATM   30  C17 UNL     1      -6.129  50.262  34.933  1.00  0.00     0.002 C 
HETATM   31  C18 UNL     1      -5.302  49.432  35.866  1.00  0.00     0.025 C 
ENDBRANCH  24  26
ENDBRANCH  10  22
TORSDOF 6
ENDMDL
MODEL 2
REMARK VINA RESULT: -7.264246743      1.075      1.355
REMARK  6 active torsions:
REMARK  status: ('A' for Active; 'I' for Inactive)
REMARK    1  A    between atoms: C3_5  and  S1_6 
REMARK    2  A    between atoms: S1_6  and  C4_7 
REMARK    3  A    between atoms: C4_7  and  C5_8 
REMARK       I    between atoms: C5_8  and  N2_10 
REMARK    4  A    between atoms: N2_10  and  C6_12 
REMARK    5  A    between atoms: C11_21  and  C12_22 
REMARK       I    between atoms: C12_22  and  N5_24 
REMARK    6  A    between atoms: N5_24  and  C13_26 
ROOT
HETATM    1  C1  UNL     1     -10.184  48.286  39.447  1.00  0.00     0.071 C 
HETATM    2  C2  UNL     1      -9.361  47.083  39.758  1.00  0.00     0.041 A 
HETATM    3  N1  UNL     1      -9.897  46.126  40.593  1.00  0.00    -0.337 N 
ATOM      4  H1  UNL     1     -10.847  46.234  40.949  1.00  0.00     0.168 HD
HETATM    5  C3  UNL     1      -9.168  45.051  40.937  1.00  0.00     0.159 A 
HETATM    6  N3  UNL     1      -7.930  44.926  40.463  1.00  0.00    -0.279 N 
ATOM      7  H3  UNL     1      -7.374  44.112  40.723  1.00  0.00     0.189 HD
HETATM    8  N4  UNL     1      -7.418  45.822  39.677  1.00  0.00    -0.292 N 
ATOM      9  H4  UNL     1      -6.465  45.684  39.340  1.00  0.00     0.187 HD
HETATM   10  C11 UNL     1      -8.102  46.957  39.274  1.00  0.00     0.138 A 
ENDROOT
BRANCH   5  11
HETATM   11  S1  UNL     1      -9.867  43.795  42.019  1.00  0.00    -0.083 SA
BRANCH  11  12
HETATM   12  C4  UNL     1      -8.623  43.306  43.215  1.00  0.00     0.185 C 
BRANCH  12  13
HETATM   13  C5  UNL     1      -7.303  42.997  42.654  1.00  0.00     0.227 C 
HETATM   14  O1  UNL     1      -6.380  43.837  42.763  1.00  0.00    -0.273 OA
HETATM   15  N2  UNL     1      -7.020  41.775  41.983  1.00  0.00    -0.356 N 
ATOM     16  H2  UNL     1      -7.746  41.067  41.875  1.00  0.00     0.162 HD
BRANCH  15  17
HETATM   17  C6  UNL     1      -5.706  41.548  41.460  1.00  0.00     0.084 C 
HETATM   18  C7  UNL     1      -5.766  40.898  40.074  1.00  0.00     0.025 C 
HETATM   19  C8  UNL     1      -4.351  40.414  39.896  1.00  0.00     0.002 C 
HETATM   20  C9  UNL     1      -4.015  39.857  41.260  1.00  0.00     0.002 C 
HETATM   21  C10 UNL     1      -4.993  40.457  42.249  1.00  0.00     0.025 C 
ENDBRANCH  15  17
ENDBRANCH  12  13
ENDBRANCH  11  12
ENDBRANCH   5  11
BRANCH  10  22
HETATM   22  C12 UNL     1      -7.440  47.835  38.364  1.00  0.00     0.271 C 
HETATM   23  O2  UNL     1      -6.766  48.816  38.872  1.00  0.00    -0.266 OA
HETATM   24  N5  UNL     1      -7.418  47.770  36.982  1.00  0.00    -0.351 N 
ATOM     25  H5  UNL     1      -7.915  47.013  36.514  1.00  0.00     0.163 HD
BRANCH  24  26
HETATM   26  C13 UNL     1      -6.690  48.774  36.162  1.00  0.00     0.084 C 
HETATM   27  C14 UNL     1      -5.430  48.130  35.703  1.00  0.00     0.025 C 
HETATM   28  C15 UNL     1      -5.508  47.427  34.394  1.00  0.00     0.002 C 
HETATM   29  C16 UNL     1      -6.125  48.317  33.334  1.00  0.00     0.000 C 
HETATM   30  C17 UNL     1      -7.505  48.728  33.770  1.00  0.00     0.002 C 
HETATM   31  C18 UNL     1      -7.547  49.375  35.120  1.00  0.00     0.025 C 
ENDBRANCH  24  26
ENDBRANCH  10  22
TORSDOF 6
ENDMDL
MODEL 3
REMARK VINA RESULT: -7.247513382      1.099      1.678
REMARK  6 active torsions:
REMARK  status: ('A' for Active; 'I' for Inactive)
REMARK    1  A    between atoms: C3_5  and  S1_6 
REMARK    2  A    between atoms: S1_6  and  C4_7 
REMARK    3  A    between atoms: C4_7  and  C5_8 
REMARK       I    between atoms: C5_8  and  N2_10 
REMARK    4  A    between atoms: N2_10  and  C6_12 
REMARK    5  A    between atoms: C11_21  and  C12_22 
REMARK       I    between atoms: C12_22  and  N5_24 
REMARK    6  A    between atoms: N5_24  and  C13_26 
ROOT
HETATM    1  C1  UNL     1      -5.784  45.568  39.350  1.00  0.00     0.071 C 
HETATM    2  C2  UNL     1      -7.216  45.783  39.700  1.00  0.00     0.041 A 
HETATM    3  N1  UNL     1      -7.811  44.901  40.577  1.00  0.00    -0.337 N 
ATOM      4  H1  UNL     1      -7.263  44.150  40.996  1.00  0.00     0.168 HD
HETATM    5  C3  UNL     1      -9.114  45.032  40.880  1.00  0.00     0.159 A 
HETATM    6  N3  UNL     1      -9.814  46.019  40.324  1.00  0.00    -0.279 N 
ATOM      7  H3  UNL     1     -10.803  46.121  40.551  1.00  0.00     0.189 HD
HETATM    8  N4  UNL     1      -9.262  46.853  39.498  1.00  0.00    -0.292 N 
ATOM      9  H4  UNL     1      -9.839  47.593  39.097  1.00  0.00     0.187 HD
HETATM   10  C11 UNL     1      -7.926  46.789  39.135  1.00  0.00     0.138 A 
ENDROOT
BRANCH   5  11
HETATM   11  S1  UNL     1      -9.893  43.889  42.030  1.00  0.00    -0.083 SA
BRANCH  11  12
HETATM   12  C4  UNL     1      -8.667  43.347  43.223  1.00  0.00     0.185 C 
BRANCH  12  13
HETATM   13  C5  UNL     1      -7.346  43.038  42.666  1.00  0.00     0.227 C 
HETATM   14  O1  UNL     1      -6.412  43.859  42.817  1.00  0.00    -0.273 OA
HETATM   15  N2  UNL     1      -7.073  41.837  41.953  1.00  0.00    -0.356 N 
ATOM     16  H2  UNL     1      -7.809  41.145  41.811  1.00  0.00     0.162 HD
BRANCH  15  17
HETATM   17  C6  UNL     1      -5.756  41.609  41.438  1.00  0.00     0.084 C 
HETATM   18  C7  UNL     1      -5.810  40.999  40.034  1.00  0.00     0.025 C 
HETATM   19  C8  UNL     1      -4.399  40.502  39.857  1.00  0.00     0.002 C 
HETATM   20  C9  UNL     1      -4.083  39.905  41.209  1.00  0.00     0.002 C 
HETATM   21  C10 UNL     1      -5.064  40.489  42.204  1.00  0.00     0.025 C 
ENDBRANCH  15  17
ENDBRANCH  12  13
ENDBRANCH  11  12
ENDBRANCH   5  11
BRANCH  10  22
HETATM   22  C12 UNL     1      -7.433  47.801  38.259  1.00  0.00     0.271 C 
HETATM   23  O2  UNL     1      -7.114  48.938  38.787  1.00  0.00    -0.266 OA
HETATM   24  N5  UNL     1      -7.241  47.722  36.891  1.00  0.00    -0.351 N 
ATOM     25  H5  UNL     1      -7.456  46.850  36.409  1.00  0.00     0.163 HD
BRANCH  24  26
HETATM   26  C13 UNL     1      -6.729  48.875  36.103  1.00  0.00     0.084 C 
HETATM   27  C14 UNL     1      -5.474  48.427  35.441  1.00  0.00     0.025 C 
HETATM   28  C15 UNL     1      -5.639  47.842  34.082  1.00  0.00     0.002 C 
HETATM   29  C16 UNL     1      -6.472  48.749  33.198  1.00  0.00     0.000 C 
HETATM   30  C17 UNL     1      -7.822  48.954  33.826  1.00  0.00     0.002 C 
HETATM   31  C18 UNL     1      -7.765  49.465  35.233  1.00  0.00     0.025 C 
ENDBRANCH  24  26
ENDBRANCH  10  22
TORSDOF 6
ENDMDL
MODEL 4
REMARK VINA RESULT: -7.169596008      2.878      8.733
REMARK  6 active torsions:
REMARK  status: ('A' for Active; 'I' for Inactive)
REMARK    1  A    between atoms: C3_5  and  S1_6 
REMARK    2  A    between atoms: S1_6  and  C4_7 
REMARK    3  A    between atoms: C4_7  and  C5_8 
REMARK       I    between atoms: C5_8  and  N2_10 
REMARK    4  A    between atoms: N2_10  and  C6_12 
REMARK    5  A    between atoms: C11_21  and  C12_22 
REMARK       I    between atoms: C12_22  and  N5_24 
REMARK    6  A    between atoms: N5_24  and  C13_26 
ROOT
HETATM    1  C1  UNL     1      -7.873  48.187  39.371  1.00  0.00     0.071 C 
HETATM    2  C2  UNL     1      -6.553  47.910  38.736  1.00  0.00     0.041 A 
HETATM    3  N1  UNL     1      -5.793  48.982  38.319  1.00  0.00    -0.337 N 
ATOM      4  H1  UNL     1      -6.122  49.934  38.481  1.00  0.00     0.168 HD
HETATM    5  C3  UNL     1      -4.621  48.773  37.698  1.00  0.00     0.159 A 
HETATM    6  N3  UNL     1      -4.207  47.523  37.495  1.00  0.00    -0.279 N 
ATOM      7  H3  UNL     1      -3.317  47.360  37.024  1.00  0.00     0.189 HD
HETATM    8  N4  UNL     1      -4.915  46.509  37.885  1.00  0.00    -0.292 N 
ATOM      9  H4  UNL     1      -4.557  45.570  37.707  1.00  0.00     0.187 HD
HETATM   10  C11 UNL     1      -6.133  46.639  38.532  1.00  0.00     0.138 A 
ENDROOT
BRANCH   5  11
HETATM   11  S1  UNL     1      -3.622  50.169  37.159  1.00  0.00    -0.083 SA
BRANCH  11  12
HETATM   12  C4  UNL     1      -4.697  51.389  36.403  1.00  0.00     0.185 C 
BRANCH  12  13
HETATM   13  C5  UNL     1      -5.334  50.971  35.149  1.00  0.00     0.227 C 
HETATM   14  O1  UNL     1      -4.732  51.156  34.066  1.00  0.00    -0.273 OA
HETATM   15  N2  UNL     1      -6.618  50.359  35.105  1.00  0.00    -0.356 N 
ATOM     16  H2  UNL     1      -7.138  50.193  35.967  1.00  0.00     0.162 HD
BRANCH  15  17
HETATM   17  C6  UNL     1      -7.174  49.980  33.840  1.00  0.00     0.084 C 
HETATM   18  C7  UNL     1      -8.703  49.925  33.902  1.00  0.00     0.025 C 
HETATM   19  C8  UNL     1      -9.038  49.164  32.647  1.00  0.00     0.002 C 
HETATM   20  C9  UNL     1      -7.986  48.079  32.624  1.00  0.00     0.002 C 
HETATM   21  C10 UNL     1      -6.854  48.525  33.525  1.00  0.00     0.025 C 
ENDBRANCH  15  17
ENDBRANCH  12  13
ENDBRANCH  11  12
ENDBRANCH   5  11
BRANCH  10  22
HETATM   22  C12 UNL     1      -6.784  45.441  38.955  1.00  0.00     0.271 C 
HETATM   23  O2  UNL     1      -8.071  45.393  38.837  1.00  0.00    -0.266 OA
HETATM   24  N5  UNL     1      -6.206  44.298  39.479  1.00  0.00    -0.351 N 
ATOM     25  H5  UNL     1      -5.193  44.259  39.585  1.00  0.00     0.163 HD
BRANCH  24  26
HETATM   26  C13 UNL     1      -7.022  43.125  39.891  1.00  0.00     0.084 C 
HETATM   27  C14 UNL     1      -6.446  41.934  39.212  1.00  0.00     0.025 C 
HETATM   28  C15 UNL     1      -5.395  41.206  39.975  1.00  0.00     0.002 C 
HETATM   29  C16 UNL     1      -5.860  40.903  41.386  1.00  0.00     0.000 C 
HETATM   30  C17 UNL     1      -6.192  42.191  42.087  1.00  0.00     0.002 C 
HETATM   31  C18 UNL     1      -7.185  43.042  41.356  1.00  0.00     0.025 C 
ENDBRANCH  24  26
ENDBRANCH  10  22
TORSDOF 6
ENDMDL
MODEL 5
REMARK VINA RESULT: -7.139642812      1.196      1.496
REMARK  6 active torsions:
REMARK  status: ('A' for Active; 'I' for Inactive)
REMARK    1  A    between atoms: C3_5  and  S1_6 
REMARK    2  A    between atoms: S1_6  and  C4_7 
REMARK    3  A    between atoms: C4_7  and  C5_8 
REMARK       I    between atoms: C5_8  and  N2_10 
REMARK    4  A    between atoms: N2_10  and  C6_12 
REMARK    5  A    between atoms: C11_21  and  C12_22 
REMARK       I    between atoms: C12_22  and  N5_24 
REMARK    6  A    between atoms: N5_24  and  C13_26 
ROOT
HETATM    1  C1  UNL     1      -7.725  49.310  38.932  1.00  0.00     0.071 C 
HETATM    2  C2  UNL     1      -7.785  47.821  38.959  1.00  0.00     0.041 A 
HETATM    3  N1  UNL     1      -8.649  47.221  39.850  1.00  0.00    -0.337 N 
ATOM      4  H1  UNL     1      -9.252  47.794  40.441  1.00  0.00     0.168 HD
HETATM    5  C3  UNL     1      -8.698  45.881  39.939  1.00  0.00     0.159 A 
HETATM    6  N3  UNL     1      -7.904  45.149  39.159  1.00  0.00    -0.279 N 
ATOM      7  H3  UNL     1      -7.938  44.132  39.225  1.00  0.00     0.189 HD
HETATM    8  N4  UNL     1      -7.088  45.705  38.319  1.00  0.00    -0.292 N 
ATOM      9  H4  UNL     1      -6.499  45.104  37.743  1.00  0.00     0.187 HD
HETATM   10  C11 UNL     1      -6.979  47.078  38.164  1.00  0.00     0.138 A 
ENDROOT
BRANCH   5  11
HETATM   11  S1  UNL     1      -9.830  45.093  41.093  1.00  0.00    -0.083 SA
BRANCH  11  12
HETATM   12  C4  UNL     1      -8.942  44.716  42.606  1.00  0.00     0.185 C 
BRANCH  12  13
HETATM   13  C5  UNL     1      -8.293  43.401  42.639  1.00  0.00     0.227 C 
HETATM   14  O1  UNL     1      -8.643  42.568  43.507  1.00  0.00    -0.273 OA
HETATM   15  N2  UNL     1      -7.272  43.024  41.723  1.00  0.00    -0.356 N 
ATOM     16  H2  UNL     1      -6.960  43.676  41.003  1.00  0.00     0.162 HD
BRANCH  15  17
HETATM   17  C6  UNL     1      -6.684  41.721  41.821  1.00  0.00     0.084 C 
HETATM   18  C7  UNL     1      -5.485  41.724  42.774  1.00  0.00     0.025 C 
HETATM   19  C8  UNL     1      -4.817  40.417  42.437  1.00  0.00     0.002 C 
HETATM   20  C9  UNL     1      -4.912  40.373  40.929  1.00  0.00     0.002 C 
HETATM   21  C10 UNL     1      -6.003  41.338  40.514  1.00  0.00     0.025 C 
ENDBRANCH  15  17
ENDBRANCH  12  13
ENDBRANCH  11  12
ENDBRANCH   5  11
BRANCH  10  22
HETATM   22  C12 UNL     1      -6.080  47.558  37.165  1.00  0.00     0.271 C 
HETATM   23  O2  UNL     1      -4.814  47.476  37.418  1.00  0.00    -0.266 OA
HETATM   24  N5  UNL     1      -6.390  48.102  35.931  1.00  0.00    -0.351 N 
ATOM     25  H5  UNL     1      -7.369  48.182  35.657  1.00  0.00     0.163 HD
BRANCH  24  26
HETATM   26  C13 UNL     1      -5.336  48.575  34.995  1.00  0.00     0.084 C 
HETATM   27  C14 UNL     1      -5.608  47.939  33.678  1.00  0.00     0.025 C 
HETATM   28  C15 UNL     1      -6.480  48.718  32.757  1.00  0.00     0.002 C 
HETATM   29  C16 UNL     1      -5.990  50.147  32.623  1.00  0.00     0.000 C 
HETATM   30  C17 UNL     1      -5.979  50.798  33.979  1.00  0.00     0.002 C 
HETATM   31  C18 UNL     1      -5.192  50.044  35.007  1.00  0.00     0.025 C 
ENDBRANCH  24  26
ENDBRANCH  10  22
TORSDOF 6
ENDMDL
