MODEL 1
REMARK VINA RESULT: -8.147280481      0.000      0.000
REMARK  6 active torsions:
REMARK  status: ('A' for Active; 'I' for Inactive)
REMARK    1  A    between atoms: N2_3  and  C2_5 
REMARK    2  A    between atoms: C2_5  and  C3_6 
REMARK       I    between atoms: C3_6  and  N3_8 
REMARK    3  A    between atoms: N3_8  and  C4_10 
REMARK    4  A    between atoms: C4_10  and  C15_25 
REMARK    5  A    between atoms: C5_11  and  O2_12 
REMARK    6  A    between atoms: C5_11  and  C6_14 
ROOT
HETATM    1  N1  UNL     1     -15.569  43.989  38.934  1.00  0.00    -0.172 NA
HETATM    2  C1  UNL     1     -14.451  44.179  39.144  1.00  0.00     0.177 C 
HETATM    3  N2  UNL     1     -13.070  44.391  39.412  1.00  0.00    -0.320 N 
ATOM      4  H2  UNL     1     -12.535  45.009  38.801  1.00  0.00     0.172 HD
ENDROOT
BRANCH   3   5
HETATM    5  C2  UNL     1     -12.413  43.765  40.511  1.00  0.00     0.234 C 
BRANCH   5   6
HETATM    6  C3  UNL     1     -11.046  44.227  40.816  1.00  0.00     0.240 C 
HETATM    7  O1  UNL     1     -10.982  45.036  41.802  1.00  0.00    -0.271 OA
HETATM    8  N3  UNL     1      -9.910  43.850  40.132  1.00  0.00    -0.326 N 
ATOM      9  H3  UNL     1     -10.057  43.216  39.347  1.00  0.00     0.168 HD
BRANCH   8  10
HETATM   10  C4  UNL     1      -8.513  44.242  40.385  1.00  0.00     0.050 C 
HETATM   11  C5  UNL     1      -7.948  43.236  41.230  1.00  0.00     0.099 C 
BRANCH  11  12
HETATM   12  O2  UNL     1      -8.686  43.037  42.320  1.00  0.00    -0.358 OA
ATOM     13  H2  UNL     1      -9.541  42.684  42.106  1.00  0.00     0.217 HD
ENDBRANCH  11  12
BRANCH  11  14
HETATM   14  C6  UNL     1      -6.778  42.392  41.164  1.00  0.00     0.002 A 
HETATM   15  C7  UNL     1      -6.397  41.635  42.290  1.00  0.00     0.017 A 
HETATM   16  C8  UNL     1      -5.354  40.748  42.251  1.00  0.00     0.040 A 
HETATM   17  C9  UNL     1      -4.607  40.538  41.104  1.00  0.00     0.103 A 
HETATM   18  C10 UNL     1      -4.955  41.261  39.991  1.00  0.00     0.104 A 
HETATM   19  O4  UNL     1      -3.604  39.573  41.360  1.00  0.00    -0.338 OA
HETATM   20  C11 UNL     1      -6.008  42.147  40.055  1.00  0.00     0.054 A 
HETATM   21  O3  UNL     1      -4.428  41.306  38.674  1.00  0.00    -0.337 OA
HETATM   22  C12 UNL     1      -3.094  40.839  38.272  1.00  0.00     0.258 C 
HETATM   23  C13 UNL     1      -2.593  40.051  39.330  1.00  0.00    -0.131 C 
HETATM   24  C14 UNL     1      -2.395  39.365  40.549  1.00  0.00     0.258 C 
ENDBRANCH  11  14
BRANCH  10  25
HETATM   25  C15 UNL     1      -7.814  44.970  39.320  1.00  0.00     0.038 C 
HETATM   26  C16 UNL     1      -8.753  46.087  38.769  1.00  0.00     0.011 C 
HETATM   27  C17 UNL     1      -8.496  47.410  39.460  1.00  0.00     0.001 C 
HETATM   28  C18 UNL     1      -7.184  48.013  38.988  1.00  0.00     0.000 C 
HETATM   29  C19 UNL     1      -6.278  46.826  38.696  1.00  0.00     0.001 C 
HETATM   30  C20 UNL     1      -6.611  45.797  39.799  1.00  0.00     0.011 C 
ENDBRANCH  10  25
ENDBRANCH   8  10
ENDBRANCH   5   6
ENDBRANCH   3   5
TORSDOF 6
ENDMDL
MODEL 2
REMARK VINA RESULT: -7.723185599      3.892      7.721
REMARK  6 active torsions:
REMARK  status: ('A' for Active; 'I' for Inactive)
REMARK    1  A    between atoms: N2_3  and  C2_5 
REMARK    2  A    between atoms: C2_5  and  C3_6 
REMARK       I    between atoms: C3_6  and  N3_8 
REMARK    3  A    between atoms: N3_8  and  C4_10 
REMARK    4  A    between atoms: C4_10  and  C15_25 
REMARK    5  A    between atoms: C5_11  and  O2_12 
REMARK    6  A    between atoms: C5_11  and  C6_14 
ROOT
HETATM    1  N1  UNL     1      -3.480  39.677  41.579  1.00  0.00    -0.172 NA
HETATM    2  C1  UNL     1      -4.503  40.190  41.428  1.00  0.00     0.177 C 
HETATM    3  N2  UNL     1      -5.762  40.820  41.218  1.00  0.00    -0.320 N 
ATOM      4  H2  UNL     1      -6.500  40.697  41.912  1.00  0.00     0.172 HD
ENDROOT
BRANCH   3   5
HETATM    5  C2  UNL     1      -6.020  41.617  40.066  1.00  0.00     0.234 C 
BRANCH   5   6
HETATM    6  C3  UNL     1      -6.582  42.960  40.302  1.00  0.00     0.240 C 
HETATM    7  O1  UNL     1      -6.523  43.338  41.520  1.00  0.00    -0.271 OA
HETATM    8  N3  UNL     1      -7.131  43.771  39.332  1.00  0.00    -0.326 N 
ATOM      9  H3  UNL     1      -7.154  43.381  38.390  1.00  0.00     0.168 HD
BRANCH   8  10
HETATM   10  C4  UNL     1      -7.688  45.127  39.476  1.00  0.00     0.050 C 
HETATM   11  C5  UNL     1      -6.663  46.040  39.074  1.00  0.00     0.099 C 
BRANCH  11  12
HETATM   12  O2  UNL     1      -5.526  45.823  39.732  1.00  0.00    -0.358 OA
ATOM     13  H2  UNL     1      -5.590  46.088  40.642  1.00  0.00     0.217 HD
ENDBRANCH  11  12
BRANCH  11  14
HETATM   14  C6  UNL     1      -6.582  47.124  38.124  1.00  0.00     0.002 A 
HETATM   15  C7  UNL     1      -6.810  48.447  38.550  1.00  0.00     0.017 A 
HETATM   16  C8  UNL     1      -6.652  49.519  37.711  1.00  0.00     0.040 A 
HETATM   17  C9  UNL     1      -6.258  49.371  36.393  1.00  0.00     0.103 A 
HETATM   18  C10 UNL     1      -6.028  48.093  35.948  1.00  0.00     0.104 A 
HETATM   19  O4  UNL     1      -6.179  50.642  35.774  1.00  0.00    -0.338 OA
HETATM   20  C11 UNL     1      -6.194  47.032  36.810  1.00  0.00     0.054 A 
HETATM   21  O3  UNL     1      -5.623  47.574  34.691  1.00  0.00    -0.337 OA
HETATM   22  C12 UNL     1      -5.711  48.281  33.407  1.00  0.00     0.258 C 
HETATM   23  C13 UNL     1      -5.939  49.644  33.698  1.00  0.00    -0.131 C 
HETATM   24  C14 UNL     1      -6.180  50.887  34.325  1.00  0.00     0.258 C 
ENDBRANCH  11  14
BRANCH  10  25
HETATM   25  C15 UNL     1      -9.129  45.290  39.252  1.00  0.00     0.038 C 
HETATM   26  C16 UNL     1      -9.885  44.104  39.926  1.00  0.00     0.011 C 
HETATM   27  C17 UNL     1     -10.344  44.469  41.323  1.00  0.00     0.001 C 
HETATM   28  C18 UNL     1     -11.514  45.435  41.266  1.00  0.00     0.000 C 
HETATM   29  C19 UNL     1     -11.281  46.277  40.020  1.00  0.00     0.001 C 
HETATM   30  C20 UNL     1      -9.752  46.494  39.974  1.00  0.00     0.011 C 
ENDBRANCH  10  25
ENDBRANCH   8  10
ENDBRANCH   5   6
ENDBRANCH   3   5
TORSDOF 6
ENDMDL
MODEL 3
REMARK VINA RESULT: -7.690132541      3.738      7.861
REMARK  6 active torsions:
REMARK  status: ('A' for Active; 'I' for Inactive)
REMARK    1  A    between atoms: N2_3  and  C2_5 
REMARK    2  A    between atoms: C2_5  and  C3_6 
REMARK       I    between atoms: C3_6  and  N3_8 
REMARK    3  A    between atoms: N3_8  and  C4_10 
REMARK    4  A    between atoms: C4_10  and  C15_25 
REMARK    5  A    between atoms: C5_11  and  O2_12 
REMARK    6  A    between atoms: C5_11  and  C6_14 
ROOT
HETATM    1  N1  UNL     1      -2.317  39.643  40.479  1.00  0.00    -0.172 NA
HETATM    2  C1  UNL     1      -3.403  39.981  40.672  1.00  0.00     0.177 C 
HETATM    3  N2  UNL     1      -4.748  40.395  40.886  1.00  0.00    -0.320 N 
ATOM      4  H2  UNL     1      -5.189  40.201  41.785  1.00  0.00     0.172 HD
ENDROOT
BRANCH   3   5
HETATM    5  C2  UNL     1      -5.494  41.073  39.879  1.00  0.00     0.234 C 
BRANCH   5   6
HETATM    6  C3  UNL     1      -6.375  42.167  40.331  1.00  0.00     0.240 C 
HETATM    7  O1  UNL     1      -6.785  42.036  41.533  1.00  0.00    -0.271 OA
HETATM    8  N3  UNL     1      -6.749  43.250  39.566  1.00  0.00    -0.326 N 
ATOM      9  H3  UNL     1      -6.390  43.263  38.612  1.00  0.00     0.168 HD
BRANCH   8  10
HETATM   10  C4  UNL     1      -7.599  44.392  39.945  1.00  0.00     0.050 C 
HETATM   11  C5  UNL     1      -6.929  45.573  39.495  1.00  0.00     0.099 C 
BRANCH  11  12
HETATM   12  O2  UNL     1      -5.676  45.628  39.940  1.00  0.00    -0.358 OA
ATOM     13  H2  UNL     1      -5.328  46.511  39.901  1.00  0.00     0.217 HD
ENDBRANCH  11  12
BRANCH  11  14
HETATM   14  C6  UNL     1      -7.298  46.699  38.670  1.00  0.00     0.002 A 
HETATM   15  C7  UNL     1      -7.931  47.816  39.252  1.00  0.00     0.017 A 
HETATM   16  C8  UNL     1      -8.215  48.947  38.533  1.00  0.00     0.040 A 
HETATM   17  C9  UNL     1      -7.899  49.067  37.191  1.00  0.00     0.103 A 
HETATM   18  C10 UNL     1      -7.281  47.996  36.597  1.00  0.00     0.104 A 
HETATM   19  O4  UNL     1      -8.308  50.336  36.718  1.00  0.00    -0.338 OA
HETATM   20  C11 UNL     1      -7.005  46.869  37.340  1.00  0.00     0.054 A 
HETATM   21  O3  UNL     1      -6.822  47.768  35.273  1.00  0.00    -0.337 OA
HETATM   22  C12 UNL     1      -7.246  48.514  34.081  1.00  0.00     0.258 C 
HETATM   23  C13 UNL     1      -7.903  49.679  34.533  1.00  0.00    -0.131 C 
HETATM   24  C14 UNL     1      -8.505  50.697  35.306  1.00  0.00     0.258 C 
ENDBRANCH  11  14
BRANCH  10  25
HETATM   25  C15 UNL     1      -9.050  44.175  39.966  1.00  0.00     0.038 C 
HETATM   26  C16 UNL     1      -9.600  44.556  41.375  1.00  0.00     0.011 C 
HETATM   27  C17 UNL     1     -10.095  45.987  41.402  1.00  0.00     0.001 C 
HETATM   28  C18 UNL     1     -11.405  46.114  40.644  1.00  0.00     0.000 C 
HETATM   29  C19 UNL     1     -11.323  45.088  39.523  1.00  0.00     0.001 C 
HETATM   30  C20 UNL     1      -9.848  45.128  39.063  1.00  0.00     0.011 C 
ENDBRANCH  10  25
ENDBRANCH   8  10
ENDBRANCH   5   6
ENDBRANCH   3   5
TORSDOF 6
ENDMDL
MODEL 4
REMARK VINA RESULT: -7.682112086      2.792      4.897
REMARK  6 active torsions:
REMARK  status: ('A' for Active; 'I' for Inactive)
REMARK    1  A    between atoms: N2_3  and  C2_5 
REMARK    2  A    between atoms: C2_5  and  C3_6 
REMARK       I    between atoms: C3_6  and  N3_8 
REMARK    3  A    between atoms: N3_8  and  C4_10 
REMARK    4  A    between atoms: C4_10  and  C15_25 
REMARK    5  A    between atoms: C5_11  and  O2_12 
REMARK    6  A    between atoms: C5_11  and  C6_14 
ROOT
HETATM    1  N1  UNL     1      -4.960  48.265  39.368  1.00  0.00    -0.172 NA
HETATM    2  C1  UNL     1      -5.819  49.031  39.436  1.00  0.00     0.177 C 
HETATM    3  N2  UNL     1      -6.895  49.959  39.525  1.00  0.00    -0.320 N 
ATOM      4  H2  UNL     1      -6.707  50.906  39.853  1.00  0.00     0.172 HD
ENDROOT
BRANCH   3   5
HETATM    5  C2  UNL     1      -8.228  49.600  39.170  1.00  0.00     0.234 C 
BRANCH   5   6
HETATM    6  C3  UNL     1      -8.479  48.172  38.899  1.00  0.00     0.240 C 
HETATM    7  O1  UNL     1      -8.426  47.864  37.661  1.00  0.00    -0.271 OA
HETATM    8  N3  UNL     1      -8.749  47.219  39.858  1.00  0.00    -0.326 N 
ATOM      9  H3  UNL     1      -8.790  47.557  40.819  1.00  0.00     0.168 HD
BRANCH   8  10
HETATM   10  C4  UNL     1      -8.986  45.776  39.678  1.00  0.00     0.050 C 
HETATM   11  C5  UNL     1      -7.701  45.151  39.615  1.00  0.00     0.099 C 
BRANCH  11  12
HETATM   12  O2  UNL     1      -6.924  45.716  38.693  1.00  0.00    -0.358 OA
ATOM     13  H2  UNL     1      -6.733  46.623  38.902  1.00  0.00     0.217 HD
ENDBRANCH  11  12
BRANCH  11  14
HETATM   14  C6  UNL     1      -7.062  44.066  40.321  1.00  0.00     0.002 A 
HETATM   15  C7  UNL     1      -7.257  43.923  41.709  1.00  0.00     0.017 A 
HETATM   16  C8  UNL     1      -6.753  42.859  42.408  1.00  0.00     0.040 A 
HETATM   17  C9  UNL     1      -6.020  41.856  41.798  1.00  0.00     0.103 A 
HETATM   18  C10 UNL     1      -5.813  41.967  40.446  1.00  0.00     0.104 A 
HETATM   19  O4  UNL     1      -5.632  40.895  42.762  1.00  0.00    -0.338 OA
HETATM   20  C11 UNL     1      -6.331  43.046  39.764  1.00  0.00     0.054 A 
HETATM   21  O3  UNL     1      -5.127  41.150  39.511  1.00  0.00    -0.337 OA
HETATM   22  C12 UNL     1      -4.118  40.135  39.842  1.00  0.00     0.258 C 
HETATM   23  C13 UNL     1      -4.213  39.893  41.230  1.00  0.00    -0.131 C 
HETATM   24  C14 UNL     1      -4.548  39.915  42.602  1.00  0.00     0.258 C 
ENDBRANCH  11  14
BRANCH  10  25
HETATM   25  C15 UNL     1     -10.195  45.210  40.288  1.00  0.00     0.038 C 
HETATM   26  C16 UNL     1     -11.082  46.374  40.830  1.00  0.00     0.011 C 
HETATM   27  C17 UNL     1     -12.125  46.787  39.813  1.00  0.00     0.001 C 
HETATM   28  C18 UNL     1     -13.221  45.741  39.716  1.00  0.00     0.000 C 
HETATM   29  C19 UNL     1     -12.531  44.410  39.981  1.00  0.00     0.001 C 
HETATM   30  C20 UNL     1     -11.154  44.539  39.293  1.00  0.00     0.011 C 
ENDBRANCH  10  25
ENDBRANCH   8  10
ENDBRANCH   5   6
ENDBRANCH   3   5
TORSDOF 6
ENDMDL
MODEL 5
REMARK VINA RESULT: -7.598297502      1.665      2.357
REMARK  6 active torsions:
REMARK  status: ('A' for Active; 'I' for Inactive)
REMARK    1  A    between atoms: N2_3  and  C2_5 
REMARK    2  A    between atoms: C2_5  and  C3_6 
REMARK       I    between atoms: C3_6  and  N3_8 
REMARK    3  A    between atoms: N3_8  and  C4_10 
REMARK    4  A    between atoms: C4_10  and  C15_25 
REMARK    5  A    between atoms: C5_11  and  O2_12 
REMARK    6  A    between atoms: C5_11  and  C6_14 
ROOT
HETATM    1  N1  UNL     1     -12.623  45.661  42.973  1.00  0.00    -0.172 NA
HETATM    2  C1  UNL     1     -13.046  45.337  41.950  1.00  0.00     0.177 C 
HETATM    3  N2  UNL     1     -13.546  44.929  40.681  1.00  0.00    -0.320 N 
ATOM      4  H2  UNL     1     -14.519  44.633  40.603  1.00  0.00     0.172 HD
ENDROOT
BRANCH   3   5
HETATM    5  C2  UNL     1     -12.724  44.923  39.517  1.00  0.00     0.234 C 
BRANCH   5   6
HETATM    6  C3  UNL     1     -11.265  44.909  39.736  1.00  0.00     0.240 C 
HETATM    7  O1  UNL     1     -10.702  43.815  39.393  1.00  0.00    -0.271 OA
HETATM    8  N3  UNL     1     -10.532  45.952  40.258  1.00  0.00    -0.326 N 
ATOM      9  H3  UNL     1     -11.067  46.780  40.522  1.00  0.00     0.168 HD
BRANCH   8  10
HETATM   10  C4  UNL     1      -9.079  46.031  40.485  1.00  0.00     0.050 C 
HETATM   11  C5  UNL     1      -8.793  45.211  41.622  1.00  0.00     0.099 C 
BRANCH  11  12
HETATM   12  O2  UNL     1      -9.548  45.539  42.668  1.00  0.00    -0.358 OA
ATOM     13  H2  UNL     1      -9.707  44.793  43.234  1.00  0.00     0.217 HD
ENDBRANCH  11  12
BRANCH  11  14
HETATM   14  C6  UNL     1      -7.888  44.117  41.884  1.00  0.00     0.002 A 
HETATM   15  C7  UNL     1      -7.628  43.728  43.213  1.00  0.00     0.017 A 
HETATM   16  C8  UNL     1      -6.854  42.638  43.512  1.00  0.00     0.040 A 
HETATM   17  C9  UNL     1      -6.279  41.849  42.531  1.00  0.00     0.103 A 
HETATM   18  C10 UNL     1      -6.515  42.204  41.226  1.00  0.00     0.104 A 
HETATM   19  O4  UNL     1      -5.540  40.803  43.133  1.00  0.00    -0.338 OA
HETATM   20  C11 UNL     1      -7.296  43.304  40.950  1.00  0.00     0.054 A 
HETATM   21  O3  UNL     1      -6.099  41.643  39.991  1.00  0.00    -0.337 OA
HETATM   22  C12 UNL     1      -4.967  40.726  39.807  1.00  0.00     0.258 C 
HETATM   23  C13 UNL     1      -4.604  40.253  41.087  1.00  0.00    -0.131 C 
HETATM   24  C14 UNL     1      -4.493  40.009  42.474  1.00  0.00     0.258 C 
ENDBRANCH  11  14
BRANCH  10  25
HETATM   25  C15 UNL     1      -8.222  46.209  39.308  1.00  0.00     0.038 C 
HETATM   26  C16 UNL     1      -8.518  47.602  38.670  1.00  0.00     0.011 C 
HETATM   27  C17 UNL     1      -7.557  48.655  39.182  1.00  0.00     0.001 C 
HETATM   28  C18 UNL     1      -6.177  48.458  38.580  1.00  0.00     0.000 C 
HETATM   29  C19 UNL     1      -6.031  46.954  38.391  1.00  0.00     0.001 C 
HETATM   30  C20 UNL     1      -6.724  46.335  39.626  1.00  0.00     0.011 C 
ENDBRANCH  10  25
ENDBRANCH   8  10
ENDBRANCH   5   6
ENDBRANCH   3   5
TORSDOF 6
ENDMDL
