MODEL 1
REMARK VINA RESULT: -7.728718089      0.000      0.000
REMARK  8 active torsions:
REMARK  status: ('A' for Active; 'I' for Inactive)
REMARK    1  A    between atoms: C2_2  and  O2_4 
REMARK    2  A    between atoms: O2_4  and  C3_5 
REMARK    3  A    between atoms: C3_5  and  C4_6 
REMARK    4  A    between atoms: C4_6  and  O3_7 
REMARK    5  A    between atoms: C4_6  and  C5_9 
REMARK    6  A    between atoms: C5_9  and  O4_10 
REMARK    7  A    between atoms: C5_9  and  C6_12 
REMARK    8  A    between atoms: C8_14  and  C9_15 
ROOT
HETATM    1  C6  UNL     1      -6.130  41.898  42.786  1.00  0.00    -0.053 C 
HETATM    2  C7  UNL     1      -5.450  42.847  43.681  1.00  0.00     0.046 C 
HETATM    3  C8  UNL     1      -7.310  42.222  42.286  1.00  0.00     0.007 C 
ENDROOT
BRANCH   3   4
HETATM    4  C9  UNL     1      -7.971  43.483  42.581  1.00  0.00     0.033 C 
HETATM    5  C10 UNL     1      -8.421  44.240  41.580  1.00  0.00     0.054 C 
HETATM    6  O5  UNL     1      -9.061  45.446  41.719  1.00  0.00    -0.318 OA
HETATM    7  C19 UNL     1      -8.325  43.936  40.151  1.00  0.00     0.048 C 
HETATM    8  C11 UNL     1      -9.598  45.880  40.482  1.00  0.00     0.171 C 
HETATM    9  C12 UNL     1      -8.658  46.962  39.933  1.00  0.00     0.080 C 
HETATM   10  O6  UNL     1     -10.812  46.431  40.676  1.00  0.00    -0.344 OA
HETATM   11  C18 UNL     1      -9.532  44.689  39.587  1.00  0.00     0.058 C 
HETATM   12  C13 UNL     1     -11.897  45.621  40.802  1.00  0.00     0.057 C 
HETATM   13  C14 UNL     1     -12.573  45.980  42.136  1.00  0.00     0.045 C 
HETATM   14  C15 UNL     1     -12.964  45.916  39.739  1.00  0.00     0.045 C 
HETATM   15  C16 UNL     1     -11.629  44.153  40.848  1.00  0.00     0.038 C 
HETATM   16  C17 UNL     1     -10.710  43.762  39.721  1.00  0.00     0.014 C 
HETATM   17  C20 UNL     1      -7.044  44.350  39.510  1.00  0.00     0.017 C 
ENDBRANCH   3   4
BRANCH   1  18
HETATM   18  C5  UNL     1      -5.550  40.583  42.415  1.00  0.00     0.177 C 
BRANCH  18  19
HETATM   19  C4  UNL     1      -4.553  40.758  41.323  1.00  0.00     0.175 C 
BRANCH  19  20
HETATM   20  C3  UNL     1      -5.144  40.461  39.960  1.00  0.00     0.213 C 
BRANCH  20  21
HETATM   21  O2  UNL     1      -4.611  41.364  38.980  1.00  0.00    -0.319 OA
BRANCH  21  22
HETATM   22  C2  UNL     1      -3.385  41.182  38.401  1.00  0.00     0.254 C 
HETATM   23  C1  UNL     1      -2.723  42.174  37.510  1.00  0.00     0.126 C 
HETATM   24  O1  UNL     1      -2.770  40.112  38.632  1.00  0.00    -0.266 OA
ENDBRANCH  21  22
ENDBRANCH  20  21
ENDBRANCH  19  20
BRANCH  19  25
HETATM   25  O3  UNL     1      -3.484  39.889  41.492  1.00  0.00    -0.391 OA
ATOM     26  H3  UNL     1      -3.568  39.521  42.364  1.00  0.00     0.210 HD
ENDBRANCH  19  25
ENDBRANCH  18  19
BRANCH  18  27
HETATM   27  O4  UNL     1      -5.013  40.008  43.558  1.00  0.00    -0.389 OA
ATOM     28  H4  UNL     1      -5.318  40.416  44.360  1.00  0.00     0.210 HD
ENDBRANCH  18  27
ENDBRANCH   1  18
TORSDOF 8
ENDMDL
MODEL 2
REMARK VINA RESULT: -7.465249759      3.180      5.421
REMARK  8 active torsions:
REMARK  status: ('A' for Active; 'I' for Inactive)
REMARK    1  A    between atoms: C2_2  and  O2_4 
REMARK    2  A    between atoms: O2_4  and  C3_5 
REMARK    3  A    between atoms: C3_5  and  C4_6 
REMARK    4  A    between atoms: C4_6  and  O3_7 
REMARK    5  A    between atoms: C4_6  and  C5_9 
REMARK    6  A    between atoms: C5_9  and  O4_10 
REMARK    7  A    between atoms: C5_9  and  C6_12 
REMARK    8  A    between atoms: C8_14  and  C9_15 
ROOT
HETATM    1  C6  UNL     1      -7.011  43.597  40.825  1.00  0.00    -0.053 C 
HETATM    2  C7  UNL     1      -6.623  42.749  39.689  1.00  0.00     0.046 C 
HETATM    3  C8  UNL     1      -6.616  44.859  40.848  1.00  0.00     0.007 C 
ENDROOT
BRANCH   3   4
HETATM    4  C9  UNL     1      -5.812  45.450  39.792  1.00  0.00     0.033 C 
HETATM    5  C10 UNL     1      -6.371  46.313  38.943  1.00  0.00     0.054 C 
HETATM    6  O5  UNL     1      -5.727  46.942  37.907  1.00  0.00    -0.318 OA
HETATM    7  C19 UNL     1      -7.766  46.756  38.950  1.00  0.00     0.048 C 
HETATM    8  C11 UNL     1      -6.544  47.950  37.339  1.00  0.00     0.171 C 
HETATM    9  C12 UNL     1      -7.122  47.386  36.033  1.00  0.00     0.080 C 
HETATM   10  O6  UNL     1      -5.800  49.032  37.042  1.00  0.00    -0.344 OA
HETATM   11  C18 UNL     1      -7.659  48.143  38.312  1.00  0.00     0.058 C 
HETATM   12  C13 UNL     1      -5.487  49.915  38.028  1.00  0.00     0.057 C 
HETATM   13  C14 UNL     1      -3.955  50.045  38.045  1.00  0.00     0.045 C 
HETATM   14  C15 UNL     1      -5.989  51.331  37.715  1.00  0.00     0.045 C 
HETATM   15  C16 UNL     1      -5.892  49.535  39.414  1.00  0.00     0.038 C 
HETATM   16  C17 UNL     1      -7.334  49.098  39.428  1.00  0.00     0.014 C 
HETATM   17  C20 UNL     1      -8.708  45.862  38.217  1.00  0.00     0.017 C 
ENDBRANCH   3   4
BRANCH   1  18
HETATM   18  C5  UNL     1      -7.831  43.100  41.959  1.00  0.00     0.177 C 
BRANCH  18  19
HETATM   19  C4  UNL     1      -7.071  43.232  43.232  1.00  0.00     0.175 C 
BRANCH  19  20
HETATM   20  C3  UNL     1      -5.743  42.505  43.180  1.00  0.00     0.213 C 
BRANCH  20  21
HETATM   21  O2  UNL     1      -5.942  41.134  42.811  1.00  0.00    -0.319 OA
BRANCH  21  22
HETATM   22  C2  UNL     1      -4.913  40.317  42.430  1.00  0.00     0.254 C 
HETATM   23  C1  UNL     1      -4.401  40.208  41.036  1.00  0.00     0.126 C 
HETATM   24  O1  UNL     1      -4.357  39.611  43.307  1.00  0.00    -0.266 OA
ENDBRANCH  21  22
ENDBRANCH  20  21
ENDBRANCH  19  20
BRANCH  19  25
HETATM   25  O3  UNL     1      -7.785  42.682  44.288  1.00  0.00    -0.391 OA
ATOM     26  H3  UNL     1      -8.586  42.327  43.919  1.00  0.00     0.210 HD
ENDBRANCH  19  25
ENDBRANCH  18  19
BRANCH  18  27
HETATM   27  O4  UNL     1      -9.031  43.798  41.963  1.00  0.00    -0.389 OA
ATOM     28  H4  UNL     1      -8.930  44.717  41.748  1.00  0.00     0.210 HD
ENDBRANCH  18  27
ENDBRANCH   1  18
TORSDOF 8
ENDMDL
MODEL 3
REMARK VINA RESULT: -7.284585275      1.527      2.197
REMARK  8 active torsions:
REMARK  status: ('A' for Active; 'I' for Inactive)
REMARK    1  A    between atoms: C2_2  and  O2_4 
REMARK    2  A    between atoms: O2_4  and  C3_5 
REMARK    3  A    between atoms: C3_5  and  C4_6 
REMARK    4  A    between atoms: C4_6  and  O3_7 
REMARK    5  A    between atoms: C4_6  and  C5_9 
REMARK    6  A    between atoms: C5_9  and  O4_10 
REMARK    7  A    between atoms: C5_9  and  C6_12 
REMARK    8  A    between atoms: C8_14  and  C9_15 
ROOT
HETATM    1  C6  UNL     1      -7.923  43.101  43.244  1.00  0.00    -0.053 C 
HETATM    2  C7  UNL     1      -9.231  42.515  43.575  1.00  0.00     0.046 C 
HETATM    3  C8  UNL     1      -7.858  44.379  42.915  1.00  0.00     0.007 C 
ENDROOT
BRANCH   3   4
HETATM    4  C9  UNL     1      -9.028  45.239  42.865  1.00  0.00     0.033 C 
HETATM    5  C10 UNL     1      -9.540  45.586  41.684  1.00  0.00     0.054 C 
HETATM    6  O5  UNL     1     -10.638  46.388  41.495  1.00  0.00    -0.318 OA
HETATM    7  C19 UNL     1      -9.040  45.181  40.369  1.00  0.00     0.048 C 
HETATM    8  C11 UNL     1     -11.045  46.380  40.139  1.00  0.00     0.171 C 
HETATM    9  C12 UNL     1     -10.551  47.690  39.508  1.00  0.00     0.080 C 
HETATM   10  O6  UNL     1     -12.390  46.353  40.062  1.00  0.00    -0.344 OA
HETATM   11  C18 UNL     1     -10.310  45.242  39.516  1.00  0.00     0.058 C 
HETATM   12  C13 UNL     1     -13.039  45.167  40.209  1.00  0.00     0.057 C 
HETATM   13  C14 UNL     1     -14.057  45.351  41.347  1.00  0.00     0.045 C 
HETATM   14  C15 UNL     1     -13.894  44.822  38.982  1.00  0.00     0.045 C 
HETATM   15  C16 UNL     1     -12.200  43.990  40.582  1.00  0.00     0.038 C 
HETATM   16  C17 UNL     1     -10.994  43.912  39.682  1.00  0.00     0.014 C 
HETATM   17  C20 UNL     1      -7.947  46.039  39.826  1.00  0.00     0.017 C 
ENDBRANCH   3   4
BRANCH   1  18
HETATM   18  C5  UNL     1      -6.661  42.318  43.263  1.00  0.00     0.177 C 
BRANCH  18  19
HETATM   19  C4  UNL     1      -6.559  41.490  42.029  1.00  0.00     0.175 C 
BRANCH  19  20
HETATM   20  C3  UNL     1      -5.343  40.588  42.049  1.00  0.00     0.213 C 
BRANCH  20  21
HETATM   21  O2  UNL     1      -4.900  40.323  40.710  1.00  0.00    -0.319 OA
BRANCH  21  22
HETATM   22  C2  UNL     1      -3.644  39.859  40.429  1.00  0.00     0.254 C 
HETATM   23  C1  UNL     1      -2.980  39.988  39.102  1.00  0.00     0.126 C 
HETATM   24  O1  UNL     1      -3.001  39.287  41.344  1.00  0.00    -0.266 OA
ENDBRANCH  21  22
ENDBRANCH  20  21
ENDBRANCH  19  20
BRANCH  19  25
HETATM   25  O3  UNL     1      -6.437  42.299  40.908  1.00  0.00    -0.391 OA
ATOM     26  H3  UNL     1      -5.512  42.333  40.696  1.00  0.00     0.210 HD
ENDBRANCH  19  25
ENDBRANCH  18  19
BRANCH  18  27
HETATM   27  O4  UNL     1      -5.605  43.203  43.417  1.00  0.00    -0.389 OA
ATOM     28  H4  UNL     1      -4.798  42.896  43.022  1.00  0.00     0.210 HD
ENDBRANCH  18  27
ENDBRANCH   1  18
TORSDOF 8
ENDMDL
MODEL 4
REMARK VINA RESULT: -7.083287785      3.311      5.772
REMARK  8 active torsions:
REMARK  status: ('A' for Active; 'I' for Inactive)
REMARK    1  A    between atoms: C2_2  and  O2_4 
REMARK    2  A    between atoms: O2_4  and  C3_5 
REMARK    3  A    between atoms: C3_5  and  C4_6 
REMARK    4  A    between atoms: C4_6  and  O3_7 
REMARK    5  A    between atoms: C4_6  and  C5_9 
REMARK    6  A    between atoms: C5_9  and  O4_10 
REMARK    7  A    between atoms: C5_9  and  C6_12 
REMARK    8  A    between atoms: C8_14  and  C9_15 
ROOT
HETATM    1  C6  UNL     1      -7.275  44.687  40.121  1.00  0.00    -0.053 C 
HETATM    2  C7  UNL     1      -5.845  44.776  39.791  1.00  0.00     0.046 C 
HETATM    3  C8  UNL     1      -8.152  45.302  39.346  1.00  0.00     0.007 C 
ENDROOT
BRANCH   3   4
HETATM    4  C9  UNL     1      -7.764  46.068  38.174  1.00  0.00     0.033 C 
HETATM    5  C10 UNL     1      -7.909  47.393  38.176  1.00  0.00     0.054 C 
HETATM    6  O5  UNL     1      -7.582  48.232  37.140  1.00  0.00    -0.318 OA
HETATM    7  C19 UNL     1      -8.436  48.206  39.273  1.00  0.00     0.048 C 
HETATM    8  C11 UNL     1      -7.654  49.588  37.543  1.00  0.00     0.171 C 
HETATM    9  C12 UNL     1      -8.966  50.159  36.987  1.00  0.00     0.080 C 
HETATM   10  O6  UNL     1      -6.630  50.281  37.010  1.00  0.00    -0.344 OA
HETATM   11  C18 UNL     1      -7.741  49.549  39.031  1.00  0.00     0.058 C 
HETATM   12  C13 UNL     1      -5.408  50.223  37.604  1.00  0.00     0.057 C 
HETATM   13  C14 UNL     1      -4.408  49.762  36.531  1.00  0.00     0.045 C 
HETATM   14  C15 UNL     1      -4.905  51.612  38.025  1.00  0.00     0.045 C 
HETATM   15  C16 UNL     1      -5.267  49.273  38.747  1.00  0.00     0.038 C 
HETATM   16  C17 UNL     1      -6.404  49.463  39.717  1.00  0.00     0.014 C 
HETATM   17  C20 UNL     1      -9.921  48.330  39.300  1.00  0.00     0.017 C 
ENDBRANCH   3   4
BRANCH   1  18
HETATM   18  C5  UNL     1      -7.787  43.932  41.293  1.00  0.00     0.177 C 
BRANCH  18  19
HETATM   19  C4  UNL     1      -6.666  43.217  41.965  1.00  0.00     0.175 C 
BRANCH  19  20
HETATM   20  C3  UNL     1      -6.915  41.726  42.056  1.00  0.00     0.213 C 
BRANCH  20  21
HETATM   21  O2  UNL     1      -5.781  41.067  42.638  1.00  0.00    -0.319 OA
BRANCH  21  22
HETATM   22  C2  UNL     1      -4.867  40.377  41.891  1.00  0.00     0.254 C 
HETATM   23  C1  UNL     1      -4.869  40.323  40.403  1.00  0.00     0.126 C 
HETATM   24  O1  UNL     1      -3.962  39.746  42.491  1.00  0.00    -0.266 OA
ENDBRANCH  21  22
ENDBRANCH  20  21
ENDBRANCH  19  20
BRANCH  19  25
HETATM   25  O3  UNL     1      -6.504  43.674  43.265  1.00  0.00    -0.391 OA
ATOM     26  H3  UNL     1      -7.221  44.273  43.435  1.00  0.00     0.210 HD
ENDBRANCH  19  25
ENDBRANCH  18  19
BRANCH  18  27
HETATM   27  O4  UNL     1      -8.445  44.822  42.128  1.00  0.00    -0.389 OA
ATOM     28  H4  UNL     1      -8.911  44.396  42.838  1.00  0.00     0.210 HD
ENDBRANCH  18  27
ENDBRANCH   1  18
TORSDOF 8
ENDMDL
MODEL 5
REMARK VINA RESULT: -7.055739512      1.489      1.807
REMARK  8 active torsions:
REMARK  status: ('A' for Active; 'I' for Inactive)
REMARK    1  A    between atoms: C2_2  and  O2_4 
REMARK    2  A    between atoms: O2_4  and  C3_5 
REMARK    3  A    between atoms: C3_5  and  C4_6 
REMARK    4  A    between atoms: C4_6  and  O3_7 
REMARK    5  A    between atoms: C4_6  and  C5_9 
REMARK    6  A    between atoms: C5_9  and  O4_10 
REMARK    7  A    between atoms: C5_9  and  C6_12 
REMARK    8  A    between atoms: C8_14  and  C9_15 
ROOT
HETATM    1  C6  UNL     1      -6.970  42.773  42.320  1.00  0.00    -0.053 C 
HETATM    2  C7  UNL     1      -6.343  44.015  42.797  1.00  0.00     0.046 C 
HETATM    3  C8  UNL     1      -8.281  42.740  42.156  1.00  0.00     0.007 C 
ENDROOT
BRANCH   3   4
HETATM    4  C9  UNL     1      -9.138  43.882  42.425  1.00  0.00     0.033 C 
HETATM    5  C10 UNL     1      -9.607  44.607  41.409  1.00  0.00     0.054 C 
HETATM    6  O5  UNL     1     -10.422  45.705  41.524  1.00  0.00    -0.318 OA
HETATM    7  C19 UNL     1      -9.350  44.376  39.987  1.00  0.00     0.048 C 
HETATM    8  C11 UNL     1     -10.911  46.108  40.257  1.00  0.00     0.171 C 
HETATM    9  C12 UNL     1     -10.093  47.332  39.822  1.00  0.00     0.080 C 
HETATM   10  O6  UNL     1     -12.203  46.476  40.358  1.00  0.00    -0.344 OA
HETATM   11  C18 UNL     1     -10.602  44.974  39.339  1.00  0.00     0.058 C 
HETATM   12  C13 UNL     1     -13.168  45.517  40.367  1.00  0.00     0.057 C 
HETATM   13  C14 UNL     1     -13.996  45.725  41.645  1.00  0.00     0.045 C 
HETATM   14  C15 UNL     1     -14.174  45.701  39.223  1.00  0.00     0.045 C 
HETATM   15  C16 UNL     1     -12.698  44.100  40.396  1.00  0.00     0.038 C 
HETATM   16  C17 UNL     1     -11.641  43.886  39.344  1.00  0.00     0.014 C 
HETATM   17  C20 UNL     1      -8.093  44.990  39.472  1.00  0.00     0.017 C 
ENDBRANCH   3   4
BRANCH   1  18
HETATM   18  C5  UNL     1      -6.195  41.545  42.012  1.00  0.00     0.177 C 
BRANCH  18  19
HETATM   19  C4  UNL     1      -6.232  41.275  40.548  1.00  0.00     0.175 C 
BRANCH  19  20
HETATM   20  C3  UNL     1      -5.387  40.076  40.169  1.00  0.00     0.213 C 
BRANCH  20  21
HETATM   21  O2  UNL     1      -4.028  40.477  39.946  1.00  0.00    -0.319 OA
BRANCH  21  22
HETATM   22  C2  UNL     1      -2.971  39.874  40.571  1.00  0.00     0.254 C 
HETATM   23  C1  UNL     1      -1.622  39.706  39.963  1.00  0.00     0.126 C 
HETATM   24  O1  UNL     1      -3.140  39.432  41.734  1.00  0.00    -0.266 OA
ENDBRANCH  21  22
ENDBRANCH  20  21
ENDBRANCH  19  20
BRANCH  19  25
HETATM   25  O3  UNL     1      -5.729  42.357  39.839  1.00  0.00    -0.391 OA
ATOM     26  H3  UNL     1      -5.547  42.046  38.960  1.00  0.00     0.210 HD
ENDBRANCH  19  25
ENDBRANCH  18  19
BRANCH  18  27
HETATM   27  O4  UNL     1      -4.909  41.710  42.506  1.00  0.00    -0.389 OA
ATOM     28  H4  UNL     1      -4.280  41.112  42.119  1.00  0.00     0.210 HD
ENDBRANCH  18  27
ENDBRANCH   1  18
TORSDOF 8
ENDMDL
