MODEL 1
REMARK VINA RESULT: -3.935333494      0.000      0.000
REMARK  1 active torsions:
REMARK  status: ('A' for Active; 'I' for Inactive)
REMARK    1  A    between atoms: O1_1  and  C1_3 
ROOT
HETATM    1  C1  UNL     1       9.695  -3.465  -1.696  1.00  0.00     0.118 C 
HETATM    2  C2  UNL     1       8.512  -4.343  -1.377  1.00  0.00     0.032 C 
HETATM    3  C3  UNL     1       8.452  -4.715   0.089  1.00  0.00     0.002 C 
HETATM    4  C4  UNL     1       9.183  -6.014   0.255  1.00  0.00     0.000 C 
HETATM    5  C5  UNL     1      10.653  -5.885   0.405  1.00  0.00     0.000 C 
HETATM    6  C6  UNL     1      11.219  -4.583  -0.085  1.00  0.00     0.002 C 
HETATM    7  C7  UNL     1      10.942  -4.303  -1.527  1.00  0.00     0.032 C 
ENDROOT
BRANCH   1   8
HETATM    8  O1  UNL     1       9.594  -3.102  -3.035  1.00  0.00    -0.396 OA
ATOM      9  H1  UNL     1      10.476  -3.058  -3.385  1.00  0.00     0.210 HD
ENDBRANCH   1   8
TORSDOF 1
ENDMDL
MODEL 2
REMARK VINA RESULT: -3.753508331      1.259      2.429
REMARK  1 active torsions:
REMARK  status: ('A' for Active; 'I' for Inactive)
REMARK    1  A    between atoms: O1_1  and  C1_3 
ROOT
HETATM    1  C1  UNL     1      11.258  -3.637  -2.493  1.00  0.00     0.118 C 
HETATM    2  C2  UNL     1      11.730  -3.816  -1.073  1.00  0.00     0.032 C 
HETATM    3  C3  UNL     1      11.242  -5.113  -0.464  1.00  0.00     0.002 C 
HETATM    4  C4  UNL     1       9.947  -4.824   0.234  1.00  0.00     0.000 C 
HETATM    5  C5  UNL     1       8.750  -4.848  -0.642  1.00  0.00     0.000 C 
HETATM    6  C6  UNL     1       9.043  -4.692  -2.106  1.00  0.00     0.002 C 
HETATM    7  C7  UNL     1       9.762  -3.427  -2.452  1.00  0.00     0.032 C 
ENDROOT
BRANCH   1   8
HETATM    8  O1  UNL     1      11.846  -2.475  -2.984  1.00  0.00    -0.396 OA
ATOM      9  H1  UNL     1      11.998  -2.604  -3.912  1.00  0.00     0.210 HD
ENDBRANCH   1   8
TORSDOF 1
ENDMDL
MODEL 3
REMARK VINA RESULT: -3.725078729      1.874      2.854
REMARK  1 active torsions:
REMARK  status: ('A' for Active; 'I' for Inactive)
REMARK    1  A    between atoms: O1_1  and  C1_3 
ROOT
HETATM    1  C1  UNL     1       8.841  -5.279  -0.143  1.00  0.00     0.118 C 
HETATM    2  C2  UNL     1       8.339  -4.378  -1.242  1.00  0.00     0.032 C 
HETATM    3  C3  UNL     1       9.177  -4.484  -2.498  1.00  0.00     0.002 C 
HETATM    4  C4  UNL     1      10.242  -3.431  -2.420  1.00  0.00     0.000 C 
HETATM    5  C5  UNL     1      11.447  -3.823  -1.648  1.00  0.00     0.000 C 
HETATM    6  C6  UNL     1      11.240  -4.973  -0.706  1.00  0.00     0.002 C 
HETATM    7  C7  UNL     1      10.175  -4.737   0.317  1.00  0.00     0.032 C 
ENDROOT
BRANCH   1   8
HETATM    8  O1  UNL     1       7.944  -5.181   0.917  1.00  0.00    -0.396 OA
ATOM      9  H1  UNL     1       7.997  -4.294   1.252  1.00  0.00     0.210 HD
ENDBRANCH   1   8
TORSDOF 1
ENDMDL
MODEL 4
REMARK VINA RESULT: -3.596027890      2.149      3.084
REMARK  1 active torsions:
REMARK  status: ('A' for Active; 'I' for Inactive)
REMARK    1  A    between atoms: O1_1  and  C1_3 
ROOT
HETATM    1  C1  UNL     1      10.792  -5.868   0.467  1.00  0.00     0.118 C 
HETATM    2  C2  UNL     1       9.304  -6.052   0.314  1.00  0.00     0.032 C 
HETATM    3  C3  UNL     1       8.879  -6.107  -1.138  1.00  0.00     0.002 C 
HETATM    4  C4  UNL     1       8.528  -4.712  -1.558  1.00  0.00     0.000 C 
HETATM    5  C5  UNL     1       9.682  -3.882  -1.984  1.00  0.00     0.000 C 
HETATM    6  C6  UNL     1      11.017  -4.374  -1.505  1.00  0.00     0.002 C 
HETATM    7  C7  UNL     1      11.130  -4.476  -0.017  1.00  0.00     0.032 C 
ENDROOT
BRANCH   1   8
HETATM    8  O1  UNL     1      11.082  -5.936   1.826  1.00  0.00    -0.396 OA
ATOM      9  H1  UNL     1      11.277  -6.843   2.030  1.00  0.00     0.210 HD
ENDBRANCH   1   8
TORSDOF 1
ENDMDL
MODEL 5
REMARK VINA RESULT: -3.557312609      2.901      3.973
REMARK  1 active torsions:
REMARK  status: ('A' for Active; 'I' for Inactive)
REMARK    1  A    between atoms: O1_1  and  C1_3 
ROOT
HETATM    1  C1  UNL     1       8.284  -6.759   0.767  1.00  0.00     0.118 C 
HETATM    2  C2  UNL     1       7.629  -7.667  -0.242  1.00  0.00     0.032 C 
HETATM    3  C3  UNL     1       8.405  -7.740  -1.539  1.00  0.00     0.002 C 
HETATM    4  C4  UNL     1       7.854  -6.688  -2.454  1.00  0.00     0.000 C 
HETATM    5  C5  UNL     1       8.420  -5.332  -2.254  1.00  0.00     0.000 C 
HETATM    6  C6  UNL     1       9.075  -5.118  -0.921  1.00  0.00     0.002 C 
HETATM    7  C7  UNL     1       8.169  -5.344   0.247  1.00  0.00     0.032 C 
ENDROOT
BRANCH   1   8
HETATM    8  O1  UNL     1       7.550  -6.848   1.946  1.00  0.00    -0.396 OA
ATOM      9  H1  UNL     1       8.093  -7.294   2.585  1.00  0.00     0.210 HD
ENDBRANCH   1   8
TORSDOF 1
ENDMDL
