MODEL 1
REMARK VINA RESULT: -4.141324101      0.000      0.000
REMARK  1 active torsions:
REMARK  status: ('A' for Active; 'I' for Inactive)
REMARK    1  A    between atoms: C2_3  and  O1_4 
ROOT
HETATM    1  N1  UNL     1       7.738  -6.359  -2.801  1.00  0.00    -0.194 NA
HETATM    2  C1  UNL     1       8.335  -5.521  -2.247  1.00  0.00     0.097 C 
HETATM    3  C2  UNL     1       9.105  -4.468  -1.567  1.00  0.00     0.146 C 
HETATM    4  C3  UNL     1       9.742  -5.113  -0.388  1.00  0.00     0.053 C 
HETATM    5  C4  UNL     1      10.966  -4.452   0.122  1.00  0.00     0.004 C 
HETATM    6  C5  UNL     1      11.940  -4.158  -0.986  1.00  0.00     0.000 C 
HETATM    7  C6  UNL     1      11.332  -3.382  -2.108  1.00  0.00     0.004 C 
HETATM    8  C7  UNL     1       9.970  -3.758  -2.511  1.00  0.00     0.053 C 
ENDROOT
BRANCH   3   9
HETATM    9  O1  UNL     1       8.114  -3.588  -1.057  1.00  0.00    -0.376 OA
ATOM     10  H1  UNL     1       8.535  -2.736  -1.065  1.00  0.00     0.211 HD
ENDBRANCH   3   9
TORSDOF 1
ENDMDL
MODEL 2
REMARK VINA RESULT: -4.139432061      1.571      1.826
REMARK  1 active torsions:
REMARK  status: ('A' for Active; 'I' for Inactive)
REMARK    1  A    between atoms: C2_3  and  O1_4 
ROOT
HETATM    1  N1  UNL     1       7.547  -7.836  -0.354  1.00  0.00    -0.194 NA
HETATM    2  C1  UNL     1       8.029  -6.773  -0.296  1.00  0.00     0.097 C 
HETATM    3  C2  UNL     1       8.643  -5.437  -0.248  1.00  0.00     0.146 C 
HETATM    4  C3  UNL     1       9.990  -5.618   0.356  1.00  0.00     0.053 C 
HETATM    5  C4  UNL     1      10.990  -4.578   0.015  1.00  0.00     0.004 C 
HETATM    6  C5  UNL     1      11.039  -4.319  -1.465  1.00  0.00     0.000 C 
HETATM    7  C6  UNL     1       9.701  -3.994  -2.045  1.00  0.00     0.004 C 
HETATM    8  C7  UNL     1       8.558  -4.773  -1.550  1.00  0.00     0.053 C 
ENDROOT
BRANCH   3   9
HETATM    9  O1  UNL     1       7.865  -4.733   0.709  1.00  0.00    -0.376 OA
ATOM     10  H1  UNL     1       8.291  -4.921   1.537  1.00  0.00     0.211 HD
ENDBRANCH   3   9
TORSDOF 1
ENDMDL
MODEL 3
REMARK VINA RESULT: -4.054029304      1.803      3.150
REMARK  1 active torsions:
REMARK  status: ('A' for Active; 'I' for Inactive)
REMARK    1  A    between atoms: C2_3  and  O1_4 
ROOT
HETATM    1  N1  UNL     1      10.585  -3.056  -2.872  1.00  0.00    -0.194 NA
HETATM    2  C1  UNL     1       9.885  -3.690  -2.182  1.00  0.00     0.097 C 
HETATM    3  C2  UNL     1       9.025  -4.500  -1.306  1.00  0.00     0.146 C 
HETATM    4  C3  UNL     1       8.483  -5.597  -2.151  1.00  0.00     0.053 C 
HETATM    5  C4  UNL     1       8.066  -6.820  -1.424  1.00  0.00     0.004 C 
HETATM    6  C5  UNL     1       9.126  -7.285  -0.464  1.00  0.00     0.000 C 
HETATM    7  C6  UNL     1       9.566  -6.216   0.482  1.00  0.00     0.004 C 
HETATM    8  C7  UNL     1       9.726  -4.865  -0.074  1.00  0.00     0.053 C 
ENDROOT
BRANCH   3   9
HETATM    9  O1  UNL     1       7.931  -3.645  -1.008  1.00  0.00    -0.376 OA
ATOM     10  H1  UNL     1       7.362  -3.725  -1.765  1.00  0.00     0.211 HD
ENDBRANCH   3   9
TORSDOF 1
ENDMDL
MODEL 4
REMARK VINA RESULT: -4.001502877      1.842      2.512
REMARK  1 active torsions:
REMARK  status: ('A' for Active; 'I' for Inactive)
REMARK    1  A    between atoms: C2_3  and  O1_4 
ROOT
HETATM    1  N1  UNL     1       7.460  -3.854   0.401  1.00  0.00    -0.194 NA
HETATM    2  C1  UNL     1       8.412  -4.234  -0.162  1.00  0.00     0.097 C 
HETATM    3  C2  UNL     1       9.624  -4.697  -0.854  1.00  0.00     0.146 C 
HETATM    4  C3  UNL     1       9.783  -3.824  -2.048  1.00  0.00     0.053 C 
HETATM    5  C4  UNL     1      11.162  -3.709  -2.580  1.00  0.00     0.004 C 
HETATM    6  C5  UNL     1      12.153  -3.404  -1.491  1.00  0.00     0.000 C 
HETATM    7  C6  UNL     1      12.089  -4.372  -0.355  1.00  0.00     0.004 C 
HETATM    8  C7  UNL     1      10.751  -4.802   0.074  1.00  0.00     0.053 C 
ENDROOT
BRANCH   3   9
HETATM    9  O1  UNL     1       9.273  -5.984  -1.342  1.00  0.00    -0.376 OA
ATOM     10  H1  UNL     1      10.001  -6.225  -1.904  1.00  0.00     0.211 HD
ENDBRANCH   3   9
TORSDOF 1
ENDMDL
MODEL 5
REMARK VINA RESULT: -3.976519205      2.244      3.845
REMARK  1 active torsions:
REMARK  status: ('A' for Active; 'I' for Inactive)
REMARK    1  A    between atoms: C2_3  and  O1_4 
ROOT
HETATM    1  N1  UNL     1      11.546  -4.341   0.407  1.00  0.00    -0.194 NA
HETATM    2  C1  UNL     1      10.458  -4.631   0.095  1.00  0.00     0.097 C 
HETATM    3  C2  UNL     1       9.094  -5.020  -0.297  1.00  0.00     0.146 C 
HETATM    4  C3  UNL     1       9.037  -4.903  -1.779  1.00  0.00     0.053 C 
HETATM    5  C4  UNL     1       8.010  -5.736  -2.448  1.00  0.00     0.004 C 
HETATM    6  C5  UNL     1       8.056  -7.162  -1.973  1.00  0.00     0.000 C 
HETATM    7  C6  UNL     1       7.969  -7.285  -0.487  1.00  0.00     0.004 C 
HETATM    8  C7  UNL     1       8.721  -6.301   0.305  1.00  0.00     0.053 C 
ENDROOT
BRANCH   3   9
HETATM    9  O1  UNL     1       8.276  -3.982   0.221  1.00  0.00    -0.376 OA
ATOM     10  H1  UNL     1       8.528  -3.923   1.135  1.00  0.00     0.211 HD
ENDBRANCH   3   9
TORSDOF 1
ENDMDL
