MODEL 1
REMARK VINA RESULT: -3.834484229      0.000      0.000
REMARK  1 active torsions:
REMARK  status: ('A' for Active; 'I' for Inactive)
REMARK    1  A    between atoms: O1_1  and  C1_3 
ROOT
HETATM    1  C1  UNL     1       9.967  -4.037  -2.487  1.00  0.00     0.119 C 
HETATM    2  C2  UNL     1      11.039  -4.066  -1.418  1.00  0.00     0.033 C 
HETATM    3  C3  UNL     1      10.563  -5.280  -0.610  1.00  0.00     0.018 C 
HETATM    4  C4  UNL     1       9.123  -4.801  -0.382  1.00  0.00     0.061 C 
HETATM    5  S1  UNL     1       8.130  -6.023   0.465  1.00  0.00    -0.092 SA
HETATM    6  C5  UNL     1       8.708  -4.591  -1.823  1.00  0.00     0.047 C 
ENDROOT
BRANCH   1   7
HETATM    7  O1  UNL     1       9.709  -2.737  -2.913  1.00  0.00    -0.396 OA
ATOM      8  H1  UNL     1       9.599  -2.696  -3.855  1.00  0.00     0.210 HD
ENDBRANCH   1   7
TORSDOF 1
ENDMDL
MODEL 2
REMARK VINA RESULT: -3.444261678      1.788      2.174
REMARK  1 active torsions:
REMARK  status: ('A' for Active; 'I' for Inactive)
REMARK    1  A    between atoms: O1_1  and  C1_3 
ROOT
HETATM    1  C1  UNL     1      10.768  -3.608  -2.691  1.00  0.00     0.119 C 
HETATM    2  C2  UNL     1      11.969  -2.800  -2.249  1.00  0.00     0.033 C 
HETATM    3  C3  UNL     1      12.633  -3.818  -1.313  1.00  0.00     0.018 C 
HETATM    4  C4  UNL     1      11.404  -4.095  -0.436  1.00  0.00     0.061 C 
HETATM    5  S1  UNL     1      11.713  -5.373   0.777  1.00  0.00    -0.092 SA
HETATM    6  C5  UNL     1      10.431  -4.523  -1.515  1.00  0.00     0.047 C 
ENDROOT
BRANCH   1   7
HETATM    7  O1  UNL     1       9.671  -2.790  -2.946  1.00  0.00    -0.396 OA
ATOM      8  H1  UNL     1       9.806  -2.262  -3.724  1.00  0.00     0.210 HD
ENDBRANCH   1   7
TORSDOF 1
ENDMDL
MODEL 3
REMARK VINA RESULT: -3.278598794      2.643      3.023
REMARK  1 active torsions:
REMARK  status: ('A' for Active; 'I' for Inactive)
REMARK    1  A    between atoms: O1_1  and  C1_3 
ROOT
HETATM    1  C1  UNL     1       9.016  -4.329  -1.656  1.00  0.00     0.119 C 
HETATM    2  C2  UNL     1       9.895  -5.276  -0.867  1.00  0.00     0.033 C 
HETATM    3  C3  UNL     1      11.115  -4.373  -0.650  1.00  0.00     0.018 C 
HETATM    4  C4  UNL     1      11.340  -4.004  -2.122  1.00  0.00     0.061 C 
HETATM    5  S1  UNL     1      12.662  -2.816  -2.328  1.00  0.00    -0.092 SA
HETATM    6  C5  UNL     1       9.973  -3.433  -2.438  1.00  0.00     0.047 C 
ENDROOT
BRANCH   1   7
HETATM    7  O1  UNL     1       8.211  -5.016  -2.559  1.00  0.00    -0.396 OA
ATOM      8  H1  UNL     1       7.991  -4.476  -3.309  1.00  0.00     0.210 HD
ENDBRANCH   1   7
TORSDOF 1
ENDMDL
MODEL 4
REMARK VINA RESULT: -3.164849065      1.472      2.104
REMARK  1 active torsions:
REMARK  status: ('A' for Active; 'I' for Inactive)
REMARK    1  A    between atoms: O1_1  and  C1_3 
ROOT
HETATM    1  C1  UNL     1       8.732  -4.208  -1.419  1.00  0.00     0.119 C 
HETATM    2  C2  UNL     1       8.399  -5.513  -2.110  1.00  0.00     0.033 C 
HETATM    3  C3  UNL     1       8.556  -6.477  -0.927  1.00  0.00     0.018 C 
HETATM    4  C4  UNL     1       9.972  -6.047  -0.521  1.00  0.00     0.061 C 
HETATM    5  S1  UNL     1      10.533  -6.878   0.960  1.00  0.00    -0.092 SA
HETATM    6  C5  UNL     1       9.724  -4.567  -0.315  1.00  0.00     0.047 C 
ENDROOT
BRANCH   1   7
HETATM    7  O1  UNL     1       9.344  -3.313  -2.292  1.00  0.00    -0.396 OA
ATOM      8  H1  UNL     1      10.211  -3.609  -2.542  1.00  0.00     0.210 HD
ENDBRANCH   1   7
TORSDOF 1
ENDMDL
MODEL 5
REMARK VINA RESULT: -3.131937224      1.589      2.261
REMARK  1 active torsions:
REMARK  status: ('A' for Active; 'I' for Inactive)
REMARK    1  A    between atoms: O1_1  and  C1_3 
ROOT
HETATM    1  C1  UNL     1      11.462  -3.183  -2.215  1.00  0.00     0.119 C 
HETATM    2  C2  UNL     1      10.077  -3.633  -2.626  1.00  0.00     0.033 C 
HETATM    3  C3  UNL     1       9.556  -4.131  -1.271  1.00  0.00     0.018 C 
HETATM    4  C4  UNL     1      10.720  -5.080  -0.960  1.00  0.00     0.061 C 
HETATM    5  S1  UNL     1      10.572  -5.825   0.659  1.00  0.00    -0.092 SA
HETATM    6  C5  UNL     1      11.867  -4.096  -1.060  1.00  0.00     0.047 C 
ENDROOT
BRANCH   1   7
HETATM    7  O1  UNL     1      12.377  -3.344  -3.251  1.00  0.00    -0.396 OA
ATOM      8  H1  UNL     1      11.946  -3.344  -4.098  1.00  0.00     0.210 HD
ENDBRANCH   1   7
TORSDOF 1
ENDMDL
