MODEL 1
REMARK VINA RESULT: -4.107680856      0.000      0.000
REMARK  0 active torsions:
REMARK  status: ('A' for Active; 'I' for Inactive)
ROOT
HETATM    1  C1  UNL     1       8.970  -5.262  -0.281  1.00  0.00     0.029 C 
HETATM    2  C2  UNL     1       8.444  -4.325  -1.339  1.00  0.00     0.233 C 
HETATM    3  N1  UNL     1       9.424  -4.128  -2.416  1.00  0.00    -0.069 N 
ATOM      4  H11 UNL     1       9.056  -3.583  -3.196  1.00  0.00     0.277 HD
ATOM      5  H12 UNL     1       9.624  -4.982  -2.935  1.00  0.00     0.277 HD
HETATM    6  C3  UNL     1      10.575  -3.553  -1.835  1.00  0.00     0.217 C 
HETATM    7  C4  UNL     1      11.687  -3.205  -2.742  1.00  0.00     0.062 C 
HETATM    8  C5  UNL     1      12.858  -3.178  -1.748  1.00  0.00     0.235 C 
HETATM    9  N2  UNL     1      12.485  -4.038  -0.660  1.00  0.00    -0.069 N 
ATOM     10  H21 UNL     1      12.506  -3.556   0.238  1.00  0.00     0.277 HD
ATOM     11  H22 UNL     1      13.197  -4.742  -0.463  1.00  0.00     0.277 HD
HETATM   12  C6  UNL     1      11.220  -4.615  -0.931  1.00  0.00     0.216 C 
HETATM   13  C7  UNL     1      10.301  -4.719   0.257  1.00  0.00     0.037 C 
ENDROOT
TORSDOF 0
ENDMDL
MODEL 2
REMARK VINA RESULT: -4.084189386      1.186      2.297
REMARK  0 active torsions:
REMARK  status: ('A' for Active; 'I' for Inactive)
ROOT
HETATM    1  C1  UNL     1       8.266  -5.591  -0.061  1.00  0.00     0.029 C 
HETATM    2  C2  UNL     1       9.586  -6.159   0.397  1.00  0.00     0.233 C 
HETATM    3  N1  UNL     1      10.655  -5.154   0.328  1.00  0.00    -0.069 N 
ATOM      4  H11 UNL     1      11.535  -5.479   0.730  1.00  0.00     0.277 HD
ATOM      5  H12 UNL     1      10.505  -4.367   0.960  1.00  0.00     0.277 HD
HETATM    6  C3  UNL     1      10.776  -4.762  -1.022  1.00  0.00     0.217 C 
HETATM    7  C4  UNL     1      11.840  -3.791  -1.351  1.00  0.00     0.062 C 
HETATM    8  C5  UNL     1      11.298  -3.223  -2.671  1.00  0.00     0.235 C 
HETATM    9  N2  UNL     1       9.873  -3.402  -2.635  1.00  0.00    -0.069 N 
ATOM     10  H21 UNL     1       9.531  -3.940  -3.431  1.00  0.00     0.277 HD
ATOM     11  H22 UNL     1       9.369  -2.535  -2.820  1.00  0.00     0.277 HD
HETATM   12  C6  UNL     1       9.505  -3.983  -1.396  1.00  0.00     0.216 C 
HETATM   13  C7  UNL     1       8.425  -5.028  -1.480  1.00  0.00     0.037 C 
ENDROOT
TORSDOF 0
ENDMDL
MODEL 3
REMARK VINA RESULT: -4.035347617      0.928      3.677
REMARK  0 active torsions:
REMARK  status: ('A' for Active; 'I' for Inactive)
ROOT
HETATM    1  C1  UNL     1      11.869  -3.342  -2.666  1.00  0.00     0.029 C 
HETATM    2  C2  UNL     1      12.455  -3.564  -1.294  1.00  0.00     0.233 C 
HETATM    3  N1  UNL     1      11.787  -4.672  -0.598  1.00  0.00    -0.069 N 
ATOM      4  H11 UNL     1      12.232  -4.912   0.288  1.00  0.00     0.277 HD
ATOM      5  H12 UNL     1      11.920  -5.572  -1.060  1.00  0.00     0.277 HD
HETATM    6  C3  UNL     1      10.428  -4.320  -0.457  1.00  0.00     0.217 C 
HETATM    7  C4  UNL     1       9.558  -5.264   0.275  1.00  0.00     0.062 C 
HETATM    8  C5  UNL     1       8.182  -4.849  -0.267  1.00  0.00     0.235 C 
HETATM    9  N2  UNL     1       8.415  -4.259  -1.556  1.00  0.00    -0.069 N 
ATOM     10  H21 UNL     1       8.050  -3.309  -1.618  1.00  0.00     0.277 HD
ATOM     11  H22 UNL     1       7.840  -4.683  -2.285  1.00  0.00     0.277 HD
HETATM   12  C6  UNL     1       9.798  -4.323  -1.858  1.00  0.00     0.216 C 
HETATM   13  C7  UNL     1      10.358  -3.101  -2.535  1.00  0.00     0.037 C 
ENDROOT
TORSDOF 0
ENDMDL
MODEL 4
REMARK VINA RESULT: -3.875923779      1.223      2.104
REMARK  0 active torsions:
REMARK  status: ('A' for Active; 'I' for Inactive)
ROOT
HETATM    1  C1  UNL     1       8.865  -4.529  -0.963  1.00  0.00     0.029 C 
HETATM    2  C2  UNL     1       9.868  -5.279  -0.123  1.00  0.00     0.233 C 
HETATM    3  N1  UNL     1      11.081  -4.481   0.104  1.00  0.00    -0.069 N 
ATOM      4  H11 UNL     1      11.732  -4.922   0.755  1.00  0.00     0.277 HD
ATOM      5  H12 UNL     1      10.906  -3.635   0.646  1.00  0.00     0.277 HD
HETATM    6  C3  UNL     1      11.654  -4.220  -1.159  1.00  0.00     0.217 C 
HETATM    7  C4  UNL     1      12.929  -3.475  -1.181  1.00  0.00     0.062 C 
HETATM    8  C5  UNL     1      12.904  -2.925  -2.614  1.00  0.00     0.235 C 
HETATM    9  N2  UNL     1      11.521  -2.853  -2.996  1.00  0.00    -0.069 N 
ATOM     10  H21 UNL     1      11.327  -3.384  -3.846  1.00  0.00     0.277 HD
ATOM     11  H22 UNL     1      11.262  -1.928  -3.342  1.00  0.00     0.277 HD
HETATM   12  C6  UNL     1      10.712  -3.266  -1.909  1.00  0.00     0.216 C 
HETATM   13  C7  UNL     1       9.525  -4.112  -2.285  1.00  0.00     0.037 C 
ENDROOT
TORSDOF 0
ENDMDL
MODEL 5
REMARK VINA RESULT: -3.838263524      1.302      3.162
REMARK  0 active torsions:
REMARK  status: ('A' for Active; 'I' for Inactive)
ROOT
HETATM    1  C1  UNL     1      12.231  -3.512  -1.533  1.00  0.00     0.029 C 
HETATM    2  C2  UNL     1      11.318  -3.500  -2.734  1.00  0.00     0.233 C 
HETATM    3  N1  UNL     1       9.919  -3.279  -2.342  1.00  0.00    -0.069 N 
ATOM      4  H11 UNL     1       9.295  -3.162  -3.141  1.00  0.00     0.277 HD
ATOM      5  H12 UNL     1       9.762  -2.366  -1.918  1.00  0.00     0.277 HD
HETATM    6  C3  UNL     1       9.546  -4.350  -1.501  1.00  0.00     0.217 C 
HETATM    7  C4  UNL     1       8.148  -4.377  -1.024  1.00  0.00     0.062 C 
HETATM    8  C5  UNL     1       8.297  -5.264   0.221  1.00  0.00     0.235 C 
HETATM    9  N2  UNL     1       9.660  -5.127   0.654  1.00  0.00    -0.069 N 
ATOM     10  H21 UNL     1      10.142  -6.025   0.704  1.00  0.00     0.277 HD
ATOM     11  H22 UNL     1       9.729  -4.872   1.640  1.00  0.00     0.277 HD
HETATM   12  C6  UNL     1      10.330  -4.205  -0.188  1.00  0.00     0.216 C 
HETATM   13  C7  UNL     1      11.744  -4.579  -0.541  1.00  0.00     0.037 C 
ENDROOT
TORSDOF 0
ENDMDL
