MODEL 1
REMARK VINA RESULT: -2.896341785      0.000      0.000
REMARK  1 active torsions:
REMARK  status: ('A' for Active; 'I' for Inactive)
REMARK    1  A    between atoms: C1_2  and  C2_4 
ROOT
HETATM    1  C2  UNL     1       8.658  -4.855  -0.975  1.00  0.00     0.037 A 
HETATM    2  C3  UNL     1       7.916  -4.052   0.087  1.00  0.00     0.011 A 
HETATM    3  C4  UNL     1       8.243  -5.505   0.275  1.00  0.00     0.011 A 
ENDROOT
BRANCH   1   4
HETATM    4  C1  UNL     1      10.043  -4.385  -1.197  1.00  0.00     0.060 C 
HETATM    5  S1  UNL     1      10.343  -3.666  -2.395  1.00  0.00    -0.076 SA
HETATM    6  S2  UNL     1      11.385  -4.661  -0.049  1.00  0.00    -0.044 SA
ENDBRANCH   1   4
TORSDOF 1
ENDMDL
MODEL 2
REMARK VINA RESULT: -2.888988111      1.245      1.392
REMARK  1 active torsions:
REMARK  status: ('A' for Active; 'I' for Inactive)
REMARK    1  A    between atoms: C1_2  and  C2_4 
ROOT
HETATM    1  C2  UNL     1       9.475  -4.247  -2.172  1.00  0.00     0.037 A 
HETATM    2  C3  UNL     1       8.422  -4.103  -1.081  1.00  0.00     0.011 A 
HETATM    3  C4  UNL     1       8.687  -5.416  -1.757  1.00  0.00     0.011 A 
ENDROOT
BRANCH   1   4
HETATM    4  C1  UNL     1      10.852  -4.011  -1.686  1.00  0.00     0.060 C 
HETATM    5  S1  UNL     1      11.746  -3.244  -2.495  1.00  0.00    -0.076 SA
HETATM    6  S2  UNL     1      11.480  -4.631  -0.132  1.00  0.00    -0.044 SA
ENDBRANCH   1   4
TORSDOF 1
ENDMDL
MODEL 3
REMARK VINA RESULT: -2.837139832      0.520      1.629
REMARK  1 active torsions:
REMARK  status: ('A' for Active; 'I' for Inactive)
REMARK    1  A    between atoms: C1_2  and  C2_4 
ROOT
HETATM    1  C2  UNL     1       9.100  -5.041  -1.038  1.00  0.00     0.037 A 
HETATM    2  C3  UNL     1       8.063  -4.055  -0.517  1.00  0.00     0.011 A 
HETATM    3  C4  UNL     1       8.371  -5.335   0.203  1.00  0.00     0.011 A 
ENDROOT
BRANCH   1   4
HETATM    4  C1  UNL     1      10.475  -4.495  -1.035  1.00  0.00     0.060 C 
HETATM    5  S1  UNL     1      11.319  -4.760   0.087  1.00  0.00    -0.076 SA
HETATM    6  S2  UNL     1      11.160  -3.514  -2.363  1.00  0.00    -0.044 SA
ENDBRANCH   1   4
TORSDOF 1
ENDMDL
MODEL 4
REMARK VINA RESULT: -2.769064468      2.703      3.032
REMARK  1 active torsions:
REMARK  status: ('A' for Active; 'I' for Inactive)
REMARK    1  A    between atoms: C1_2  and  C2_4 
ROOT
HETATM    1  C2  UNL     1       8.887  -5.170  -0.117  1.00  0.00     0.037 A 
HETATM    2  C3  UNL     1       7.881  -4.052   0.123  1.00  0.00     0.011 A 
HETATM    3  C4  UNL     1       8.637  -4.174  -1.168  1.00  0.00     0.011 A 
ENDROOT
BRANCH   1   4
HETATM    4  C1  UNL     1       8.269  -6.514  -0.141  1.00  0.00     0.060 C 
HETATM    5  S1  UNL     1       8.187  -7.213  -1.385  1.00  0.00    -0.076 SA
HETATM    6  S2  UNL     1       7.610  -7.333   1.305  1.00  0.00    -0.044 SA
ENDBRANCH   1   4
TORSDOF 1
ENDMDL
MODEL 5
REMARK VINA RESULT: -2.668624812      2.673      3.336
REMARK  1 active torsions:
REMARK  status: ('A' for Active; 'I' for Inactive)
REMARK    1  A    between atoms: C1_2  and  C2_4 
ROOT
HETATM    1  C2  UNL     1       8.844  -5.187   0.061  1.00  0.00     0.037 A 
HETATM    2  C3  UNL     1       7.836  -4.051  -0.046  1.00  0.00     0.011 A 
HETATM    3  C4  UNL     1       8.921  -4.247  -1.065  1.00  0.00     0.011 A 
ENDROOT
BRANCH   1   4
HETATM    4  C1  UNL     1       8.229  -6.526  -0.070  1.00  0.00     0.060 C 
HETATM    5  S1  UNL     1       7.771  -7.192   1.109  1.00  0.00    -0.076 SA
HETATM    6  S2  UNL     1       8.015  -7.376  -1.628  1.00  0.00    -0.044 SA
ENDBRANCH   1   4
TORSDOF 1
ENDMDL
