MODEL 1
REMARK VINA RESULT: -4.323050494      0.000      0.000
REMARK  4 active torsions:
REMARK  status: ('A' for Active; 'I' for Inactive)
REMARK    1  A    between atoms: C1_2  and  C2_4 
REMARK    2  A    between atoms: C3_5  and  C4_6 
REMARK    3  A    between atoms: C5_7  and  C6_8 
REMARK    4  A    between atoms: C7_9  and  C8_10 
ROOT
HETATM    1  C4  UNL     1      13.140  -3.042  -1.687  1.00  0.00     0.074 C 
HETATM    2  C5  UNL     1      12.193  -3.061  -2.604  1.00  0.00     0.073 C 
ENDROOT
BRANCH   2   3
HETATM    3  C6  UNL     1      10.875  -3.503  -2.253  1.00  0.00    -0.076 C 
HETATM    4  C7  UNL     1       9.756  -3.872  -1.932  1.00  0.00    -0.067 C 
BRANCH   4   5
HETATM    5  C8  UNL     1       8.413  -4.300  -1.529  1.00  0.00     0.290 A 
HETATM    6  C9  UNL     1       7.949  -3.937  -0.224  1.00  0.00     0.279 A 
HETATM    7  N1  UNL     1       8.359  -5.323  -0.432  1.00  0.00    -0.056 N 
ATOM      8  H12 UNL     1       7.939  -6.243  -0.302  1.00  0.00     0.278 HD
ATOM      9  H11 UNL     1       9.014  -5.972   0.004  1.00  0.00     0.278 HD
ENDBRANCH   4   5
ENDBRANCH   2   3
BRANCH   1  10
HETATM   10  C3  UNL     1      14.468  -2.592  -2.059  1.00  0.00    -0.067 C 
HETATM   11  C2  UNL     1      15.565  -2.205  -2.382  1.00  0.00     0.009 C 
BRANCH  11  12
HETATM   12  C1  UNL     1      16.867  -1.730  -2.788  1.00  0.00     0.258 C 
HETATM   13  O1  UNL     1      17.836  -1.995  -2.032  1.00  0.00    -0.637 OA
HETATM   14  O2  UNL     1      17.073  -1.012  -3.955  1.00  0.00    -0.637 OA
ENDBRANCH  11  12
ENDBRANCH   1  10
TORSDOF 4
ENDMDL
MODEL 2
REMARK VINA RESULT: -4.254823192      6.120      8.338
REMARK  4 active torsions:
REMARK  status: ('A' for Active; 'I' for Inactive)
REMARK    1  A    between atoms: C1_2  and  C2_4 
REMARK    2  A    between atoms: C3_5  and  C4_6 
REMARK    3  A    between atoms: C5_7  and  C6_8 
REMARK    4  A    between atoms: C7_9  and  C8_10 
ROOT
HETATM    1  C4  UNL     1       9.802  -4.893  -0.148  1.00  0.00     0.074 C 
HETATM    2  C5  UNL     1      11.093  -5.143  -0.057  1.00  0.00     0.073 C 
ENDROOT
BRANCH   2   3
HETATM    3  C6  UNL     1      12.034  -4.214  -0.608  1.00  0.00    -0.076 C 
HETATM    4  C7  UNL     1      12.836  -3.433  -1.096  1.00  0.00    -0.067 C 
BRANCH   4   5
HETATM    5  C8  UNL     1      13.792  -2.502  -1.706  1.00  0.00     0.290 A 
HETATM    6  C9  UNL     1      15.189  -2.731  -1.495  1.00  0.00     0.279 A 
HETATM    7  N1  UNL     1      14.564  -1.644  -0.747  1.00  0.00    -0.056 N 
ATOM      8  H12 UNL     1      14.730  -0.645  -0.621  1.00  0.00     0.278 HD
ATOM      9  H11 UNL     1      14.482  -1.375   0.233  1.00  0.00     0.278 HD
ENDBRANCH   4   5
ENDBRANCH   2   3
BRANCH   1  10
HETATM   10  C3  UNL     1       8.861  -5.843   0.416  1.00  0.00    -0.067 C 
HETATM   11  C2  UNL     1       8.077  -6.642   0.867  1.00  0.00     0.009 C 
BRANCH  11  12
HETATM   12  C1  UNL     1       7.133  -7.607   1.384  1.00  0.00     0.258 C 
HETATM   13  O1  UNL     1       5.980  -7.606   0.882  1.00  0.00    -0.637 OA
HETATM   14  O2  UNL     1       7.454  -8.507   2.387  1.00  0.00    -0.637 OA
ENDBRANCH  11  12
ENDBRANCH   1  10
TORSDOF 4
ENDMDL
MODEL 3
REMARK VINA RESULT: -4.221894024      3.342      4.348
REMARK  4 active torsions:
REMARK  status: ('A' for Active; 'I' for Inactive)
REMARK    1  A    between atoms: C1_2  and  C2_4 
REMARK    2  A    between atoms: C3_5  and  C4_6 
REMARK    3  A    between atoms: C5_7  and  C6_8 
REMARK    4  A    between atoms: C7_9  and  C8_10 
ROOT
HETATM    1  C4  UNL     1      10.089  -5.104  -0.744  1.00  0.00     0.074 C 
HETATM    2  C5  UNL     1       9.944  -5.741   0.401  1.00  0.00     0.073 C 
ENDROOT
BRANCH   2   3
HETATM    3  C6  UNL     1       8.751  -6.498   0.644  1.00  0.00    -0.076 C 
HETATM    4  C7  UNL     1       7.747  -7.161   0.851  1.00  0.00    -0.067 C 
BRANCH   4   5
HETATM    5  C8  UNL     1       6.555  -7.975   1.111  1.00  0.00     0.290 A 
HETATM    6  C9  UNL     1       6.592  -9.363   0.763  1.00  0.00     0.279 A 
HETATM    7  N1  UNL     1       5.829  -8.471  -0.105  1.00  0.00    -0.056 N 
ATOM      8  H12 UNL     1       4.875  -8.429  -0.462  1.00  0.00     0.278 HD
ATOM      9  H11 UNL     1       5.815  -8.244  -1.099  1.00  0.00     0.278 HD
ENDBRANCH   4   5
ENDBRANCH   2   3
BRANCH   1  10
HETATM   10  C3  UNL     1      11.303  -4.343  -0.975  1.00  0.00    -0.067 C 
HETATM   11  C2  UNL     1      12.323  -3.727  -1.164  1.00  0.00     0.009 C 
BRANCH  11  12
HETATM   12  C1  UNL     1      13.558  -3.009  -1.384  1.00  0.00     0.258 C 
HETATM   13  O1  UNL     1      14.079  -2.445  -0.388  1.00  0.00    -0.637 OA
HETATM   14  O2  UNL     1      14.167  -2.928  -2.626  1.00  0.00    -0.637 OA
ENDBRANCH  11  12
ENDBRANCH   1  10
TORSDOF 4
ENDMDL
MODEL 4
REMARK VINA RESULT: -4.203956284      3.610      4.675
REMARK  4 active torsions:
REMARK  status: ('A' for Active; 'I' for Inactive)
REMARK    1  A    between atoms: C1_2  and  C2_4 
REMARK    2  A    between atoms: C3_5  and  C4_6 
REMARK    3  A    between atoms: C5_7  and  C6_8 
REMARK    4  A    between atoms: C7_9  and  C8_10 
ROOT
HETATM    1  C4  UNL     1      10.091  -5.402   0.015  1.00  0.00     0.074 C 
HETATM    2  C5  UNL     1       9.292  -5.985  -0.856  1.00  0.00     0.073 C 
ENDROOT
BRANCH   2   3
HETATM    3  C6  UNL     1       8.207  -6.796  -0.390  1.00  0.00    -0.076 C 
HETATM    4  C7  UNL     1       7.288  -7.502  -0.006  1.00  0.00    -0.067 C 
BRANCH   4   5
HETATM    5  C8  UNL     1       6.196  -8.371   0.447  1.00  0.00     0.290 A 
HETATM    6  C9  UNL     1       6.206  -9.742   0.035  1.00  0.00     0.279 A 
HETATM    7  N1  UNL     1       5.259  -8.849  -0.624  1.00  0.00    -0.056 N 
ATOM      8  H12 UNL     1       4.252  -8.830  -0.784  1.00  0.00     0.278 HD
ATOM      9  H11 UNL     1       5.041  -8.584  -1.584  1.00  0.00     0.278 HD
ENDBRANCH   4   5
ENDBRANCH   2   3
BRANCH   1  10
HETATM   10  C3  UNL     1      11.185  -4.583  -0.473  1.00  0.00    -0.067 C 
HETATM   11  C2  UNL     1      12.108  -3.918  -0.878  1.00  0.00     0.009 C 
BRANCH  11  12
HETATM   12  C1  UNL     1      13.227  -3.140  -1.356  1.00  0.00     0.258 C 
HETATM   13  O1  UNL     1      13.404  -3.094  -2.600  1.00  0.00    -0.637 OA
HETATM   14  O2  UNL     1      14.086  -2.462  -0.506  1.00  0.00    -0.637 OA
ENDBRANCH  11  12
ENDBRANCH   1  10
TORSDOF 4
ENDMDL
MODEL 5
REMARK VINA RESULT: -4.192672178      6.304      8.489
REMARK  4 active torsions:
REMARK  status: ('A' for Active; 'I' for Inactive)
REMARK    1  A    between atoms: C1_2  and  C2_4 
REMARK    2  A    between atoms: C3_5  and  C4_6 
REMARK    3  A    between atoms: C5_7  and  C6_8 
REMARK    4  A    between atoms: C7_9  and  C8_10 
ROOT
HETATM    1  C4  UNL     1       9.283  -5.390   0.152  1.00  0.00     0.074 C 
HETATM    2  C5  UNL     1       9.688  -5.415  -1.102  1.00  0.00     0.073 C 
ENDROOT
BRANCH   2   3
HETATM    3  C6  UNL     1      10.556  -4.383  -1.587  1.00  0.00    -0.076 C 
HETATM    4  C7  UNL     1      11.312  -3.514  -1.993  1.00  0.00    -0.067 C 
BRANCH   4   5
HETATM    5  C8  UNL     1      12.239  -2.488  -2.482  1.00  0.00     0.290 A 
HETATM    6  C9  UNL     1      13.522  -2.905  -2.958  1.00  0.00     0.279 A 
HETATM    7  N1  UNL     1      13.465  -2.269  -1.646  1.00  0.00    -0.056 N 
ATOM      8  H12 UNL     1      13.916  -1.474  -1.192  1.00  0.00     0.278 HD
ATOM      9  H11 UNL     1      13.764  -2.503  -0.699  1.00  0.00     0.278 HD
ENDBRANCH   4   5
ENDBRANCH   2   3
BRANCH   1  10
HETATM   10  C3  UNL     1       8.406  -6.443   0.628  1.00  0.00    -0.067 C 
HETATM   11  C2  UNL     1       7.682  -7.331   1.009  1.00  0.00     0.009 C 
BRANCH  11  12
HETATM   12  C1  UNL     1       6.822  -8.407   1.444  1.00  0.00     0.258 C 
HETATM   13  O1  UNL     1       6.010  -8.869   0.602  1.00  0.00    -0.637 OA
HETATM   14  O2  UNL     1       6.865  -8.929   2.727  1.00  0.00    -0.637 OA
ENDBRANCH  11  12
ENDBRANCH   1  10
TORSDOF 4
ENDMDL
