MODEL 1
REMARK VINA RESULT: -4.251370461      0.000      0.000
REMARK  3 active torsions:
REMARK  status: ('A' for Active; 'I' for Inactive)
REMARK    1  A    between atoms: C2_4  and  N2_5 
REMARK    2  A    between atoms: C2_4  and  C5_10 
REMARK    3  A    between atoms: C5_10  and  N4_13 
ROOT
HETATM    1  C1  UNL     1       8.066  -6.614   0.944  1.00  0.00     0.147 C 
HETATM    2  N1  UNL     1       9.241  -5.840   0.890  1.00  0.00    -0.382 N 
ATOM      3  H1  UNL     1       9.892  -6.020   1.655  1.00  0.00     0.160 HD
HETATM    4  C2  UNL     1       9.635  -4.970   0.075  1.00  0.00     0.113 C 
ENDROOT
BRANCH   4   5
HETATM    5  N2  UNL     1      10.896  -4.370   0.317  1.00  0.00    -0.336 N 
HETATM    6  C3  UNL     1      11.963  -5.081   0.432  1.00  0.00     0.090 C 
HETATM    7  C4  UNL     1      13.300  -4.466   0.688  1.00  0.00     0.085 C 
HETATM    8  N3  UNL     1      11.855  -6.475   0.313  1.00  0.00    -0.088 NA
ATOM      9  H2  UNL     1      10.960  -3.356   0.402  1.00  0.00     0.168 HD
ENDBRANCH   4   5
BRANCH   4  10
HETATM   10  C5  UNL     1       8.894  -4.516  -1.123  1.00  0.00     0.173 C 
HETATM   11  C6  UNL     1       9.849  -3.710  -2.002  1.00  0.00     0.054 C 
HETATM   12  C7  UNL     1       8.441  -5.694  -1.973  1.00  0.00     0.054 C 
BRANCH  10  13
HETATM   13  N4  UNL     1       7.773  -3.669  -0.822  1.00  0.00    -0.064 N 
ATOM     14  H43 UNL     1       6.970  -4.225  -0.532  1.00  0.00     0.275 HD
ATOM     15  H42 UNL     1       7.938  -3.146   0.038  1.00  0.00     0.275 HD
ATOM     16  H41 UNL     1       7.519  -3.040  -1.583  1.00  0.00     0.275 HD
ENDBRANCH  10  13
ENDBRANCH   4  10
TORSDOF 3
ENDMDL
MODEL 2
REMARK VINA RESULT: -4.222436866      1.583      2.628
REMARK  3 active torsions:
REMARK  status: ('A' for Active; 'I' for Inactive)
REMARK    1  A    between atoms: C2_4  and  N2_5 
REMARK    2  A    between atoms: C2_4  and  C5_10 
REMARK    3  A    between atoms: C5_10  and  N4_13 
ROOT
HETATM    1  C1  UNL     1       7.704  -3.939  -0.136  1.00  0.00     0.147 C 
HETATM    2  N1  UNL     1       9.103  -3.942   0.014  1.00  0.00    -0.382 N 
ATOM      3  H1  UNL     1       9.536  -3.026  -0.109  1.00  0.00     0.160 HD
HETATM    4  C2  UNL     1       9.918  -4.863   0.270  1.00  0.00     0.113 C 
ENDROOT
BRANCH   4   5
HETATM    5  N2  UNL     1      11.290  -4.519   0.353  1.00  0.00    -0.336 N 
HETATM    6  C3  UNL     1      11.947  -4.138  -0.687  1.00  0.00     0.090 C 
HETATM    7  C4  UNL     1      13.393  -3.772  -0.619  1.00  0.00     0.085 C 
HETATM    8  N3  UNL     1      11.274  -4.068  -1.917  1.00  0.00    -0.088 NA
ATOM      9  H2  UNL     1      11.766  -4.573   1.253  1.00  0.00     0.168 HD
ENDBRANCH   4   5
BRANCH   4  10
HETATM   10  C5  UNL     1       9.566  -6.283   0.494  1.00  0.00     0.173 C 
HETATM   11  C6  UNL     1       9.235  -6.915  -0.857  1.00  0.00     0.054 C 
HETATM   12  C7  UNL     1      10.749  -7.067   1.040  1.00  0.00     0.054 C 
BRANCH  10  13
HETATM   13  N4  UNL     1       8.422  -6.467   1.343  1.00  0.00    -0.064 N 
ATOM     14  H43 UNL     1       8.363  -5.721   2.035  1.00  0.00     0.275 HD
ATOM     15  H42 UNL     1       7.559  -6.291   0.828  1.00  0.00     0.275 HD
ATOM     16  H41 UNL     1       8.390  -7.380   1.796  1.00  0.00     0.275 HD
ENDBRANCH  10  13
ENDBRANCH   4  10
TORSDOF 3
ENDMDL
MODEL 3
REMARK VINA RESULT: -4.159953940      1.562      2.808
REMARK  3 active torsions:
REMARK  status: ('A' for Active; 'I' for Inactive)
REMARK    1  A    between atoms: C2_4  and  N2_5 
REMARK    2  A    between atoms: C2_4  and  C5_10 
REMARK    3  A    between atoms: C5_10  and  N4_13 
ROOT
HETATM    1  C1  UNL     1      11.926  -3.660  -1.627  1.00  0.00     0.147 C 
HETATM    2  N1  UNL     1      11.362  -4.413  -0.580  1.00  0.00    -0.382 N 
ATOM      3  H1  UNL     1      12.041  -4.751   0.102  1.00  0.00     0.160 HD
HETATM    4  C2  UNL     1      10.177  -4.746  -0.331  1.00  0.00     0.113 C 
ENDROOT
BRANCH   4   5
HETATM    5  N2  UNL     1       9.946  -5.524   0.831  1.00  0.00    -0.336 N 
HETATM    6  C3  UNL     1      10.382  -6.732   0.922  1.00  0.00     0.090 C 
HETATM    7  C4  UNL     1      10.148  -7.567   2.138  1.00  0.00     0.085 C 
HETATM    8  N3  UNL     1      11.097  -7.271  -0.158  1.00  0.00    -0.088 NA
ATOM      9  H2  UNL     1       9.426  -5.119   1.609  1.00  0.00     0.168 HD
ENDBRANCH   4   5
BRANCH   4  10
HETATM   10  C5  UNL     1       8.995  -4.393  -1.150  1.00  0.00     0.173 C 
HETATM   11  C6  UNL     1       8.490  -5.662  -1.835  1.00  0.00     0.054 C 
HETATM   12  C7  UNL     1       7.846  -3.905  -0.281  1.00  0.00     0.054 C 
BRANCH  10  13
HETATM   13  N4  UNL     1       9.273  -3.433  -2.182  1.00  0.00    -0.064 N 
ATOM     14  H43 UNL     1      10.014  -2.796  -1.890  1.00  0.00     0.275 HD
ATOM     15  H42 UNL     1       9.734  -3.880  -2.975  1.00  0.00     0.275 HD
ATOM     16  H41 UNL     1       8.452  -2.913  -2.489  1.00  0.00     0.275 HD
ENDBRANCH  10  13
ENDBRANCH   4  10
TORSDOF 3
ENDMDL
MODEL 4
REMARK VINA RESULT: -4.109202119      0.919      1.275
REMARK  3 active torsions:
REMARK  status: ('A' for Active; 'I' for Inactive)
REMARK    1  A    between atoms: C2_4  and  N2_5 
REMARK    2  A    between atoms: C2_4  and  C5_10 
REMARK    3  A    between atoms: C5_10  and  N4_13 
ROOT
HETATM    1  C1  UNL     1       8.289  -6.789   1.029  1.00  0.00     0.147 C 
HETATM    2  N1  UNL     1       9.420  -5.954   0.989  1.00  0.00    -0.382 N 
ATOM      3  H1  UNL     1      10.039  -6.053   1.795  1.00  0.00     0.160 HD
HETATM    4  C2  UNL     1       9.810  -5.108   0.146  1.00  0.00     0.113 C 
ENDROOT
BRANCH   4   5
HETATM    5  N2  UNL     1      11.021  -4.424   0.416  1.00  0.00    -0.336 N 
HETATM    6  C3  UNL     1      12.129  -5.062   0.563  1.00  0.00     0.090 C 
HETATM    7  C4  UNL     1      13.416  -4.359   0.848  1.00  0.00     0.085 C 
HETATM    8  N3  UNL     1      12.118  -6.461   0.450  1.00  0.00    -0.088 NA
ATOM      9  H2  UNL     1      11.015  -3.408   0.495  1.00  0.00     0.168 HD
ENDBRANCH   4   5
BRANCH   4  10
HETATM   10  C5  UNL     1       9.109  -4.763  -1.111  1.00  0.00     0.173 C 
HETATM   11  C6  UNL     1       7.924  -3.862  -0.769  1.00  0.00     0.054 C 
HETATM   12  C7  UNL     1       9.999  -3.946  -2.035  1.00  0.00     0.054 C 
BRANCH  10  13
HETATM   13  N4  UNL     1       8.589  -5.904  -1.814  1.00  0.00    -0.064 N 
ATOM     14  H43 UNL     1       9.177  -6.131  -2.615  1.00  0.00     0.275 HD
ATOM     15  H42 UNL     1       8.714  -6.753  -1.263  1.00  0.00     0.275 HD
ATOM     16  H41 UNL     1       7.615  -5.800  -2.099  1.00  0.00     0.275 HD
ENDBRANCH  10  13
ENDBRANCH   4  10
TORSDOF 3
ENDMDL
MODEL 5
REMARK VINA RESULT: -4.023817206      2.322      4.069
REMARK  3 active torsions:
REMARK  status: ('A' for Active; 'I' for Inactive)
REMARK    1  A    between atoms: C2_4  and  N2_5 
REMARK    2  A    between atoms: C2_4  and  C5_10 
REMARK    3  A    between atoms: C5_10  and  N4_13 
ROOT
HETATM    1  C1  UNL     1       7.960  -3.828   0.061  1.00  0.00     0.147 C 
HETATM    2  N1  UNL     1       8.063  -5.023   0.797  1.00  0.00    -0.382 N 
ATOM      3  H1  UNL     1       7.581  -5.000   1.697  1.00  0.00     0.160 HD
HETATM    4  C2  UNL     1       8.638  -6.112   0.552  1.00  0.00     0.113 C 
ENDROOT
BRANCH   4   5
HETATM    5  N2  UNL     1       8.545  -7.136   1.528  1.00  0.00    -0.336 N 
HETATM    6  C3  UNL     1       7.452  -7.794   1.703  1.00  0.00     0.090 C 
HETATM    7  C4  UNL     1       7.335  -8.875   2.726  1.00  0.00     0.085 C 
HETATM    8  N3  UNL     1       6.344  -7.478   0.902  1.00  0.00    -0.088 NA
ATOM      9  H2  UNL     1       9.358  -7.355   2.103  1.00  0.00     0.168 HD
ENDBRANCH   4   5
BRANCH   4  10
HETATM   10  C5  UNL     1       9.408  -6.420  -0.674  1.00  0.00     0.173 C 
HETATM   11  C6  UNL     1      10.086  -7.777  -0.487  1.00  0.00     0.054 C 
HETATM   12  C7  UNL     1       8.491  -6.577  -1.878  1.00  0.00     0.054 C 
BRANCH  10  13
HETATM   13  N4  UNL     1      10.439  -5.464  -0.964  1.00  0.00    -0.064 N 
ATOM     14  H43 UNL     1      10.654  -4.905  -0.139  1.00  0.00     0.275 HD
ATOM     15  H42 UNL     1      11.338  -5.931  -1.092  1.00  0.00     0.275 HD
ATOM     16  H41 UNL     1      10.230  -4.864  -1.761  1.00  0.00     0.275 HD
ENDBRANCH  10  13
ENDBRANCH   4  10
TORSDOF 3
ENDMDL
