MODEL 1
REMARK VINA RESULT: -4.232130978      0.000      0.000
REMARK  2 active torsions:
REMARK  status: ('A' for Active; 'I' for Inactive)
REMARK    1  A    between atoms: C2_2  and  N1_3 
REMARK    2  A    between atoms: N4_8  and  C4_10 
ROOT
HETATM    1  C1  UNL     1      10.032  -7.518  -0.412  1.00  0.00     0.089 C 
HETATM    2  C2  UNL     1       9.081  -7.119   0.649  1.00  0.00     0.075 C 
HETATM    3  N4  UNL     1       8.596  -5.947   0.691  1.00  0.00    -0.372 N 
ATOM      4  H4  UNL     1       7.948  -5.747   1.452  1.00  0.00     0.161 HD
ENDROOT
BRANCH   2   5
HETATM    5  N1  UNL     1       8.705  -8.078   1.644  1.00  0.00    -0.323 N 
HETATM    6  C3  UNL     1       7.470  -8.353   1.892  1.00  0.00     0.202 C 
HETATM    7  N2  UNL     1       6.383  -7.754   1.225  1.00  0.00    -0.066 NA
HETATM    8  N3  UNL     1       7.194  -9.319   2.899  1.00  0.00    -0.066 NA
ATOM      9  H1  UNL     1       9.435  -8.558   2.171  1.00  0.00     0.169 HD
ENDBRANCH   2   5
BRANCH   3  10
HETATM   10  C4  UNL     1       8.865  -4.876  -0.221  1.00  0.00     0.020 C 
HETATM   11  C5  UNL     1      10.260  -4.339  -0.102  1.00  0.00     0.037 C 
HETATM   12  C6  UNL     1       7.939  -3.725   0.220  1.00  0.00     0.037 C 
HETATM   13  C7  UNL     1       8.573  -5.216  -1.672  1.00  0.00     0.037 C 
ENDBRANCH   3  10
TORSDOF 2
ENDMDL
MODEL 2
REMARK VINA RESULT: -4.211701790      2.949      4.848
REMARK  2 active torsions:
REMARK  status: ('A' for Active; 'I' for Inactive)
REMARK    1  A    between atoms: C2_2  and  N1_3 
REMARK    2  A    between atoms: N4_8  and  C4_10 
ROOT
HETATM    1  C1  UNL     1      10.984  -6.690   0.509  1.00  0.00     0.089 C 
HETATM    2  C2  UNL     1      11.004  -5.211   0.461  1.00  0.00     0.075 C 
HETATM    3  N4  UNL     1       9.968  -4.550   0.145  1.00  0.00    -0.372 N 
ATOM      4  H4  UNL     1      10.060  -3.534   0.133  1.00  0.00     0.161 HD
ENDROOT
BRANCH   2   5
HETATM    5  N1  UNL     1      12.218  -4.521   0.778  1.00  0.00    -0.323 N 
HETATM    6  C3  UNL     1      12.952  -3.981  -0.134  1.00  0.00     0.202 C 
HETATM    7  N2  UNL     1      12.645  -4.012  -1.509  1.00  0.00    -0.066 NA
HETATM    8  N3  UNL     1      14.141  -3.317   0.277  1.00  0.00    -0.066 NA
ATOM      9  H1  UNL     1      12.510  -4.454   1.753  1.00  0.00     0.169 HD
ENDBRANCH   2   5
BRANCH   3  10
HETATM   10  C4  UNL     1       8.684  -5.081  -0.196  1.00  0.00     0.020 C 
HETATM   11  C5  UNL     1       8.612  -5.585  -1.607  1.00  0.00     0.037 C 
HETATM   12  C6  UNL     1       7.718  -3.880  -0.137  1.00  0.00     0.037 C 
HETATM   13  C7  UNL     1       8.191  -6.158   0.754  1.00  0.00     0.037 C 
ENDBRANCH   3  10
TORSDOF 2
ENDMDL
MODEL 3
REMARK VINA RESULT: -4.204895754      3.272      5.442
REMARK  2 active torsions:
REMARK  status: ('A' for Active; 'I' for Inactive)
REMARK    1  A    between atoms: C2_2  and  N1_3 
REMARK    2  A    between atoms: N4_8  and  C4_10 
ROOT
HETATM    1  C1  UNL     1       9.866  -3.279  -2.515  1.00  0.00     0.089 C 
HETATM    2  C2  UNL     1      10.860  -4.001  -1.691  1.00  0.00     0.075 C 
HETATM    3  N4  UNL     1      10.501  -4.871  -0.840  1.00  0.00    -0.372 N 
ATOM      4  H4  UNL     1      11.244  -5.326  -0.310  1.00  0.00     0.161 HD
ENDROOT
BRANCH   2   5
HETATM    5  N1  UNL     1      12.251  -3.708  -1.863  1.00  0.00    -0.323 N 
HETATM    6  C3  UNL     1      13.062  -3.647  -0.864  1.00  0.00     0.202 C 
HETATM    7  N2  UNL     1      12.676  -3.859   0.475  1.00  0.00    -0.066 NA
HETATM    8  N3  UNL     1      14.427  -3.349  -1.132  1.00  0.00    -0.066 NA
ATOM      9  H1  UNL     1      12.610  -3.543  -2.804  1.00  0.00     0.169 HD
ENDBRANCH   2   5
BRANCH   3  10
HETATM   10  C4  UNL     1       9.161  -5.281  -0.547  1.00  0.00     0.020 C 
HETATM   11  C5  UNL     1       8.305  -4.164  -0.030  1.00  0.00     0.037 C 
HETATM   12  C6  UNL     1       9.288  -6.280   0.621  1.00  0.00     0.037 C 
HETATM   13  C7  UNL     1       8.459  -5.965  -1.708  1.00  0.00     0.037 C 
ENDBRANCH   3  10
TORSDOF 2
ENDMDL
MODEL 4
REMARK VINA RESULT: -4.096346286      2.453      4.755
REMARK  2 active torsions:
REMARK  status: ('A' for Active; 'I' for Inactive)
REMARK    1  A    between atoms: C2_2  and  N1_3 
REMARK    2  A    between atoms: N4_8  and  C4_10 
ROOT
HETATM    1  C1  UNL     1       8.449  -4.519   0.121  1.00  0.00     0.089 C 
HETATM    2  C2  UNL     1       9.690  -5.324   0.094  1.00  0.00     0.075 C 
HETATM    3  N4  UNL     1       9.689  -6.520  -0.330  1.00  0.00    -0.372 N 
ATOM      4  H4  UNL     1      10.583  -7.010  -0.317  1.00  0.00     0.161 HD
ENDROOT
BRANCH   2   5
HETATM    5  N1  UNL     1      10.912  -4.735   0.556  1.00  0.00    -0.323 N 
HETATM    6  C3  UNL     1      11.798  -4.279  -0.260  1.00  0.00     0.202 C 
HETATM    7  N2  UNL     1      11.664  -4.308  -1.663  1.00  0.00    -0.066 NA
HETATM    8  N3  UNL     1      12.981  -3.713   0.292  1.00  0.00    -0.066 NA
ATOM      9  H1  UNL     1      11.084  -4.675   1.559  1.00  0.00     0.169 HD
ENDBRANCH   2   5
BRANCH   3  10
HETATM   10  C4  UNL     1       8.563  -7.252  -0.825  1.00  0.00     0.020 C 
HETATM   11  C5  UNL     1       7.430  -7.321   0.155  1.00  0.00     0.037 C 
HETATM   12  C6  UNL     1       9.060  -8.703  -0.984  1.00  0.00     0.037 C 
HETATM   13  C7  UNL     1       8.047  -6.757  -2.165  1.00  0.00     0.037 C 
ENDBRANCH   3  10
TORSDOF 2
ENDMDL
MODEL 5
REMARK VINA RESULT: -4.037782334      2.854      4.457
REMARK  2 active torsions:
REMARK  status: ('A' for Active; 'I' for Inactive)
REMARK    1  A    between atoms: C2_2  and  N1_3 
REMARK    2  A    between atoms: N4_8  and  C4_10 
ROOT
HETATM    1  C1  UNL     1      10.984  -3.934  -1.634  1.00  0.00     0.089 C 
HETATM    2  C2  UNL     1      11.081  -4.405  -0.235  1.00  0.00     0.075 C 
HETATM    3  N4  UNL     1      10.079  -4.906   0.361  1.00  0.00    -0.372 N 
ATOM      4  H4  UNL     1      10.224  -5.207   1.324  1.00  0.00     0.161 HD
ENDROOT
BRANCH   2   5
HETATM    5  N1  UNL     1      12.332  -4.291   0.452  1.00  0.00    -0.323 N 
HETATM    6  C3  UNL     1      12.939  -5.320   0.937  1.00  0.00     0.202 C 
HETATM    7  N2  UNL     1      12.447  -6.637   0.843  1.00  0.00    -0.066 NA
HETATM    8  N3  UNL     1      14.177  -5.109   1.604  1.00  0.00    -0.066 NA
ATOM      9  H1  UNL     1      12.756  -3.370   0.561  1.00  0.00     0.169 HD
ENDBRANCH   2   5
BRANCH   3  10
HETATM   10  C4  UNL     1       8.766  -5.091  -0.178  1.00  0.00     0.020 C 
HETATM   11  C5  UNL     1       7.886  -3.889  -0.009  1.00  0.00     0.037 C 
HETATM   12  C6  UNL     1       8.126  -6.198   0.683  1.00  0.00     0.037 C 
HETATM   13  C7  UNL     1       8.755  -5.529  -1.633  1.00  0.00     0.037 C 
ENDBRANCH   3  10
TORSDOF 2
ENDMDL
