MODEL 1
REMARK VINA RESULT: -4.874057712      0.000      0.000
REMARK  3 active torsions:
REMARK  status: ('A' for Active; 'I' for Inactive)
REMARK    1  A    between atoms: C2_2  and  N7_18 
REMARK       I    between atoms: N1_3  and  C3_5 
REMARK       I    between atoms: C3_5  and  N2_6 
REMARK    2  A    between atoms: N2_6  and  N3_8 
REMARK    3  A    between atoms: N5_13  and  N6_15 
ROOT
HETATM    1  C1  UNL     1       9.335  -7.281   0.010  1.00  0.00     0.091 C 
HETATM    2  C2  UNL     1      10.249  -6.296   0.671  1.00  0.00     0.107 C 
HETATM    3  N1  UNL     1      10.003  -5.040   0.569  1.00  0.00    -0.177 N 
ATOM      4  H1  UNL     1      10.645  -4.396   1.031  1.00  0.00     0.185 HD
HETATM    5  C3  UNL     1       8.916  -4.482  -0.130  1.00  0.00     0.713 C 
HETATM    6  N2  UNL     1       8.901  -4.632  -1.545  1.00  0.00    -0.117 N 
ATOM      7  H2  UNL     1       8.704  -5.543  -1.958  1.00  0.00     0.207 HD
HETATM    8  N5  UNL     1       7.975  -3.858   0.509  1.00  0.00    -0.137 N 
ATOM      9  H5  UNL     1       8.049  -3.786   1.523  1.00  0.00     0.205 HD
ENDROOT
BRANCH   6  10
HETATM   10  N3  UNL     1       9.128  -3.653  -2.280  1.00  0.00    -0.235 N 
HETATM   11  N4  UNL     1       9.907  -2.850  -2.837  1.00  0.00    -0.330 N 
ATOM     12  H42 UNL     1      10.815  -3.182  -2.513  1.00  0.00     0.178 HD
ATOM     13  H41 UNL     1      10.093  -2.048  -3.440  1.00  0.00     0.178 HD
ATOM     14  H3  UNL     1       8.202  -3.350  -2.583  1.00  0.00     0.208 HD
ENDBRANCH   6  10
BRANCH   8  15
HETATM   15  N6  UNL     1       6.881  -3.286  -0.107  1.00  0.00    -0.331 N 
ATOM     16  H62 UNL     1       7.060  -2.517  -0.752  1.00  0.00     0.177 HD
ATOM     17  H61 UNL     1       5.920  -3.590   0.051  1.00  0.00     0.177 HD
ENDBRANCH   8  15
BRANCH   2  18
HETATM   18  N7  UNL     1      11.386  -6.694   1.413  1.00  0.00    -0.295 N 
HETATM   19  N8  UNL     1      11.550  -6.185   2.560  1.00  0.00    -0.344 N 
ATOM     20  H82 UNL     1      10.875  -5.512   2.923  1.00  0.00     0.176 HD
ATOM     21  H81 UNL     1      12.370  -6.472   3.095  1.00  0.00     0.176 HD
ATOM     22  H7  UNL     1      12.052  -7.368   1.036  1.00  0.00     0.187 HD
ENDBRANCH   2  18
TORSDOF 3
ENDMDL
MODEL 2
REMARK VINA RESULT: -4.836367903      1.735      4.605
REMARK  3 active torsions:
REMARK  status: ('A' for Active; 'I' for Inactive)
REMARK    1  A    between atoms: C2_2  and  N7_18 
REMARK       I    between atoms: N1_3  and  C3_5 
REMARK       I    between atoms: C3_5  and  N2_6 
REMARK    2  A    between atoms: N2_6  and  N3_8 
REMARK    3  A    between atoms: N5_13  and  N6_15 
ROOT
HETATM    1  C1  UNL     1       8.206  -3.851  -0.883  1.00  0.00     0.091 C 
HETATM    2  C2  UNL     1       9.450  -3.953  -1.711  1.00  0.00     0.107 C 
HETATM    3  N1  UNL     1      10.287  -4.899  -1.479  1.00  0.00    -0.177 N 
ATOM      4  H1  UNL     1      11.124  -4.940  -2.060  1.00  0.00     0.185 HD
HETATM    5  C3  UNL     1      10.139  -5.883  -0.483  1.00  0.00     0.713 C 
HETATM    6  N2  UNL     1      10.195  -5.458   0.873  1.00  0.00    -0.117 N 
ATOM      7  H2  UNL     1       9.419  -4.931   1.274  1.00  0.00     0.207 HD
HETATM    8  N5  UNL     1       9.962  -7.126  -0.811  1.00  0.00    -0.137 N 
ATOM      9  H5  UNL     1       9.933  -7.362  -1.803  1.00  0.00     0.205 HD
ENDROOT
BRANCH   6  10
HETATM   10  N3  UNL     1      11.189  -5.726   1.573  1.00  0.00    -0.235 N 
HETATM   11  N4  UNL     1      11.715  -6.109   2.640  1.00  0.00    -0.330 N 
ATOM     12  H42 UNL     1      10.897  -6.289   3.222  1.00  0.00     0.178 HD
ATOM     13  H41 UNL     1      12.530  -6.329   3.213  1.00  0.00     0.178 HD
ATOM     14  H3  UNL     1      11.983  -5.536   0.960  1.00  0.00     0.208 HD
ENDBRANCH   6  10
BRANCH   8  15
HETATM   15  N6  UNL     1       9.810  -8.145   0.106  1.00  0.00    -0.331 N 
ATOM     16  H62 UNL     1      10.256  -8.022   1.016  1.00  0.00     0.177 HD
ATOM     17  H61 UNL     1       9.283  -9.000  -0.079  1.00  0.00     0.177 HD
ENDBRANCH   8  15
BRANCH   2  18
HETATM   18  N7  UNL     1       9.748  -3.042  -2.752  1.00  0.00    -0.295 N 
HETATM   19  N8  UNL     1      10.937  -2.622  -2.847  1.00  0.00    -0.344 N 
ATOM     20  H82 UNL     1      11.647  -2.939  -2.187  1.00  0.00     0.176 HD
ATOM     21  H81 UNL     1      11.151  -1.965  -3.598  1.00  0.00     0.176 HD
ATOM     22  H7  UNL     1       9.026  -2.734  -3.405  1.00  0.00     0.187 HD
ENDBRANCH   2  18
TORSDOF 3
ENDMDL
MODEL 3
REMARK VINA RESULT: -4.743638928      2.210      4.635
REMARK  3 active torsions:
REMARK  status: ('A' for Active; 'I' for Inactive)
REMARK    1  A    between atoms: C2_2  and  N7_18 
REMARK       I    between atoms: N1_3  and  C3_5 
REMARK       I    between atoms: C3_5  and  N2_6 
REMARK    2  A    between atoms: N2_6  and  N3_8 
REMARK    3  A    between atoms: N5_13  and  N6_15 
ROOT
HETATM    1  C1  UNL     1       7.863  -3.828  -0.262  1.00  0.00     0.091 C 
HETATM    2  C2  UNL     1       8.426  -4.770  -1.282  1.00  0.00     0.107 C 
HETATM    3  N1  UNL     1       8.500  -6.023  -1.011  1.00  0.00    -0.177 N 
ATOM      4  H1  UNL     1       8.888  -6.637  -1.727  1.00  0.00     0.185 HD
HETATM    5  C3  UNL     1       8.089  -6.615   0.198  1.00  0.00     0.713 C 
HETATM    6  N2  UNL     1       8.821  -6.284   1.373  1.00  0.00    -0.117 N 
ATOM      7  H2  UNL     1       8.724  -5.358   1.789  1.00  0.00     0.207 HD
HETATM    8  N5  UNL     1       7.079  -7.429   0.220  1.00  0.00    -0.137 N 
ATOM      9  H5  UNL     1       6.600  -7.624  -0.659  1.00  0.00     0.205 HD
ENDROOT
BRANCH   6  10
HETATM   10  N3  UNL     1       9.580  -7.123   1.893  1.00  0.00    -0.235 N 
HETATM   11  N4  UNL     1      10.147  -7.630   2.885  1.00  0.00    -0.330 N 
ATOM     12  H42 UNL     1       9.798  -7.047   3.646  1.00  0.00     0.178 HD
ATOM     13  H41 UNL     1      10.768  -8.317   3.311  1.00  0.00     0.178 HD
ATOM     14  H3  UNL     1       9.907  -7.684   1.107  1.00  0.00     0.208 HD
ENDBRANCH   6  10
BRANCH   8  15
HETATM   15  N6  UNL     1       6.618  -8.047   1.364  1.00  0.00    -0.331 N 
ATOM     16  H62 UNL     1       7.304  -8.248   2.092  1.00  0.00     0.177 HD
ATOM     17  H61 UNL     1       5.643  -8.309   1.512  1.00  0.00     0.177 HD
ENDBRANCH   8  15
BRANCH   2  18
HETATM   18  N7  UNL     1       8.883  -4.334  -2.548  1.00  0.00    -0.295 N 
HETATM   19  N8  UNL     1       9.568  -3.272  -2.595  1.00  0.00    -0.344 N 
ATOM     20  H82 UNL     1       9.775  -2.757  -1.739  1.00  0.00     0.176 HD
ATOM     21  H81 UNL     1       9.898  -2.958  -3.508  1.00  0.00     0.176 HD
ATOM     22  H7  UNL     1       8.668  -4.860  -3.396  1.00  0.00     0.187 HD
ENDBRANCH   2  18
TORSDOF 3
ENDMDL
MODEL 4
REMARK VINA RESULT: -4.521490816      1.990      2.593
REMARK  3 active torsions:
REMARK  status: ('A' for Active; 'I' for Inactive)
REMARK    1  A    between atoms: C2_2  and  N7_18 
REMARK       I    between atoms: N1_3  and  C3_5 
REMARK       I    between atoms: C3_5  and  N2_6 
REMARK    2  A    between atoms: N2_6  and  N3_8 
REMARK    3  A    between atoms: N5_13  and  N6_15 
ROOT
HETATM    1  C1  UNL     1       9.181  -7.154  -0.780  1.00  0.00     0.091 C 
HETATM    2  C2  UNL     1       8.785  -6.181   0.287  1.00  0.00     0.107 C 
HETATM    3  N1  UNL     1       9.053  -4.934   0.136  1.00  0.00    -0.177 N 
ATOM      4  H1  UNL     1       8.770  -4.298   0.882  1.00  0.00     0.185 HD
HETATM    5  C3  UNL     1       9.708  -4.377  -0.978  1.00  0.00     0.713 C 
HETATM    6  N2  UNL     1      11.072  -4.727  -1.180  1.00  0.00    -0.117 N 
ATOM      7  H2  UNL     1      11.314  -5.664  -1.502  1.00  0.00     0.207 HD
HETATM    8  N5  UNL     1       9.075  -3.575  -1.778  1.00  0.00    -0.137 N 
ATOM      9  H5  UNL     1       8.098  -3.365  -1.573  1.00  0.00     0.205 HD
ENDROOT
BRANCH   6  10
HETATM   10  N3  UNL     1      11.971  -3.893  -0.965  1.00  0.00    -0.235 N 
HETATM   11  N4  UNL     1      12.962  -3.224  -1.327  1.00  0.00    -0.330 N 
ATOM     12  H42 UNL     1      13.081  -3.531  -2.292  1.00  0.00     0.178 HD
ATOM     13  H41 UNL     1      13.699  -2.541  -1.150  1.00  0.00     0.178 HD
ATOM     14  H3  UNL     1      11.821  -3.611   0.003  1.00  0.00     0.208 HD
ENDBRANCH   6  10
BRANCH   8  15
HETATM   15  N6  UNL     1       9.649  -2.991  -2.888  1.00  0.00    -0.331 N 
ATOM     16  H62 UNL     1      10.374  -2.292  -2.723  1.00  0.00     0.177 HD
ATOM     17  H61 UNL     1       9.386  -3.219  -3.848  1.00  0.00     0.177 HD
ENDBRANCH   8  15
BRANCH   2  18
HETATM   18  N7  UNL     1       8.119  -6.580   1.470  1.00  0.00    -0.295 N 
HETATM   19  N8  UNL     1       8.736  -7.346   2.266  1.00  0.00    -0.344 N 
ATOM     20  H82 UNL     1       9.682  -7.657   2.047  1.00  0.00     0.176 HD
ATOM     21  H81 UNL     1       8.255  -7.634   3.118  1.00  0.00     0.176 HD
ATOM     22  H7  UNL     1       7.171  -6.260   1.675  1.00  0.00     0.187 HD
ENDBRANCH   2  18
TORSDOF 3
ENDMDL
MODEL 5
REMARK VINA RESULT: -4.487901333      4.901      6.496
REMARK  3 active torsions:
REMARK  status: ('A' for Active; 'I' for Inactive)
REMARK    1  A    between atoms: C2_2  and  N7_18 
REMARK       I    between atoms: N1_3  and  C3_5 
REMARK       I    between atoms: C3_5  and  N2_6 
REMARK    2  A    between atoms: N2_6  and  N3_8 
REMARK    3  A    between atoms: N5_13  and  N6_15 
ROOT
HETATM    1  C1  UNL     1      12.802  -4.133  -0.323  1.00  0.00     0.091 C 
HETATM    2  C2  UNL     1      12.298  -3.490  -1.579  1.00  0.00     0.107 C 
HETATM    3  N1  UNL     1      13.063  -2.691  -2.230  1.00  0.00    -0.177 N 
ATOM      4  H1  UNL     1      12.689  -2.270  -3.081  1.00  0.00     0.185 HD
HETATM    5  C3  UNL     1      14.378  -2.350  -1.862  1.00  0.00     0.713 C 
HETATM    6  N2  UNL     1      14.550  -1.594  -0.669  1.00  0.00    -0.117 N 
ATOM      7  H2  UNL     1      14.406  -2.035   0.239  1.00  0.00     0.207 HD
HETATM    8  N5  UNL     1      15.382  -2.721  -2.596  1.00  0.00    -0.137 N 
ATOM      9  H5  UNL     1      15.188  -3.260  -3.439  1.00  0.00     0.205 HD
ENDROOT
BRANCH   6  10
HETATM   10  N3  UNL     1      14.875  -0.394  -0.731  1.00  0.00    -0.235 N 
HETATM   11  N4  UNL     1      15.178   0.695  -0.197  1.00  0.00    -0.330 N 
ATOM     12  H42 UNL     1      15.129   0.462   0.795  1.00  0.00     0.178 HD
ATOM     13  H41 UNL     1      15.445   1.678  -0.248  1.00  0.00     0.178 HD
ATOM     14  H3  UNL     1      14.914  -0.198  -1.732  1.00  0.00     0.208 HD
ENDBRANCH   6  10
BRANCH   8  15
HETATM   15  N6  UNL     1      16.697  -2.425  -2.300  1.00  0.00    -0.331 N 
ATOM     16  H62 UNL     1      17.411  -3.037  -2.695  1.00  0.00     0.177 HD
ATOM     17  H61 UNL     1      16.983  -1.638  -1.716  1.00  0.00     0.177 HD
ENDBRANCH   8  15
BRANCH   2  18
HETATM   18  N7  UNL     1      10.999  -3.729  -2.086  1.00  0.00    -0.295 N 
HETATM   19  N8  UNL     1      10.442  -2.802  -2.742  1.00  0.00    -0.344 N 
ATOM     20  H82 UNL     1      10.926  -1.917  -2.892  1.00  0.00     0.176 HD
ATOM     21  H81 UNL     1       9.505  -2.974  -3.108  1.00  0.00     0.176 HD
ATOM     22  H7  UNL     1      10.526  -4.619  -1.928  1.00  0.00     0.187 HD
ENDBRANCH   2  18
TORSDOF 3
ENDMDL
