MODEL 1
REMARK VINA RESULT: -5.256364831      0.000      0.000
REMARK  0 active torsions:
REMARK  status: ('A' for Active; 'I' for Inactive)
ROOT
HETATM    1  N1  UNL     1       4.128 -29.119 -31.379  1.00  0.00    -0.404 N 
ATOM      2  H11 UNL     1       4.543 -30.038 -31.228  1.00  0.00     0.155 HD
ATOM      3  H12 UNL     1       3.444 -28.727 -30.732  1.00  0.00     0.155 HD
HETATM    4  C1  UNL     1       4.476 -28.447 -32.409  1.00  0.00    -0.001 C 
HETATM    5  C2  UNL     1       3.879 -27.125 -32.626  1.00  0.00     0.055 C 
HETATM    6  C3  UNL     1       3.813 -26.673 -34.030  1.00  0.00     0.026 C 
HETATM    7  C4  UNL     1       4.712 -27.358 -34.990  1.00  0.00     0.084 C 
HETATM    8 CL1  UNL     1       4.000 -27.167 -36.630  1.00  0.00    -0.125 Cl
HETATM    9  C5  UNL     1       4.896 -28.817 -34.755  1.00  0.00     0.047 C 
HETATM   10  C6  UNL     1       5.485 -29.025 -33.364  1.00  0.00     0.056 A 
HETATM   11  C7  UNL     1       5.894 -30.477 -33.066  1.00  0.00     0.101 A 
HETATM   12  S1  UNL     1       7.089 -29.220 -33.080  1.00  0.00    -0.150 SA
ENDROOT
TORSDOF 0
ENDMDL
MODEL 2
REMARK VINA RESULT: -5.082337018      0.898      1.052
REMARK  0 active torsions:
REMARK  status: ('A' for Active; 'I' for Inactive)
ROOT
HETATM    1  N1  UNL     1       4.164 -28.518 -31.802  1.00  0.00    -0.404 N 
ATOM      2  H11 UNL     1       4.544 -29.289 -31.253  1.00  0.00     0.155 HD
ATOM      3  H12 UNL     1       3.440 -27.903 -31.432  1.00  0.00     0.155 HD
HETATM    4  C1  UNL     1       4.611 -28.325 -32.984  1.00  0.00    -0.001 C 
HETATM    5  C2  UNL     1       4.064 -27.217 -33.774  1.00  0.00     0.055 C 
HETATM    6  C3  UNL     1       4.122 -27.383 -35.240  1.00  0.00     0.026 C 
HETATM    7  C4  UNL     1       5.080 -28.391 -35.756  1.00  0.00     0.084 C 
HETATM    8 CL1  UNL     1       4.508 -28.900 -37.383  1.00  0.00    -0.125 Cl
HETATM    9  C5  UNL     1       5.209 -29.623 -34.928  1.00  0.00     0.047 C 
HETATM   10  C6  UNL     1       5.679 -29.233 -33.530  1.00  0.00     0.056 A 
HETATM   11  C7  UNL     1       6.028 -30.430 -32.629  1.00  0.00     0.101 A 
HETATM   12  S1  UNL     1       7.250 -29.275 -33.058  1.00  0.00    -0.150 SA
ENDROOT
TORSDOF 0
ENDMDL
MODEL 3
REMARK VINA RESULT: -4.833824214      2.437      2.924
REMARK  0 active torsions:
REMARK  status: ('A' for Active; 'I' for Inactive)
ROOT
HETATM    1  N1  UNL     1       6.392 -31.090 -30.965  1.00  0.00    -0.404 N 
ATOM      2  H11 UNL     1       6.331 -32.098 -30.817  1.00  0.00     0.155 HD
ATOM      3  H12 UNL     1       6.352 -30.432 -30.187  1.00  0.00     0.155 HD
HETATM    4  C1  UNL     1       6.519 -30.649 -32.157  1.00  0.00    -0.001 C 
HETATM    5  C2  UNL     1       6.606 -29.200 -32.369  1.00  0.00     0.055 C 
HETATM    6  C3  UNL     1       6.147 -28.715 -33.687  1.00  0.00     0.026 C 
HETATM    7  C4  UNL     1       6.070 -29.721 -34.773  1.00  0.00     0.084 C 
HETATM    8 CL1  UNL     1       4.892 -29.115 -35.990  1.00  0.00    -0.125 Cl
HETATM    9  C5  UNL     1       5.612 -31.074 -34.352  1.00  0.00     0.047 C 
HETATM   10  C6  UNL     1       6.577 -31.620 -33.305  1.00  0.00     0.056 A 
HETATM   11  C7  UNL     1       6.321 -33.087 -32.919  1.00  0.00     0.101 A 
HETATM   12  S1  UNL     1       7.822 -32.629 -33.659  1.00  0.00    -0.150 SA
ENDROOT
TORSDOF 0
ENDMDL
MODEL 4
REMARK VINA RESULT: -4.779324843      1.617      2.051
REMARK  0 active torsions:
REMARK  status: ('A' for Active; 'I' for Inactive)
ROOT
HETATM    1  N1  UNL     1       6.431 -31.174 -31.800  1.00  0.00    -0.404 N 
ATOM      2  H11 UNL     1       7.008 -31.890 -32.242  1.00  0.00     0.155 HD
ATOM      3  H12 UNL     1       6.017 -31.312 -30.879  1.00  0.00     0.155 HD
HETATM    4  C1  UNL     1       6.223 -30.078 -32.425  1.00  0.00    -0.001 C 
HETATM    5  C2  UNL     1       5.394 -29.049 -31.790  1.00  0.00     0.055 C 
HETATM    6  C3  UNL     1       4.695 -28.129 -32.711  1.00  0.00     0.026 C 
HETATM    7  C4  UNL     1       5.221 -28.050 -34.095  1.00  0.00     0.084 C 
HETATM    8 CL1  UNL     1       3.885 -27.472 -35.151  1.00  0.00    -0.125 Cl
HETATM    9  C5  UNL     1       5.707 -29.339 -34.662  1.00  0.00     0.047 C 
HETATM   10  C6  UNL     1       6.834 -29.874 -33.785  1.00  0.00     0.056 A 
HETATM   11  C7  UNL     1       7.546 -31.109 -34.362  1.00  0.00     0.101 A 
HETATM   12  S1  UNL     1       8.424 -29.634 -34.108  1.00  0.00    -0.150 SA
ENDROOT
TORSDOF 0
ENDMDL
MODEL 5
REMARK VINA RESULT: -4.719609766      3.463      4.753
REMARK  0 active torsions:
REMARK  status: ('A' for Active; 'I' for Inactive)
ROOT
HETATM    1  N1  UNL     1       6.815 -31.527 -30.928  1.00  0.00    -0.404 N 
ATOM      2  H11 UNL     1       6.603 -30.613 -30.529  1.00  0.00     0.155 HD
ATOM      3  H12 UNL     1       6.972 -32.345 -30.340  1.00  0.00     0.155 HD
HETATM    4  C1  UNL     1       6.886 -31.643 -32.199  1.00  0.00    -0.001 C 
HETATM    5  C2  UNL     1       7.192 -32.958 -32.772  1.00  0.00     0.055 C 
HETATM    6  C3  UNL     1       7.847 -32.945 -34.096  1.00  0.00     0.026 C 
HETATM    7  C4  UNL     1       7.733 -31.691 -34.880  1.00  0.00     0.084 C 
HETATM    8 CL1  UNL     1       9.105 -31.652 -36.041  1.00  0.00    -0.125 Cl
HETATM    9  C5  UNL     1       7.795 -30.437 -34.079  1.00  0.00     0.047 C 
HETATM   10  C6  UNL     1       6.655 -30.437 -33.067  1.00  0.00     0.056 A 
HETATM   11  C7  UNL     1       6.496 -29.114 -32.300  1.00  0.00     0.101 A 
HETATM   12  S1  UNL     1       5.218 -29.687 -33.323  1.00  0.00    -0.150 SA
ENDROOT
TORSDOF 0
ENDMDL
