MODEL 1
REMARK VINA RESULT: -5.740541686      0.000      0.000
REMARK  0 active torsions:
REMARK  status: ('A' for Active; 'I' for Inactive)
ROOT
HETATM    1  C1  UNL     1       5.014 -29.126 -31.862  1.00  0.00     0.015 C 
HETATM    2  C2  UNL     1       5.570 -29.190 -33.290  1.00  0.00    -0.041 C 
HETATM    3  C3  UNL     1       4.909 -28.088 -34.093  1.00  0.00     0.015 C 
HETATM    4  C4  UNL     1       7.035 -28.984 -33.205  1.00  0.00     0.062 C 
HETATM    5  C5  UNL     1       7.853 -29.761 -34.127  1.00  0.00    -0.000 C 
HETATM    6  N1  UNL     1       9.070 -29.433 -34.348  1.00  0.00    -0.404 N 
ATOM      7  H11 UNL     1       9.643 -29.976 -34.994  1.00  0.00     0.155 HD
ATOM      8  H12 UNL     1       9.449 -28.618 -33.866  1.00  0.00     0.155 HD
HETATM    9  C6  UNL     1       7.304 -30.940 -34.827  1.00  0.00     0.156 C 
HETATM   10  C7  UNL     1       8.318 -31.939 -35.137  1.00  0.00     0.071 C 
HETATM   11  N2  UNL     1       9.109 -32.736 -35.372  1.00  0.00    -0.196 NA
HETATM   12  C8  UNL     1       6.253 -31.522 -33.900  1.00  0.00     0.106 C 
HETATM   13 CL1  UNL     1       6.885 -31.764 -32.272  1.00  0.00    -0.123 Cl
HETATM   14  C9  UNL     1       5.135 -30.507 -33.861  1.00  0.00     0.030 C 
ENDROOT
TORSDOF 0
ENDMDL
MODEL 2
REMARK VINA RESULT: -5.398607782      2.340      3.117
REMARK  0 active torsions:
REMARK  status: ('A' for Active; 'I' for Inactive)
ROOT
HETATM    1  C1  UNL     1       5.823 -29.569 -35.091  1.00  0.00     0.015 C 
HETATM    2  C2  UNL     1       6.635 -30.267 -33.992  1.00  0.00    -0.041 C 
HETATM    3  C3  UNL     1       6.771 -29.300 -32.834  1.00  0.00     0.015 C 
HETATM    4  C4  UNL     1       5.886 -31.481 -33.591  1.00  0.00     0.062 C 
HETATM    5  C5  UNL     1       6.684 -32.657 -33.270  1.00  0.00    -0.000 C 
HETATM    6  N1  UNL     1       6.167 -33.634 -32.624  1.00  0.00    -0.404 N 
ATOM      7  H11 UNL     1       6.725 -34.457 -32.399  1.00  0.00     0.155 HD
ATOM      8  H12 UNL     1       5.190 -33.567 -32.342  1.00  0.00     0.155 HD
HETATM    9  C6  UNL     1       8.100 -32.754 -33.678  1.00  0.00     0.156 C 
HETATM   10  C7  UNL     1       8.535 -34.128 -33.896  1.00  0.00     0.071 C 
HETATM   11  N2  UNL     1       8.881 -35.205 -34.084  1.00  0.00    -0.196 NA
HETATM   12  C8  UNL     1       8.220 -31.949 -34.958  1.00  0.00     0.106 C 
HETATM   13 CL1  UNL     1       7.000 -32.423 -36.139  1.00  0.00    -0.123 Cl
HETATM   14  C9  UNL     1       8.003 -30.509 -34.559  1.00  0.00     0.030 C 
ENDROOT
TORSDOF 0
ENDMDL
MODEL 3
REMARK VINA RESULT: -5.234611517      2.650      4.523
REMARK  0 active torsions:
REMARK  status: ('A' for Active; 'I' for Inactive)
ROOT
HETATM    1  C1  UNL     1       8.968 -33.307 -34.964  1.00  0.00     0.015 C 
HETATM    2  C2  UNL     1       7.726 -33.274 -34.064  1.00  0.00    -0.041 C 
HETATM    3  C3  UNL     1       7.091 -34.649 -34.104  1.00  0.00     0.015 C 
HETATM    4  C4  UNL     1       8.179 -32.934 -32.695  1.00  0.00     0.062 C 
HETATM    5  C5  UNL     1       7.299 -32.072 -31.917  1.00  0.00    -0.000 C 
HETATM    6  N1  UNL     1       7.438 -31.980 -30.648  1.00  0.00    -0.404 N 
ATOM      7  H11 UNL     1       6.821 -31.377 -30.103  1.00  0.00     0.155 HD
ATOM      8  H12 UNL     1       8.175 -32.522 -30.199  1.00  0.00     0.155 HD
HETATM    9  C6  UNL     1       6.229 -31.287 -32.566  1.00  0.00     0.156 C 
HETATM   10  C7  UNL     1       5.915 -30.056 -31.853  1.00  0.00     0.071 C 
HETATM   11  N2  UNL     1       5.673 -29.078 -31.304  1.00  0.00    -0.196 NA
HETATM   12  C8  UNL     1       6.731 -30.977 -33.964  1.00  0.00     0.106 C 
HETATM   13 CL1  UNL     1       8.349 -30.276 -33.932  1.00  0.00    -0.123 Cl
HETATM   14  C9  UNL     1       6.770 -32.301 -34.689  1.00  0.00     0.030 C 
ENDROOT
TORSDOF 0
ENDMDL
MODEL 4
REMARK VINA RESULT: -5.231642747      1.234      1.550
REMARK  0 active torsions:
REMARK  status: ('A' for Active; 'I' for Inactive)
ROOT
HETATM    1  C1  UNL     1       6.521 -29.030 -32.596  1.00  0.00     0.015 C 
HETATM    2  C2  UNL     1       6.425 -29.727 -33.960  1.00  0.00    -0.041 C 
HETATM    3  C3  UNL     1       5.629 -28.828 -34.883  1.00  0.00     0.015 C 
HETATM    4  C4  UNL     1       7.807 -29.917 -34.459  1.00  0.00     0.062 C 
HETATM    5  C5  UNL     1       8.071 -31.155 -35.181  1.00  0.00    -0.000 C 
HETATM    6  N1  UNL     1       9.118 -31.271 -35.909  1.00  0.00    -0.404 N 
ATOM      7  H11 UNL     1       9.302 -32.137 -36.414  1.00  0.00     0.155 HD
ATOM      8  H12 UNL     1       9.757 -30.479 -35.969  1.00  0.00     0.155 HD
HETATM    9  C6  UNL     1       7.145 -32.302 -35.093  1.00  0.00     0.156 C 
HETATM   10  C7  UNL     1       7.811 -33.585 -35.270  1.00  0.00     0.071 C 
HETATM   11  N2  UNL     1       8.332 -34.600 -35.394  1.00  0.00    -0.196 NA
HETATM   12  C8  UNL     1       6.509 -32.220 -33.718  1.00  0.00     0.106 C 
HETATM   13 CL1  UNL     1       7.724 -32.057 -32.451  1.00  0.00    -0.123 Cl
HETATM   14  C9  UNL     1       5.638 -30.986 -33.742  1.00  0.00     0.030 C 
ENDROOT
TORSDOF 0
ENDMDL
MODEL 5
REMARK VINA RESULT: -5.223238449      2.688      3.730
REMARK  0 active torsions:
REMARK  status: ('A' for Active; 'I' for Inactive)
ROOT
HETATM    1  C1  UNL     1       4.018 -27.384 -35.572  1.00  0.00     0.015 C 
HETATM    2  C2  UNL     1       4.775 -27.293 -34.241  1.00  0.00    -0.041 C 
HETATM    3  C3  UNL     1       4.961 -25.824 -33.916  1.00  0.00     0.015 C 
HETATM    4  C4  UNL     1       3.949 -27.967 -33.214  1.00  0.00     0.062 C 
HETATM    5  C5  UNL     1       4.669 -28.730 -32.202  1.00  0.00    -0.000 C 
HETATM    6  N1  UNL     1       4.086 -29.078 -31.116  1.00  0.00    -0.404 N 
ATOM      7  H11 UNL     1       4.590 -29.611 -30.408  1.00  0.00     0.155 HD
ATOM      8  H12 UNL     1       3.112 -28.809 -30.979  1.00  0.00     0.155 HD
HETATM    9  C6  UNL     1       6.079 -29.120 -32.399  1.00  0.00     0.156 C 
HETATM   10  C7  UNL     1       6.430 -30.354 -31.708  1.00  0.00     0.071 C 
HETATM   11  N2  UNL     1       6.709 -31.333 -31.179  1.00  0.00    -0.196 NA
HETATM   12  C8  UNL     1       6.261 -29.281 -33.897  1.00  0.00     0.106 C 
HETATM   13 CL1  UNL     1       5.023 -30.327 -34.592  1.00  0.00    -0.123 Cl
HETATM   14  C9  UNL     1       6.130 -27.892 -34.477  1.00  0.00     0.030 C 
ENDROOT
TORSDOF 0
ENDMDL
