MODEL 1
REMARK VINA RESULT: -6.816588498      0.000      0.000
REMARK  0 active torsions:
REMARK  status: ('A' for Active; 'I' for Inactive)
ROOT
HETATM    1  N1  UNL     1       5.001 -28.959 -29.463  1.00  0.00    -0.088 NA
HETATM    2  C1  UNL     1       5.050 -29.020 -30.877  1.00  0.00     0.089 C 
HETATM    3  N2  UNL     1       6.053 -29.321 -31.568  1.00  0.00    -0.373 N 
ATOM      4  H2  UNL     1       6.919 -29.544 -31.076  1.00  0.00     0.161 HD
HETATM    5  C2  UNL     1       6.066 -29.374 -33.007  1.00  0.00     0.031 C 
HETATM    6  C3  UNL     1       7.477 -29.097 -33.421  1.00  0.00     0.031 C 
HETATM    7  C4  UNL     1       8.065 -29.990 -34.451  1.00  0.00     0.002 C 
HETATM    8  C5  UNL     1       7.809 -31.424 -33.956  1.00  0.00     0.000 C 
HETATM    9  C6  UNL     1       6.341 -31.619 -34.187  1.00  0.00     0.002 C 
HETATM   10  C7  UNL     1       5.501 -30.687 -33.414  1.00  0.00     0.031 C 
HETATM   11  C8  UNL     1       5.205 -28.275 -33.573  1.00  0.00     0.031 C 
HETATM   12  C9  UNL     1       4.230 -27.654 -32.640  1.00  0.00     0.010 C 
HETATM   13  C10 UNL     1       3.792 -28.682 -31.623  1.00  0.00     0.073 C 
ENDROOT
TORSDOF 0
ENDMDL
MODEL 2
REMARK VINA RESULT: -6.228240543      1.759      4.332
REMARK  0 active torsions:
REMARK  status: ('A' for Active; 'I' for Inactive)
ROOT
HETATM    1  N1  UNL     1       9.139 -29.479 -34.259  1.00  0.00    -0.088 NA
HETATM    2  C1  UNL     1       7.731 -29.625 -34.297  1.00  0.00     0.089 C 
HETATM    3  N2  UNL     1       6.899 -28.920 -33.676  1.00  0.00    -0.373 N 
ATOM      4  H2  UNL     1       7.259 -28.170 -33.086  1.00  0.00     0.161 HD
HETATM    5  C2  UNL     1       5.471 -29.097 -33.739  1.00  0.00     0.031 C 
HETATM    6  C3  UNL     1       4.930 -28.583 -32.442  1.00  0.00     0.031 C 
HETATM    7  C4  UNL     1       3.746 -27.690 -32.512  1.00  0.00     0.002 C 
HETATM    8  C5  UNL     1       4.104 -26.602 -33.537  1.00  0.00     0.000 C 
HETATM    9  C6  UNL     1       4.024 -27.316 -34.852  1.00  0.00     0.002 C 
HETATM   10  C7  UNL     1       4.989 -28.425 -34.972  1.00  0.00     0.031 C 
HETATM   11  C8  UNL     1       5.135 -30.564 -33.819  1.00  0.00     0.031 C 
HETATM   12  C9  UNL     1       6.238 -31.473 -34.224  1.00  0.00     0.010 C 
HETATM   13  C10 UNL     1       7.177 -30.731 -35.147  1.00  0.00     0.073 C 
ENDROOT
TORSDOF 0
ENDMDL
MODEL 3
REMARK VINA RESULT: -6.178962073      2.227      3.277
REMARK  0 active torsions:
REMARK  status: ('A' for Active; 'I' for Inactive)
ROOT
HETATM    1  N1  UNL     1       3.910 -27.067 -36.441  1.00  0.00    -0.088 NA
HETATM    2  C1  UNL     1       4.521 -27.650 -35.304  1.00  0.00     0.089 C 
HETATM    3  N2  UNL     1       4.973 -28.818 -35.227  1.00  0.00    -0.373 N 
ATOM      4  H2  UNL     1       4.897 -29.412 -36.054  1.00  0.00     0.161 HD
HETATM    5  C2  UNL     1       5.590 -29.379 -34.053  1.00  0.00     0.031 C 
HETATM    6  C3  UNL     1       5.364 -30.856 -34.129  1.00  0.00     0.031 C 
HETATM    7  C4  UNL     1       6.530 -31.731 -33.850  1.00  0.00     0.002 C 
HETATM    8  C5  UNL     1       7.667 -31.208 -34.743  1.00  0.00     0.000 C 
HETATM    9  C6  UNL     1       8.080 -29.931 -34.076  1.00  0.00     0.002 C 
HETATM   10  C7  UNL     1       7.004 -28.924 -34.029  1.00  0.00     0.031 C 
HETATM   11  C8  UNL     1       4.894 -28.877 -32.814  1.00  0.00     0.031 C 
HETATM   12  C9  UNL     1       4.053 -27.664 -32.975  1.00  0.00     0.010 C 
HETATM   13  C10 UNL     1       4.632 -26.801 -34.072  1.00  0.00     0.073 C 
ENDROOT
TORSDOF 0
ENDMDL
MODEL 4
REMARK VINA RESULT: -5.807885115      2.152      4.312
REMARK  0 active torsions:
REMARK  status: ('A' for Active; 'I' for Inactive)
ROOT
HETATM    1  N1  UNL     1       9.255 -29.841 -34.256  1.00  0.00    -0.088 NA
HETATM    2  C1  UNL     1       7.846 -29.926 -34.376  1.00  0.00     0.089 C 
HETATM    3  N2  UNL     1       7.035 -28.979 -34.234  1.00  0.00    -0.373 N 
ATOM      4  H2  UNL     1       7.414 -28.058 -34.011  1.00  0.00     0.161 HD
HETATM    5  C2  UNL     1       5.606 -29.102 -34.365  1.00  0.00     0.031 C 
HETATM    6  C3  UNL     1       5.015 -28.028 -33.507  1.00  0.00     0.031 C 
HETATM    7  C4  UNL     1       3.924 -27.216 -34.100  1.00  0.00     0.002 C 
HETATM    8  C5  UNL     1       4.454 -26.733 -35.460  1.00  0.00     0.000 C 
HETATM    9  C6  UNL     1       4.412 -27.965 -36.312  1.00  0.00     0.002 C 
HETATM   10  C7  UNL     1       5.281 -29.047 -35.814  1.00  0.00     0.031 C 
HETATM   11  C8  UNL     1       5.149 -30.427 -33.811  1.00  0.00     0.031 C 
HETATM   12  C9  UNL     1       6.194 -31.468 -33.641  1.00  0.00     0.010 C 
HETATM   13  C10 UNL     1       7.263 -31.273 -34.691  1.00  0.00     0.073 C 
ENDROOT
TORSDOF 0
ENDMDL
MODEL 5
REMARK VINA RESULT: -5.538341034      1.575      4.134
REMARK  0 active torsions:
REMARK  status: ('A' for Active; 'I' for Inactive)
ROOT
HETATM    1  N1  UNL     1       6.422 -33.053 -33.910  1.00  0.00    -0.088 NA
HETATM    2  C1  UNL     1       6.594 -31.710 -33.496  1.00  0.00     0.089 C 
HETATM    3  N2  UNL     1       5.695 -30.836 -33.433  1.00  0.00    -0.373 N 
ATOM      4  H2  UNL     1       4.750 -31.107 -33.703  1.00  0.00     0.161 HD
HETATM    5  C2  UNL     1       5.907 -29.478 -33.004  1.00  0.00     0.031 C 
HETATM    6  C3  UNL     1       4.855 -28.658 -33.684  1.00  0.00     0.031 C 
HETATM    7  C4  UNL     1       4.121 -27.676 -32.847  1.00  0.00     0.002 C 
HETATM    8  C5  UNL     1       3.632 -28.459 -31.617  1.00  0.00     0.000 C 
HETATM    9  C6  UNL     1       4.880 -28.668 -30.814  1.00  0.00     0.002 C 
HETATM   10  C7  UNL     1       5.898 -29.468 -31.519  1.00  0.00     0.031 C 
HETATM   11  C8  UNL     1       7.247 -28.986 -33.488  1.00  0.00     0.031 C 
HETATM   12  C9  UNL     1       8.220 -30.026 -33.909  1.00  0.00     0.010 C 
HETATM   13  C10 UNL     1       7.979 -31.283 -33.105  1.00  0.00     0.073 C 
ENDROOT
TORSDOF 0
ENDMDL
