MODEL 1
REMARK VINA RESULT: -5.996790041      0.000      0.000
REMARK  0 active torsions:
REMARK  status: ('A' for Active; 'I' for Inactive)
ROOT
HETATM    1  F1  UNL     1       4.272 -26.367 -36.376  1.00  0.00    -0.242 F 
HETATM    2  C1  UNL     1       4.888 -27.186 -35.485  1.00  0.00     0.229 C 
HETATM    3  C2  UNL     1       4.770 -28.666 -35.875  1.00  0.00     0.044 C 
HETATM    4  C3  UNL     1       5.830 -29.400 -35.082  1.00  0.00     0.008 C 
HETATM    5  C4  UNL     1       5.763 -29.103 -33.621  1.00  0.00     0.044 C 
HETATM    6  C5  UNL     1       4.739 -28.102 -33.240  1.00  0.00     0.016 A 
HETATM    7  C6  UNL     1       4.270 -27.129 -34.122  1.00  0.00     0.119 A 
HETATM    8  O1  UNL     1       3.397 -26.418 -33.498  1.00  0.00    -0.238 OA
HETATM    9  N1  UNL     1       3.210 -26.796 -32.270  1.00  0.00    -0.249 N 
ATOM     10  H1  UNL     1       2.571 -26.382 -31.591  1.00  0.00     0.196 HD
HETATM   11  C7  UNL     1       4.030 -27.842 -32.076  1.00  0.00     0.130 A 
HETATM   12  S1  UNL     1       4.172 -28.688 -30.670  1.00  0.00    -0.058 SA
ENDROOT
TORSDOF 0
ENDMDL
MODEL 2
REMARK VINA RESULT: -5.901657300      2.829      3.402
REMARK  0 active torsions:
REMARK  status: ('A' for Active; 'I' for Inactive)
ROOT
HETATM    1  F1  UNL     1       4.947 -28.743 -30.639  1.00  0.00    -0.242 F 
HETATM    2  C1  UNL     1       5.031 -29.124 -31.940  1.00  0.00     0.229 C 
HETATM    3  C2  UNL     1       6.483 -29.279 -32.410  1.00  0.00     0.044 C 
HETATM    4  C3  UNL     1       6.433 -30.100 -33.681  1.00  0.00     0.008 C 
HETATM    5  C4  UNL     1       5.478 -29.548 -34.685  1.00  0.00     0.044 C 
HETATM    6  C5  UNL     1       4.714 -28.364 -34.226  1.00  0.00     0.016 A 
HETATM    7  C6  UNL     1       4.462 -28.104 -32.880  1.00  0.00     0.119 A 
HETATM    8  O1  UNL     1       3.781 -27.014 -32.808  1.00  0.00    -0.238 OA
HETATM    9  N1  UNL     1       3.532 -26.488 -33.968  1.00  0.00    -0.249 N 
ATOM     10  H1  UNL     1       3.011 -25.630 -34.154  1.00  0.00     0.196 HD
HETATM   11  C7  UNL     1       4.099 -27.302 -34.874  1.00  0.00     0.130 A 
HETATM   12  S1  UNL     1       4.068 -27.075 -36.504  1.00  0.00    -0.058 SA
ENDROOT
TORSDOF 0
ENDMDL
MODEL 3
REMARK VINA RESULT: -5.658854870      3.091      3.635
REMARK  0 active torsions:
REMARK  status: ('A' for Active; 'I' for Inactive)
ROOT
HETATM    1  F1  UNL     1       7.217 -31.277 -31.474  1.00  0.00    -0.242 F 
HETATM    2  C1  UNL     1       6.487 -30.560 -32.367  1.00  0.00     0.229 C 
HETATM    3  C2  UNL     1       7.369 -29.714 -33.295  1.00  0.00     0.044 C 
HETATM    4  C3  UNL     1       6.500 -29.331 -34.474  1.00  0.00     0.008 C 
HETATM    5  C4  UNL     1       5.207 -28.712 -34.058  1.00  0.00     0.044 C 
HETATM    6  C5  UNL     1       4.989 -28.661 -32.593  1.00  0.00     0.016 A 
HETATM    7  C6  UNL     1       5.596 -29.551 -31.709  1.00  0.00     0.119 A 
HETATM    8  O1  UNL     1       5.209 -29.251 -30.518  1.00  0.00    -0.238 OA
HETATM    9  N1  UNL     1       4.393 -28.242 -30.484  1.00  0.00    -0.249 N 
ATOM     10  H1  UNL     1       3.960 -27.831 -29.656  1.00  0.00     0.196 HD
HETATM   11  C7  UNL     1       4.233 -27.849 -31.759  1.00  0.00     0.130 A 
HETATM   12  S1  UNL     1       3.288 -26.597 -32.255  1.00  0.00    -0.058 SA
ENDROOT
TORSDOF 0
ENDMDL
MODEL 4
REMARK VINA RESULT: -5.567348261      3.355      4.247
REMARK  0 active torsions:
REMARK  status: ('A' for Active; 'I' for Inactive)
ROOT
HETATM    1  F1  UNL     1       5.764 -30.224 -31.419  1.00  0.00    -0.242 F 
HETATM    2  C1  UNL     1       5.316 -29.044 -31.921  1.00  0.00     0.229 C 
HETATM    3  C2  UNL     1       3.876 -28.736 -31.491  1.00  0.00     0.044 C 
HETATM    4  C3  UNL     1       3.667 -27.257 -31.735  1.00  0.00     0.008 C 
HETATM    5  C4  UNL     1       4.036 -26.846 -33.121  1.00  0.00     0.044 C 
HETATM    6  C5  UNL     1       4.602 -27.930 -33.958  1.00  0.00     0.016 A 
HETATM    7  C6  UNL     1       5.247 -29.041 -33.418  1.00  0.00     0.119 A 
HETATM    8  O1  UNL     1       5.622 -29.793 -34.393  1.00  0.00    -0.238 OA
HETATM    9  N1  UNL     1       5.305 -29.318 -35.558  1.00  0.00    -0.249 N 
ATOM     10  H1  UNL     1       5.500 -29.739 -36.467  1.00  0.00     0.196 HD
HETATM   11  C7  UNL     1       4.668 -28.158 -35.325  1.00  0.00     0.130 A 
HETATM   12  S1  UNL     1       4.058 -27.161 -36.484  1.00  0.00    -0.058 SA
ENDROOT
TORSDOF 0
ENDMDL
MODEL 5
REMARK VINA RESULT: -5.492198477      3.330      3.782
REMARK  0 active torsions:
REMARK  status: ('A' for Active; 'I' for Inactive)
ROOT
HETATM    1  F1  UNL     1       4.107 -27.445 -31.827  1.00  0.00    -0.242 F 
HETATM    2  C1  UNL     1       5.108 -28.074 -32.497  1.00  0.00     0.229 C 
HETATM    3  C2  UNL     1       4.656 -28.589 -33.870  1.00  0.00     0.044 C 
HETATM    4  C3  UNL     1       5.920 -28.857 -34.659  1.00  0.00     0.008 C 
HETATM    5  C4  UNL     1       6.885 -29.725 -33.922  1.00  0.00     0.044 C 
HETATM    6  C5  UNL     1       6.464 -30.089 -32.548  1.00  0.00     0.016 A 
HETATM    7  C6  UNL     1       5.588 -29.308 -31.796  1.00  0.00     0.119 A 
HETATM    8  O1  UNL     1       5.422 -29.884 -30.657  1.00  0.00    -0.238 OA
HETATM    9  N1  UNL     1       6.096 -30.988 -30.539  1.00  0.00    -0.249 N 
ATOM     10  H1  UNL     1       6.120 -31.609 -29.730  1.00  0.00     0.196 HD
HETATM   11  C7  UNL     1       6.757 -31.146 -31.698  1.00  0.00     0.130 A 
HETATM   12  S1  UNL     1       7.759 -32.401 -32.056  1.00  0.00    -0.058 SA
ENDROOT
TORSDOF 0
ENDMDL
