MODEL 1
REMARK VINA RESULT: -4.394107756      0.000      0.000
REMARK  2 active torsions:
REMARK  status: ('A' for Active; 'I' for Inactive)
REMARK    1  A    between atoms: C2_3  and  C3_4 
REMARK    2  A    between atoms: N2_6  and  O1_7 
ROOT
HETATM    1  N1  UNL     1       4.920 -28.924 -29.666  1.00  0.00    -0.197 NA
HETATM    2  C1  UNL     1       4.757 -29.106 -30.815  1.00  0.00     0.060 C 
HETATM    3  C2  UNL     1       4.577 -29.315 -32.229  1.00  0.00     0.140 C 
ENDROOT
BRANCH   3   4
HETATM    4  C3  UNL     1       4.765 -28.060 -33.042  1.00  0.00     0.076 C 
HETATM    5  C4  UNL     1       3.481 -27.265 -33.142  1.00  0.00     0.137 C 
HETATM    6  N2  UNL     1       3.608 -26.383 -34.266  1.00  0.00    -0.189 NA
HETATM    7  C5  UNL     1       3.765 -27.192 -35.453  1.00  0.00     0.194 C 
HETATM    8  S1  UNL     1       4.947 -28.456 -34.829  1.00  0.00    -0.145 SA
BRANCH   6   9
HETATM    9  O1  UNL     1       4.619 -25.522 -34.192  1.00  0.00    -0.312 OA
ATOM     10  H1  UNL     1       5.015 -25.297 -35.025  1.00  0.00     0.237 HD
ENDBRANCH   6   9
ENDBRANCH   3   4
TORSDOF 2
ENDMDL
MODEL 2
REMARK VINA RESULT: -4.229457425      6.475      7.394
REMARK  2 active torsions:
REMARK  status: ('A' for Active; 'I' for Inactive)
REMARK    1  A    between atoms: C2_3  and  C3_4 
REMARK    2  A    between atoms: N2_6  and  O1_7 
ROOT
HETATM    1  N1  UNL     1       6.499 -31.315 -30.769  1.00  0.00    -0.197 NA
HETATM    2  C1  UNL     1       6.489 -31.713 -31.874  1.00  0.00     0.060 C 
HETATM    3  C2  UNL     1       6.469 -32.222 -33.222  1.00  0.00     0.140 C 
ENDROOT
BRANCH   3   4
HETATM    4  C3  UNL     1       6.957 -33.644 -33.325  1.00  0.00     0.076 C 
HETATM    5  C4  UNL     1       8.266 -33.836 -32.589  1.00  0.00     0.137 C 
HETATM    6  N2  UNL     1       8.878 -35.026 -33.105  1.00  0.00    -0.189 NA
HETATM    7  C5  UNL     1       9.144 -34.819 -34.509  1.00  0.00     0.194 C 
HETATM    8  S1  UNL     1       7.575 -34.004 -35.020  1.00  0.00    -0.145 SA
BRANCH   6   9
HETATM    9  O1  UNL     1       8.158 -36.136 -32.959  1.00  0.00    -0.312 OA
ATOM     10  H1  UNL     1       7.416 -36.211 -33.547  1.00  0.00     0.237 HD
ENDBRANCH   6   9
ENDBRANCH   3   4
TORSDOF 2
ENDMDL
MODEL 3
REMARK VINA RESULT: -4.200405720      9.440      9.883
REMARK  2 active torsions:
REMARK  status: ('A' for Active; 'I' for Inactive)
REMARK    1  A    between atoms: C2_3  and  C3_4 
REMARK    2  A    between atoms: N2_6  and  O1_7 
ROOT
HETATM    1  N1  UNL     1       8.929 -34.462 -32.813  1.00  0.00    -0.197 NA
HETATM    2  C1  UNL     1       8.459 -34.942 -33.777  1.00  0.00     0.060 C 
HETATM    3  C2  UNL     1       7.906 -35.537 -34.967  1.00  0.00     0.140 C 
ENDROOT
BRANCH   3   4
HETATM    4  C3  UNL     1       8.703 -35.230 -36.209  1.00  0.00     0.076 C 
HETATM    5  C4  UNL     1       8.723 -36.406 -37.161  1.00  0.00     0.137 C 
HETATM    6  N2  UNL     1       9.834 -36.221 -38.049  1.00  0.00    -0.189 NA
HETATM    7  C5  UNL     1      11.043 -36.224 -37.258  1.00  0.00     0.194 C 
HETATM    8  S1  UNL     1      10.504 -35.184 -35.839  1.00  0.00    -0.145 SA
BRANCH   6   9
HETATM    9  O1  UNL     1       9.793 -35.107 -38.774  1.00  0.00    -0.312 OA
ATOM     10  H1  UNL     1      10.035 -34.316 -38.307  1.00  0.00     0.237 HD
ENDBRANCH   6   9
ENDBRANCH   3   4
TORSDOF 2
ENDMDL
MODEL 4
REMARK VINA RESULT: -4.191742025      6.575      7.513
REMARK  2 active torsions:
REMARK  status: ('A' for Active; 'I' for Inactive)
REMARK    1  A    between atoms: C2_3  and  C3_4 
REMARK    2  A    between atoms: N2_6  and  O1_7 
ROOT
HETATM    1  N1  UNL     1       8.095 -30.379 -33.712  1.00  0.00    -0.197 NA
HETATM    2  C1  UNL     1       7.289 -31.196 -33.462  1.00  0.00     0.060 C 
HETATM    3  C2  UNL     1       6.318 -32.211 -33.142  1.00  0.00     0.140 C 
ENDROOT
BRANCH   3   4
HETATM    4  C3  UNL     1       6.865 -33.611 -33.253  1.00  0.00     0.076 C 
HETATM    5  C4  UNL     1       8.161 -33.763 -32.486  1.00  0.00     0.137 C 
HETATM    6  N2  UNL     1       8.833 -34.920 -33.003  1.00  0.00    -0.189 NA
HETATM    7  C5  UNL     1       9.127 -34.680 -34.396  1.00  0.00     0.194 C 
HETATM    8  S1  UNL     1       7.540 -33.920 -34.936  1.00  0.00    -0.145 SA
BRANCH   6   9
HETATM    9  O1  UNL     1       8.154 -36.059 -32.892  1.00  0.00    -0.312 OA
ATOM     10  H1  UNL     1       7.344 -35.996 -32.400  1.00  0.00     0.237 HD
ENDBRANCH   6   9
ENDBRANCH   3   4
TORSDOF 2
ENDMDL
MODEL 5
REMARK VINA RESULT: -4.187349356      8.861      9.460
REMARK  2 active torsions:
REMARK  status: ('A' for Active; 'I' for Inactive)
REMARK    1  A    between atoms: C2_3  and  C3_4 
REMARK    2  A    between atoms: N2_6  and  O1_7 
ROOT
HETATM    1  N1  UNL     1       7.935 -32.149 -33.674  1.00  0.00    -0.197 NA
HETATM    2  C1  UNL     1       7.924 -32.931 -34.550  1.00  0.00     0.060 C 
HETATM    3  C2  UNL     1       7.912 -33.909 -35.609  1.00  0.00     0.140 C 
ENDROOT
BRANCH   3   4
HETATM    4  C3  UNL     1       8.978 -34.963 -35.453  1.00  0.00     0.076 C 
HETATM    5  C4  UNL     1      10.356 -34.348 -35.343  1.00  0.00     0.137 C 
HETATM    6  N2  UNL     1      11.310 -35.370 -35.663  1.00  0.00    -0.189 NA
HETATM    7  C5  UNL     1      11.078 -35.787 -37.026  1.00  0.00     0.194 C 
HETATM    8  S1  UNL     1       9.240 -35.870 -37.031  1.00  0.00    -0.145 SA
BRANCH   6   9
HETATM    9  O1  UNL     1      11.273 -36.438 -34.870  1.00  0.00    -0.312 OA
ATOM     10  H1  UNL     1      11.049 -36.258 -33.965  1.00  0.00     0.237 HD
ENDBRANCH   6   9
ENDBRANCH   3   4
TORSDOF 2
ENDMDL
