MODEL 1
REMARK VINA RESULT: -3.644449667      0.000      0.000
REMARK  1 active torsions:
REMARK  status: ('A' for Active; 'I' for Inactive)
REMARK    1  A    between atoms: C1_4  and  N2_5 
ROOT
HETATM    1  N2  UNL     1       7.901 -33.423 -31.817  1.00  0.00    -0.341 N 
ATOM      2  H2  UNL     1       8.220 -34.160 -31.188  1.00  0.00     0.167 HD
HETATM    3  C2  UNL     1       7.750 -33.662 -33.075  1.00  0.00     0.131 A 
HETATM    4  S1  UNL     1       7.281 -32.879 -34.480  1.00  0.00    -0.020 SA
HETATM    5  S2  UNL     1       7.518 -34.452 -35.696  1.00  0.00    -0.010 SA
HETATM    6  S3  UNL     1       8.031 -35.133 -33.875  1.00  0.00    -0.020 SA
ENDROOT
BRANCH   1   7
HETATM    7  C1  UNL     1       7.618 -32.128 -31.315  1.00  0.00     0.174 C 
HETATM    8  N1  UNL     1       6.733 -31.900 -30.414  1.00  0.00    -0.395 N 
ATOM      9  H12 UNL     1       6.216 -32.701 -30.052  1.00  0.00     0.156 HD
ATOM     10  H11 UNL     1       6.530 -30.967 -30.053  1.00  0.00     0.156 HD
ENDBRANCH   1   7
TORSDOF 1
ENDMDL
MODEL 2
REMARK VINA RESULT: -3.621051225      5.580      6.200
REMARK  1 active torsions:
REMARK  status: ('A' for Active; 'I' for Inactive)
REMARK    1  A    between atoms: C1_4  and  N2_5 
ROOT
HETATM    1  N2  UNL     1       4.580 -29.152 -32.074  1.00  0.00    -0.341 N 
ATOM      2  H2  UNL     1       5.041 -30.060 -32.133  1.00  0.00     0.167 HD
HETATM    3  C2  UNL     1       4.422 -28.433 -33.133  1.00  0.00     0.131 A 
HETATM    4  S1  UNL     1       3.776 -26.958 -33.595  1.00  0.00    -0.020 SA
HETATM    5  S2  UNL     1       4.222 -27.124 -35.540  1.00  0.00    -0.010 SA
HETATM    6  S3  UNL     1       4.910 -28.822 -34.713  1.00  0.00    -0.020 SA
ENDROOT
BRANCH   1   7
HETATM    7  C1  UNL     1       4.108 -28.669 -30.828  1.00  0.00     0.174 C 
HETATM    8  N1  UNL     1       4.731 -28.852 -29.721  1.00  0.00    -0.395 N 
ATOM      9  H12 UNL     1       5.607 -29.373 -29.757  1.00  0.00     0.156 HD
ATOM     10  H11 UNL     1       4.391 -28.505 -28.823  1.00  0.00     0.156 HD
ENDBRANCH   1   7
TORSDOF 1
ENDMDL
MODEL 3
REMARK VINA RESULT: -3.612953659      5.708      6.441
REMARK  1 active torsions:
REMARK  status: ('A' for Active; 'I' for Inactive)
REMARK    1  A    between atoms: C1_4  and  N2_5 
ROOT
HETATM    1  N2  UNL     1       3.542 -27.868 -31.416  1.00  0.00    -0.341 N 
ATOM      2  H2  UNL     1       3.003 -27.039 -31.164  1.00  0.00     0.167 HD
HETATM    3  C2  UNL     1       3.985 -28.014 -32.618  1.00  0.00     0.131 A 
HETATM    4  S1  UNL     1       4.870 -29.105 -33.533  1.00  0.00    -0.020 SA
HETATM    5  S2  UNL     1       4.800 -28.063 -35.241  1.00  0.00    -0.010 SA
HETATM    6  S3  UNL     1       3.777 -26.945 -33.921  1.00  0.00    -0.020 SA
ENDROOT
BRANCH   1   7
HETATM    7  C1  UNL     1       3.811 -28.867 -30.448  1.00  0.00     0.174 C 
HETATM    8  N1  UNL     1       4.817 -28.824 -29.652  1.00  0.00    -0.395 N 
ATOM      9  H12 UNL     1       5.445 -28.025 -29.734  1.00  0.00     0.156 HD
ATOM     10  H11 UNL     1       5.011 -29.544 -28.955  1.00  0.00     0.156 HD
ENDBRANCH   1   7
TORSDOF 1
ENDMDL
MODEL 4
REMARK VINA RESULT: -3.527289032      6.727      7.339
REMARK  1 active torsions:
REMARK  status: ('A' for Active; 'I' for Inactive)
REMARK    1  A    between atoms: C1_4  and  N2_5 
ROOT
HETATM    1  N2  UNL     1       3.256 -26.311 -33.350  1.00  0.00    -0.341 N 
ATOM      2  H2  UNL     1       2.854 -25.615 -33.978  1.00  0.00     0.167 HD
HETATM    3  C2  UNL     1       3.908 -27.317 -33.827  1.00  0.00     0.131 A 
HETATM    4  S1  UNL     1       4.731 -28.677 -33.297  1.00  0.00    -0.020 SA
HETATM    5  S2  UNL     1       5.239 -29.346 -35.115  1.00  0.00    -0.010 SA
HETATM    6  S3  UNL     1       4.202 -27.659 -35.464  1.00  0.00    -0.020 SA
ENDROOT
BRANCH   1   7
HETATM    7  C1  UNL     1       3.105 -26.181 -31.947  1.00  0.00     0.174 C 
HETATM    8  N1  UNL     1       3.153 -25.053 -31.336  1.00  0.00    -0.395 N 
ATOM      9  H12 UNL     1       3.309 -24.220 -31.903  1.00  0.00     0.156 HD
ATOM     10  H11 UNL     1       3.045 -24.959 -30.326  1.00  0.00     0.156 HD
ENDBRANCH   1   7
TORSDOF 1
ENDMDL
MODEL 5
REMARK VINA RESULT: -3.362360951      1.146      1.146
REMARK  1 active torsions:
REMARK  status: ('A' for Active; 'I' for Inactive)
REMARK    1  A    between atoms: C1_4  and  N2_5 
ROOT
HETATM    1  N2  UNL     1       7.216 -33.372 -32.316  1.00  0.00    -0.341 N 
ATOM      2  H2  UNL     1       7.364 -34.290 -31.896  1.00  0.00     0.167 HD
HETATM    3  C2  UNL     1       7.645 -33.124 -33.506  1.00  0.00     0.131 A 
HETATM    4  S1  UNL     1       7.679 -31.874 -34.621  1.00  0.00    -0.020 SA
HETATM    5  S2  UNL     1       8.664 -32.878 -36.045  1.00  0.00    -0.010 SA
HETATM    6  S3  UNL     1       8.479 -34.189 -34.533  1.00  0.00    -0.020 SA
ENDROOT
BRANCH   1   7
HETATM    7  C1  UNL     1       6.535 -32.359 -31.596  1.00  0.00     0.174 C 
HETATM    8  N1  UNL     1       6.954 -31.887 -30.478  1.00  0.00    -0.395 N 
ATOM      9  H12 UNL     1       7.821 -32.272 -30.103  1.00  0.00     0.156 HD
ATOM     10  H11 UNL     1       6.464 -31.158 -29.959  1.00  0.00     0.156 HD
ENDBRANCH   1   7
TORSDOF 1
ENDMDL
