MODEL 1
REMARK VINA RESULT: -4.930945478      0.000      0.000
REMARK  1 active torsions:
REMARK  status: ('A' for Active; 'I' for Inactive)
REMARK    1  A    between atoms: N1_4  and  C4_5 
ROOT
HETATM    1  C4  UNL     1       6.493 -30.379 -32.426  1.00  0.00     0.101 C 
HETATM    2  N2  UNL     1       6.390 -31.002 -31.302  1.00  0.00    -0.377 N 
ATOM      3  H2  UNL     1       5.703 -30.741 -30.594  1.00  0.00     0.160 HD
HETATM    4  C5  UNL     1       7.321 -32.100 -31.116  1.00  0.00     0.148 C 
HETATM    5  C6  UNL     1       7.411 -32.994 -32.331  1.00  0.00     0.252 C 
HETATM    6  N3  UNL     1       7.267 -32.278 -33.583  1.00  0.00    -0.067 N 
ATOM      7  H31 UNL     1       6.357 -32.433 -34.016  1.00  0.00     0.277 HD
ATOM      8  H32 UNL     1       7.848 -32.673 -34.323  1.00  0.00     0.277 HD
HETATM    9  C7  UNL     1       7.540 -30.872 -33.360  1.00  0.00     0.307 C 
ENDROOT
BRANCH   1  10
HETATM   10  N1  UNL     1       5.699 -29.283 -32.829  1.00  0.00    -0.370 N 
HETATM   11  C3  UNL     1       4.557 -28.779 -32.091  1.00  0.00     0.124 C 
HETATM   12  C2  UNL     1       3.882 -27.775 -33.002  1.00  0.00     0.021 C 
HETATM   13  C1  UNL     1       4.381 -28.205 -34.365  1.00  0.00     0.021 C 
HETATM   14  C8  UNL     1       5.854 -28.462 -34.021  1.00  0.00     0.124 C 
ENDBRANCH   1  10
TORSDOF 1
ENDMDL
MODEL 2
REMARK VINA RESULT: -4.687976127      0.711      1.321
REMARK  1 active torsions:
REMARK  status: ('A' for Active; 'I' for Inactive)
REMARK    1  A    between atoms: N1_4  and  C4_5 
ROOT
HETATM    1  C4  UNL     1       6.288 -30.559 -32.830  1.00  0.00     0.101 C 
HETATM    2  N2  UNL     1       6.148 -31.042 -31.644  1.00  0.00    -0.377 N 
ATOM      3  H2  UNL     1       5.359 -30.800 -31.044  1.00  0.00     0.160 HD
HETATM    4  C5  UNL     1       7.195 -31.955 -31.222  1.00  0.00     0.148 C 
HETATM    5  C6  UNL     1       7.538 -32.973 -32.286  1.00  0.00     0.252 C 
HETATM    6  N3  UNL     1       7.435 -32.452 -33.634  1.00  0.00    -0.067 N 
ATOM      7  H31 UNL     1       6.607 -32.794 -34.121  1.00  0.00     0.277 HD
ATOM      8  H32 UNL     1       8.141 -32.845 -34.256  1.00  0.00     0.277 HD
HETATM    9  C7  UNL     1       7.487 -31.004 -33.588  1.00  0.00     0.307 C 
ENDROOT
BRANCH   1  10
HETATM   10  N1  UNL     1       5.399 -29.654 -33.454  1.00  0.00    -0.370 N 
HETATM   11  C3  UNL     1       5.265 -29.490 -34.888  1.00  0.00     0.124 C 
HETATM   12  C2  UNL     1       4.394 -28.268 -35.087  1.00  0.00     0.021 C 
HETATM   13  C1  UNL     1       4.568 -27.541 -33.771  1.00  0.00     0.021 C 
HETATM   14  C8  UNL     1       4.470 -28.735 -32.813  1.00  0.00     0.124 C 
ENDBRANCH   1  10
TORSDOF 1
ENDMDL
MODEL 3
REMARK VINA RESULT: -4.664687450      1.251      1.846
REMARK  1 active torsions:
REMARK  status: ('A' for Active; 'I' for Inactive)
REMARK    1  A    between atoms: N1_4  and  C4_5 
ROOT
HETATM    1  C4  UNL     1       5.863 -29.481 -33.146  1.00  0.00     0.101 C 
HETATM    2  N2  UNL     1       5.599 -30.339 -32.221  1.00  0.00    -0.377 N 
ATOM      3  H2  UNL     1       4.666 -30.442 -31.821  1.00  0.00     0.160 HD
HETATM    4  C5  UNL     1       6.725 -31.148 -31.790  1.00  0.00     0.148 C 
HETATM    5  C6  UNL     1       7.524 -31.692 -32.951  1.00  0.00     0.252 C 
HETATM    6  N3  UNL     1       7.584 -30.788 -34.082  1.00  0.00    -0.067 N 
ATOM      7  H31 UNL     1       6.988 -31.090 -34.852  1.00  0.00     0.277 HD
ATOM      8  H32 UNL     1       8.480 -30.833 -34.567  1.00  0.00     0.277 HD
HETATM    9  C7  UNL     1       7.267 -29.446 -33.633  1.00  0.00     0.307 C 
ENDROOT
BRANCH   1  10
HETATM   10  N1  UNL     1       4.932 -28.588 -33.722  1.00  0.00    -0.370 N 
HETATM   11  C3  UNL     1       4.783 -28.361 -35.147  1.00  0.00     0.124 C 
HETATM   12  C2  UNL     1       3.857 -27.171 -35.284  1.00  0.00     0.021 C 
HETATM   13  C1  UNL     1       4.006 -26.502 -33.934  1.00  0.00     0.021 C 
HETATM   14  C8  UNL     1       3.966 -27.744 -33.035  1.00  0.00     0.124 C 
ENDBRANCH   1  10
TORSDOF 1
ENDMDL
MODEL 4
REMARK VINA RESULT: -4.664495914      0.883      1.561
REMARK  1 active torsions:
REMARK  status: ('A' for Active; 'I' for Inactive)
REMARK    1  A    between atoms: N1_4  and  C4_5 
ROOT
HETATM    1  C4  UNL     1       5.930 -30.298 -31.908  1.00  0.00     0.101 C 
HETATM    2  N2  UNL     1       6.072 -31.035 -30.860  1.00  0.00    -0.377 N 
ATOM      3  H2  UNL     1       5.440 -30.976 -30.061  1.00  0.00     0.160 HD
HETATM    4  C5  UNL     1       7.196 -31.953 -30.898  1.00  0.00     0.148 C 
HETATM    5  C6  UNL     1       7.293 -32.694 -32.211  1.00  0.00     0.252 C 
HETATM    6  N3  UNL     1       6.879 -31.900 -33.350  1.00  0.00    -0.067 N 
ATOM      7  H31 UNL     1       5.964 -32.178 -33.705  1.00  0.00     0.277 HD
ATOM      8  H32 UNL     1       7.426 -32.106 -34.186  1.00  0.00     0.277 HD
HETATM    9  C7  UNL     1       6.927 -30.496 -32.993  1.00  0.00     0.307 C 
ENDROOT
BRANCH   1  10
HETATM   10  N1  UNL     1       4.915 -29.335 -32.099  1.00  0.00    -0.370 N 
HETATM   11  C3  UNL     1       4.773 -28.512 -33.285  1.00  0.00     0.124 C 
HETATM   12  C2  UNL     1       3.717 -27.480 -32.952  1.00  0.00     0.021 C 
HETATM   13  C1  UNL     1       3.754 -27.471 -31.438  1.00  0.00     0.021 C 
HETATM   14  C8  UNL     1       3.840 -28.982 -31.183  1.00  0.00     0.124 C 
ENDBRANCH   1  10
TORSDOF 1
ENDMDL
MODEL 5
REMARK VINA RESULT: -4.615631147      1.921      3.152
REMARK  1 active torsions:
REMARK  status: ('A' for Active; 'I' for Inactive)
REMARK    1  A    between atoms: N1_4  and  C4_5 
ROOT
HETATM    1  C4  UNL     1       7.560 -32.433 -33.986  1.00  0.00     0.101 C 
HETATM    2  N2  UNL     1       8.311 -32.716 -34.995  1.00  0.00    -0.377 N 
ATOM      3  H2  UNL     1       8.816 -32.001 -35.519  1.00  0.00     0.160 HD
HETATM    4  C5  UNL     1       8.385 -34.126 -35.333  1.00  0.00     0.148 C 
HETATM    5  C6  UNL     1       8.598 -35.001 -34.119  1.00  0.00     0.252 C 
HETATM    6  N3  UNL     1       7.936 -34.504 -32.930  1.00  0.00    -0.067 N 
ATOM      7  H31 UNL     1       8.590 -34.090 -32.266  1.00  0.00     0.277 HD
ATOM      8  H32 UNL     1       7.586 -35.257 -32.337  1.00  0.00     0.277 HD
HETATM    9  C7  UNL     1       6.889 -33.580 -33.321  1.00  0.00     0.307 C 
ENDROOT
BRANCH   1  10
HETATM   10  N1  UNL     1       7.334 -31.136 -33.475  1.00  0.00    -0.370 N 
HETATM   11  C3  UNL     1       6.436 -30.829 -32.378  1.00  0.00     0.124 C 
HETATM   12  C2  UNL     1       6.330 -29.319 -32.337  1.00  0.00     0.021 C 
HETATM   13  C1  UNL     1       6.739 -28.939 -33.744  1.00  0.00     0.021 C 
HETATM   14  C8  UNL     1       7.932 -29.886 -33.922  1.00  0.00     0.124 C 
ENDBRANCH   1  10
TORSDOF 1
ENDMDL
