MODEL 1
REMARK VINA RESULT: -5.434635278      0.000      0.000
REMARK  2 active torsions:
REMARK  status: ('A' for Active; 'I' for Inactive)
REMARK    1  A    between atoms: C5_6  and  C6_7 
REMARK    2  A    between atoms: N1_8  and  O2_10 
ROOT
HETATM    1  C1  UNL     1       7.673 -29.535 -34.032  1.00  0.00     0.040 C 
HETATM    2  C2  UNL     1       6.340 -29.899 -34.577  1.00  0.00     0.122 C 
HETATM    3  O1  UNL     1       5.640 -28.730 -34.856  1.00  0.00    -0.380 OA
HETATM    4  C3  UNL     1       5.185 -28.245 -33.629  1.00  0.00     0.127 C 
HETATM    5  C4  UNL     1       3.977 -27.366 -33.884  1.00  0.00     0.040 C 
HETATM    6  C5  UNL     1       4.812 -29.471 -32.808  1.00  0.00     0.061 C 
HETATM    7  C7  UNL     1       5.430 -30.581 -33.588  1.00  0.00     0.022 C 
HETATM    8  C8  UNL     1       6.088 -31.634 -32.780  1.00  0.00     0.013 C 
ENDROOT
BRANCH   6   9
HETATM    9  C6  UNL     1       5.242 -29.378 -31.417  1.00  0.00     0.094 C 
HETATM   10  N1  UNL     1       4.458 -29.075 -30.446  1.00  0.00    -0.284 N 
ATOM     11  H1  UNL     1       3.481 -28.891 -30.671  1.00  0.00     0.192 HD
BRANCH  10  12
HETATM   12  O2  UNL     1       4.827 -28.981 -29.149  1.00  0.00    -0.291 OA
ATOM     13  H2  UNL     1       4.579 -28.278 -28.560  1.00  0.00     0.244 HD
ENDBRANCH  10  12
ENDBRANCH   6   9
TORSDOF 2
ENDMDL
MODEL 2
REMARK VINA RESULT: -5.259225076      2.296      2.781
REMARK  2 active torsions:
REMARK  status: ('A' for Active; 'I' for Inactive)
REMARK    1  A    between atoms: C5_6  and  C6_7 
REMARK    2  A    between atoms: N1_8  and  O2_10 
ROOT
HETATM    1  C1  UNL     1       6.897 -28.949 -33.398  1.00  0.00     0.040 C 
HETATM    2  C2  UNL     1       5.645 -29.590 -33.877  1.00  0.00     0.122 C 
HETATM    3  O1  UNL     1       5.414 -29.189 -35.188  1.00  0.00    -0.380 OA
HETATM    4  C3  UNL     1       4.910 -27.889 -35.116  1.00  0.00     0.127 C 
HETATM    5  C4  UNL     1       4.111 -27.618 -36.373  1.00  0.00     0.040 C 
HETATM    6  C5  UNL     1       4.023 -27.853 -33.879  1.00  0.00     0.061 C 
HETATM    7  C7  UNL     1       4.398 -29.115 -33.177  1.00  0.00     0.022 C 
HETATM    8  C8  UNL     1       4.527 -29.008 -31.706  1.00  0.00     0.013 C 
ENDROOT
BRANCH   6   9
HETATM    9  C6  UNL     1       4.190 -26.635 -33.092  1.00  0.00     0.094 C 
HETATM   10  N1  UNL     1       3.212 -25.924 -32.661  1.00  0.00    -0.284 N 
ATOM     11  H1  UNL     1       2.268 -26.238 -32.885  1.00  0.00     0.192 HD
BRANCH  10  12
HETATM   12  O2  UNL     1       3.334 -24.793 -31.931  1.00  0.00    -0.291 OA
ATOM     13  H2  UNL     1       2.753 -24.044 -31.984  1.00  0.00     0.244 HD
ENDBRANCH  10  12
ENDBRANCH   6   9
TORSDOF 2
ENDMDL
MODEL 3
REMARK VINA RESULT: -5.208360928      2.601      3.214
REMARK  2 active torsions:
REMARK  status: ('A' for Active; 'I' for Inactive)
REMARK    1  A    between atoms: C5_6  and  C6_7 
REMARK    2  A    between atoms: N1_8  and  O2_10 
ROOT
HETATM    1  C1  UNL     1       8.189 -29.584 -34.132  1.00  0.00     0.040 C 
HETATM    2  C2  UNL     1       6.709 -29.663 -34.236  1.00  0.00     0.122 C 
HETATM    3  O1  UNL     1       6.154 -29.135 -33.075  1.00  0.00    -0.380 OA
HETATM    4  C3  UNL     1       6.297 -30.115 -32.092  1.00  0.00     0.127 C 
HETATM    5  C4  UNL     1       5.245 -29.880 -31.028  1.00  0.00     0.040 C 
HETATM    6  C5  UNL     1       6.082 -31.447 -32.797  1.00  0.00     0.061 C 
HETATM    7  C7  UNL     1       6.160 -31.066 -34.237  1.00  0.00     0.022 C 
HETATM    8  C8  UNL     1       6.902 -32.011 -35.103  1.00  0.00     0.013 C 
ENDROOT
BRANCH   6   9
HETATM    9  C6  UNL     1       7.030 -32.474 -32.377  1.00  0.00     0.094 C 
HETATM   10  N1  UNL     1       7.817 -32.350 -31.369  1.00  0.00    -0.284 N 
ATOM     11  H1  UNL     1       7.767 -31.481 -30.840  1.00  0.00     0.192 HD
BRANCH  10  12
HETATM   12  O2  UNL     1       8.705 -33.282 -30.956  1.00  0.00    -0.291 OA
ATOM     13  H2  UNL     1       9.647 -33.224 -31.063  1.00  0.00     0.244 HD
ENDBRANCH  10  12
ENDBRANCH   6   9
TORSDOF 2
ENDMDL
MODEL 4
REMARK VINA RESULT: -5.073076070      1.453      2.926
REMARK  2 active torsions:
REMARK  status: ('A' for Active; 'I' for Inactive)
REMARK    1  A    between atoms: C5_6  and  C6_7 
REMARK    2  A    between atoms: N1_8  and  O2_10 
ROOT
HETATM    1  C1  UNL     1       4.990 -30.881 -34.610  1.00  0.00     0.040 C 
HETATM    2  C2  UNL     1       6.376 -30.490 -34.244  1.00  0.00     0.122 C 
HETATM    3  O1  UNL     1       6.922 -31.487 -33.444  1.00  0.00    -0.380 OA
HETATM    4  C3  UNL     1       6.367 -31.316 -32.174  1.00  0.00     0.127 C 
HETATM    5  C4  UNL     1       7.305 -31.935 -31.158  1.00  0.00     0.040 C 
HETATM    6  C5  UNL     1       6.247 -29.812 -31.970  1.00  0.00     0.061 C 
HETATM    7  C7  UNL     1       6.464 -29.282 -33.347  1.00  0.00     0.022 C 
HETATM    8  C8  UNL     1       5.578 -28.163 -33.743  1.00  0.00     0.013 C 
ENDROOT
BRANCH   6   9
HETATM    9  C6  UNL     1       4.986 -29.420 -31.348  1.00  0.00     0.094 C 
HETATM   10  N1  UNL     1       4.893 -28.958 -30.154  1.00  0.00    -0.284 N 
ATOM     11  H1  UNL     1       5.755 -28.863 -29.618  1.00  0.00     0.192 HD
BRANCH  10  12
HETATM   12  O2  UNL     1       3.742 -28.587 -29.550  1.00  0.00    -0.291 OA
ATOM     13  H2  UNL     1       3.470 -27.691 -29.395  1.00  0.00     0.244 HD
ENDBRANCH  10  12
ENDBRANCH   6   9
TORSDOF 2
ENDMDL
MODEL 5
REMARK VINA RESULT: -5.034365359      2.514      3.030
REMARK  2 active torsions:
REMARK  status: ('A' for Active; 'I' for Inactive)
REMARK    1  A    between atoms: C5_6  and  C6_7 
REMARK    2  A    between atoms: N1_8  and  O2_10 
ROOT
HETATM    1  C1  UNL     1       6.555 -28.950 -34.334  1.00  0.00     0.040 C 
HETATM    2  C2  UNL     1       5.267 -29.593 -33.964  1.00  0.00     0.122 C 
HETATM    3  O1  UNL     1       4.809 -29.022 -32.782  1.00  0.00    -0.380 OA
HETATM    4  C3  UNL     1       5.569 -29.586 -31.756  1.00  0.00     0.127 C 
HETATM    5  C4  UNL     1       4.779 -29.485 -30.468  1.00  0.00     0.040 C 
HETATM    6  C5  UNL     1       5.794 -31.039 -32.154  1.00  0.00     0.061 C 
HETATM    7  C7  UNL     1       5.384 -31.047 -33.587  1.00  0.00     0.022 C 
HETATM    8  C8  UNL     1       6.248 -31.843 -34.489  1.00  0.00     0.013 C 
ENDROOT
BRANCH   6   9
HETATM    9  C6  UNL     1       7.156 -31.495 -31.897  1.00  0.00     0.094 C 
HETATM   10  N1  UNL     1       7.444 -32.503 -31.154  1.00  0.00    -0.284 N 
ATOM     11  H1  UNL     1       6.668 -33.005 -30.724  1.00  0.00     0.192 HD
BRANCH  10  12
HETATM   12  O2  UNL     1       8.693 -32.949 -30.898  1.00  0.00    -0.291 OA
ATOM     13  H2  UNL     1       9.156 -32.835 -30.076  1.00  0.00     0.244 HD
ENDBRANCH  10  12
ENDBRANCH   6   9
TORSDOF 2
ENDMDL
