MODEL 1
REMARK VINA RESULT: -4.547878466      0.000      0.000
REMARK  2 active torsions:
REMARK  status: ('A' for Active; 'I' for Inactive)
REMARK    1  A    between atoms: C5_6  and  C6_7 
REMARK    2  A    between atoms: C6_7  and  O2_8 
ROOT
HETATM    1  C1  UNL     1       5.678 -30.053 -34.519  1.00  0.00     0.029 C 
HETATM    2  C2  UNL     1       6.960 -30.585 -33.960  1.00  0.00     0.022 C 
HETATM    3  C3  UNL     1       8.076 -29.580 -33.945  1.00  0.00     0.029 C 
HETATM    4  C4  UNL     1       7.424 -31.813 -34.756  1.00  0.00     0.188 C 
HETATM    5  O1  UNL     1       8.275 -32.603 -34.038  1.00  0.00    -0.381 OA
HETATM    6  C5  UNL     1       7.702 -33.499 -33.192  1.00  0.00     0.154 C 
HETATM    7  C7  UNL     1       6.387 -33.017 -32.588  1.00  0.00     0.108 C 
HETATM    8  S1  UNL     1       6.610 -31.229 -32.291  1.00  0.00    -0.155 SA
ENDROOT
BRANCH   6   9
HETATM    9  C6  UNL     1       7.451 -34.859 -33.777  1.00  0.00     0.196 C 
BRANCH   9  10
HETATM   10  O2  UNL     1       8.007 -35.841 -32.963  1.00  0.00    -0.398 OA
ATOM     11  H2  UNL     1       7.325 -36.408 -32.621  1.00  0.00     0.209 HD
ENDBRANCH   9  10
ENDBRANCH   6   9
TORSDOF 2
ENDMDL
MODEL 2
REMARK VINA RESULT: -4.463467057      3.667      4.884
REMARK  2 active torsions:
REMARK  status: ('A' for Active; 'I' for Inactive)
REMARK    1  A    between atoms: C5_6  and  C6_7 
REMARK    2  A    between atoms: C6_7  and  O2_8 
ROOT
HETATM    1  C1  UNL     1       5.802 -31.051 -34.636  1.00  0.00     0.029 C 
HETATM    2  C2  UNL     1       6.344 -29.999 -33.720  1.00  0.00     0.022 C 
HETATM    3  C3  UNL     1       7.813 -29.743 -33.895  1.00  0.00     0.029 C 
HETATM    4  C4  UNL     1       6.090 -30.382 -32.255  1.00  0.00     0.188 C 
HETATM    5  O1  UNL     1       6.112 -29.298 -31.426  1.00  0.00    -0.381 OA
HETATM    6  C5  UNL     1       4.960 -28.584 -31.328  1.00  0.00     0.154 C 
HETATM    7  C7  UNL     1       4.141 -28.567 -32.615  1.00  0.00     0.108 C 
HETATM    8  S1  UNL     1       5.360 -28.485 -33.972  1.00  0.00    -0.155 SA
ENDROOT
BRANCH   6   9
HETATM    9  C6  UNL     1       4.039 -29.005 -30.220  1.00  0.00     0.196 C 
BRANCH   9  10
HETATM   10  O2  UNL     1       4.712 -28.980 -29.002  1.00  0.00    -0.398 OA
ATOM     11  H2  UNL     1       4.089 -29.005 -28.285  1.00  0.00     0.209 HD
ENDBRANCH   9  10
ENDBRANCH   6   9
TORSDOF 2
ENDMDL
MODEL 3
REMARK VINA RESULT: -4.446249478      3.461      4.536
REMARK  2 active torsions:
REMARK  status: ('A' for Active; 'I' for Inactive)
REMARK    1  A    between atoms: C5_6  and  C6_7 
REMARK    2  A    between atoms: C6_7  and  O2_8 
ROOT
HETATM    1  C1  UNL     1      10.187 -35.959 -37.433  1.00  0.00     0.029 C 
HETATM    2  C2  UNL     1      10.106 -34.718 -36.601  1.00  0.00     0.022 C 
HETATM    3  C3  UNL     1      11.084 -33.653 -37.007  1.00  0.00     0.029 C 
HETATM    4  C4  UNL     1      10.337 -35.050 -35.120  1.00  0.00     0.188 C 
HETATM    5  O1  UNL     1       9.816 -34.100 -34.290  1.00  0.00    -0.381 OA
HETATM    6  C5  UNL     1       8.493 -34.208 -33.998  1.00  0.00     0.154 C 
HETATM    7  C7  UNL     1       7.662 -34.792 -35.137  1.00  0.00     0.108 C 
HETATM    8  S1  UNL     1       8.386 -34.117 -36.670  1.00  0.00    -0.155 SA
ENDROOT
BRANCH   6   9
HETATM    9  C6  UNL     1       8.173 -34.998 -32.763  1.00  0.00     0.196 C 
BRANCH   9  10
HETATM   10  O2  UNL     1       9.059 -34.670 -31.741  1.00  0.00    -0.398 OA
ATOM     11  H2  UNL     1       9.943 -34.923 -31.980  1.00  0.00     0.209 HD
ENDBRANCH   9  10
ENDBRANCH   6   9
TORSDOF 2
ENDMDL
MODEL 4
REMARK VINA RESULT: -4.427422134      2.220      3.779
REMARK  2 active torsions:
REMARK  status: ('A' for Active; 'I' for Inactive)
REMARK    1  A    between atoms: C5_6  and  C6_7 
REMARK    2  A    between atoms: C6_7  and  O2_8 
ROOT
HETATM    1  C1  UNL     1       7.541 -35.161 -35.641  1.00  0.00     0.029 C 
HETATM    2  C2  UNL     1       8.390 -34.302 -34.758  1.00  0.00     0.022 C 
HETATM    3  C3  UNL     1       9.856 -34.616 -34.837  1.00  0.00     0.029 C 
HETATM    4  C4  UNL     1       7.944 -34.431 -33.295  1.00  0.00     0.188 C 
HETATM    5  O1  UNL     1       8.327 -33.360 -32.540  1.00  0.00    -0.381 OA
HETATM    6  C5  UNL     1       7.518 -32.270 -32.580  1.00  0.00     0.154 C 
HETATM    7  C7  UNL     1       6.825 -32.070 -33.924  1.00  0.00     0.108 C 
HETATM    8  S1  UNL     1       8.049 -32.562 -35.186  1.00  0.00    -0.155 SA
ENDROOT
BRANCH   6   9
HETATM    9  C6  UNL     1       6.456 -32.224 -31.520  1.00  0.00     0.196 C 
BRANCH   9  10
HETATM   10  O2  UNL     1       7.011 -31.848 -30.300  1.00  0.00    -0.398 OA
ATOM     11  H2  UNL     1       6.574 -32.301 -29.589  1.00  0.00     0.209 HD
ENDBRANCH   9  10
ENDBRANCH   6   9
TORSDOF 2
ENDMDL
MODEL 5
REMARK VINA RESULT: -4.423430794      1.654      2.084
REMARK  2 active torsions:
REMARK  status: ('A' for Active; 'I' for Inactive)
REMARK    1  A    between atoms: C5_6  and  C6_7 
REMARK    2  A    between atoms: C6_7  and  O2_8 
ROOT
HETATM    1  C1  UNL     1       7.613 -29.447 -33.699  1.00  0.00     0.029 C 
HETATM    2  C2  UNL     1       6.771 -30.592 -33.230  1.00  0.00     0.022 C 
HETATM    3  C3  UNL     1       5.537 -30.170 -32.485  1.00  0.00     0.029 C 
HETATM    4  C4  UNL     1       7.589 -31.525 -32.326  1.00  0.00     0.188 C 
HETATM    5  O1  UNL     1       7.060 -32.782 -32.267  1.00  0.00    -0.381 OA
HETATM    6  C5  UNL     1       7.400 -33.631 -33.272  1.00  0.00     0.154 C 
HETATM    7  C7  UNL     1       7.616 -32.937 -34.613  1.00  0.00     0.108 C 
HETATM    8  S1  UNL     1       6.363 -31.611 -34.686  1.00  0.00    -0.155 SA
ENDROOT
BRANCH   6   9
HETATM    9  C6  UNL     1       8.611 -34.479 -33.009  1.00  0.00     0.196 C 
BRANCH   9  10
HETATM   10  O2  UNL     1       8.982 -34.384 -31.671  1.00  0.00    -0.398 OA
ATOM     11  H2  UNL     1       8.210 -34.325 -31.122  1.00  0.00     0.209 HD
ENDBRANCH   9  10
ENDBRANCH   6   9
TORSDOF 2
ENDMDL
