MODEL 1
REMARK VINA RESULT: -5.202099925      0.000      0.000
REMARK  2 active torsions:
REMARK  status: ('A' for Active; 'I' for Inactive)
REMARK    1  A    between atoms: O1_2  and  C2_3 
REMARK    2  A    between atoms: C2_3  and  C5_7 
ROOT
HETATM    1  C2  UNL     1       6.938 -32.230 -33.036  1.00  0.00     0.148 C 
HETATM    2  C3  UNL     1       7.822 -32.343 -34.296  1.00  0.00     0.063 C 
HETATM    3  C4  UNL     1       7.790 -32.396 -31.887  1.00  0.00     0.098 C 
HETATM    4  N1  UNL     1       8.486 -32.546 -30.977  1.00  0.00    -0.194 NA
ENDROOT
BRANCH   1   5
HETATM    5  O1  UNL     1       6.129 -33.395 -33.112  1.00  0.00    -0.370 OA
HETATM    6  C1  UNL     1       6.839 -34.461 -33.620  1.00  0.00     0.204 C 
ENDBRANCH   1   5
BRANCH   1   7
HETATM    7  C5  UNL     1       6.051 -31.077 -33.090  1.00  0.00     0.042 C 
HETATM    8  C6  UNL     1       6.095 -29.975 -32.107  1.00  0.00    -0.006 C 
HETATM    9  C7  UNL     1       4.753 -29.282 -32.417  1.00  0.00     0.005 C 
HETATM   10  C10 UNL     1       6.971 -29.190 -33.041  1.00  0.00     0.010 C 
HETATM   11  C8  UNL     1       4.871 -29.270 -33.958  1.00  0.00     0.005 C 
HETATM   12  C9  UNL     1       6.208 -29.989 -34.096  1.00  0.00    -0.006 C 
ENDBRANCH   1   7
TORSDOF 2
ENDMDL
MODEL 2
REMARK VINA RESULT: -5.167663201      1.999      2.754
REMARK  2 active torsions:
REMARK  status: ('A' for Active; 'I' for Inactive)
REMARK    1  A    between atoms: O1_2  and  C2_3 
REMARK    2  A    between atoms: C2_3  and  C5_7 
ROOT
HETATM    1  C2  UNL     1       7.498 -30.061 -34.285  1.00  0.00     0.148 C 
HETATM    2  C3  UNL     1       8.835 -29.292 -34.343  1.00  0.00     0.063 C 
HETATM    3  C4  UNL     1       7.606 -31.048 -33.242  1.00  0.00     0.098 C 
HETATM    4  N1  UNL     1       7.716 -31.845 -32.413  1.00  0.00    -0.194 NA
ENDROOT
BRANCH   1   5
HETATM    5  O1  UNL     1       7.486 -30.770 -35.515  1.00  0.00    -0.370 OA
HETATM    6  C1  UNL     1       8.742 -31.243 -35.827  1.00  0.00     0.204 C 
ENDBRANCH   1   5
BRANCH   1   7
HETATM    7  C5  UNL     1       6.350 -29.165 -34.284  1.00  0.00     0.042 C 
HETATM    8  C6  UNL     1       5.039 -29.528 -34.859  1.00  0.00    -0.006 C 
HETATM    9  C7  UNL     1       4.377 -28.137 -34.923  1.00  0.00     0.005 C 
HETATM   10  C10 UNL     1       4.565 -29.937 -33.494  1.00  0.00     0.010 C 
HETATM   11  C8  UNL     1       4.762 -27.653 -33.507  1.00  0.00     0.005 C 
HETATM   12  C9  UNL     1       5.563 -28.868 -33.054  1.00  0.00    -0.006 C 
ENDBRANCH   1   7
TORSDOF 2
ENDMDL
MODEL 3
REMARK VINA RESULT: -5.066073701      1.652      2.085
REMARK  2 active torsions:
REMARK  status: ('A' for Active; 'I' for Inactive)
REMARK    1  A    between atoms: O1_2  and  C2_3 
REMARK    2  A    between atoms: C2_3  and  C5_7 
ROOT
HETATM    1  C2  UNL     1       6.922 -31.913 -33.386  1.00  0.00     0.148 C 
HETATM    2  C3  UNL     1       6.198 -33.128 -32.770  1.00  0.00     0.063 C 
HETATM    3  C4  UNL     1       7.638 -32.372 -34.548  1.00  0.00     0.098 C 
HETATM    4  N1  UNL     1       8.218 -32.762 -35.468  1.00  0.00    -0.194 NA
ENDROOT
BRANCH   1   5
HETATM    5  O1  UNL     1       7.900 -31.597 -32.406  1.00  0.00    -0.370 OA
HETATM    6  C1  UNL     1       7.865 -32.495 -31.362  1.00  0.00     0.204 C 
ENDBRANCH   1   5
BRANCH   1   7
HETATM    7  C5  UNL     1       6.043 -30.759 -33.516  1.00  0.00     0.042 C 
HETATM    8  C6  UNL     1       6.068 -29.613 -32.584  1.00  0.00    -0.006 C 
HETATM    9  C7  UNL     1       4.738 -28.929 -32.962  1.00  0.00     0.005 C 
HETATM   10  C10 UNL     1       6.973 -28.876 -33.529  1.00  0.00     0.010 C 
HETATM   11  C8  UNL     1       4.897 -28.989 -34.497  1.00  0.00     0.005 C 
HETATM   12  C9  UNL     1       6.233 -29.719 -34.567  1.00  0.00    -0.006 C 
ENDBRANCH   1   7
TORSDOF 2
ENDMDL
MODEL 4
REMARK VINA RESULT: -5.030805881      4.066      5.804
REMARK  2 active torsions:
REMARK  status: ('A' for Active; 'I' for Inactive)
REMARK    1  A    between atoms: O1_2  and  C2_3 
REMARK    2  A    between atoms: C2_3  and  C5_7 
ROOT
HETATM    1  C2  UNL     1       4.215 -26.881 -33.983  1.00  0.00     0.148 C 
HETATM    2  C3  UNL     1       4.683 -25.432 -33.731  1.00  0.00     0.063 C 
HETATM    3  C4  UNL     1       3.797 -26.973 -35.357  1.00  0.00     0.098 C 
HETATM    4  N1  UNL     1       3.453 -27.026 -36.459  1.00  0.00    -0.194 NA
ENDROOT
BRANCH   1   5
HETATM    5  O1  UNL     1       3.037 -26.974 -33.194  1.00  0.00    -0.370 OA
HETATM    6  C1  UNL     1       3.072 -26.084 -32.143  1.00  0.00     0.204 C 
ENDBRANCH   1   5
BRANCH   1   7
HETATM    7  C5  UNL     1       5.163 -27.860 -33.471  1.00  0.00     0.042 C 
HETATM    8  C6  UNL     1       4.754 -29.142 -32.862  1.00  0.00    -0.006 C 
HETATM    9  C7  UNL     1       6.078 -29.558 -32.190  1.00  0.00     0.005 C 
HETATM   10  C10 UNL     1       4.952 -29.823 -34.185  1.00  0.00     0.010 C 
HETATM   11  C8  UNL     1       7.021 -29.255 -33.376  1.00  0.00     0.005 C 
HETATM   12  C9  UNL     1       5.992 -28.718 -34.364  1.00  0.00    -0.006 C 
ENDBRANCH   1   7
TORSDOF 2
ENDMDL
MODEL 5
REMARK VINA RESULT: -4.974298344      1.714      2.424
REMARK  2 active torsions:
REMARK  status: ('A' for Active; 'I' for Inactive)
REMARK    1  A    between atoms: O1_2  and  C2_3 
REMARK    2  A    between atoms: C2_3  and  C5_7 
ROOT
HETATM    1  C2  UNL     1       7.219 -32.032 -33.323  1.00  0.00     0.148 C 
HETATM    2  C3  UNL     1       6.291 -33.234 -33.050  1.00  0.00     0.063 C 
HETATM    3  C4  UNL     1       8.055 -32.370 -34.446  1.00  0.00     0.098 C 
HETATM    4  N1  UNL     1       8.727 -32.664 -35.339  1.00  0.00    -0.194 NA
ENDROOT
BRANCH   1   5
HETATM    5  O1  UNL     1       8.063 -32.018 -32.181  1.00  0.00    -0.370 OA
HETATM    6  C1  UNL     1       7.324 -32.045 -31.018  1.00  0.00     0.204 C 
ENDBRANCH   1   5
BRANCH   1   7
HETATM    7  C5  UNL     1       6.492 -30.771 -33.346  1.00  0.00     0.042 C 
HETATM    8  C6  UNL     1       6.624 -29.779 -34.432  1.00  0.00    -0.006 C 
HETATM    9  C7  UNL     1       5.965 -28.555 -33.762  1.00  0.00     0.005 C 
HETATM   10  C10 UNL     1       5.403 -30.354 -35.092  1.00  0.00     0.010 C 
HETATM   11  C8  UNL     1       4.721 -29.271 -33.190  1.00  0.00     0.005 C 
HETATM   12  C9  UNL     1       5.034 -30.690 -33.648  1.00  0.00    -0.006 C 
ENDBRANCH   1   7
TORSDOF 2
ENDMDL
