MODEL 1
REMARK VINA RESULT: -5.660116544      0.000      0.000
REMARK  2 active torsions:
REMARK  status: ('A' for Active; 'I' for Inactive)
REMARK    1  A    between atoms: O1_1  and  N1_3 
REMARK    2  A    between atoms: C1_5  and  C2_6 
ROOT
HETATM    1  C2  UNL     1       4.534 -28.520 -32.118  1.00  0.00     0.263 C 
HETATM    2  C3  UNL     1       3.956 -27.546 -33.147  1.00  0.00     0.043 C 
HETATM    3  C4  UNL     1       4.430 -28.053 -34.492  1.00  0.00     0.038 C 
HETATM    4  C5  UNL     1       5.202 -29.278 -34.124  1.00  0.00     0.224 C 
HETATM    5  C6  UNL     1       6.649 -28.945 -33.849  1.00  0.00     0.037 C 
HETATM    6  C7  UNL     1       7.054 -30.127 -32.975  1.00  0.00     0.032 C 
HETATM    7  C8  UNL     1       5.747 -30.586 -32.352  1.00  0.00     0.274 C 
HETATM    8  N2  UNL     1       4.716 -29.741 -32.857  1.00  0.00     0.102 N 
ENDROOT
BRANCH   1   9
HETATM    9  C1  UNL     1       3.504 -28.653 -31.052  1.00  0.00     0.122 C 
HETATM   10  N1  UNL     1       3.847 -28.744 -29.818  1.00  0.00    -0.282 N 
ATOM     11  H1  UNL     1       3.097 -28.833 -29.132  1.00  0.00     0.192 HD
BRANCH  10  12
HETATM   12  O1  UNL     1       5.116 -28.733 -29.348  1.00  0.00    -0.290 OA
ATOM     13  H1  UNL     1       5.768 -29.407 -29.497  1.00  0.00     0.244 HD
ENDBRANCH  10  12
ENDBRANCH   1   9
TORSDOF 2
ENDMDL
MODEL 2
REMARK VINA RESULT: -5.599272624      2.246      2.458
REMARK  2 active torsions:
REMARK  status: ('A' for Active; 'I' for Inactive)
REMARK    1  A    between atoms: O1_1  and  N1_3 
REMARK    2  A    between atoms: C1_5  and  C2_6 
ROOT
HETATM    1  C2  UNL     1       4.373 -27.410 -33.398  1.00  0.00     0.263 C 
HETATM    2  C3  UNL     1       4.022 -27.309 -34.884  1.00  0.00     0.043 C 
HETATM    3  C4  UNL     1       4.519 -28.597 -35.504  1.00  0.00     0.038 C 
HETATM    4  C5  UNL     1       5.075 -29.331 -34.327  1.00  0.00     0.224 C 
HETATM    5  C6  UNL     1       6.529 -28.988 -34.112  1.00  0.00     0.037 C 
HETATM    6  C7  UNL     1       6.692 -29.337 -32.637  1.00  0.00     0.032 C 
HETATM    7  C8  UNL     1       5.288 -29.199 -32.073  1.00  0.00     0.274 C 
HETATM    8  N2  UNL     1       4.432 -28.826 -33.150  1.00  0.00     0.102 N 
ENDROOT
BRANCH   1   9
HETATM    9  C1  UNL     1       3.257 -26.754 -32.665  1.00  0.00     0.122 C 
HETATM   10  N1  UNL     1       3.248 -25.482 -32.488  1.00  0.00    -0.282 N 
ATOM     11  H1  UNL     1       2.457 -25.088 -31.979  1.00  0.00     0.192 HD
BRANCH  10  12
HETATM   12  O1  UNL     1       4.198 -24.618 -32.918  1.00  0.00    -0.290 OA
ATOM     13  H1  UNL     1       4.036 -23.776 -33.326  1.00  0.00     0.244 HD
ENDBRANCH  10  12
ENDBRANCH   1   9
TORSDOF 2
ENDMDL
MODEL 3
REMARK VINA RESULT: -5.399347687      2.968      3.507
REMARK  2 active torsions:
REMARK  status: ('A' for Active; 'I' for Inactive)
REMARK    1  A    between atoms: O1_1  and  N1_3 
REMARK    2  A    between atoms: C1_5  and  C2_6 
ROOT
HETATM    1  C2  UNL     1       7.061 -30.889 -32.660  1.00  0.00     0.263 C 
HETATM    2  C3  UNL     1       6.637 -29.425 -32.803  1.00  0.00     0.043 C 
HETATM    3  C4  UNL     1       6.360 -29.227 -34.277  1.00  0.00     0.038 C 
HETATM    4  C5  UNL     1       6.613 -30.587 -34.841  1.00  0.00     0.224 C 
HETATM    5  C6  UNL     1       8.062 -30.750 -35.235  1.00  0.00     0.037 C 
HETATM    6  C7  UNL     1       8.199 -32.268 -35.204  1.00  0.00     0.032 C 
HETATM    7  C8  UNL     1       7.121 -32.712 -34.231  1.00  0.00     0.274 C 
HETATM    8  N2  UNL     1       6.443 -31.541 -33.783  1.00  0.00     0.102 N 
ENDROOT
BRANCH   1   9
HETATM    9  C1  UNL     1       6.506 -31.355 -31.362  1.00  0.00     0.122 C 
HETATM   10  N1  UNL     1       7.193 -32.121 -30.593  1.00  0.00    -0.282 N 
ATOM     11  H1  UNL     1       6.761 -32.408 -29.714  1.00  0.00     0.192 HD
BRANCH  10  12
HETATM   12  O1  UNL     1       8.440 -32.581 -30.847  1.00  0.00    -0.290 OA
ATOM     13  H1  UNL     1       8.936 -33.172 -30.293  1.00  0.00     0.244 HD
ENDBRANCH  10  12
ENDBRANCH   1   9
TORSDOF 2
ENDMDL
MODEL 4
REMARK VINA RESULT: -5.246098494      2.418      3.725
REMARK  2 active torsions:
REMARK  status: ('A' for Active; 'I' for Inactive)
REMARK    1  A    between atoms: O1_1  and  N1_3 
REMARK    2  A    between atoms: C1_5  and  C2_6 
ROOT
HETATM    1  C2  UNL     1       6.736 -31.623 -32.867  1.00  0.00     0.263 C 
HETATM    2  C3  UNL     1       6.911 -32.708 -33.931  1.00  0.00     0.043 C 
HETATM    3  C4  UNL     1       7.075 -31.967 -35.240  1.00  0.00     0.038 C 
HETATM    4  C5  UNL     1       7.015 -30.536 -34.813  1.00  0.00     0.224 C 
HETATM    5  C6  UNL     1       5.593 -30.029 -34.816  1.00  0.00     0.037 C 
HETATM    6  C7  UNL     1       5.703 -28.859 -33.845  1.00  0.00     0.032 C 
HETATM    7  C8  UNL     1       6.888 -29.223 -32.967  1.00  0.00     0.274 C 
HETATM    8  N2  UNL     1       7.392 -30.474 -33.430  1.00  0.00     0.102 N 
ENDROOT
BRANCH   1   9
HETATM    9  C1  UNL     1       7.426 -32.126 -31.648  1.00  0.00     0.122 C 
HETATM   10  N1  UNL     1       6.987 -31.830 -30.478  1.00  0.00    -0.282 N 
ATOM     11  H1  UNL     1       7.501 -32.203 -29.680  1.00  0.00     0.192 HD
BRANCH  10  12
HETATM   12  O1  UNL     1       5.903 -31.065 -30.211  1.00  0.00    -0.290 OA
ATOM     13  H1  UNL     1       5.193 -30.882 -30.815  1.00  0.00     0.244 HD
ENDBRANCH  10  12
ENDBRANCH   1   9
TORSDOF 2
ENDMDL
MODEL 5
REMARK VINA RESULT: -5.106901079      3.687      4.914
REMARK  2 active torsions:
REMARK  status: ('A' for Active; 'I' for Inactive)
REMARK    1  A    between atoms: O1_1  and  N1_3 
REMARK    2  A    between atoms: C1_5  and  C2_6 
ROOT
HETATM    1  C2  UNL     1       7.437 -32.474 -32.959  1.00  0.00     0.263 C 
HETATM    2  C3  UNL     1       6.663 -32.161 -31.677  1.00  0.00     0.043 C 
HETATM    3  C4  UNL     1       6.011 -30.818 -31.917  1.00  0.00     0.038 C 
HETATM    4  C5  UNL     1       6.435 -30.495 -33.313  1.00  0.00     0.224 C 
HETATM    5  C6  UNL     1       7.748 -29.750 -33.322  1.00  0.00     0.037 C 
HETATM    6  C7  UNL     1       8.239 -30.050 -34.734  1.00  0.00     0.032 C 
HETATM    7  C8  UNL     1       7.552 -31.358 -35.089  1.00  0.00     0.274 C 
HETATM    8  N2  UNL     1       6.743 -31.729 -33.975  1.00  0.00     0.102 N 
ENDROOT
BRANCH   1   9
HETATM    9  C1  UNL     1       7.325 -33.944 -33.161  1.00  0.00     0.122 C 
HETATM   10  N1  UNL     1       8.118 -34.751 -32.553  1.00  0.00    -0.282 N 
ATOM     11  H1  UNL     1       7.993 -35.748 -32.730  1.00  0.00     0.192 HD
BRANCH  10  12
HETATM   12  O1  UNL     1       9.105 -34.394 -31.698  1.00  0.00    -0.290 OA
ATOM     13  H1  UNL     1       9.976 -34.107 -31.946  1.00  0.00     0.244 HD
ENDBRANCH  10  12
ENDBRANCH   1   9
TORSDOF 2
ENDMDL
