MODEL 1
REMARK VINA RESULT: -5.505805345      0.000      0.000
REMARK  2 active torsions:
REMARK  status: ('A' for Active; 'I' for Inactive)
REMARK    1  A    between atoms: C5_6  and  C6_7 
REMARK    2  A    between atoms: N2_8  and  O1_10 
ROOT
HETATM    1  C1  UNL     1       7.148 -30.104 -34.721  1.00  0.00     0.148 C 
HETATM    2  N1  UNL     1       6.114 -29.198 -34.323  1.00  0.00    -0.398 N 
HETATM    3  C2  UNL     1       4.946 -29.216 -35.106  1.00  0.00     0.121 C 
HETATM    4  C3  UNL     1       4.519 -27.766 -35.360  1.00  0.00     0.021 C 
HETATM    5  C4  UNL     1       4.483 -26.971 -34.084  1.00  0.00     0.012 C 
HETATM    6  C5  UNL     1       3.794 -27.758 -32.992  1.00  0.00     0.031 C 
HETATM    7  C7  UNL     1       4.642 -28.814 -32.388  1.00  0.00     0.054 C 
HETATM    8  C8  UNL     1       6.011 -28.922 -32.958  1.00  0.00     0.058 C 
ENDROOT
BRANCH   6   9
HETATM    9  C6  UNL     1       3.239 -26.793 -32.028  1.00  0.00     0.091 C 
HETATM   10  N2  UNL     1       3.382 -25.537 -32.283  1.00  0.00    -0.284 N 
ATOM     11  H2  UNL     1       3.874 -25.279 -33.139  1.00  0.00     0.192 HD
BRANCH  10  12
HETATM   12  O1  UNL     1       2.922 -24.531 -31.485  1.00  0.00    -0.291 OA
ATOM     13  H1  UNL     1       3.469 -24.008 -30.911  1.00  0.00     0.244 HD
ENDBRANCH  10  12
ENDBRANCH   6   9
TORSDOF 2
ENDMDL
MODEL 2
REMARK VINA RESULT: -5.315676833      3.115      4.508
REMARK  2 active torsions:
REMARK  status: ('A' for Active; 'I' for Inactive)
REMARK    1  A    between atoms: C5_6  and  C6_7 
REMARK    2  A    between atoms: N2_8  and  O1_10 
ROOT
HETATM    1  C1  UNL     1       2.656 -26.334 -32.569  1.00  0.00     0.148 C 
HETATM    2  N1  UNL     1       3.583 -27.411 -32.731  1.00  0.00    -0.398 N 
HETATM    3  C2  UNL     1       4.594 -27.215 -33.689  1.00  0.00     0.121 C 
HETATM    4  C3  UNL     1       4.736 -28.505 -34.505  1.00  0.00     0.021 C 
HETATM    5  C4  UNL     1       4.854 -29.710 -33.613  1.00  0.00     0.012 C 
HETATM    6  C5  UNL     1       5.831 -29.440 -32.490  1.00  0.00     0.031 C 
HETATM    7  C7  UNL     1       5.274 -28.606 -31.399  1.00  0.00     0.054 C 
HETATM    8  C8  UNL     1       3.865 -28.175 -31.595  1.00  0.00     0.058 C 
ENDROOT
BRANCH   6   9
HETATM    9  C6  UNL     1       6.377 -30.737 -32.052  1.00  0.00     0.091 C 
HETATM   10  N2  UNL     1       6.394 -30.985 -30.787  1.00  0.00    -0.284 N 
ATOM     11  H2  UNL     1       6.029 -30.271 -30.157  1.00  0.00     0.192 HD
BRANCH  10  12
HETATM   12  O1  UNL     1       6.867 -32.139 -30.234  1.00  0.00    -0.291 OA
ATOM     13  H1  UNL     1       7.372 -32.792 -30.705  1.00  0.00     0.244 HD
ENDBRANCH  10  12
ENDBRANCH   6   9
TORSDOF 2
ENDMDL
MODEL 3
REMARK VINA RESULT: -5.312465465      0.948      1.168
REMARK  2 active torsions:
REMARK  status: ('A' for Active; 'I' for Inactive)
REMARK    1  A    between atoms: C5_6  and  C6_7 
REMARK    2  A    between atoms: N2_8  and  O1_10 
ROOT
HETATM    1  C1  UNL     1       7.494 -31.074 -33.746  1.00  0.00     0.148 C 
HETATM    2  N1  UNL     1       6.500 -30.065 -33.945  1.00  0.00    -0.398 N 
HETATM    3  C2  UNL     1       5.353 -30.462 -34.654  1.00  0.00     0.121 C 
HETATM    4  C3  UNL     1       5.009 -29.360 -35.663  1.00  0.00     0.021 C 
HETATM    5  C4  UNL     1       4.984 -28.005 -35.011  1.00  0.00     0.012 C 
HETATM    6  C5  UNL     1       4.227 -28.065 -33.704  1.00  0.00     0.031 C 
HETATM    7  C7  UNL     1       5.002 -28.659 -32.588  1.00  0.00     0.054 C 
HETATM    8  C8  UNL     1       6.377 -29.098 -32.944  1.00  0.00     0.058 C 
ENDROOT
BRANCH   6   9
HETATM    9  C6  UNL     1       3.699 -26.716 -33.431  1.00  0.00     0.091 C 
HETATM   10  N2  UNL     1       3.234 -26.479 -32.252  1.00  0.00    -0.284 N 
ATOM     11  H2  UNL     1       3.256 -27.238 -31.571  1.00  0.00     0.192 HD
BRANCH  10  12
HETATM   12  O1  UNL     1       2.715 -25.282 -31.854  1.00  0.00    -0.291 OA
ATOM     13  H1  UNL     1       1.906 -25.183 -31.366  1.00  0.00     0.244 HD
ENDBRANCH  10  12
ENDBRANCH   6   9
TORSDOF 2
ENDMDL
MODEL 4
REMARK VINA RESULT: -5.247170304      4.313      5.966
REMARK  2 active torsions:
REMARK  status: ('A' for Active; 'I' for Inactive)
REMARK    1  A    between atoms: C5_6  and  C6_7 
REMARK    2  A    between atoms: N2_8  and  O1_10 
ROOT
HETATM    1  C1  UNL     1       4.620 -28.489 -34.498  1.00  0.00     0.148 C 
HETATM    2  N1  UNL     1       5.606 -29.457 -34.129  1.00  0.00    -0.398 N 
HETATM    3  C2  UNL     1       6.641 -28.995 -33.296  1.00  0.00     0.121 C 
HETATM    4  C3  UNL     1       7.967 -29.553 -33.825  1.00  0.00     0.021 C 
HETATM    5  C4  UNL     1       7.883 -31.036 -34.065  1.00  0.00     0.012 C 
HETATM    6  C5  UNL     1       7.213 -31.721 -32.896  1.00  0.00     0.031 C 
HETATM    7  C7  UNL     1       5.738 -31.574 -32.880  1.00  0.00     0.054 C 
HETATM    8  C8  UNL     1       5.174 -30.779 -34.003  1.00  0.00     0.058 C 
ENDROOT
BRANCH   6   9
HETATM    9  C6  UNL     1       7.689 -33.115 -32.862  1.00  0.00     0.091 C 
HETATM   10  N2  UNL     1       8.364 -33.494 -31.831  1.00  0.00    -0.284 N 
ATOM     11  H2  UNL     1       8.534 -32.809 -31.094  1.00  0.00     0.192 HD
BRANCH  10  12
HETATM   12  O1  UNL     1       8.868 -34.751 -31.659  1.00  0.00    -0.291 OA
ATOM     13  H1  UNL     1       9.794 -34.963 -31.664  1.00  0.00     0.244 HD
ENDBRANCH  10  12
ENDBRANCH   6   9
TORSDOF 2
ENDMDL
MODEL 5
REMARK VINA RESULT: -5.222526756      1.261      2.333
REMARK  2 active torsions:
REMARK  status: ('A' for Active; 'I' for Inactive)
REMARK    1  A    between atoms: C5_6  and  C6_7 
REMARK    2  A    between atoms: N2_8  and  O1_10 
ROOT
HETATM    1  C1  UNL     1       6.857 -31.957 -34.835  1.00  0.00     0.148 C 
HETATM    2  N1  UNL     1       6.230 -30.753 -34.388  1.00  0.00    -0.398 N 
HETATM    3  C2  UNL     1       7.082 -29.787 -33.824  1.00  0.00     0.121 C 
HETATM    4  C3  UNL     1       6.410 -29.234 -32.563  1.00  0.00     0.021 C 
HETATM    5  C4  UNL     1       4.987 -28.826 -32.831  1.00  0.00     0.012 C 
HETATM    6  C5  UNL     1       4.901 -28.034 -34.117  1.00  0.00     0.031 C 
HETATM    7  C7  UNL     1       4.962 -28.870 -35.341  1.00  0.00     0.054 C 
HETATM    8  C8  UNL     1       5.103 -30.329 -35.097  1.00  0.00     0.058 C 
ENDROOT
BRANCH   6   9
HETATM    9  C6  UNL     1       3.714 -27.165 -34.028  1.00  0.00     0.091 C 
HETATM   10  N2  UNL     1       3.371 -26.734 -32.862  1.00  0.00    -0.284 N 
ATOM     11  H2  UNL     1       3.939 -27.018 -32.064  1.00  0.00     0.192 HD
BRANCH  10  12
HETATM   12  O1  UNL     1       2.300 -25.923 -32.625  1.00  0.00    -0.291 OA
ATOM     13  H1  UNL     1       2.087 -25.151 -33.137  1.00  0.00     0.244 HD
ENDBRANCH  10  12
ENDBRANCH   6   9
TORSDOF 2
ENDMDL
