MODEL 1
REMARK VINA RESULT: -5.127991758      0.000      0.000
REMARK  2 active torsions:
REMARK  status: ('A' for Active; 'I' for Inactive)
REMARK    1  A    between atoms: C2_2  and  C3_3 
REMARK    2  A    between atoms: C3_3  and  O1_4 
ROOT
HETATM    1  C3  UNL     1       5.203 -29.039 -32.545  1.00  0.00     0.219 C 
HETATM    2  O2  UNL     1       6.236 -29.202 -31.657  1.00  0.00    -0.195 OA
HETATM    3  O3  UNL     1       6.510 -30.463 -31.543  1.00  0.00    -0.226 OA
HETATM    4  C4  UNL     1       6.414 -31.021 -32.840  1.00  0.00     0.098 C 
HETATM    5  C5  UNL     1       6.231 -32.509 -32.680  1.00  0.00     0.049 C 
HETATM    6  C6  UNL     1       7.653 -30.648 -33.573  1.00  0.00     0.049 C 
HETATM    7  C7  UNL     1       5.173 -30.328 -33.324  1.00  0.00     0.088 C 
HETATM    8  C8  UNL     1       5.077 -30.164 -34.789  1.00  0.00     0.019 C 
ENDROOT
BRANCH   1   9
HETATM    9  C2  UNL     1       3.878 -28.840 -31.883  1.00  0.00     0.033 C 
HETATM   10  C1  UNL     1       3.704 -28.770 -30.596  1.00  0.00     0.012 C 
ENDBRANCH   1   9
BRANCH   1  11
HETATM   11  O1  UNL     1       5.386 -27.946 -33.395  1.00  0.00    -0.360 OA
ATOM     12  H1  UNL     1       5.831 -28.279 -34.166  1.00  0.00     0.213 HD
ENDBRANCH   1  11
TORSDOF 2
ENDMDL
MODEL 2
REMARK VINA RESULT: -4.910341817      1.905      2.685
REMARK  2 active torsions:
REMARK  status: ('A' for Active; 'I' for Inactive)
REMARK    1  A    between atoms: C2_2  and  C3_3 
REMARK    2  A    between atoms: C3_3  and  O1_4 
ROOT
HETATM    1  C3  UNL     1       5.694 -29.388 -33.196  1.00  0.00     0.219 C 
HETATM    2  O2  UNL     1       4.899 -30.505 -33.239  1.00  0.00    -0.195 OA
HETATM    3  O3  UNL     1       5.031 -31.083 -34.391  1.00  0.00    -0.226 OA
HETATM    4  C4  UNL     1       6.403 -31.007 -34.730  1.00  0.00     0.098 C 
HETATM    5  C5  UNL     1       6.512 -31.201 -36.221  1.00  0.00     0.049 C 
HETATM    6  C6  UNL     1       7.111 -32.049 -33.940  1.00  0.00     0.049 C 
HETATM    7  C7  UNL     1       6.695 -29.597 -34.301  1.00  0.00     0.088 C 
HETATM    8  C8  UNL     1       8.098 -29.334 -33.924  1.00  0.00     0.019 C 
ENDROOT
BRANCH   1   9
HETATM    9  C2  UNL     1       4.947 -28.119 -33.450  1.00  0.00     0.033 C 
HETATM   10  C1  UNL     1       4.666 -27.656 -34.633  1.00  0.00     0.012 C 
ENDBRANCH   1   9
BRANCH   1  11
HETATM   11  O1  UNL     1       6.335 -29.226 -31.966  1.00  0.00    -0.360 OA
ATOM     12  H1  UNL     1       6.891 -28.460 -32.053  1.00  0.00     0.213 HD
ENDBRANCH   1  11
TORSDOF 2
ENDMDL
MODEL 3
REMARK VINA RESULT: -4.838323157      1.971      3.554
REMARK  2 active torsions:
REMARK  status: ('A' for Active; 'I' for Inactive)
REMARK    1  A    between atoms: C2_2  and  C3_3 
REMARK    2  A    between atoms: C3_3  and  O1_4 
ROOT
HETATM    1  C3  UNL     1       7.051 -31.583 -33.417  1.00  0.00     0.219 C 
HETATM    2  O2  UNL     1       5.843 -32.017 -33.902  1.00  0.00    -0.195 OA
HETATM    3  O3  UNL     1       4.934 -31.131 -33.648  1.00  0.00    -0.226 OA
HETATM    4  C4  UNL     1       5.526 -29.864 -33.866  1.00  0.00     0.098 C 
HETATM    5  C5  UNL     1       4.700 -28.845 -33.124  1.00  0.00     0.049 C 
HETATM    6  C6  UNL     1       5.566 -29.643 -35.336  1.00  0.00     0.049 C 
HETATM    7  C7  UNL     1       6.869 -30.099 -33.236  1.00  0.00     0.088 C 
HETATM    8  C8  UNL     1       7.967 -29.270 -33.773  1.00  0.00     0.019 C 
ENDROOT
BRANCH   1   9
HETATM    9  C2  UNL     1       7.416 -32.193 -32.103  1.00  0.00     0.033 C 
HETATM   10  C1  UNL     1       6.878 -31.864 -30.966  1.00  0.00     0.012 C 
ENDBRANCH   1   9
BRANCH   1  11
HETATM   11  O1  UNL     1       8.112 -31.853 -34.284  1.00  0.00    -0.360 OA
ATOM     12  H1  UNL     1       7.785 -31.699 -35.163  1.00  0.00     0.213 HD
ENDBRANCH   1  11
TORSDOF 2
ENDMDL
MODEL 4
REMARK VINA RESULT: -4.820483857      2.794      3.737
REMARK  2 active torsions:
REMARK  status: ('A' for Active; 'I' for Inactive)
REMARK    1  A    between atoms: C2_2  and  C3_3 
REMARK    2  A    between atoms: C3_3  and  O1_4 
ROOT
HETATM    1  C3  UNL     1       7.472 -31.516 -34.541  1.00  0.00     0.219 C 
HETATM    2  O2  UNL     1       8.230 -32.556 -34.063  1.00  0.00    -0.195 OA
HETATM    3  O3  UNL     1       8.134 -32.600 -32.772  1.00  0.00    -0.226 OA
HETATM    4  C4  UNL     1       6.784 -32.321 -32.454  1.00  0.00     0.098 C 
HETATM    5  C5  UNL     1       6.741 -31.878 -31.014  1.00  0.00     0.049 C 
HETATM    6  C6  UNL     1       6.004 -33.559 -32.720  1.00  0.00     0.049 C 
HETATM    7  C7  UNL     1       6.520 -31.201 -33.419  1.00  0.00     0.088 C 
HETATM    8  C8  UNL     1       5.109 -31.045 -33.828  1.00  0.00     0.019 C 
ENDROOT
BRANCH   1   9
HETATM    9  C2  UNL     1       8.273 -30.295 -34.858  1.00  0.00     0.033 C 
HETATM   10  C1  UNL     1       8.392 -29.269 -34.067  1.00  0.00     0.012 C 
ENDBRANCH   1   9
BRANCH   1  11
HETATM   11  O1  UNL     1       6.778 -31.843 -35.708  1.00  0.00    -0.360 OA
ATOM     12  H1  UNL     1       7.325 -32.461 -36.180  1.00  0.00     0.213 HD
ENDBRANCH   1  11
TORSDOF 2
ENDMDL
MODEL 5
REMARK VINA RESULT: -4.713144268      2.529      4.295
REMARK  2 active torsions:
REMARK  status: ('A' for Active; 'I' for Inactive)
REMARK    1  A    between atoms: C2_2  and  C3_3 
REMARK    2  A    between atoms: C3_3  and  O1_4 
ROOT
HETATM    1  C3  UNL     1       7.420 -32.439 -33.148  1.00  0.00     0.219 C 
HETATM    2  O2  UNL     1       8.205 -32.214 -34.252  1.00  0.00    -0.195 OA
HETATM    3  O3  UNL     1       7.564 -31.460 -35.088  1.00  0.00    -0.226 OA
HETATM    4  C4  UNL     1       6.885 -30.484 -34.320  1.00  0.00     0.098 C 
HETATM    5  C5  UNL     1       5.774 -29.930 -35.173  1.00  0.00     0.049 C 
HETATM    6  C6  UNL     1       7.890 -29.466 -33.914  1.00  0.00     0.049 C 
HETATM    7  C7  UNL     1       6.386 -31.347 -33.196  1.00  0.00     0.088 C 
HETATM    8  C8  UNL     1       6.167 -30.644 -31.916  1.00  0.00     0.019 C 
ENDROOT
BRANCH   1   9
HETATM    9  C2  UNL     1       6.731 -33.765 -33.171  1.00  0.00     0.033 C 
HETATM   10  C1  UNL     1       7.142 -34.795 -33.850  1.00  0.00     0.012 C 
ENDBRANCH   1   9
BRANCH   1  11
HETATM   11  O1  UNL     1       8.141 -32.393 -31.953  1.00  0.00    -0.360 OA
ATOM     12  H1  UNL     1       8.773 -31.689 -32.049  1.00  0.00     0.213 HD
ENDBRANCH   1  11
TORSDOF 2
ENDMDL
