MODEL 1
REMARK VINA RESULT: -7.867118189      0.000      0.000
REMARK  3 active torsions:
REMARK  status: ('A' for Active; 'I' for Inactive)
REMARK    1  A    between atoms: C4_4  and  C5_5 
REMARK    2  A    between atoms: C5_5  and  N1_6 
REMARK    3  A    between atoms: C7_8  and  C8_9 
ROOT
HETATM    1  N1  UNL     1       7.739   8.563  43.159  1.00  0.00    -0.298 N 
HETATM    2  C6  UNL     1       7.827   9.913  43.103  1.00  0.00     0.129 A 
HETATM    3  C7  UNL     1       6.941  10.421  44.023  1.00  0.00     0.079 A 
HETATM    4  O1  UNL     1       6.374   9.378  44.579  1.00  0.00    -0.264 OA
HETATM    5  C18 UNL     1       6.834   8.271  44.080  1.00  0.00     0.372 A 
HETATM    6  O2  UNL     1       6.505   7.088  44.387  1.00  0.00    -0.238 OA
ENDROOT
BRANCH   3   7
HETATM    7  C8  UNL     1       6.660  11.842  44.348  1.00  0.00     0.053 C 
HETATM    8  C9  UNL     1       6.483  11.993  45.841  1.00  0.00     0.012 C 
HETATM    9  C10 UNL     1       5.022  11.825  46.137  1.00  0.00     0.002 C 
HETATM   10  C11 UNL     1       4.342  12.135  44.833  1.00  0.00     0.010 C 
HETATM   11  C12 UNL     1       5.378  12.359  43.787  1.00  0.00    -0.031 C 
HETATM   12  C13 UNL     1       4.982  11.685  42.494  1.00  0.00     0.010 C 
HETATM   13  C17 UNL     1       5.594  13.832  43.482  1.00  0.00     0.010 C 
HETATM   14  C14 UNL     1       4.693  12.626  41.372  1.00  0.00     0.001 C 
HETATM   15  C15 UNL     1       3.817  13.786  41.788  1.00  0.00     0.000 C 
HETATM   16  C16 UNL     1       4.376  14.524  42.974  1.00  0.00     0.001 C 
ENDBRANCH   3   7
BRANCH   1  17
HETATM   17  C5  UNL     1       8.534   7.688  42.324  1.00  0.00     0.161 C 
BRANCH  17  18
HETATM   18  C4  UNL     1       7.937   7.401  41.030  1.00  0.00    -0.005 C 
HETATM   19  C2  UNL     1       7.513   6.181  40.762  1.00  0.00    -0.090 C 
HETATM   20  C1  UNL     1       6.888   5.828  39.440  1.00  0.00     0.042 C 
HETATM   21  C3  UNL     1       7.636   5.093  41.766  1.00  0.00     0.042 C 
ENDBRANCH  17  18
ENDBRANCH   1  17
TORSDOF 3
ENDMDL
MODEL 2
REMARK VINA RESULT: -7.727087457      0.934      1.320
REMARK  3 active torsions:
REMARK  status: ('A' for Active; 'I' for Inactive)
REMARK    1  A    between atoms: C4_4  and  C5_5 
REMARK    2  A    between atoms: C5_5  and  N1_6 
REMARK    3  A    between atoms: C7_8  and  C8_9 
ROOT
HETATM    1  N1  UNL     1       7.318   8.738  42.722  1.00  0.00    -0.298 N 
HETATM    2  C6  UNL     1       7.357  10.085  42.584  1.00  0.00     0.129 A 
HETATM    3  C7  UNL     1       6.799  10.629  43.716  1.00  0.00     0.079 A 
HETATM    4  O1  UNL     1       6.458   9.610  44.466  1.00  0.00    -0.264 OA
HETATM    5  C18 UNL     1       6.757   8.484  43.894  1.00  0.00     0.372 A 
HETATM    6  O2  UNL     1       6.566   7.314  44.339  1.00  0.00    -0.238 OA
ENDROOT
BRANCH   3   7
HETATM    7  C8  UNL     1       6.607  12.062  44.053  1.00  0.00     0.053 C 
HETATM    8  C9  UNL     1       6.582  12.228  45.555  1.00  0.00     0.012 C 
HETATM    9  C10 UNL     1       5.150  12.121  45.992  1.00  0.00     0.002 C 
HETATM   10  C11 UNL     1       4.361  12.452  44.756  1.00  0.00     0.010 C 
HETATM   11  C12 UNL     1       5.299  12.629  43.614  1.00  0.00    -0.031 C 
HETATM   12  C13 UNL     1       4.754  11.964  42.371  1.00  0.00     0.010 C 
HETATM   13  C17 UNL     1       5.544  14.089  43.276  1.00  0.00     0.010 C 
HETATM   14  C14 UNL     1       4.397  12.910  41.273  1.00  0.00     0.001 C 
HETATM   15  C15 UNL     1       3.612  14.108  41.761  1.00  0.00     0.000 C 
HETATM   16  C16 UNL     1       4.312  14.828  42.881  1.00  0.00     0.001 C 
ENDBRANCH   3   7
BRANCH   1  17
HETATM   17  C5  UNL     1       7.824   7.829  41.715  1.00  0.00     0.161 C 
BRANCH  17  18
HETATM   18  C4  UNL     1       9.193   7.395  41.943  1.00  0.00    -0.005 C 
HETATM   19  C2  UNL     1       9.446   6.116  42.148  1.00  0.00    -0.090 C 
HETATM   20  C1  UNL     1      10.842   5.611  42.389  1.00  0.00     0.042 C 
HETATM   21  C3  UNL     1       8.351   5.112  42.148  1.00  0.00     0.042 C 
ENDBRANCH  17  18
ENDBRANCH   1  17
TORSDOF 3
ENDMDL
MODEL 3
REMARK VINA RESULT: -7.699593566      1.669      6.377
REMARK  3 active torsions:
REMARK  status: ('A' for Active; 'I' for Inactive)
REMARK    1  A    between atoms: C4_4  and  C5_5 
REMARK    2  A    between atoms: C5_5  and  N1_6 
REMARK    3  A    between atoms: C7_8  and  C8_9 
ROOT
HETATM    1  N1  UNL     1       5.952  10.637  44.503  1.00  0.00    -0.298 N 
HETATM    2  C6  UNL     1       6.053   9.860  43.398  1.00  0.00     0.129 A 
HETATM    3  C7  UNL     1       6.724   8.717  43.760  1.00  0.00     0.079 A 
HETATM    4  O1  UNL     1       6.990   8.854  45.037  1.00  0.00    -0.264 OA
HETATM    5  C18 UNL     1       6.541   9.983  45.491  1.00  0.00     0.372 A 
HETATM    6  O2  UNL     1       6.626  10.431  46.673  1.00  0.00    -0.238 OA
ENDROOT
BRANCH   3   7
HETATM    7  C8  UNL     1       7.089   7.552  42.914  1.00  0.00     0.053 C 
HETATM    8  C9  UNL     1       7.093   6.298  43.757  1.00  0.00     0.012 C 
HETATM    9  C10 UNL     1       8.487   6.120  44.284  1.00  0.00     0.002 C 
HETATM   10  C11 UNL     1       9.346   6.903  43.331  1.00  0.00     0.010 C 
HETATM   11  C12 UNL     1       8.470   7.606  42.354  1.00  0.00    -0.031 C 
HETATM   12  C13 UNL     1       8.960   9.017  42.121  1.00  0.00     0.010 C 
HETATM   13  C17 UNL     1       8.424   6.914  41.003  1.00  0.00     0.010 C 
HETATM   14  C14 UNL     1       9.466   9.273  40.741  1.00  0.00     0.001 C 
HETATM   15  C15 UNL     1      10.384   8.180  40.238  1.00  0.00     0.000 C 
HETATM   16  C16 UNL     1       9.751   6.819  40.332  1.00  0.00     0.001 C 
ENDBRANCH   3   7
BRANCH   1  17
HETATM   17  C5  UNL     1       5.299  11.928  44.499  1.00  0.00     0.161 C 
BRANCH  17  18
HETATM   18  C4  UNL     1       4.863  12.368  43.183  1.00  0.00    -0.005 C 
HETATM   19  C2  UNL     1       4.248  13.528  43.053  1.00  0.00    -0.090 C 
HETATM   20  C1  UNL     1       3.775  14.032  41.716  1.00  0.00     0.042 C 
HETATM   21  C3  UNL     1       3.995  14.394  44.233  1.00  0.00     0.042 C 
ENDBRANCH  17  18
ENDBRANCH   1  17
TORSDOF 3
ENDMDL
MODEL 4
REMARK VINA RESULT: -7.679314107      1.130      1.214
REMARK  3 active torsions:
REMARK  status: ('A' for Active; 'I' for Inactive)
REMARK    1  A    between atoms: C4_4  and  C5_5 
REMARK    2  A    between atoms: C5_5  and  N1_6 
REMARK    3  A    between atoms: C7_8  and  C8_9 
ROOT
HETATM    1  N1  UNL     1       8.290   8.662  42.705  1.00  0.00    -0.298 N 
HETATM    2  C6  UNL     1       8.308  10.014  42.785  1.00  0.00     0.129 A 
HETATM    3  C7  UNL     1       7.274  10.390  43.608  1.00  0.00     0.079 A 
HETATM    4  O1  UNL     1       6.694   9.274  43.978  1.00  0.00    -0.264 OA
HETATM    5  C18 UNL     1       7.281   8.242  43.452  1.00  0.00     0.372 A 
HETATM    6  O2  UNL     1       6.980   7.021  43.599  1.00  0.00    -0.238 OA
ENDROOT
BRANCH   3   7
HETATM    7  C8  UNL     1       6.869  11.759  44.016  1.00  0.00     0.053 C 
HETATM    8  C9  UNL     1       6.717  11.813  45.518  1.00  0.00     0.012 C 
HETATM    9  C10 UNL     1       5.286  11.493  45.834  1.00  0.00     0.002 C 
HETATM   10  C11 UNL     1       4.547  11.806  44.562  1.00  0.00     0.010 C 
HETATM   11  C12 UNL     1       5.531  12.182  43.510  1.00  0.00    -0.031 C 
HETATM   12  C13 UNL     1       5.168  11.542  42.190  1.00  0.00     0.010 C 
HETATM   13  C17 UNL     1       5.601  13.682  43.282  1.00  0.00     0.010 C 
HETATM   14  C14 UNL     1       4.764  12.509  41.127  1.00  0.00     0.001 C 
HETATM   15  C15 UNL     1       3.794  13.558  41.624  1.00  0.00     0.000 C 
HETATM   16  C16 UNL     1       4.312  14.282  42.837  1.00  0.00     0.001 C 
ENDBRANCH   3   7
BRANCH   1  17
HETATM   17  C5  UNL     1       9.243   7.907  41.919  1.00  0.00     0.161 C 
BRANCH  17  18
HETATM   18  C4  UNL     1       8.793   7.608  40.569  1.00  0.00    -0.005 C 
HETATM   19  C2  UNL     1       9.507   6.803  39.806  1.00  0.00    -0.090 C 
HETATM   20  C1  UNL     1       9.090   6.459  38.402  1.00  0.00     0.042 C 
HETATM   21  C3  UNL     1      10.767   6.196  40.307  1.00  0.00     0.042 C 
ENDBRANCH  17  18
ENDBRANCH   1  17
TORSDOF 3
ENDMDL
MODEL 5
REMARK VINA RESULT: -7.546729351      0.775      1.142
REMARK  3 active torsions:
REMARK  status: ('A' for Active; 'I' for Inactive)
REMARK    1  A    between atoms: C4_4  and  C5_5 
REMARK    2  A    between atoms: C5_5  and  N1_6 
REMARK    3  A    between atoms: C7_8  and  C8_9 
ROOT
HETATM    1  N1  UNL     1       7.523   8.533  42.653  1.00  0.00    -0.298 N 
HETATM    2  C6  UNL     1       7.565   9.883  42.550  1.00  0.00     0.129 A 
HETATM    3  C7  UNL     1       6.944  10.399  43.662  1.00  0.00     0.079 A 
HETATM    4  O1  UNL     1       6.565   9.360  44.368  1.00  0.00    -0.264 OA
HETATM    5  C18 UNL     1       6.899   8.250  43.785  1.00  0.00     0.372 A 
HETATM    6  O2  UNL     1       6.688   7.069  44.191  1.00  0.00    -0.238 OA
ENDROOT
BRANCH   3   7
HETATM    7  C8  UNL     1       6.729  11.823  44.023  1.00  0.00     0.053 C 
HETATM    8  C9  UNL     1       6.702  11.963  45.527  1.00  0.00     0.012 C 
HETATM    9  C10 UNL     1       5.272  11.826  45.963  1.00  0.00     0.002 C 
HETATM   10  C11 UNL     1       4.477  12.164  44.733  1.00  0.00     0.010 C 
HETATM   11  C12 UNL     1       5.411  12.375  43.594  1.00  0.00    -0.031 C 
HETATM   12  C13 UNL     1       4.876  11.722  42.341  1.00  0.00     0.010 C 
HETATM   13  C17 UNL     1       5.631  13.845  43.280  1.00  0.00     0.010 C 
HETATM   14  C14 UNL     1       4.502  12.680  41.259  1.00  0.00     0.001 C 
HETATM   15  C15 UNL     1       3.698  13.856  41.767  1.00  0.00     0.000 C 
HETATM   16  C16 UNL     1       4.387  14.569  42.898  1.00  0.00     0.001 C 
ENDBRANCH   3   7
BRANCH   1  17
HETATM   17  C5  UNL     1       8.087   7.651  41.654  1.00  0.00     0.161 C 
BRANCH  17  18
HETATM   18  C4  UNL     1       7.095   6.925  40.877  1.00  0.00    -0.005 C 
HETATM   19  C2  UNL     1       6.815   7.315  39.648  1.00  0.00    -0.090 C 
HETATM   20  C1  UNL     1       5.798   6.601  38.799  1.00  0.00     0.042 C 
HETATM   21  C3  UNL     1       7.500   8.487  39.045  1.00  0.00     0.042 C 
ENDBRANCH  17  18
ENDBRANCH   1  17
TORSDOF 3
ENDMDL
