MODEL 1
REMARK VINA RESULT: -8.172170187      0.000      0.000
REMARK  6 active torsions:
REMARK  status: ('A' for Active; 'I' for Inactive)
REMARK    1  A    between atoms: C2_2  and  N1_5 
REMARK    2  A    between atoms: N1_5  and  C6_8 
REMARK    3  A    between atoms: C6_8  and  O1_9 
REMARK    4  A    between atoms: C6_8  and  C7_11 
REMARK    5  A    between atoms: C10_14  and  C11_15 
REMARK    6  A    between atoms: C12_16  and  C13_17 
ROOT
HETATM    1  N1  UNL     1       8.502   6.641  43.074  1.00  0.00    -0.254 N 
HETATM    2  C5  UNL     1       9.849   6.478  43.393  1.00  0.00     0.187 C 
HETATM    3  N2  UNL     1      11.000   6.333  43.615  1.00  0.00    -0.172 NA
ENDROOT
BRANCH   1   4
HETATM    4  C2  UNL     1       8.129   6.528  41.630  1.00  0.00     0.039 C 
HETATM    5  C1  UNL     1       7.825   5.094  41.272  1.00  0.00     0.039 C 
HETATM    6  C3  UNL     1       6.939   7.386  41.345  1.00  0.00     0.039 C 
HETATM    7  C4  UNL     1       9.315   6.979  40.814  1.00  0.00     0.039 C 
ENDBRANCH   1   4
BRANCH   1   8
HETATM    8  C6  UNL     1       7.485   6.898  43.980  1.00  0.00     0.187 C 
BRANCH   8   9
HETATM    9  O1  UNL     1       6.700   5.881  44.238  1.00  0.00    -0.343 OA
ATOM     10  H1  UNL     1       5.817   6.110  44.505  1.00  0.00     0.219 HD
ENDBRANCH   8   9
BRANCH   8  11
HETATM   11  C7  UNL     1       7.182   8.130  44.670  1.00  0.00     0.127 A 
HETATM   12  C8  UNL     1       7.500   8.557  45.917  1.00  0.00     0.044 A 
HETATM   13  C9  UNL     1       6.946   9.828  46.053  1.00  0.00     0.040 A 
HETATM   14  C10 UNL     1       6.310  10.120  44.870  1.00  0.00     0.076 A 
HETATM   15  O2  UNL     1       6.469   9.105  44.087  1.00  0.00    -0.306 OA
BRANCH  14  16
HETATM   16  C11 UNL     1       5.604  11.371  44.621  1.00  0.00     0.033 C 
HETATM   17  C12 UNL     1       6.138  12.283  43.854  1.00  0.00    -0.019 C 
BRANCH  17  18
HETATM   18  C13 UNL     1       5.423  13.542  43.605  1.00  0.00     0.008 C 
HETATM   19  C14 UNL     1       4.213  13.686  44.514  1.00  0.00     0.008 C 
HETATM   20  C15 UNL     1       3.538  14.883  43.827  1.00  0.00     0.001 C 
HETATM   21  C16 UNL     1       3.498  14.396  42.400  1.00  0.00     0.001 C 
HETATM   22  C17 UNL     1       4.757  13.587  42.235  1.00  0.00     0.008 C 
ENDBRANCH  17  18
ENDBRANCH  14  16
ENDBRANCH   8  11
ENDBRANCH   1   8
TORSDOF 6
ENDMDL
MODEL 2
REMARK VINA RESULT: -8.071762955      1.329      1.616
REMARK  6 active torsions:
REMARK  status: ('A' for Active; 'I' for Inactive)
REMARK    1  A    between atoms: C2_2  and  N1_5 
REMARK    2  A    between atoms: N1_5  and  C6_8 
REMARK    3  A    between atoms: C6_8  and  O1_9 
REMARK    4  A    between atoms: C6_8  and  C7_11 
REMARK    5  A    between atoms: C10_14  and  C11_15 
REMARK    6  A    between atoms: C12_16  and  C13_17 
ROOT
HETATM    1  N1  UNL     1       8.725   7.114  43.980  1.00  0.00    -0.254 N 
HETATM    2  C5  UNL     1       9.968   6.956  43.370  1.00  0.00     0.187 C 
HETATM    3  N2  UNL     1      10.999   6.799  42.817  1.00  0.00    -0.172 NA
ENDROOT
BRANCH   1   4
HETATM    4  C2  UNL     1       7.539   6.563  43.255  1.00  0.00     0.039 C 
HETATM    5  C1  UNL     1       7.926   5.342  42.457  1.00  0.00     0.039 C 
HETATM    6  C3  UNL     1       6.464   6.211  44.232  1.00  0.00     0.039 C 
HETATM    7  C4  UNL     1       7.055   7.622  42.295  1.00  0.00     0.039 C 
ENDBRANCH   1   4
BRANCH   1   8
HETATM    8  C6  UNL     1       8.498   7.737  45.196  1.00  0.00     0.187 C 
BRANCH   8   9
HETATM    9  O1  UNL     1       9.114   7.200  46.221  1.00  0.00    -0.343 OA
ATOM     10  H1  UNL     1       9.614   6.416  46.025  1.00  0.00     0.219 HD
ENDBRANCH   8   9
BRANCH   8  11
HETATM   11  C7  UNL     1       7.677   8.892  45.479  1.00  0.00     0.127 A 
HETATM   12  C8  UNL     1       6.948   9.224  46.573  1.00  0.00     0.044 A 
HETATM   13  C9  UNL     1       6.356  10.454  46.296  1.00  0.00     0.040 A 
HETATM   14  C10 UNL     1       6.756  10.820  45.033  1.00  0.00     0.076 A 
HETATM   15  O2  UNL     1       7.527   9.883  44.588  1.00  0.00    -0.306 OA
BRANCH  14  16
HETATM   16  C11 UNL     1       6.344  12.056  44.382  1.00  0.00     0.033 C 
HETATM   17  C12 UNL     1       5.562  12.018  43.337  1.00  0.00    -0.019 C 
BRANCH  17  18
HETATM   18  C13 UNL     1       5.148  13.267  42.683  1.00  0.00     0.008 C 
HETATM   19  C14 UNL     1       3.920  13.866  43.352  1.00  0.00     0.008 C 
HETATM   20  C15 UNL     1       3.569  14.929  42.299  1.00  0.00     0.001 C 
HETATM   21  C16 UNL     1       3.551  14.085  41.050  1.00  0.00     0.001 C 
HETATM   22  C17 UNL     1       4.625  13.053  41.268  1.00  0.00     0.008 C 
ENDBRANCH  17  18
ENDBRANCH  14  16
ENDBRANCH   8  11
ENDBRANCH   1   8
TORSDOF 6
ENDMDL
MODEL 3
REMARK VINA RESULT: -7.855258131      0.998      1.427
REMARK  6 active torsions:
REMARK  status: ('A' for Active; 'I' for Inactive)
REMARK    1  A    between atoms: C2_2  and  N1_5 
REMARK    2  A    between atoms: N1_5  and  C6_8 
REMARK    3  A    between atoms: C6_8  and  O1_9 
REMARK    4  A    between atoms: C6_8  and  C7_11 
REMARK    5  A    between atoms: C10_14  and  C11_15 
REMARK    6  A    between atoms: C12_16  and  C13_17 
ROOT
HETATM    1  N1  UNL     1       8.653   6.861  43.097  1.00  0.00    -0.254 N 
HETATM    2  C5  UNL     1       9.915   6.539  43.594  1.00  0.00     0.187 C 
HETATM    3  N2  UNL     1      11.000   6.263  43.969  1.00  0.00    -0.172 NA
ENDROOT
BRANCH   1   4
HETATM    4  C2  UNL     1       8.509   6.934  41.610  1.00  0.00     0.039 C 
HETATM    5  C1  UNL     1       7.101   6.585  41.197  1.00  0.00     0.039 C 
HETATM    6  C3  UNL     1       8.854   8.307  41.133  1.00  0.00     0.039 C 
HETATM    7  C4  UNL     1       9.445   5.914  41.009  1.00  0.00     0.039 C 
ENDBRANCH   1   4
BRANCH   1   8
HETATM    8  C6  UNL     1       7.528   7.119  43.862  1.00  0.00     0.187 C 
BRANCH   8   9
HETATM    9  O1  UNL     1       6.926   6.058  44.343  1.00  0.00    -0.343 OA
ATOM     10  H1  UNL     1       5.989   6.151  44.475  1.00  0.00     0.219 HD
ENDBRANCH   8   9
BRANCH   8  11
HETATM   11  C7  UNL     1       6.937   8.394  44.197  1.00  0.00     0.127 A 
HETATM   12  C8  UNL     1       6.962   9.117  45.344  1.00  0.00     0.044 A 
HETATM   13  C9  UNL     1       6.222  10.271  45.100  1.00  0.00     0.040 A 
HETATM   14  C10 UNL     1       5.776  10.200  43.802  1.00  0.00     0.076 A 
HETATM   15  O2  UNL     1       6.214   9.089  43.307  1.00  0.00    -0.306 OA
BRANCH  14  16
HETATM   16  C11 UNL     1       4.962  11.229  43.170  1.00  0.00     0.033 C 
HETATM   17  C12 UNL     1       5.075  12.475  43.542  1.00  0.00    -0.019 C 
BRANCH  17  18
HETATM   18  C13 UNL     1       4.252  13.511  42.902  1.00  0.00     0.008 C 
HETATM   19  C14 UNL     1       4.060  13.233  41.419  1.00  0.00     0.008 C 
HETATM   20  C15 UNL     1       3.461  14.583  40.998  1.00  0.00     0.001 C 
HETATM   21  C16 UNL     1       4.482  15.530  41.577  1.00  0.00     0.001 C 
HETATM   22  C17 UNL     1       4.941  14.869  42.849  1.00  0.00     0.008 C 
ENDBRANCH  17  18
ENDBRANCH  14  16
ENDBRANCH   8  11
ENDBRANCH   1   8
TORSDOF 6
ENDMDL
MODEL 4
REMARK VINA RESULT: -7.771376921      1.220      1.918
REMARK  6 active torsions:
REMARK  status: ('A' for Active; 'I' for Inactive)
REMARK    1  A    between atoms: C2_2  and  N1_5 
REMARK    2  A    between atoms: N1_5  and  C6_8 
REMARK    3  A    between atoms: C6_8  and  O1_9 
REMARK    4  A    between atoms: C6_8  and  C7_11 
REMARK    5  A    between atoms: C10_14  and  C11_15 
REMARK    6  A    between atoms: C12_16  and  C13_17 
ROOT
HETATM    1  N1  UNL     1       8.640   6.147  42.555  1.00  0.00    -0.254 N 
HETATM    2  C5  UNL     1       7.765   5.576  41.633  1.00  0.00     0.187 C 
HETATM    3  N2  UNL     1       7.059   5.093  40.818  1.00  0.00    -0.172 NA
ENDROOT
BRANCH   1   4
HETATM    4  C2  UNL     1      10.037   6.412  42.090  1.00  0.00     0.039 C 
HETATM    5  C1  UNL     1      10.426   5.442  41.002  1.00  0.00     0.039 C 
HETATM    6  C3  UNL     1      10.145   7.814  41.584  1.00  0.00     0.039 C 
HETATM    7  C4  UNL     1      10.959   6.201  43.265  1.00  0.00     0.039 C 
ENDBRANCH   1   4
BRANCH   1   8
HETATM    8  C6  UNL     1       8.326   6.486  43.861  1.00  0.00     0.187 C 
BRANCH   8   9
HETATM    9  O1  UNL     1       8.336   5.490  44.713  1.00  0.00    -0.343 OA
ATOM     10  H1  UNL     1       7.556   5.409  45.249  1.00  0.00     0.219 HD
ENDBRANCH   8   9
BRANCH   8  11
HETATM   11  C7  UNL     1       7.992   7.784  44.400  1.00  0.00     0.127 A 
HETATM   12  C8  UNL     1       8.030   8.260  45.670  1.00  0.00     0.044 A 
HETATM   13  C9  UNL     1       7.598   9.583  45.608  1.00  0.00     0.040 A 
HETATM   14  C10 UNL     1       7.315   9.856  44.291  1.00  0.00     0.076 A 
HETATM   15  O2  UNL     1       7.557   8.780  43.616  1.00  0.00    -0.306 OA
BRANCH  14  16
HETATM   16  C11 UNL     1       6.833  11.147  43.819  1.00  0.00     0.033 C 
HETATM   17  C12 UNL     1       5.915  11.789  44.489  1.00  0.00    -0.019 C 
BRANCH  17  18
HETATM   18  C13 UNL     1       5.431  13.091  44.010  1.00  0.00     0.008 C 
HETATM   19  C14 UNL     1       4.181  13.530  44.758  1.00  0.00     0.008 C 
HETATM   20  C15 UNL     1       3.766  14.705  43.859  1.00  0.00     0.001 C 
HETATM   21  C16 UNL     1       3.778  14.036  42.508  1.00  0.00     0.001 C 
HETATM   22  C17 UNL     1       4.905  13.042  42.582  1.00  0.00     0.008 C 
ENDBRANCH  17  18
ENDBRANCH  14  16
ENDBRANCH   8  11
ENDBRANCH   1   8
TORSDOF 6
ENDMDL
MODEL 5
REMARK VINA RESULT: -7.769815015      1.413      1.543
REMARK  6 active torsions:
REMARK  status: ('A' for Active; 'I' for Inactive)
REMARK    1  A    between atoms: C2_2  and  N1_5 
REMARK    2  A    between atoms: N1_5  and  C6_8 
REMARK    3  A    between atoms: C6_8  and  O1_9 
REMARK    4  A    between atoms: C6_8  and  C7_11 
REMARK    5  A    between atoms: C10_14  and  C11_15 
REMARK    6  A    between atoms: C12_16  and  C13_17 
ROOT
HETATM    1  N1  UNL     1       9.201   7.238  42.205  1.00  0.00    -0.254 N 
HETATM    2  C5  UNL     1      10.137   7.825  41.356  1.00  0.00     0.187 C 
HETATM    3  N2  UNL     1      10.907   8.301  40.598  1.00  0.00    -0.172 NA
ENDROOT
BRANCH   1   4
HETATM    4  C2  UNL     1       8.139   6.400  41.568  1.00  0.00     0.039 C 
HETATM    5  C1  UNL     1       7.300   5.717  42.619  1.00  0.00     0.039 C 
HETATM    6  C3  UNL     1       7.271   7.254  40.701  1.00  0.00     0.039 C 
HETATM    7  C4  UNL     1       8.826   5.337  40.746  1.00  0.00     0.039 C 
ENDBRANCH   1   4
BRANCH   1   8
HETATM    8  C6  UNL     1       9.173   7.366  43.584  1.00  0.00     0.187 C 
BRANCH   8   9
HETATM    9  O1  UNL     1       9.926   6.516  44.238  1.00  0.00    -0.343 OA
ATOM     10  H1  UNL     1       9.550   6.182  45.045  1.00  0.00     0.219 HD
ENDBRANCH   8   9
BRANCH   8  11
HETATM   11  C7  UNL     1       8.428   8.308  44.388  1.00  0.00     0.127 A 
HETATM   12  C8  UNL     1       7.915   8.206  45.639  1.00  0.00     0.044 A 
HETATM   13  C9  UNL     1       7.292   9.421  45.912  1.00  0.00     0.040 A 
HETATM   14  C10 UNL     1       7.456  10.218  44.803  1.00  0.00     0.076 A 
HETATM   15  O2  UNL     1       8.124   9.533  43.934  1.00  0.00    -0.306 OA
BRANCH  14  16
HETATM   16  C11 UNL     1       6.942  11.577  44.702  1.00  0.00     0.033 C 
HETATM   17  C12 UNL     1       5.980  11.854  43.864  1.00  0.00    -0.019 C 
BRANCH  17  18
HETATM   18  C13 UNL     1       5.463  13.226  43.764  1.00  0.00     0.008 C 
HETATM   19  C14 UNL     1       4.327  13.465  44.747  1.00  0.00     0.008 C 
HETATM   20  C15 UNL     1       3.822  14.811  44.205  1.00  0.00     0.001 C 
HETATM   21  C16 UNL     1       3.649  14.473  42.745  1.00  0.00     0.001 C 
HETATM   22  C17 UNL     1       4.758  13.501  42.442  1.00  0.00     0.008 C 
ENDBRANCH  17  18
ENDBRANCH  14  16
ENDBRANCH   8  11
ENDBRANCH   1   8
TORSDOF 6
ENDMDL
