MODEL 1
REMARK VINA RESULT: -9.418055049      0.000      0.000
REMARK  9 active torsions:
REMARK  status: ('A' for Active; 'I' for Inactive)
REMARK    1  A    between atoms: O1_2  and  C2_3 
REMARK    2  A    between atoms: C4_5  and  S1_6 
REMARK    3  A    between atoms: S1_6  and  N1_9 
REMARK    4  A    between atoms: N1_9  and  C5_11 
REMARK    5  A    between atoms: C9_15  and  N2_16 
REMARK       I    between atoms: N2_16  and  C10_18 
REMARK    6  A    between atoms: C10_18  and  O5_20 
REMARK    7  A    between atoms: O5_20  and  C11_21 
REMARK    8  A    between atoms: C20_30  and  O6_31 
REMARK    9  A    between atoms: C22_33  and  O7_34 
ROOT
HETATM    1  C5  UNL     1      29.901  46.989   3.446  1.00  0.00     0.045 A 
HETATM    2  C6  UNL     1      28.694  47.294   2.866  1.00  0.00     0.038 A 
HETATM    3  C7  UNL     1      27.899  46.262   2.386  1.00  0.00    -0.047 A 
HETATM    4  C8  UNL     1      28.311  44.950   2.489  1.00  0.00    -0.025 A 
HETATM    5  C9  UNL     1      29.534  44.621   3.075  1.00  0.00     0.045 A 
HETATM    6  C15 UNL     1      30.309  45.649   3.545  1.00  0.00     0.060 A 
HETATM    7  C16 UNL     1      27.288  44.049   1.905  1.00  0.00     0.042 C 
HETATM    8  C17 UNL     1      26.305  44.938   1.222  1.00  0.00     0.009 C 
HETATM    9  C18 UNL     1      26.564  46.340   1.724  1.00  0.00     0.039 C 
ENDROOT
BRANCH   1  10
HETATM   10  N1  UNL     1      30.727  48.030   3.941  1.00  0.00    -0.281 N 
ATOM     11  H1  UNL     1      30.386  48.586   4.725  1.00  0.00     0.179 HD
BRANCH  10  12
HETATM   12  S1  UNL     1      32.267  48.402   3.295  1.00  0.00     0.263 S 
HETATM   13  O2  UNL     1      32.723  49.728   3.848  1.00  0.00    -0.200 OA
HETATM   14  O3  UNL     1      33.317  47.410   3.644  1.00  0.00    -0.200 OA
BRANCH  12  15
HETATM   15  C4  UNL     1      32.102  48.588   1.542  1.00  0.00     0.085 A 
HETATM   16  C3  UNL     1      31.552  47.599   0.757  1.00  0.00     0.065 A 
HETATM   17  C2  UNL     1      31.418  47.733  -0.618  1.00  0.00     0.105 A 
HETATM   18  C22 UNL     1      31.847  48.890  -1.235  1.00  0.00     0.135 A 
HETATM   19  C20 UNL     1      32.410  49.909  -0.456  1.00  0.00     0.105 A 
HETATM   20  C19 UNL     1      32.527  49.740   0.914  1.00  0.00     0.065 A 
BRANCH  17  21
HETATM   21  O1  UNL     1      30.864  46.741  -1.416  1.00  0.00    -0.353 OA
HETATM   22  C1  UNL     1      29.768  46.018  -0.890  1.00  0.00     0.210 C 
ENDBRANCH  17  21
BRANCH  18  23
HETATM   23  O7  UNL     1      31.717  49.027  -2.591  1.00  0.00    -0.351 OA
HETATM   24  C23 UNL     1      32.648  48.635  -3.554  1.00  0.00     0.210 C 
ENDBRANCH  18  23
BRANCH  19  25
HETATM   25  O6  UNL     1      32.833  51.063  -1.103  1.00  0.00    -0.353 OA
HETATM   26  C21 UNL     1      32.432  52.304  -0.551  1.00  0.00     0.210 C 
ENDBRANCH  19  25
ENDBRANCH  12  15
ENDBRANCH  10  12
ENDBRANCH   1  10
BRANCH   5  27
HETATM   27  N2  UNL     1      29.925  43.287   3.166  1.00  0.00    -0.302 N 
HETATM   28  C10 UNL     1      30.976  42.642   2.505  1.00  0.00     0.365 C 
HETATM   29  O4  UNL     1      31.772  43.138   1.699  1.00  0.00    -0.238 OA
ATOM     30  H2  UNL     1      29.374  42.705   3.797  1.00  0.00     0.171 HD
BRANCH  28  31
HETATM   31  O5  UNL     1      31.221  41.266   2.728  1.00  0.00    -0.294 OA
BRANCH  31  32
HETATM   32  C11 UNL     1      31.040  40.281   1.776  1.00  0.00     0.061 C 
HETATM   33  C12 UNL     1      32.201  40.061   0.849  1.00  0.00     0.046 C 
HETATM   34  C13 UNL     1      30.840  38.963   2.537  1.00  0.00     0.046 C 
HETATM   35  C14 UNL     1      29.817  40.601   0.948  1.00  0.00     0.046 C 
ENDBRANCH  31  32
ENDBRANCH  28  31
ENDBRANCH   5  27
TORSDOF 9
ENDMDL
MODEL 2
REMARK VINA RESULT: -9.406321176      0.859      1.008
REMARK  9 active torsions:
REMARK  status: ('A' for Active; 'I' for Inactive)
REMARK    1  A    between atoms: O1_2  and  C2_3 
REMARK    2  A    between atoms: C4_5  and  S1_6 
REMARK    3  A    between atoms: S1_6  and  N1_9 
REMARK    4  A    between atoms: N1_9  and  C5_11 
REMARK    5  A    between atoms: C9_15  and  N2_16 
REMARK       I    between atoms: N2_16  and  C10_18 
REMARK    6  A    between atoms: C10_18  and  O5_20 
REMARK    7  A    between atoms: O5_20  and  C11_21 
REMARK    8  A    between atoms: C20_30  and  O6_31 
REMARK    9  A    between atoms: C22_33  and  O7_34 
ROOT
HETATM    1  C5  UNL     1      29.459  46.800   3.108  1.00  0.00     0.045 A 
HETATM    2  C6  UNL     1      28.310  47.281   2.530  1.00  0.00     0.038 A 
HETATM    3  C7  UNL     1      27.420  46.383   1.958  1.00  0.00    -0.047 A 
HETATM    4  C8  UNL     1      27.680  45.029   1.969  1.00  0.00    -0.025 A 
HETATM    5  C9  UNL     1      28.842  44.522   2.552  1.00  0.00     0.045 A 
HETATM    6  C15 UNL     1      29.713  45.419   3.114  1.00  0.00     0.060 A 
HETATM    7  C16 UNL     1      26.580  44.294   1.299  1.00  0.00     0.042 C 
HETATM    8  C17 UNL     1      25.721  45.336   0.665  1.00  0.00     0.009 C 
HETATM    9  C18 UNL     1      26.120  46.660   1.277  1.00  0.00     0.039 C 
ENDROOT
BRANCH   1  10
HETATM   10  N1  UNL     1      30.382  47.702   3.697  1.00  0.00    -0.281 N 
ATOM     11  H1  UNL     1      30.085  48.229   4.519  1.00  0.00     0.179 HD
BRANCH  10  12
HETATM   12  S1  UNL     1      31.966  47.953   3.104  1.00  0.00     0.263 S 
HETATM   13  O2  UNL     1      32.523  49.216   3.711  1.00  0.00    -0.200 OA
HETATM   14  O3  UNL     1      32.914  46.861   3.450  1.00  0.00    -0.200 OA
BRANCH  12  15
HETATM   15  C4  UNL     1      31.870  48.204   1.354  1.00  0.00     0.085 A 
HETATM   16  C3  UNL     1      31.276  47.282   0.521  1.00  0.00     0.065 A 
HETATM   17  C2  UNL     1      31.195  47.467  -0.852  1.00  0.00     0.105 A 
HETATM   18  C22 UNL     1      31.724  48.610  -1.417  1.00  0.00     0.135 A 
HETATM   19  C20 UNL     1      32.333  49.561  -0.589  1.00  0.00     0.105 A 
HETATM   20  C19 UNL     1      32.394  49.342   0.777  1.00  0.00     0.065 A 
BRANCH  17  21
HETATM   21  O1  UNL     1      30.597  46.542  -1.698  1.00  0.00    -0.353 OA
HETATM   22  C1  UNL     1      29.382  45.961  -1.272  1.00  0.00     0.210 C 
ENDBRANCH  17  21
BRANCH  18  23
HETATM   23  O7  UNL     1      31.646  48.797  -2.772  1.00  0.00    -0.351 OA
HETATM   24  C23 UNL     1      32.584  48.380  -3.719  1.00  0.00     0.210 C 
ENDBRANCH  18  23
BRANCH  19  25
HETATM   25  O6  UNL     1      32.856  50.701  -1.185  1.00  0.00    -0.353 OA
HETATM   26  C21 UNL     1      32.572  51.946  -0.573  1.00  0.00     0.210 C 
ENDBRANCH  19  25
ENDBRANCH  12  15
ENDBRANCH  10  12
ENDBRANCH   1  10
BRANCH   5  27
HETATM   27  N2  UNL     1      29.080  43.149   2.550  1.00  0.00    -0.302 N 
HETATM   28  C10 UNL     1      29.568  42.354   1.509  1.00  0.00     0.365 C 
HETATM   29  O4  UNL     1      29.886  42.719   0.371  1.00  0.00    -0.238 OA
ATOM     30  H2  UNL     1      28.871  42.661   3.421  1.00  0.00     0.171 HD
BRANCH  28  31
HETATM   31  O5  UNL     1      29.744  40.962   1.697  1.00  0.00    -0.294 OA
BRANCH  31  32
HETATM   32  C11 UNL     1      30.952  40.367   2.005  1.00  0.00     0.061 C 
HETATM   33  C12 UNL     1      31.980  40.393   0.910  1.00  0.00     0.046 C 
HETATM   34  C13 UNL     1      31.550  41.161   3.175  1.00  0.00     0.046 C 
HETATM   35  C14 UNL     1      30.716  38.930   2.411  1.00  0.00     0.046 C 
ENDBRANCH  31  32
ENDBRANCH  28  31
ENDBRANCH   5  27
TORSDOF 9
ENDMDL
MODEL 3
REMARK VINA RESULT: -9.400574521      1.463      1.938
REMARK  9 active torsions:
REMARK  status: ('A' for Active; 'I' for Inactive)
REMARK    1  A    between atoms: O1_2  and  C2_3 
REMARK    2  A    between atoms: C4_5  and  S1_6 
REMARK    3  A    between atoms: S1_6  and  N1_9 
REMARK    4  A    between atoms: N1_9  and  C5_11 
REMARK    5  A    between atoms: C9_15  and  N2_16 
REMARK       I    between atoms: N2_16  and  C10_18 
REMARK    6  A    between atoms: C10_18  and  O5_20 
REMARK    7  A    between atoms: O5_20  and  C11_21 
REMARK    8  A    between atoms: C20_30  and  O6_31 
REMARK    9  A    between atoms: C22_33  and  O7_34 
ROOT
HETATM    1  C5  UNL     1      30.074  47.051   3.654  1.00  0.00     0.045 A 
HETATM    2  C6  UNL     1      28.886  47.392   3.057  1.00  0.00     0.038 A 
HETATM    3  C7  UNL     1      28.088  46.388   2.527  1.00  0.00    -0.047 A 
HETATM    4  C8  UNL     1      28.478  45.067   2.598  1.00  0.00    -0.025 A 
HETATM    5  C9  UNL     1      29.682  44.702   3.201  1.00  0.00     0.045 A 
HETATM    6  C15 UNL     1      30.461  45.703   3.720  1.00  0.00     0.060 A 
HETATM    7  C16 UNL     1      27.456  44.200   1.963  1.00  0.00     0.042 C 
HETATM    8  C17 UNL     1      26.501  45.125   1.286  1.00  0.00     0.009 C 
HETATM    9  C18 UNL     1      26.769  46.507   1.838  1.00  0.00     0.039 C 
ENDROOT
BRANCH   1  10
HETATM   10  N1  UNL     1      30.904  48.063   4.201  1.00  0.00    -0.281 N 
ATOM     11  H1  UNL     1      31.156  48.000   5.187  1.00  0.00     0.179 HD
BRANCH  10  12
HETATM   12  S1  UNL     1      31.505  49.383   3.294  1.00  0.00     0.263 S 
HETATM   13  O2  UNL     1      30.359  50.298   2.941  1.00  0.00    -0.200 OA
HETATM   14  O3  UNL     1      32.498  50.210   4.029  1.00  0.00    -0.200 OA
BRANCH  12  15
HETATM   15  C4  UNL     1      32.170  48.758   1.778  1.00  0.00     0.085 A 
HETATM   16  C3  UNL     1      31.416  48.692   0.628  1.00  0.00     0.065 A 
HETATM   17  C2  UNL     1      31.926  48.204  -0.567  1.00  0.00     0.105 A 
HETATM   18  C22 UNL     1      33.233  47.764  -0.620  1.00  0.00     0.135 A 
HETATM   19  C20 UNL     1      34.019  47.823   0.538  1.00  0.00     0.105 A 
HETATM   20  C19 UNL     1      33.475  48.317   1.712  1.00  0.00     0.065 A 
BRANCH  17  21
HETATM   21  O1  UNL     1      31.172  48.134  -1.730  1.00  0.00    -0.353 OA
HETATM   22  C1  UNL     1      30.263  47.059  -1.854  1.00  0.00     0.210 C 
ENDBRANCH  17  21
BRANCH  18  23
HETATM   23  O7  UNL     1      33.742  47.282  -1.796  1.00  0.00    -0.351 OA
HETATM   24  C23 UNL     1      34.436  48.017  -2.759  1.00  0.00     0.210 C 
ENDBRANCH  18  23
BRANCH  19  25
HETATM   25  O6  UNL     1      35.331  47.374   0.456  1.00  0.00    -0.353 OA
HETATM   26  C21 UNL     1      35.664  46.196   1.168  1.00  0.00     0.210 C 
ENDBRANCH  19  25
ENDBRANCH  12  15
ENDBRANCH  10  12
ENDBRANCH   1  10
BRANCH   5  27
HETATM   27  N2  UNL     1      30.052  43.359   3.259  1.00  0.00    -0.302 N 
HETATM   28  C10 UNL     1      31.054  42.702   2.538  1.00  0.00     0.365 C 
HETATM   29  O4  UNL     1      31.818  43.192   1.697  1.00  0.00    -0.238 OA
ATOM     30  H2  UNL     1      29.522  42.781   3.912  1.00  0.00     0.171 HD
BRANCH  28  31
HETATM   31  O5  UNL     1      31.284  41.320   2.735  1.00  0.00    -0.294 OA
BRANCH  31  32
HETATM   32  C11 UNL     1      31.082  40.354   1.767  1.00  0.00     0.061 C 
HETATM   33  C12 UNL     1      32.229  40.142   0.821  1.00  0.00     0.046 C 
HETATM   34  C13 UNL     1      30.882  39.023   2.506  1.00  0.00     0.046 C 
HETATM   35  C14 UNL     1      29.851  40.698   0.962  1.00  0.00     0.046 C 
ENDBRANCH  31  32
ENDBRANCH  28  31
ENDBRANCH   5  27
TORSDOF 9
ENDMDL
MODEL 4
REMARK VINA RESULT: -9.395292293      1.459      2.194
REMARK  9 active torsions:
REMARK  status: ('A' for Active; 'I' for Inactive)
REMARK    1  A    between atoms: O1_2  and  C2_3 
REMARK    2  A    between atoms: C4_5  and  S1_6 
REMARK    3  A    between atoms: S1_6  and  N1_9 
REMARK    4  A    between atoms: N1_9  and  C5_11 
REMARK    5  A    between atoms: C9_15  and  N2_16 
REMARK       I    between atoms: N2_16  and  C10_18 
REMARK    6  A    between atoms: C10_18  and  O5_20 
REMARK    7  A    between atoms: O5_20  and  C11_21 
REMARK    8  A    between atoms: C20_30  and  O6_31 
REMARK    9  A    between atoms: C22_33  and  O7_34 
ROOT
HETATM    1  C5  UNL     1      30.078  47.047   3.627  1.00  0.00     0.045 A 
HETATM    2  C6  UNL     1      28.887  47.391   3.035  1.00  0.00     0.038 A 
HETATM    3  C7  UNL     1      28.081  46.388   2.516  1.00  0.00    -0.047 A 
HETATM    4  C8  UNL     1      28.464  45.066   2.592  1.00  0.00    -0.025 A 
HETATM    5  C9  UNL     1      29.670  44.697   3.190  1.00  0.00     0.045 A 
HETATM    6  C15 UNL     1      30.457  45.697   3.699  1.00  0.00     0.060 A 
HETATM    7  C16 UNL     1      27.434  44.200   1.969  1.00  0.00     0.042 C 
HETATM    8  C17 UNL     1      26.480  45.126   1.291  1.00  0.00     0.009 C 
HETATM    9  C18 UNL     1      26.759  46.510   1.833  1.00  0.00     0.039 C 
ENDROOT
BRANCH   1  10
HETATM   10  N1  UNL     1      30.916  48.058   4.163  1.00  0.00    -0.281 N 
ATOM     11  H1  UNL     1      31.182  47.994   5.145  1.00  0.00     0.179 HD
BRANCH  10  12
HETATM   12  S1  UNL     1      31.505  49.379   3.248  1.00  0.00     0.263 S 
HETATM   13  O2  UNL     1      30.352  50.287   2.901  1.00  0.00    -0.200 OA
HETATM   14  O3  UNL     1      32.500  50.211   3.974  1.00  0.00    -0.200 OA
BRANCH  12  15
HETATM   15  C4  UNL     1      32.162  48.753   1.729  1.00  0.00     0.085 A 
HETATM   16  C3  UNL     1      33.460  48.303   1.631  1.00  0.00     0.065 A 
HETATM   17  C2  UNL     1      33.987  47.810   0.446  1.00  0.00     0.105 A 
HETATM   18  C22 UNL     1      33.196  47.763  -0.684  1.00  0.00     0.135 A 
HETATM   19  C20 UNL     1      31.872  48.216  -0.608  1.00  0.00     0.105 A 
HETATM   20  C19 UNL     1      31.381  48.700   0.593  1.00  0.00     0.065 A 
BRANCH  17  21
HETATM   21  O1  UNL     1      35.294  47.354   0.340  1.00  0.00    -0.353 OA
HETATM   22  C1  UNL     1      35.658  46.233   1.121  1.00  0.00     0.210 C 
ENDBRANCH  17  21
BRANCH  18  23
HETATM   23  O7  UNL     1      33.711  47.278  -1.856  1.00  0.00    -0.351 OA
HETATM   24  C23 UNL     1      34.330  48.026  -2.859  1.00  0.00     0.210 C 
ENDBRANCH  18  23
BRANCH  19  25
HETATM   25  O6  UNL     1      31.099  48.157  -1.760  1.00  0.00    -0.353 OA
HETATM   26  C21 UNL     1      30.242  47.040  -1.914  1.00  0.00     0.210 C 
ENDBRANCH  19  25
ENDBRANCH  12  15
ENDBRANCH  10  12
ENDBRANCH   1  10
BRANCH   5  27
HETATM   27  N2  UNL     1      30.032  43.353   3.255  1.00  0.00    -0.302 N 
HETATM   28  C10 UNL     1      31.034  42.689   2.540  1.00  0.00     0.365 C 
HETATM   29  O4  UNL     1      31.803  43.171   1.700  1.00  0.00    -0.238 OA
ATOM     30  H2  UNL     1      29.498  42.780   3.907  1.00  0.00     0.171 HD
BRANCH  28  31
HETATM   31  O5  UNL     1      31.256  41.305   2.742  1.00  0.00    -0.294 OA
BRANCH  31  32
HETATM   32  C11 UNL     1      31.097  40.342   1.764  1.00  0.00     0.061 C 
HETATM   33  C12 UNL     1      32.266  40.166   0.839  1.00  0.00     0.046 C 
HETATM   34  C13 UNL     1      30.916  39.002   2.490  1.00  0.00     0.046 C 
HETATM   35  C14 UNL     1      29.872  40.662   0.938  1.00  0.00     0.046 C 
ENDBRANCH  31  32
ENDBRANCH  28  31
ENDBRANCH   5  27
TORSDOF 9
ENDMDL
MODEL 5
REMARK VINA RESULT: -9.386887959      0.868      2.428
REMARK  9 active torsions:
REMARK  status: ('A' for Active; 'I' for Inactive)
REMARK    1  A    between atoms: O1_2  and  C2_3 
REMARK    2  A    between atoms: C4_5  and  S1_6 
REMARK    3  A    between atoms: S1_6  and  N1_9 
REMARK    4  A    between atoms: N1_9  and  C5_11 
REMARK    5  A    between atoms: C9_15  and  N2_16 
REMARK       I    between atoms: N2_16  and  C10_18 
REMARK    6  A    between atoms: C10_18  and  O5_20 
REMARK    7  A    between atoms: O5_20  and  C11_21 
REMARK    8  A    between atoms: C20_30  and  O6_31 
REMARK    9  A    between atoms: C22_33  and  O7_34 
ROOT
HETATM    1  C5  UNL     1      29.466  46.800   3.089  1.00  0.00     0.045 A 
HETATM    2  C6  UNL     1      28.315  47.281   2.514  1.00  0.00     0.038 A 
HETATM    3  C7  UNL     1      27.422  46.383   1.947  1.00  0.00    -0.047 A 
HETATM    4  C8  UNL     1      27.681  45.029   1.959  1.00  0.00    -0.025 A 
HETATM    5  C9  UNL     1      28.845  44.522   2.538  1.00  0.00     0.045 A 
HETATM    6  C15 UNL     1      29.719  45.418   3.095  1.00  0.00     0.060 A 
HETATM    7  C16 UNL     1      26.578  44.294   1.294  1.00  0.00     0.042 C 
HETATM    8  C17 UNL     1      25.717  45.336   0.662  1.00  0.00     0.009 C 
HETATM    9  C18 UNL     1      26.120  46.660   1.271  1.00  0.00     0.039 C 
ENDROOT
BRANCH   1  10
HETATM   10  N1  UNL     1      30.392  47.701   3.674  1.00  0.00    -0.281 N 
ATOM     11  H1  UNL     1      30.098  48.230   4.494  1.00  0.00     0.179 HD
BRANCH  10  12
HETATM   12  S1  UNL     1      31.975  47.948   3.075  1.00  0.00     0.263 S 
HETATM   13  O2  UNL     1      32.537  49.210   3.680  1.00  0.00    -0.200 OA
HETATM   14  O3  UNL     1      32.921  46.854   3.420  1.00  0.00    -0.200 OA
BRANCH  12  15
HETATM   15  C4  UNL     1      31.875  48.198   1.326  1.00  0.00     0.085 A 
HETATM   16  C3  UNL     1      32.385  49.327   0.724  1.00  0.00     0.065 A 
HETATM   17  C2  UNL     1      32.312  49.534  -0.646  1.00  0.00     0.105 A 
HETATM   18  C22 UNL     1      31.710  48.586  -1.447  1.00  0.00     0.135 A 
HETATM   19  C20 UNL     1      31.185  47.429  -0.857  1.00  0.00     0.105 A 
HETATM   20  C19 UNL     1      31.277  47.257   0.515  1.00  0.00     0.065 A 
BRANCH  17  21
HETATM   21  O1  UNL     1      32.824  50.670  -1.259  1.00  0.00    -0.353 OA
HETATM   22  C1  UNL     1      32.592  51.912  -0.627  1.00  0.00     0.210 C 
ENDBRANCH  17  21
BRANCH  18  23
HETATM   23  O7  UNL     1      31.636  48.785  -2.800  1.00  0.00    -0.351 OA
HETATM   24  C23 UNL     1      32.542  48.318  -3.755  1.00  0.00     0.210 C 
ENDBRANCH  18  23
BRANCH  19  25
HETATM   25  O6  UNL     1      30.585  46.491  -1.687  1.00  0.00    -0.353 OA
HETATM   26  C21 UNL     1      29.342  45.954  -1.273  1.00  0.00     0.210 C 
ENDBRANCH  19  25
ENDBRANCH  12  15
ENDBRANCH  10  12
ENDBRANCH   1  10
BRANCH   5  27
HETATM   27  N2  UNL     1      29.081  43.148   2.537  1.00  0.00    -0.302 N 
HETATM   28  C10 UNL     1      29.570  42.352   1.496  1.00  0.00     0.365 C 
HETATM   29  O4  UNL     1      29.891  42.717   0.359  1.00  0.00    -0.238 OA
ATOM     30  H2  UNL     1      28.871  42.660   3.408  1.00  0.00     0.171 HD
BRANCH  28  31
HETATM   31  O5  UNL     1      29.744  40.960   1.685  1.00  0.00    -0.294 OA
BRANCH  31  32
HETATM   32  C11 UNL     1      30.949  40.365   2.008  1.00  0.00     0.061 C 
HETATM   33  C12 UNL     1      31.990  40.391   0.926  1.00  0.00     0.046 C 
HETATM   34  C13 UNL     1      31.532  41.160   3.185  1.00  0.00     0.046 C 
HETATM   35  C14 UNL     1      30.709  38.929   2.412  1.00  0.00     0.046 C 
ENDBRANCH  31  32
ENDBRANCH  28  31
ENDBRANCH   5  27
TORSDOF 9
ENDMDL
