MODEL 1
REMARK VINA RESULT: -9.690659962      0.000      0.000
REMARK  9 active torsions:
REMARK  status: ('A' for Active; 'I' for Inactive)
REMARK    1  A    between atoms: O1_2  and  C2_3 
REMARK    2  A    between atoms: C7_9  and  O3_10 
REMARK    3  A    between atoms: O3_10  and  C8_11 
REMARK    4  A    between atoms: C14_18  and  C15_19 
REMARK    5  A    between atoms: C15_19  and  N2_20 
REMARK    6  A    between atoms: C20_25  and  O4_26 
REMARK    7  A    between atoms: C22_29  and  O5_30 
REMARK    8  A    between atoms: C23_32  and  C24_33 
REMARK    9  A    between atoms: C24_33  and  C25_34 
ROOT
HETATM    1  C2  UNL     1      32.263  50.294   1.746  1.00  0.00     0.078 A 
HETATM    2  C3  UNL     1      31.830  49.653   0.602  1.00  0.00     0.050 A 
HETATM    3  C4  UNL     1      31.524  48.311   0.658  1.00  0.00    -0.014 A 
HETATM    4  C5  UNL     1      31.079  47.815  -0.571  1.00  0.00     0.070 C 
HETATM    5  C6  UNL     1      30.343  46.650  -0.826  1.00  0.00     0.206 C 
HETATM    6  O2  UNL     1      30.147  46.323  -2.015  1.00  0.00    -0.285 OA
HETATM    7  C7  UNL     1      29.815  45.829   0.169  1.00  0.00     0.130 C 
HETATM    8  C14 UNL     1      30.347  45.548   1.402  1.00  0.00     0.042 C 
HETATM    9  C20 UNL     1      31.392  46.252   2.039  1.00  0.00     0.090 C 
HETATM   10  C21 UNL     1      31.647  47.600   1.851  1.00  0.00     0.042 A 
HETATM   11  C22 UNL     1      32.077  48.221   3.013  1.00  0.00     0.088 A 
HETATM   12  C23 UNL     1      32.377  49.559   2.933  1.00  0.00     0.013 A 
ENDROOT
BRANCH   7  13
HETATM   13  O3  UNL     1      28.603  45.256  -0.186  1.00  0.00    -0.339 OA
BRANCH  13  14
HETATM   14  C8  UNL     1      27.415  46.029  -0.417  1.00  0.00     0.157 C 
HETATM   15  C9  UNL     1      27.146  46.978   0.696  1.00  0.00     0.036 C 
HETATM   16  C10 UNL     1      25.990  46.454   1.542  1.00  0.00     0.033 C 
HETATM   17  C11 UNL     1      24.784  46.417   0.655  1.00  0.00     0.272 C 
HETATM   18  N1  UNL     1      25.000  45.548  -0.456  1.00  0.00     0.086 N 
HETATM   19  C12 UNL     1      24.051  44.455  -0.381  1.00  0.00     0.310 C 
HETATM   20  C13 UNL     1      26.316  44.977  -0.548  1.00  0.00     0.304 C 
ENDBRANCH  13  14
ENDBRANCH   7  13
BRANCH   8  21
HETATM   21  C15 UNL     1      29.839  44.360   2.112  1.00  0.00     0.317 C 
BRANCH  21  22
HETATM   22  N2  UNL     1      30.454  43.108   1.628  1.00  0.00     0.092 N 
HETATM   23  C16 UNL     1      29.356  42.198   1.216  1.00  0.00     0.273 C 
HETATM   24  C17 UNL     1      30.050  40.849   1.312  1.00  0.00     0.032 C 
HETATM   25  C18 UNL     1      30.992  41.011   2.507  1.00  0.00     0.032 C 
HETATM   26  C19 UNL     1      30.826  42.436   2.918  1.00  0.00     0.273 C 
ENDBRANCH  21  22
ENDBRANCH   8  21
BRANCH   9  27
HETATM   27  O4  UNL     1      32.198  45.585   2.882  1.00  0.00    -0.359 OA
ATOM     28  H4  UNL     1      31.832  45.252   3.693  1.00  0.00     0.217 HD
ENDBRANCH   9  27
BRANCH  11  29
HETATM   29  O5  UNL     1      32.181  47.491   4.176  1.00  0.00    -0.359 OA
ATOM     30  H5  UNL     1      31.409  47.347   4.711  1.00  0.00     0.217 HD
ENDBRANCH  11  29
BRANCH   1  31
HETATM   31  O1  UNL     1      32.583  51.641   1.738  1.00  0.00    -0.355 OA
HETATM   32  C1  UNL     1      31.592  52.562   1.328  1.00  0.00     0.210 C 
ENDBRANCH   1  31
BRANCH  12  33
HETATM   33  C24 UNL     1      32.846  50.316   4.109  1.00  0.00     0.072 C 
BRANCH  33  34
HETATM   34  C25 UNL     1      34.307  50.178   4.324  1.00  0.00    -0.020 C 
HETATM   35  C26 UNL     1      35.161  51.165   4.444  1.00  0.00    -0.091 C 
HETATM   36  C27 UNL     1      34.799  52.606   4.382  1.00  0.00     0.042 C 
HETATM   37  C28 UNL     1      36.619  50.861   4.662  1.00  0.00     0.042 C 
ENDBRANCH  33  34
ENDBRANCH  12  33
TORSDOF 9
ENDMDL
MODEL 2
REMARK VINA RESULT: -8.412544872      2.817      7.598
REMARK  9 active torsions:
REMARK  status: ('A' for Active; 'I' for Inactive)
REMARK    1  A    between atoms: O1_2  and  C2_3 
REMARK    2  A    between atoms: C7_9  and  O3_10 
REMARK    3  A    between atoms: O3_10  and  C8_11 
REMARK    4  A    between atoms: C14_18  and  C15_19 
REMARK    5  A    between atoms: C15_19  and  N2_20 
REMARK    6  A    between atoms: C20_25  and  O4_26 
REMARK    7  A    between atoms: C22_29  and  O5_30 
REMARK    8  A    between atoms: C23_32  and  C24_33 
REMARK    9  A    between atoms: C24_33  and  C25_34 
ROOT
HETATM    1  C2  UNL     1      28.299  45.357   2.489  1.00  0.00     0.078 A 
HETATM    2  C3  UNL     1      28.456  46.718   2.313  1.00  0.00     0.050 A 
HETATM    3  C4  UNL     1      29.727  47.250   2.292  1.00  0.00    -0.014 A 
HETATM    4  C5  UNL     1      29.720  48.632   2.081  1.00  0.00     0.070 C 
HETATM    5  C6  UNL     1      30.767  49.451   1.635  1.00  0.00     0.206 C 
HETATM    6  O2  UNL     1      30.589  50.687   1.627  1.00  0.00    -0.285 OA
HETATM    7  C7  UNL     1      31.999  48.969   1.197  1.00  0.00     0.130 C 
HETATM    8  C14 UNL     1      32.690  47.876   1.655  1.00  0.00     0.042 C 
HETATM    9  C20 UNL     1      32.169  46.840   2.462  1.00  0.00     0.090 C 
HETATM   10  C21 UNL     1      30.846  46.434   2.446  1.00  0.00     0.042 A 
HETATM   11  C22 UNL     1      30.714  45.065   2.622  1.00  0.00     0.088 A 
HETATM   12  C23 UNL     1      29.438  44.557   2.641  1.00  0.00     0.013 A 
ENDROOT
BRANCH   7  13
HETATM   13  O3  UNL     1      32.546  49.728   0.173  1.00  0.00    -0.339 OA
BRANCH  13  14
HETATM   14  C8  UNL     1      32.132  49.599  -1.197  1.00  0.00     0.157 C 
HETATM   15  C9  UNL     1      31.617  48.236  -1.494  1.00  0.00     0.036 C 
HETATM   16  C10 UNL     1      32.656  47.466  -2.301  1.00  0.00     0.033 C 
HETATM   17  C11 UNL     1      32.830  48.195  -3.597  1.00  0.00     0.272 C 
HETATM   18  N1  UNL     1      33.288  49.527  -3.370  1.00  0.00     0.086 N 
HETATM   19  C12 UNL     1      34.597  49.676  -3.974  1.00  0.00     0.310 C 
HETATM   20  C13 UNL     1      33.397  49.917  -1.990  1.00  0.00     0.304 C 
ENDBRANCH  13  14
ENDBRANCH   7  13
BRANCH   8  21
HETATM   21  C15 UNL     1      34.128  47.793   1.342  1.00  0.00     0.317 C 
BRANCH  21  22
HETATM   22  N2  UNL     1      34.977  48.126   2.502  1.00  0.00     0.092 N 
HETATM   23  C16 UNL     1      34.864  49.587   2.739  1.00  0.00     0.273 C 
HETATM   24  C17 UNL     1      36.150  49.855   3.503  1.00  0.00     0.032 C 
HETATM   25  C18 UNL     1      37.155  48.889   2.870  1.00  0.00     0.032 C 
HETATM   26  C19 UNL     1      36.347  48.106   1.889  1.00  0.00     0.273 C 
ENDBRANCH  21  22
ENDBRANCH   8  21
BRANCH   9  27
HETATM   27  O4  UNL     1      32.998  46.203   3.306  1.00  0.00    -0.359 OA
ATOM     28  H4  UNL     1      33.809  45.845   2.963  1.00  0.00     0.217 HD
ENDBRANCH   9  27
BRANCH  11  29
HETATM   29  O5  UNL     1      31.841  44.286   2.765  1.00  0.00    -0.359 OA
ATOM     30  H5  UNL     1      32.508  44.536   3.393  1.00  0.00     0.217 HD
ENDBRANCH  11  29
BRANCH   1  31
HETATM   31  O1  UNL     1      27.042  44.777   2.519  1.00  0.00    -0.355 OA
HETATM   32  C1  UNL     1      26.310  44.703   1.311  1.00  0.00     0.210 C 
ENDBRANCH   1  31
BRANCH  12  33
HETATM   33  C24 UNL     1      29.185  43.115   2.825  1.00  0.00     0.072 C 
BRANCH  33  34
HETATM   34  C25 UNL     1      29.369  42.345   1.570  1.00  0.00    -0.020 C 
HETATM   35  C26 UNL     1      30.131  41.289   1.423  1.00  0.00    -0.091 C 
HETATM   36  C27 UNL     1      30.950  40.683   2.507  1.00  0.00     0.042 C 
HETATM   37  C28 UNL     1      30.211  40.613   0.082  1.00  0.00     0.042 C 
ENDBRANCH  33  34
ENDBRANCH  12  33
TORSDOF 9
ENDMDL
MODEL 3
REMARK VINA RESULT: -8.384211318      3.057      7.346
REMARK  9 active torsions:
REMARK  status: ('A' for Active; 'I' for Inactive)
REMARK    1  A    between atoms: O1_2  and  C2_3 
REMARK    2  A    between atoms: C7_9  and  O3_10 
REMARK    3  A    between atoms: O3_10  and  C8_11 
REMARK    4  A    between atoms: C14_18  and  C15_19 
REMARK    5  A    between atoms: C15_19  and  N2_20 
REMARK    6  A    between atoms: C20_25  and  O4_26 
REMARK    7  A    between atoms: C22_29  and  O5_30 
REMARK    8  A    between atoms: C23_32  and  C24_33 
REMARK    9  A    between atoms: C24_33  and  C25_34 
ROOT
HETATM    1  C2  UNL     1      28.285  45.285   2.372  1.00  0.00     0.078 A 
HETATM    2  C3  UNL     1      28.404  46.648   2.185  1.00  0.00     0.050 A 
HETATM    3  C4  UNL     1      29.643  47.237   2.302  1.00  0.00    -0.014 A 
HETATM    4  C5  UNL     1      29.602  48.614   2.061  1.00  0.00     0.070 C 
HETATM    5  C6  UNL     1      30.658  49.472   1.723  1.00  0.00     0.206 C 
HETATM    6  O2  UNL     1      30.429  50.698   1.666  1.00  0.00    -0.285 OA
HETATM    7  C7  UNL     1      31.954  49.039   1.444  1.00  0.00     0.130 C 
HETATM    8  C14 UNL     1      32.631  47.986   2.005  1.00  0.00     0.042 C 
HETATM    9  C20 UNL     1      32.064  46.942   2.768  1.00  0.00     0.090 C 
HETATM   10  C21 UNL     1      30.771  46.475   2.605  1.00  0.00     0.042 A 
HETATM   11  C22 UNL     1      30.678  45.106   2.795  1.00  0.00     0.088 A 
HETATM   12  C23 UNL     1      29.432  44.540   2.674  1.00  0.00     0.013 A 
ENDROOT
BRANCH   7  13
HETATM   13  O3  UNL     1      32.585  49.804   0.475  1.00  0.00    -0.339 OA
BRANCH  13  14
HETATM   14  C8  UNL     1      32.175  49.807  -0.902  1.00  0.00     0.157 C 
HETATM   15  C9  UNL     1      31.736  48.460  -1.353  1.00  0.00     0.036 C 
HETATM   16  C10 UNL     1      32.815  47.845  -2.238  1.00  0.00     0.033 C 
HETATM   17  C11 UNL     1      32.944  48.724  -3.443  1.00  0.00     0.272 C 
HETATM   18  N1  UNL     1      33.327  50.045  -3.065  1.00  0.00     0.086 N 
HETATM   19  C12 UNL     1      34.624  50.335  -3.643  1.00  0.00     0.310 C 
HETATM   20  C13 UNL     1      33.418  50.283  -1.650  1.00  0.00     0.304 C 
ENDBRANCH  13  14
ENDBRANCH   7  13
BRANCH   8  21
HETATM   21  C15 UNL     1      34.098  47.963   1.865  1.00  0.00     0.317 C 
BRANCH  21  22
HETATM   22  N2  UNL     1      34.549  47.050   0.797  1.00  0.00     0.092 N 
HETATM   23  C16 UNL     1      35.544  46.120   1.388  1.00  0.00     0.273 C 
HETATM   24  C17 UNL     1      36.303  45.683   0.146  1.00  0.00     0.032 C 
HETATM   25  C18 UNL     1      36.314  46.938  -0.731  1.00  0.00     0.032 C 
HETATM   26  C19 UNL     1      35.495  47.927   0.029  1.00  0.00     0.273 C 
ENDBRANCH  21  22
ENDBRANCH   8  21
BRANCH   9  27
HETATM   27  O4  UNL     1      32.814  46.358   3.717  1.00  0.00    -0.359 OA
ATOM     28  H4  UNL     1      32.500  45.553   4.114  1.00  0.00     0.217 HD
ENDBRANCH   9  27
BRANCH  11  29
HETATM   29  O5  UNL     1      31.812  44.380   3.087  1.00  0.00    -0.359 OA
ATOM     30  H5  UNL     1      31.804  43.769   3.815  1.00  0.00     0.217 HD
ENDBRANCH  11  29
BRANCH   1  31
HETATM   31  O1  UNL     1      27.060  44.649   2.267  1.00  0.00    -0.355 OA
HETATM   32  C1  UNL     1      26.344  44.772   1.053  1.00  0.00     0.210 C 
ENDBRANCH   1  31
BRANCH  12  33
HETATM   33  C24 UNL     1      29.221  43.092   2.859  1.00  0.00     0.072 C 
BRANCH  33  34
HETATM   34  C25 UNL     1      29.610  42.307   1.662  1.00  0.00    -0.020 C 
HETATM   35  C26 UNL     1      30.455  41.304   1.644  1.00  0.00    -0.091 C 
HETATM   36  C27 UNL     1      31.173  40.784   2.838  1.00  0.00     0.042 C 
HETATM   37  C28 UNL     1      30.746  40.604   0.345  1.00  0.00     0.042 C 
ENDBRANCH  33  34
ENDBRANCH  12  33
TORSDOF 9
ENDMDL
MODEL 4
REMARK VINA RESULT: -8.206014043      1.032      1.237
REMARK  9 active torsions:
REMARK  status: ('A' for Active; 'I' for Inactive)
REMARK    1  A    between atoms: O1_2  and  C2_3 
REMARK    2  A    between atoms: C7_9  and  O3_10 
REMARK    3  A    between atoms: O3_10  and  C8_11 
REMARK    4  A    between atoms: C14_18  and  C15_19 
REMARK    5  A    between atoms: C15_19  and  N2_20 
REMARK    6  A    between atoms: C20_25  and  O4_26 
REMARK    7  A    between atoms: C22_29  and  O5_30 
REMARK    8  A    between atoms: C23_32  and  C24_33 
REMARK    9  A    between atoms: C24_33  and  C25_34 
ROOT
HETATM    1  C2  UNL     1      32.984  49.306   1.084  1.00  0.00     0.078 A 
HETATM    2  C3  UNL     1      32.228  48.828   0.031  1.00  0.00     0.050 A 
HETATM    3  C4  UNL     1      31.743  47.540   0.082  1.00  0.00    -0.014 A 
HETATM    4  C5  UNL     1      30.979  47.215  -1.043  1.00  0.00     0.070 C 
HETATM    5  C6  UNL     1      30.039  46.185  -1.191  1.00  0.00     0.206 C 
HETATM    6  O2  UNL     1      29.550  45.989  -2.323  1.00  0.00    -0.285 OA
HETATM    7  C7  UNL     1      29.616  45.362  -0.148  1.00  0.00     0.130 C 
HETATM    8  C14 UNL     1      30.348  44.907   0.919  1.00  0.00     0.042 C 
HETATM    9  C20 UNL     1      31.597  45.408   1.346  1.00  0.00     0.090 C 
HETATM   10  C21 UNL     1      32.007  46.720   1.178  1.00  0.00     0.042 A 
HETATM   11  C22 UNL     1      32.760  47.177   2.248  1.00  0.00     0.088 A 
HETATM   12  C23 UNL     1      33.234  48.464   2.175  1.00  0.00     0.013 A 
ENDROOT
BRANCH   7  13
HETATM   13  O3  UNL     1      28.285  44.989  -0.257  1.00  0.00    -0.339 OA
BRANCH  13  14
HETATM   14  C8  UNL     1      27.217  45.943  -0.375  1.00  0.00     0.157 C 
HETATM   15  C9  UNL     1      27.131  46.829   0.816  1.00  0.00     0.036 C 
HETATM   16  C10 UNL     1      25.939  46.413   1.672  1.00  0.00     0.033 C 
HETATM   17  C11 UNL     1      24.711  46.623   0.840  1.00  0.00     0.272 C 
HETATM   18  N1  UNL     1      24.758  45.824  -0.341  1.00  0.00     0.086 N 
HETATM   19  C12 UNL     1      23.660  44.879  -0.304  1.00  0.00     0.310 C 
HETATM   20  C13 UNL     1      25.971  45.077  -0.535  1.00  0.00     0.304 C 
ENDBRANCH  13  14
ENDBRANCH   7  13
BRANCH   8  21
HETATM   21  C15 UNL     1      29.829  43.743   1.660  1.00  0.00     0.317 C 
BRANCH  21  22
HETATM   22  N2  UNL     1      30.581  42.508   1.367  1.00  0.00     0.092 N 
HETATM   23  C16 UNL     1      29.703  41.627   0.556  1.00  0.00     0.273 C 
HETATM   24  C17 UNL     1      30.328  40.268   0.829  1.00  0.00     0.032 C 
HETATM   25  C18 UNL     1      30.790  40.369   2.284  1.00  0.00     0.032 C 
HETATM   26  C19 UNL     1      30.483  41.777   2.674  1.00  0.00     0.273 C 
ENDBRANCH  21  22
ENDBRANCH   8  21
BRANCH   9  27
HETATM   27  O4  UNL     1      32.453  44.570   1.953  1.00  0.00    -0.359 OA
ATOM     28  H4  UNL     1      32.107  43.927   2.561  1.00  0.00     0.217 HD
ENDBRANCH   9  27
BRANCH  11  29
HETATM   29  O5  UNL     1      32.997  46.344   3.319  1.00  0.00    -0.359 OA
ATOM     30  H5  UNL     1      33.608  46.611   3.995  1.00  0.00     0.217 HD
ENDBRANCH  11  29
BRANCH   1  31
HETATM   31  O1  UNL     1      33.494  50.593   1.077  1.00  0.00    -0.355 OA
HETATM   32  C1  UNL     1      33.655  51.242  -0.170  1.00  0.00     0.210 C 
ENDBRANCH   1  31
BRANCH  12  33
HETATM   33  C24 UNL     1      34.049  49.049   3.257  1.00  0.00     0.072 C 
BRANCH  33  34
HETATM   34  C25 UNL     1      33.691  50.462   3.533  1.00  0.00    -0.020 C 
HETATM   35  C26 UNL     1      34.474  51.357   4.085  1.00  0.00    -0.091 C 
HETATM   36  C27 UNL     1      35.868  51.099   4.531  1.00  0.00     0.042 C 
HETATM   37  C28 UNL     1      33.963  52.757   4.298  1.00  0.00     0.042 C 
ENDBRANCH  33  34
ENDBRANCH  12  33
TORSDOF 9
ENDMDL
MODEL 5
REMARK VINA RESULT: -8.179271620      2.797      6.139
REMARK  9 active torsions:
REMARK  status: ('A' for Active; 'I' for Inactive)
REMARK    1  A    between atoms: O1_2  and  C2_3 
REMARK    2  A    between atoms: C7_9  and  O3_10 
REMARK    3  A    between atoms: O3_10  and  C8_11 
REMARK    4  A    between atoms: C14_18  and  C15_19 
REMARK    5  A    between atoms: C15_19  and  N2_20 
REMARK    6  A    between atoms: C20_25  and  O4_26 
REMARK    7  A    between atoms: C22_29  and  O5_30 
REMARK    8  A    between atoms: C23_32  and  C24_33 
REMARK    9  A    between atoms: C24_33  and  C25_34 
ROOT
HETATM    1  C2  UNL     1      32.720  48.065  -0.813  1.00  0.00     0.078 A 
HETATM    2  C3  UNL     1      32.173  47.954   0.450  1.00  0.00     0.050 A 
HETATM    3  C4  UNL     1      30.899  47.448   0.589  1.00  0.00    -0.014 A 
HETATM    4  C5  UNL     1      30.499  47.376   1.927  1.00  0.00     0.070 C 
HETATM    5  C6  UNL     1      29.473  46.603   2.489  1.00  0.00     0.206 C 
HETATM    6  O2  UNL     1      29.198  46.774   3.695  1.00  0.00    -0.285 OA
HETATM    7  C7  UNL     1      28.738  45.652   1.783  1.00  0.00     0.130 C 
HETATM    8  C14 UNL     1      28.357  45.687   0.465  1.00  0.00     0.042 C 
HETATM    9  C20 UNL     1      28.873  46.549  -0.528  1.00  0.00     0.090 C 
HETATM   10  C21 UNL     1      30.162  47.052  -0.526  1.00  0.00     0.042 A 
HETATM   11  C22 UNL     1      30.690  47.152  -1.804  1.00  0.00     0.088 A 
HETATM   12  C23 UNL     1      31.961  47.659  -1.918  1.00  0.00     0.013 A 
ENDROOT
BRANCH   7  13
HETATM   13  O3  UNL     1      28.376  44.561   2.558  1.00  0.00    -0.339 OA
BRANCH  13  14
HETATM   14  C8  UNL     1      29.291  43.504   2.888  1.00  0.00     0.157 C 
HETATM   15  C9  UNL     1      30.705  43.962   2.848  1.00  0.00     0.036 C 
HETATM   16  C10 UNL     1      31.379  43.420   1.592  1.00  0.00     0.033 C 
HETATM   17  C11 UNL     1      31.373  41.927   1.704  1.00  0.00     0.272 C 
HETATM   18  N1  UNL     1      30.037  41.432   1.785  1.00  0.00     0.086 N 
HETATM   19  C12 UNL     1      29.781  40.598   0.629  1.00  0.00     0.310 C 
HETATM   20  C13 UNL     1      29.007  42.435   1.837  1.00  0.00     0.304 C 
ENDBRANCH  13  14
ENDBRANCH   7  13
BRANCH   8  21
HETATM   21  C15 UNL     1      27.261  44.797   0.045  1.00  0.00     0.317 C 
BRANCH  21  22
HETATM   22  N2  UNL     1      26.036  45.540  -0.310  1.00  0.00     0.092 N 
HETATM   23  C16 UNL     1      25.623  46.324   0.881  1.00  0.00     0.273 C 
HETATM   24  C17 UNL     1      24.146  46.534   0.590  1.00  0.00     0.032 C 
HETATM   25  C18 UNL     1      23.728  45.237  -0.107  1.00  0.00     0.032 C 
HETATM   26  C19 UNL     1      24.996  44.461  -0.235  1.00  0.00     0.273 C 
ENDBRANCH  21  22
ENDBRANCH   8  21
BRANCH   9  27
HETATM   27  O4  UNL     1      28.072  46.912  -1.543  1.00  0.00    -0.359 OA
ATOM     28  H4  UNL     1      28.136  46.440  -2.365  1.00  0.00     0.217 HD
ENDBRANCH   9  27
BRANCH  11  29
HETATM   29  O5  UNL     1      29.938  46.746  -2.884  1.00  0.00    -0.359 OA
ATOM     30  H5  UNL     1      29.120  47.187  -3.079  1.00  0.00     0.217 HD
ENDBRANCH  11  29
BRANCH   1  31
HETATM   31  O1  UNL     1      33.996  48.569  -1.002  1.00  0.00    -0.355 OA
HETATM   32  C1  UNL     1      35.060  47.983  -0.278  1.00  0.00     0.210 C 
ENDBRANCH   1  31
BRANCH  12  33
HETATM   33  C24 UNL     1      32.616  47.811  -3.231  1.00  0.00     0.072 C 
BRANCH  33  34
HETATM   34  C25 UNL     1      33.530  46.684  -3.540  1.00  0.00    -0.020 C 
HETATM   35  C26 UNL     1      34.355  46.623  -4.558  1.00  0.00    -0.091 C 
HETATM   36  C27 UNL     1      34.510  47.688  -5.583  1.00  0.00     0.042 C 
HETATM   37  C28 UNL     1      35.223  45.406  -4.735  1.00  0.00     0.042 C 
ENDBRANCH  33  34
ENDBRANCH  12  33
TORSDOF 9
ENDMDL
