MODEL 1
REMARK VINA RESULT: -10.156194193      0.000      0.000
REMARK  9 active torsions:
REMARK  status: ('A' for Active; 'I' for Inactive)
REMARK    1  A    between atoms: O1_2  and  C2_3 
REMARK    2  A    between atoms: C5_6  and  N1_7 
REMARK    3  A    between atoms: N1_7  and  C6_9 
REMARK    4  A    between atoms: C7_12  and  N3_13 
REMARK    5  A    between atoms: N3_13  and  C8_15 
REMARK    6  A    between atoms: C8_15  and  C9_16 
REMARK    7  A    between atoms: C11_18  and  O2_19 
REMARK    8  A    between atoms: C13_21  and  O3_22 
REMARK    9  A    between atoms: C15_24  and  O4_25 
ROOT
HETATM    1  C2  UNL     1      23.554  45.964   0.370  1.00  0.00     0.089 A 
HETATM    2  C3  UNL     1      24.422  46.872   0.966  1.00  0.00     0.040 A 
HETATM    3  C4  UNL     1      25.775  46.698   0.757  1.00  0.00     0.033 A 
HETATM    4  C5  UNL     1      26.308  45.678  -0.006  1.00  0.00     0.050 A 
HETATM    5  C22 UNL     1      25.386  44.796  -0.579  1.00  0.00     0.055 A 
HETATM    6  C23 UNL     1      24.042  44.932  -0.398  1.00  0.00     0.080 A 
HETATM    7  C24 UNL     1      23.100  44.027  -0.987  1.00  0.00     0.102 C 
HETATM    8  N5  UNL     1      22.318  43.287  -1.458  1.00  0.00    -0.191 NA
ENDROOT
BRANCH   1   9
HETATM    9  O1  UNL     1      22.174  46.115   0.563  1.00  0.00    -0.354 OA
HETATM   10  C1  UNL     1      21.668  47.103   1.433  1.00  0.00     0.210 C 
ENDBRANCH   1   9
BRANCH   4  11
HETATM   11  N1  UNL     1      27.693  45.533  -0.194  1.00  0.00    -0.192 N 
ATOM     12  H1  UNL     1      28.126  45.991  -0.996  1.00  0.00     0.184 HD
BRANCH  11  13
HETATM   13  C6  UNL     1      28.456  44.835   0.614  1.00  0.00     0.684 A 
HETATM   14  N2  UNL     1      28.907  45.392   1.754  1.00  0.00    -0.175 N 
HETATM   15  C7  UNL     1      29.678  44.613   2.528  1.00  0.00     0.136 A 
ATOM     16  H2  UNL     1      28.676  46.350   2.014  1.00  0.00     0.186 HD
HETATM   17  C18 UNL     1      29.989  43.292   2.162  1.00  0.00     0.076 A 
HETATM   18  S1  UNL     1      30.903  42.022   2.847  1.00  0.00    -0.096 SA
HETATM   19  C21 UNL     1      29.523  42.744   1.003  1.00  0.00     0.070 A 
HETATM   20  C19 UNL     1      30.670  40.834   1.648  1.00  0.00     0.053 A 
HETATM   21  C20 UNL     1      29.874  41.473   0.736  1.00  0.00     0.039 A 
HETATM   22  N4  UNL     1      28.738  43.585   0.247  1.00  0.00    -0.190 N 
ATOM     23  H4  UNL     1      28.356  43.237  -0.633  1.00  0.00     0.184 HD
BRANCH  15  24
HETATM   24  N3  UNL     1      30.180  45.005   3.648  1.00  0.00    -0.370 N 
ATOM     25  H3  UNL     1      30.750  44.364   4.201  1.00  0.00     0.161 HD
BRANCH  24  26
HETATM   26  C8  UNL     1      29.941  46.356   4.127  1.00  0.00     0.160 C 
BRANCH  26  27
HETATM   27  C9  UNL     1      30.971  47.301   3.647  1.00  0.00    -0.035 A 
HETATM   28  C10 UNL     1      30.697  48.648   3.584  1.00  0.00     0.048 A 
HETATM   29  C11 UNL     1      31.664  49.558   3.134  1.00  0.00     0.104 A 
HETATM   30  C13 UNL     1      32.895  49.055   2.761  1.00  0.00     0.135 A 
HETATM   31  C15 UNL     1      33.198  47.716   2.812  1.00  0.00     0.104 A 
HETATM   32  C17 UNL     1      32.215  46.848   3.262  1.00  0.00     0.048 A 
BRANCH  29  33
HETATM   33  O2  UNL     1      31.399  50.917   3.067  1.00  0.00    -0.353 OA
HETATM   34  C12 UNL     1      30.526  51.370   2.040  1.00  0.00     0.210 C 
ENDBRANCH  29  33
BRANCH  30  35
HETATM   35  O3  UNL     1      33.854  49.943   2.316  1.00  0.00    -0.351 OA
HETATM   36  C14 UNL     1      33.901  50.221   0.924  1.00  0.00     0.210 C 
ENDBRANCH  30  35
BRANCH  31  37
HETATM   37  O4  UNL     1      34.451  47.288   2.421  1.00  0.00    -0.353 OA
HETATM   38  C16 UNL     1      34.545  46.512   1.242  1.00  0.00     0.210 C 
ENDBRANCH  31  37
ENDBRANCH  26  27
ENDBRANCH  24  26
ENDBRANCH  15  24
ENDBRANCH  11  13
ENDBRANCH   4  11
TORSDOF 9
ENDMDL
MODEL 2
REMARK VINA RESULT: -10.153556633      0.026      2.096
REMARK  9 active torsions:
REMARK  status: ('A' for Active; 'I' for Inactive)
REMARK    1  A    between atoms: O1_2  and  C2_3 
REMARK    2  A    between atoms: C5_6  and  N1_7 
REMARK    3  A    between atoms: N1_7  and  C6_9 
REMARK    4  A    between atoms: C7_12  and  N3_13 
REMARK    5  A    between atoms: N3_13  and  C8_15 
REMARK    6  A    between atoms: C8_15  and  C9_16 
REMARK    7  A    between atoms: C11_18  and  O2_19 
REMARK    8  A    between atoms: C13_21  and  O3_22 
REMARK    9  A    between atoms: C15_24  and  O4_25 
ROOT
HETATM    1  C2  UNL     1      23.563  45.962   0.367  1.00  0.00     0.089 A 
HETATM    2  C3  UNL     1      24.432  46.869   0.963  1.00  0.00     0.040 A 
HETATM    3  C4  UNL     1      25.785  46.694   0.755  1.00  0.00     0.033 A 
HETATM    4  C5  UNL     1      26.317  45.674  -0.008  1.00  0.00     0.050 A 
HETATM    5  C22 UNL     1      25.396  44.793  -0.583  1.00  0.00     0.055 A 
HETATM    6  C23 UNL     1      24.051  44.930  -0.402  1.00  0.00     0.080 A 
HETATM    7  C24 UNL     1      23.109  44.026  -0.992  1.00  0.00     0.102 C 
HETATM    8  N5  UNL     1      22.326  43.287  -1.464  1.00  0.00    -0.191 NA
ENDROOT
BRANCH   1   9
HETATM    9  O1  UNL     1      22.184  46.114   0.559  1.00  0.00    -0.354 OA
HETATM   10  C1  UNL     1      21.677  47.111   1.418  1.00  0.00     0.210 C 
ENDBRANCH   1   9
BRANCH   4  11
HETATM   11  N1  UNL     1      27.703  45.528  -0.196  1.00  0.00    -0.192 N 
ATOM     12  H1  UNL     1      28.138  45.991  -0.995  1.00  0.00     0.184 HD
BRANCH  11  13
HETATM   13  C6  UNL     1      28.463  44.823   0.609  1.00  0.00     0.684 A 
HETATM   14  N2  UNL     1      28.920  45.374   1.750  1.00  0.00    -0.175 N 
HETATM   15  C7  UNL     1      29.689  44.589   2.520  1.00  0.00     0.136 A 
ATOM     16  H2  UNL     1      28.695  46.334   2.013  1.00  0.00     0.186 HD
HETATM   17  C18 UNL     1      29.992  43.268   2.149  1.00  0.00     0.076 A 
HETATM   18  S1  UNL     1      30.901  41.991   2.828  1.00  0.00    -0.096 SA
HETATM   19  C21 UNL     1      29.521  42.726   0.989  1.00  0.00     0.070 A 
HETATM   20  C19 UNL     1      30.660  40.809   1.626  1.00  0.00     0.053 A 
HETATM   21  C20 UNL     1      29.865  41.454   0.718  1.00  0.00     0.039 A 
HETATM   22  N4  UNL     1      28.738  43.574   0.237  1.00  0.00    -0.190 N 
ATOM     23  H4  UNL     1      28.353  43.231  -0.643  1.00  0.00     0.184 HD
BRANCH  15  24
HETATM   24  N3  UNL     1      30.195  44.976   3.639  1.00  0.00    -0.370 N 
ATOM     25  H3  UNL     1      30.771  44.334   4.185  1.00  0.00     0.161 HD
BRANCH  24  26
HETATM   26  C8  UNL     1      29.951  46.321   4.131  1.00  0.00     0.160 C 
BRANCH  26  27
HETATM   27  C9  UNL     1      30.975  47.275   3.655  1.00  0.00    -0.035 A 
HETATM   28  C10 UNL     1      32.212  46.821   3.259  1.00  0.00     0.048 A 
HETATM   29  C11 UNL     1      33.194  47.712   2.802  1.00  0.00     0.104 A 
HETATM   30  C13 UNL     1      32.874  49.054   2.764  1.00  0.00     0.135 A 
HETATM   31  C15 UNL     1      31.648  49.539   3.153  1.00  0.00     0.104 A 
HETATM   32  C17 UNL     1      30.704  48.626   3.599  1.00  0.00     0.048 A 
BRANCH  29  33
HETATM   33  O2  UNL     1      34.442  47.264   2.401  1.00  0.00    -0.353 OA
HETATM   34  C12 UNL     1      34.523  46.523   1.192  1.00  0.00     0.210 C 
ENDBRANCH  29  33
BRANCH  30  35
HETATM   35  O3  UNL     1      33.833  49.940   2.316  1.00  0.00    -0.351 OA
HETATM   36  C14 UNL     1      33.875  50.218   0.924  1.00  0.00     0.210 C 
ENDBRANCH  30  35
BRANCH  31  37
HETATM   37  O4  UNL     1      31.402  50.895   3.087  1.00  0.00    -0.353 OA
HETATM   38  C16 UNL     1      30.516  51.357   2.085  1.00  0.00     0.210 C 
ENDBRANCH  31  37
ENDBRANCH  26  27
ENDBRANCH  24  26
ENDBRANCH  15  24
ENDBRANCH  11  13
ENDBRANCH   4  11
TORSDOF 9
ENDMDL
MODEL 3
REMARK VINA RESULT: -9.693221804      1.270      1.742
REMARK  9 active torsions:
REMARK  status: ('A' for Active; 'I' for Inactive)
REMARK    1  A    between atoms: O1_2  and  C2_3 
REMARK    2  A    between atoms: C5_6  and  N1_7 
REMARK    3  A    between atoms: N1_7  and  C6_9 
REMARK    4  A    between atoms: C7_12  and  N3_13 
REMARK    5  A    between atoms: N3_13  and  C8_15 
REMARK    6  A    between atoms: C8_15  and  C9_16 
REMARK    7  A    between atoms: C11_18  and  O2_19 
REMARK    8  A    between atoms: C13_21  and  O3_22 
REMARK    9  A    between atoms: C15_24  and  O4_25 
ROOT
HETATM    1  C2  UNL     1      23.569  45.928   0.349  1.00  0.00     0.089 A 
HETATM    2  C3  UNL     1      24.442  46.850   0.918  1.00  0.00     0.040 A 
HETATM    3  C4  UNL     1      25.788  46.711   0.647  1.00  0.00     0.033 A 
HETATM    4  C5  UNL     1      26.310  45.713  -0.151  1.00  0.00     0.050 A 
HETATM    5  C22 UNL     1      25.385  44.816  -0.695  1.00  0.00     0.055 A 
HETATM    6  C23 UNL     1      24.048  44.917  -0.453  1.00  0.00     0.080 A 
HETATM    7  C24 UNL     1      23.102  43.997  -1.012  1.00  0.00     0.102 C 
HETATM    8  N5  UNL     1      22.318  43.244  -1.458  1.00  0.00    -0.191 NA
ENDROOT
BRANCH   1   9
HETATM    9  O1  UNL     1      22.197  46.043   0.605  1.00  0.00    -0.354 OA
HETATM   10  C1  UNL     1      21.690  47.108   1.378  1.00  0.00     0.210 C 
ENDBRANCH   1   9
BRANCH   4  11
HETATM   11  N1  UNL     1      27.689  45.604  -0.402  1.00  0.00    -0.192 N 
ATOM     12  H1  UNL     1      28.065  46.029  -1.250  1.00  0.00     0.184 HD
BRANCH  11  13
HETATM   13  C6  UNL     1      28.516  44.981   0.405  1.00  0.00     0.684 A 
HETATM   14  N2  UNL     1      29.179  45.675   1.348  1.00  0.00    -0.175 N 
HETATM   15  C7  UNL     1      30.003  44.966   2.135  1.00  0.00     0.136 A 
ATOM     16  H2  UNL     1      29.063  46.683   1.459  1.00  0.00     0.186 HD
HETATM   17  C18 UNL     1      30.156  43.578   1.976  1.00  0.00     0.076 A 
HETATM   18  S1  UNL     1      31.070  42.358   2.745  1.00  0.00    -0.096 SA
HETATM   19  C21 UNL     1      29.475  42.891   1.014  1.00  0.00     0.070 A 
HETATM   20  C19 UNL     1      30.567  41.014   1.829  1.00  0.00     0.053 A 
HETATM   21  C20 UNL     1      29.686  41.564   0.937  1.00  0.00     0.039 A 
HETATM   22  N4  UNL     1      28.645  43.665   0.236  1.00  0.00    -0.190 N 
ATOM     23  H4  UNL     1      28.106  43.213  -0.503  1.00  0.00     0.184 HD
BRANCH  15  24
HETATM   24  N3  UNL     1      30.702  45.491   3.082  1.00  0.00    -0.370 N 
ATOM     25  H3  UNL     1      30.293  45.606   4.010  1.00  0.00     0.161 HD
BRANCH  24  26
HETATM   26  C8  UNL     1      32.067  45.922   2.836  1.00  0.00     0.160 C 
BRANCH  26  27
HETATM   27  C9  UNL     1      32.140  47.359   2.499  1.00  0.00    -0.035 A 
HETATM   28  C10 UNL     1      32.278  48.296   3.497  1.00  0.00     0.048 A 
HETATM   29  C11 UNL     1      32.352  49.663   3.194  1.00  0.00     0.104 A 
HETATM   30  C13 UNL     1      32.283  50.031   1.865  1.00  0.00     0.135 A 
HETATM   31  C15 UNL     1      32.144  49.119   0.847  1.00  0.00     0.104 A 
HETATM   32  C17 UNL     1      32.075  47.776   1.186  1.00  0.00     0.048 A 
BRANCH  29  33
HETATM   33  O2  UNL     1      32.490  50.615   4.191  1.00  0.00    -0.353 OA
HETATM   34  C12 UNL     1      33.783  50.805   4.750  1.00  0.00     0.210 C 
ENDBRANCH  29  33
BRANCH  30  35
HETATM   35  O3  UNL     1      32.354  51.374   1.556  1.00  0.00    -0.351 OA
HETATM   36  C14 UNL     1      31.151  52.127   1.605  1.00  0.00     0.210 C 
ENDBRANCH  30  35
BRANCH  31  37
HETATM   37  O4  UNL     1      32.082  49.563  -0.459  1.00  0.00    -0.353 OA
HETATM   38  C16 UNL     1      32.023  48.590  -1.485  1.00  0.00     0.210 C 
ENDBRANCH  31  37
ENDBRANCH  26  27
ENDBRANCH  24  26
ENDBRANCH  15  24
ENDBRANCH  11  13
ENDBRANCH   4  11
TORSDOF 9
ENDMDL
MODEL 4
REMARK VINA RESULT: -9.672360112      1.278      1.990
REMARK  9 active torsions:
REMARK  status: ('A' for Active; 'I' for Inactive)
REMARK    1  A    between atoms: O1_2  and  C2_3 
REMARK    2  A    between atoms: C5_6  and  N1_7 
REMARK    3  A    between atoms: N1_7  and  C6_9 
REMARK    4  A    between atoms: C7_12  and  N3_13 
REMARK    5  A    between atoms: N3_13  and  C8_15 
REMARK    6  A    between atoms: C8_15  and  C9_16 
REMARK    7  A    between atoms: C11_18  and  O2_19 
REMARK    8  A    between atoms: C13_21  and  O3_22 
REMARK    9  A    between atoms: C15_24  and  O4_25 
ROOT
HETATM    1  C2  UNL     1      23.561  45.929   0.354  1.00  0.00     0.089 A 
HETATM    2  C3  UNL     1      24.431  46.853   0.923  1.00  0.00     0.040 A 
HETATM    3  C4  UNL     1      25.777  46.720   0.651  1.00  0.00     0.033 A 
HETATM    4  C5  UNL     1      26.302  45.724  -0.150  1.00  0.00     0.050 A 
HETATM    5  C22 UNL     1      25.380  44.825  -0.694  1.00  0.00     0.055 A 
HETATM    6  C23 UNL     1      24.042  44.922  -0.450  1.00  0.00     0.080 A 
HETATM    7  C24 UNL     1      23.099  43.999  -1.009  1.00  0.00     0.102 C 
HETATM    8  N5  UNL     1      22.316  43.244  -1.455  1.00  0.00    -0.191 NA
ENDROOT
BRANCH   1   9
HETATM    9  O1  UNL     1      22.189  46.040   0.611  1.00  0.00    -0.354 OA
HETATM   10  C1  UNL     1      21.675  47.120   1.358  1.00  0.00     0.210 C 
ENDBRANCH   1   9
BRANCH   4  11
HETATM   11  N1  UNL     1      27.681  45.621  -0.403  1.00  0.00    -0.192 N 
ATOM     12  H1  UNL     1      28.054  46.048  -1.251  1.00  0.00     0.184 HD
BRANCH  11  13
HETATM   13  C6  UNL     1      28.511  44.999   0.402  1.00  0.00     0.684 A 
HETATM   14  N2  UNL     1      29.182  45.695   1.338  1.00  0.00    -0.175 N 
HETATM   15  C7  UNL     1      30.009  44.987   2.123  1.00  0.00     0.136 A 
ATOM     16  H2  UNL     1      29.070  46.704   1.444  1.00  0.00     0.186 HD
HETATM   17  C18 UNL     1      30.156  43.598   1.970  1.00  0.00     0.076 A 
HETATM   18  S1  UNL     1      31.072  42.379   2.739  1.00  0.00    -0.096 SA
HETATM   19  C21 UNL     1      29.467  42.908   1.015  1.00  0.00     0.070 A 
HETATM   20  C19 UNL     1      30.558  41.032   1.832  1.00  0.00     0.053 A 
HETATM   21  C20 UNL     1      29.674  41.581   0.944  1.00  0.00     0.039 A 
HETATM   22  N4  UNL     1      28.635  43.682   0.238  1.00  0.00    -0.190 N 
ATOM     23  H4  UNL     1      28.089  43.228  -0.494  1.00  0.00     0.184 HD
BRANCH  15  24
HETATM   24  N3  UNL     1      30.715  45.515   3.062  1.00  0.00    -0.370 N 
ATOM     25  H3  UNL     1      30.310  45.641   3.991  1.00  0.00     0.161 HD
BRANCH  24  26
HETATM   26  C8  UNL     1      32.084  45.931   2.809  1.00  0.00     0.160 C 
BRANCH  26  27
HETATM   27  C9  UNL     1      32.176  47.377   2.521  1.00  0.00    -0.035 A 
HETATM   28  C10 UNL     1      32.085  47.831   1.225  1.00  0.00     0.048 A 
HETATM   29  C11 UNL     1      32.167  49.201   0.935  1.00  0.00     0.104 A 
HETATM   30  C13 UNL     1      32.340  50.071   1.993  1.00  0.00     0.135 A 
HETATM   31  C15 UNL     1      32.435  49.649   3.297  1.00  0.00     0.104 A 
HETATM   32  C17 UNL     1      32.349  48.287   3.543  1.00  0.00     0.048 A 
BRANCH  29  33
HETATM   33  O2  UNL     1      32.077  49.668  -0.366  1.00  0.00    -0.353 OA
HETATM   34  C12 UNL     1      32.271  48.734  -1.420  1.00  0.00     0.210 C 
ENDBRANCH  29  33
BRANCH  30  35
HETATM   35  O3  UNL     1      32.422  51.421   1.718  1.00  0.00    -0.351 OA
HETATM   36  C14 UNL     1      31.208  52.156   1.652  1.00  0.00     0.210 C 
ENDBRANCH  30  35
BRANCH  31  37
HETATM   37  O4  UNL     1      32.608  50.579   4.301  1.00  0.00    -0.353 OA
HETATM   38  C16 UNL     1      33.925  50.822   4.757  1.00  0.00     0.210 C 
ENDBRANCH  31  37
ENDBRANCH  26  27
ENDBRANCH  24  26
ENDBRANCH  15  24
ENDBRANCH  11  13
ENDBRANCH   4  11
TORSDOF 9
ENDMDL
MODEL 5
REMARK VINA RESULT: -9.607355419      1.030      2.265
REMARK  9 active torsions:
REMARK  status: ('A' for Active; 'I' for Inactive)
REMARK    1  A    between atoms: O1_2  and  C2_3 
REMARK    2  A    between atoms: C5_6  and  N1_7 
REMARK    3  A    between atoms: N1_7  and  C6_9 
REMARK    4  A    between atoms: C7_12  and  N3_13 
REMARK    5  A    between atoms: N3_13  and  C8_15 
REMARK    6  A    between atoms: C8_15  and  C9_16 
REMARK    7  A    between atoms: C11_18  and  O2_19 
REMARK    8  A    between atoms: C13_21  and  O3_22 
REMARK    9  A    between atoms: C15_24  and  O4_25 
ROOT
HETATM    1  C2  UNL     1      23.723  45.988   0.358  1.00  0.00     0.089 A 
HETATM    2  C3  UNL     1      24.609  46.896   0.926  1.00  0.00     0.040 A 
HETATM    3  C4  UNL     1      25.952  46.741   0.651  1.00  0.00     0.033 A 
HETATM    4  C5  UNL     1      26.459  45.738  -0.152  1.00  0.00     0.050 A 
HETATM    5  C22 UNL     1      25.520  44.855  -0.696  1.00  0.00     0.055 A 
HETATM    6  C23 UNL     1      24.185  44.973  -0.449  1.00  0.00     0.080 A 
HETATM    7  C24 UNL     1      23.226  44.067  -1.007  1.00  0.00     0.102 C 
HETATM    8  N5  UNL     1      22.429  43.326  -1.453  1.00  0.00    -0.191 NA
ENDROOT
BRANCH   1   9
HETATM    9  O1  UNL     1      22.352  46.120   0.618  1.00  0.00    -0.354 OA
HETATM   10  C1  UNL     1      21.867  47.162   1.436  1.00  0.00     0.210 C 
ENDBRANCH   1   9
BRANCH   4  11
HETATM   11  N1  UNL     1      27.835  45.612  -0.408  1.00  0.00    -0.192 N 
ATOM     12  H1  UNL     1      28.219  46.060  -1.240  1.00  0.00     0.184 HD
BRANCH  11  13
HETATM   13  C6  UNL     1      28.649  44.943   0.375  1.00  0.00     0.684 A 
HETATM   14  N2  UNL     1      29.332  45.591   1.338  1.00  0.00    -0.175 N 
HETATM   15  C7  UNL     1      30.142  44.837   2.097  1.00  0.00     0.136 A 
ATOM     16  H2  UNL     1      29.240  46.597   1.481  1.00  0.00     0.186 HD
HETATM   17  C18 UNL     1      30.261  43.452   1.893  1.00  0.00     0.076 A 
HETATM   18  S1  UNL     1      31.149  42.186   2.619  1.00  0.00    -0.096 SA
HETATM   19  C21 UNL     1      29.561  42.812   0.912  1.00  0.00     0.070 A 
HETATM   20  C19 UNL     1      30.611  40.885   1.661  1.00  0.00     0.053 A 
HETATM   21  C20 UNL     1      29.741  41.484   0.792  1.00  0.00     0.039 A 
HETATM   22  N4  UNL     1      28.747  43.631   0.163  1.00  0.00    -0.190 N 
ATOM     23  H4  UNL     1      28.195  43.216  -0.587  1.00  0.00     0.184 HD
BRANCH  15  24
HETATM   24  N3  UNL     1      30.856  45.315   3.058  1.00  0.00    -0.370 N 
ATOM     25  H3  UNL     1      31.560  44.728   3.507  1.00  0.00     0.161 HD
BRANCH  24  26
HETATM   26  C8  UNL     1      30.666  46.684   3.505  1.00  0.00     0.160 C 
BRANCH  26  27
HETATM   27  C9  UNL     1      31.874  47.507   3.289  1.00  0.00    -0.035 A 
HETATM   28  C10 UNL     1      32.954  46.986   2.614  1.00  0.00     0.048 A 
HETATM   29  C11 UNL     1      34.107  47.754   2.399  1.00  0.00     0.104 A 
HETATM   30  C13 UNL     1      34.117  49.046   2.886  1.00  0.00     0.135 A 
HETATM   31  C15 UNL     1      33.056  49.594   3.565  1.00  0.00     0.104 A 
HETATM   32  C17 UNL     1      31.934  48.803   3.757  1.00  0.00     0.048 A 
BRANCH  29  33
HETATM   33  O2  UNL     1      35.199  47.239   1.720  1.00  0.00    -0.353 OA
HETATM   34  C12 UNL     1      35.081  47.059   0.315  1.00  0.00     0.210 C 
ENDBRANCH  29  33
BRANCH  30  35
HETATM   35  O3  UNL     1      35.247  49.811   2.679  1.00  0.00    -0.351 OA
HETATM   36  C14 UNL     1      36.281  49.736   3.650  1.00  0.00     0.210 C 
ENDBRANCH  30  35
BRANCH  31  37
HETATM   37  O4  UNL     1      33.140  50.894   4.022  1.00  0.00    -0.353 OA
HETATM   38  C16 UNL     1      32.624  51.920   3.196  1.00  0.00     0.210 C 
ENDBRANCH  31  37
ENDBRANCH  26  27
ENDBRANCH  24  26
ENDBRANCH  15  24
ENDBRANCH  11  13
ENDBRANCH   4  11
TORSDOF 9
ENDMDL
