MODEL 1
REMARK VINA RESULT: -5.993460210      0.000      0.000
REMARK  1 active torsions:
REMARK  status: ('A' for Active; 'I' for Inactive)
REMARK    1  A    between atoms: N2_4  and  C1_6 
ROOT
HETATM    1  C1  UNL     1       5.879 -30.827 -32.365  1.00  0.00     0.132 C 
HETATM    2  C2  UNL     1       6.970 -30.932 -33.343  1.00  0.00     0.030 C 
HETATM    3  C3  UNL     1       7.190 -29.768 -34.241  1.00  0.00     0.032 C 
HETATM    4  C4  UNL     1       6.015 -28.840 -34.357  1.00  0.00     0.273 C 
HETATM    5  N3  UNL     1       5.439 -28.513 -33.065  1.00  0.00     0.095 N 
HETATM    6  C5  UNL     1       4.425 -27.542 -33.296  1.00  0.00     0.273 C 
HETATM    7  C6  UNL     1       3.468 -27.325 -32.182  1.00  0.00     0.030 C 
HETATM    8  C7  UNL     1       3.017 -28.608 -31.516  1.00  0.00     0.004 C 
HETATM    9  C8  UNL     1       4.284 -29.367 -31.166  1.00  0.00     0.038 C 
HETATM   10  C9  UNL     1       4.915 -29.724 -32.518  1.00  0.00     0.246 C 
ENDROOT
BRANCH   1  11
HETATM   11  N2  UNL     1       6.422 -30.778 -31.015  1.00  0.00    -0.336 N 
HETATM   12  N1  UNL     1       7.136 -31.741 -30.684  1.00  0.00    -0.349 N 
ATOM     13  H12 UNL     1       7.319 -32.508 -31.331  1.00  0.00     0.176 HD
ATOM     14  H11 UNL     1       7.517 -31.707 -29.739  1.00  0.00     0.176 HD
ATOM     15  H2  UNL     1       6.229 -30.003 -30.381  1.00  0.00     0.180 HD
ENDBRANCH   1  11
TORSDOF 1
ENDMDL
MODEL 2
REMARK VINA RESULT: -5.667651731      1.816      3.699
REMARK  1 active torsions:
REMARK  status: ('A' for Active; 'I' for Inactive)
REMARK    1  A    between atoms: N2_4  and  C1_6 
ROOT
HETATM    1  C1  UNL     1       5.264 -28.879 -31.816  1.00  0.00     0.132 C 
HETATM    2  C2  UNL     1       4.515 -28.043 -32.763  1.00  0.00     0.030 C 
HETATM    3  C3  UNL     1       4.333 -28.575 -34.139  1.00  0.00     0.032 C 
HETATM    4  C4  UNL     1       5.303 -29.656 -34.522  1.00  0.00     0.273 C 
HETATM    5  N3  UNL     1       5.440 -30.668 -33.491  1.00  0.00     0.095 N 
HETATM    6  C5  UNL     1       6.280 -31.688 -34.017  1.00  0.00     0.273 C 
HETATM    7  C6  UNL     1       6.845 -32.639 -33.027  1.00  0.00     0.030 C 
HETATM    8  C7  UNL     1       7.330 -31.971 -31.759  1.00  0.00     0.004 C 
HETATM    9  C8  UNL     1       6.179 -31.110 -31.271  1.00  0.00     0.038 C 
HETATM   10  C9  UNL     1       6.012 -30.030 -32.348  1.00  0.00     0.246 C 
ENDROOT
BRANCH   1  11
HETATM   11  N2  UNL     1       4.380 -29.353 -30.762  1.00  0.00    -0.336 N 
HETATM   12  N1  UNL     1       3.278 -28.782 -30.683  1.00  0.00    -0.349 N 
ATOM     13  H12 UNL     1       3.026 -28.031 -31.324  1.00  0.00     0.176 HD
ATOM     14  H11 UNL     1       2.657 -29.114 -29.944  1.00  0.00     0.176 HD
ATOM     15  H2  UNL     1       4.646 -30.107 -30.128  1.00  0.00     0.180 HD
ENDBRANCH   1  11
TORSDOF 1
ENDMDL
MODEL 3
REMARK VINA RESULT: -5.580872222      0.995      1.173
REMARK  1 active torsions:
REMARK  status: ('A' for Active; 'I' for Inactive)
REMARK    1  A    between atoms: N2_4  and  C1_6 
ROOT
HETATM    1  C1  UNL     1       5.187 -30.196 -32.699  1.00  0.00     0.132 C 
HETATM    2  C2  UNL     1       6.076 -30.785 -33.709  1.00  0.00     0.030 C 
HETATM    3  C3  UNL     1       6.386 -29.957 -34.904  1.00  0.00     0.032 C 
HETATM    4  C4  UNL     1       5.417 -28.838 -35.156  1.00  0.00     0.273 C 
HETATM    5  N3  UNL     1       5.118 -28.083 -33.952  1.00  0.00     0.095 N 
HETATM    6  C5  UNL     1       4.296 -26.989 -34.339  1.00  0.00     0.273 C 
HETATM    7  C6  UNL     1       3.580 -26.293 -33.240  1.00  0.00     0.030 C 
HETATM    8  C7  UNL     1       2.988 -27.236 -32.215  1.00  0.00     0.004 C 
HETATM    9  C8  UNL     1       4.115 -28.160 -31.793  1.00  0.00     0.038 C 
HETATM   10  C9  UNL     1       4.452 -28.970 -33.052  1.00  0.00     0.246 C 
ENDROOT
BRANCH   1  11
HETATM   11  N2  UNL     1       5.926 -29.950 -31.469  1.00  0.00    -0.336 N 
HETATM   12  N1  UNL     1       6.314 -30.961 -30.859  1.00  0.00    -0.349 N 
ATOM     13  H12 UNL     1       6.119 -31.898 -31.213  1.00  0.00     0.176 HD
ATOM     14  H11 UNL     1       6.832 -30.790 -29.997  1.00  0.00     0.176 HD
ATOM     15  H2  UNL     1       6.114 -29.007 -31.128  1.00  0.00     0.180 HD
ENDBRANCH   1  11
TORSDOF 1
ENDMDL
MODEL 4
REMARK VINA RESULT: -5.463159894      1.450      2.109
REMARK  1 active torsions:
REMARK  status: ('A' for Active; 'I' for Inactive)
REMARK    1  A    between atoms: N2_4  and  C1_6 
ROOT
HETATM    1  C1  UNL     1       4.875 -29.871 -32.265  1.00  0.00     0.132 C 
HETATM    2  C2  UNL     1       5.871 -30.927 -32.491  1.00  0.00     0.030 C 
HETATM    3  C3  UNL     1       6.686 -30.835 -33.731  1.00  0.00     0.032 C 
HETATM    4  C4  UNL     1       6.096 -29.963 -34.801  1.00  0.00     0.273 C 
HETATM    5  N3  UNL     1       5.630 -28.690 -34.283  1.00  0.00     0.095 N 
HETATM    6  C5  UNL     1       5.211 -27.913 -35.400  1.00  0.00     0.273 C 
HETATM    7  C6  UNL     1       4.374 -26.728 -35.089  1.00  0.00     0.030 C 
HETATM    8  C7  UNL     1       3.320 -26.993 -34.035  1.00  0.00     0.004 C 
HETATM    9  C8  UNL     1       4.050 -27.617 -32.860  1.00  0.00     0.038 C 
HETATM   10  C9  UNL     1       4.556 -28.968 -33.383  1.00  0.00     0.246 C 
ENDROOT
BRANCH   1  11
HETATM   11  N2  UNL     1       5.259 -29.062 -31.117  1.00  0.00    -0.336 N 
HETATM   12  N1  UNL     1       5.095 -29.590 -30.004  1.00  0.00    -0.349 N 
ATOM     13  H12 UNL     1       4.715 -30.533 -29.918  1.00  0.00     0.176 HD
ATOM     14  H11 UNL     1       5.364 -29.024 -29.199  1.00  0.00     0.176 HD
ATOM     15  H2  UNL     1       5.638 -28.120 -31.220  1.00  0.00     0.180 HD
ENDBRANCH   1  11
TORSDOF 1
ENDMDL
MODEL 5
REMARK VINA RESULT: -5.407330003      2.326      4.147
REMARK  1 active torsions:
REMARK  status: ('A' for Active; 'I' for Inactive)
REMARK    1  A    between atoms: N2_4  and  C1_6 
ROOT
HETATM    1  C1  UNL     1       4.399 -27.105 -33.813  1.00  0.00     0.132 C 
HETATM    2  C2  UNL     1       3.892 -26.745 -35.144  1.00  0.00     0.030 C 
HETATM    3  C3  UNL     1       3.889 -27.812 -36.179  1.00  0.00     0.032 C 
HETATM    4  C4  UNL     1       4.808 -28.964 -35.889  1.00  0.00     0.273 C 
HETATM    5  N3  UNL     1       4.683 -29.440 -34.523  1.00  0.00     0.095 N 
HETATM    6  C5  UNL     1       5.503 -30.598 -34.409  1.00  0.00     0.273 C 
HETATM    7  C6  UNL     1       5.812 -31.041 -33.026  1.00  0.00     0.030 C 
HETATM    8  C7  UNL     1       6.142 -29.900 -32.087  1.00  0.00     0.004 C 
HETATM    9  C8  UNL     1       5.009 -28.900 -32.227  1.00  0.00     0.038 C 
HETATM   10  C9  UNL     1       5.116 -28.382 -33.667  1.00  0.00     0.246 C 
ENDROOT
BRANCH   1  11
HETATM   11  N2  UNL     1       3.315 -27.073 -32.842  1.00  0.00    -0.336 N 
HETATM   12  N1  UNL     1       2.709 -25.992 -32.743  1.00  0.00    -0.349 N 
ATOM     13  H12 UNL     1       2.968 -25.188 -33.314  1.00  0.00     0.176 HD
ATOM     14  H11 UNL     1       1.950 -25.970 -32.062  1.00  0.00     0.176 HD
ATOM     15  H2  UNL     1       3.068 -27.887 -32.278  1.00  0.00     0.180 HD
ENDBRANCH   1  11
TORSDOF 1
ENDMDL
