MODEL 1
REMARK VINA RESULT: -4.526827262      0.000      0.000
REMARK  1 active torsions:
REMARK  status: ('A' for Active; 'I' for Inactive)
REMARK    1  A    between atoms: C2_2  and  C3_3 
ROOT
HETATM    1  C3  UNL     1       5.294 -28.740 -32.369  1.00  0.00     0.028 C 
HETATM    2  C4  UNL     1       4.457 -28.850 -33.619  1.00  0.00     0.066 C 
HETATM    3  C5  UNL     1       4.804 -27.851 -34.667  1.00  0.00     0.023 C 
HETATM    4  S1  UNL     1       4.870 -30.563 -34.136  1.00  0.00    -0.076 SA
HETATM    5  N1  UNL     1       6.033 -30.922 -32.822  1.00  0.00    -0.234 NA
HETATM    6  C6  UNL     1       7.342 -31.216 -33.411  1.00  0.00     0.179 C 
HETATM    7  S2  UNL     1       7.246 -29.571 -34.206  1.00  0.00    -0.132 SA
HETATM    8  C7  UNL     1       6.524 -29.580 -32.573  1.00  0.00     0.138 C 
ENDROOT
BRANCH   1   9
HETATM    9  C2  UNL     1       4.490 -29.359 -31.241  1.00  0.00     0.004 C 
HETATM   10  C1  UNL     1       3.057 -28.811 -31.275  1.00  0.00     0.005 C 
ENDBRANCH   1   9
TORSDOF 1
ENDMDL
MODEL 2
REMARK VINA RESULT: -4.377654856      1.616      2.703
REMARK  1 active torsions:
REMARK  status: ('A' for Active; 'I' for Inactive)
REMARK    1  A    between atoms: C2_2  and  C3_3 
ROOT
HETATM    1  C3  UNL     1       4.238 -28.632 -33.214  1.00  0.00     0.028 C 
HETATM    2  C4  UNL     1       5.271 -28.703 -32.117  1.00  0.00     0.066 C 
HETATM    3  C5  UNL     1       5.034 -29.797 -31.134  1.00  0.00     0.023 C 
HETATM    4  S1  UNL     1       6.784 -28.991 -33.116  1.00  0.00    -0.076 SA
HETATM    5  N1  UNL     1       5.990 -29.042 -34.720  1.00  0.00    -0.234 NA
HETATM    6  C6  UNL     1       6.230 -30.352 -35.330  1.00  0.00     0.179 C 
HETATM    7  S2  UNL     1       5.461 -31.079 -33.837  1.00  0.00    -0.132 SA
HETATM    8  C7  UNL     1       4.689 -29.543 -34.320  1.00  0.00     0.138 C 
ENDROOT
BRANCH   1   9
HETATM    9  C2  UNL     1       4.252 -27.211 -33.745  1.00  0.00     0.004 C 
HETATM   10  C1  UNL     1       3.157 -26.393 -33.047  1.00  0.00     0.005 C 
ENDBRANCH   1   9
TORSDOF 1
ENDMDL
MODEL 3
REMARK VINA RESULT: -4.343688316      1.103      1.136
REMARK  1 active torsions:
REMARK  status: ('A' for Active; 'I' for Inactive)
REMARK    1  A    between atoms: C2_2  and  C3_3 
ROOT
HETATM    1  C3  UNL     1       5.046 -28.096 -33.266  1.00  0.00     0.028 C 
HETATM    2  C4  UNL     1       4.449 -28.744 -34.490  1.00  0.00     0.066 C 
HETATM    3  C5  UNL     1       5.079 -28.313 -35.769  1.00  0.00     0.023 C 
HETATM    4  S1  UNL     1       4.785 -30.511 -34.119  1.00  0.00    -0.076 SA
HETATM    5  N1  UNL     1       5.643 -30.256 -32.568  1.00  0.00    -0.234 NA
HETATM    6  C6  UNL     1       7.004 -30.785 -32.683  1.00  0.00     0.179 C 
HETATM    7  S2  UNL     1       7.216 -29.661 -34.111  1.00  0.00    -0.132 SA
HETATM    8  C7  UNL     1       6.205 -28.944 -32.825  1.00  0.00     0.138 C 
ENDROOT
BRANCH   1   9
HETATM    9  C2  UNL     1       3.990 -28.149 -32.177  1.00  0.00     0.004 C 
HETATM   10  C1  UNL     1       3.137 -26.874 -32.229  1.00  0.00     0.005 C 
ENDBRANCH   1   9
TORSDOF 1
ENDMDL
MODEL 4
REMARK VINA RESULT: -4.310488018      1.560      2.814
REMARK  1 active torsions:
REMARK  status: ('A' for Active; 'I' for Inactive)
REMARK    1  A    between atoms: C2_2  and  C3_3 
ROOT
HETATM    1  C3  UNL     1       4.702 -29.493 -34.104  1.00  0.00     0.028 C 
HETATM    2  C4  UNL     1       5.685 -28.749 -33.234  1.00  0.00     0.066 C 
HETATM    3  C5  UNL     1       5.525 -29.017 -31.777  1.00  0.00     0.023 C 
HETATM    4  S1  UNL     1       7.266 -29.415 -33.887  1.00  0.00    -0.076 SA
HETATM    5  N1  UNL     1       6.558 -30.541 -35.087  1.00  0.00    -0.234 NA
HETATM    6  C6  UNL     1       6.971 -31.907 -34.760  1.00  0.00     0.179 C 
HETATM    7  S2  UNL     1       6.218 -31.637 -33.114  1.00  0.00    -0.132 SA
HETATM    8  C7  UNL     1       5.304 -30.833 -34.420  1.00  0.00     0.138 C 
ENDROOT
BRANCH   1   9
HETATM    9  C2  UNL     1       4.583 -28.717 -35.402  1.00  0.00     0.004 C 
HETATM   10  C1  UNL     1       3.813 -27.414 -35.150  1.00  0.00     0.005 C 
ENDBRANCH   1   9
TORSDOF 1
ENDMDL
MODEL 5
REMARK VINA RESULT: -4.160522636      1.796      2.945
REMARK  1 active torsions:
REMARK  status: ('A' for Active; 'I' for Inactive)
REMARK    1  A    between atoms: C2_2  and  C3_3 
ROOT
HETATM    1  C3  UNL     1       5.055 -30.244 -34.021  1.00  0.00     0.028 C 
HETATM    2  C4  UNL     1       6.000 -29.152 -33.586  1.00  0.00     0.066 C 
HETATM    3  C5  UNL     1       5.848 -28.756 -32.158  1.00  0.00     0.023 C 
HETATM    4  S1  UNL     1       7.612 -29.971 -33.906  1.00  0.00    -0.076 SA
HETATM    5  N1  UNL     1       6.960 -31.539 -34.474  1.00  0.00    -0.234 NA
HETATM    6  C6  UNL     1       7.433 -32.602 -33.586  1.00  0.00     0.179 C 
HETATM    7  S2  UNL     1       6.664 -31.665 -32.215  1.00  0.00    -0.132 SA
HETATM    8  C7  UNL     1       5.718 -31.559 -33.725  1.00  0.00     0.138 C 
ENDROOT
BRANCH   1   9
HETATM    9  C2  UNL     1       4.905 -30.126 -35.527  1.00  0.00     0.004 C 
HETATM   10  C1  UNL     1       4.504 -28.690 -35.890  1.00  0.00     0.005 C 
ENDBRANCH   1   9
TORSDOF 1
ENDMDL
