MODEL 1
REMARK VINA RESULT: -7.090405099      0.000      0.000
REMARK  0 active torsions:
REMARK  status: ('A' for Active; 'I' for Inactive)
ROOT
HETATM    1  O1  UNL     1      68.328  -7.682   6.845  1.00  0.00    -0.247 OA
HETATM    2  C1  UNL     1      67.982  -8.125   5.722  1.00  0.00     0.328 A 
HETATM    3  N1  UNL     1      68.344  -7.420   4.637  1.00  0.00    -0.275 N 
ATOM      4  H1  UNL     1      68.881  -6.560   4.745  1.00  0.00     0.173 HD
HETATM    5  C2  UNL     1      67.997  -7.852   3.393  1.00  0.00     0.267 A 
HETATM    6  O2  UNL     1      68.322  -7.216   2.378  1.00  0.00    -0.267 OA
HETATM    7  C3  UNL     1      67.274  -9.008   3.235  1.00  0.00     0.133 A 
HETATM    8  C4  UNL     1      66.899  -9.488   2.000  1.00  0.00     0.260 A 
HETATM    9  O3  UNL     1      67.221  -8.853   0.953  1.00  0.00    -0.281 OA
HETATM   10  C5  UNL     1      66.169 -10.657   1.860  1.00  0.00     0.311 A 
HETATM   11  O4  UNL     1      65.827 -11.093   0.740  1.00  0.00    -0.262 OA
HETATM   12  N2  UNL     1      65.852 -11.293   3.001  1.00  0.00    -0.262 N 
ATOM     13  H2  UNL     1      65.314 -12.157   2.942  1.00  0.00     0.190 HD
HETATM   14  N3  UNL     1      66.203 -10.850   4.197  1.00  0.00    -0.281 N 
ATOM     15  H3  UNL     1      65.930 -11.383   5.022  1.00  0.00     0.188 HD
HETATM   16  C6  UNL     1      66.909  -9.720   4.353  1.00  0.00     0.144 A 
HETATM   17  N4  UNL     1      67.273  -9.260   5.572  1.00  0.00    -0.292 N 
ATOM     18  H4  UNL     1      67.002  -9.788   6.400  1.00  0.00     0.172 HD
ENDROOT
TORSDOF 0
ENDMDL
MODEL 2
REMARK VINA RESULT: -6.917635068      1.316      4.064
REMARK  0 active torsions:
REMARK  status: ('A' for Active; 'I' for Inactive)
ROOT
HETATM    1  O1  UNL     1      65.903 -11.285   0.429  1.00  0.00    -0.247 OA
HETATM    2  C1  UNL     1      66.290 -10.649   1.441  1.00  0.00     0.328 A 
HETATM    3  N1  UNL     1      66.847  -9.441   1.241  1.00  0.00    -0.275 N 
ATOM      4  H1  UNL     1      66.941  -9.075   0.294  1.00  0.00     0.173 HD
HETATM    5  C2  UNL     1      67.285  -8.706   2.300  1.00  0.00     0.267 A 
HETATM    6  O2  UNL     1      67.800  -7.590   2.138  1.00  0.00    -0.267 OA
HETATM    7  C3  UNL     1      67.163  -9.189   3.579  1.00  0.00     0.133 A 
HETATM    8  C4  UNL     1      67.590  -8.485   4.683  1.00  0.00     0.260 A 
HETATM    9  O3  UNL     1      68.119  -7.344   4.537  1.00  0.00    -0.281 OA
HETATM   10  C5  UNL     1      67.459  -8.988   5.968  1.00  0.00     0.311 A 
HETATM   11  O4  UNL     1      67.847  -8.351   6.971  1.00  0.00    -0.262 OA
HETATM   12  N2  UNL     1      66.892 -10.203   6.069  1.00  0.00    -0.262 N 
ATOM     13  H2  UNL     1      66.778 -10.610   6.996  1.00  0.00     0.190 HD
HETATM   14  N3  UNL     1      66.475 -10.895   5.021  1.00  0.00    -0.281 N 
ATOM     15  H3  UNL     1      66.052 -11.811   5.169  1.00  0.00     0.188 HD
HETATM   16  C6  UNL     1      66.593 -10.425   3.771  1.00  0.00     0.144 A 
HETATM   17  N4  UNL     1      66.170 -11.126   2.694  1.00  0.00    -0.292 N 
ATOM     18  H4  UNL     1      65.746 -12.042   2.836  1.00  0.00     0.172 HD
ENDROOT
TORSDOF 0
ENDMDL
MODEL 3
REMARK VINA RESULT: -6.717780518      1.852      4.291
REMARK  0 active torsions:
REMARK  status: ('A' for Active; 'I' for Inactive)
ROOT
HETATM    1  O1  UNL     1      64.651  -9.356   1.221  1.00  0.00    -0.247 OA
HETATM    2  C1  UNL     1      65.331  -8.958   2.199  1.00  0.00     0.328 A 
HETATM    3  N1  UNL     1      65.294  -7.647   2.490  1.00  0.00    -0.275 N 
ATOM      4  H1  UNL     1      64.728  -7.015   1.924  1.00  0.00     0.173 HD
HETATM    5  C2  UNL     1      66.012  -7.158   3.540  1.00  0.00     0.267 A 
HETATM    6  O2  UNL     1      65.991  -5.951   3.825  1.00  0.00    -0.267 OA
HETATM    7  C3  UNL     1      66.777  -7.999   4.309  1.00  0.00     0.133 A 
HETATM    8  C4  UNL     1      67.520  -7.555   5.380  1.00  0.00     0.260 A 
HETATM    9  O3  UNL     1      67.512  -6.327   5.687  1.00  0.00    -0.281 OA
HETATM   10  C5  UNL     1      68.288  -8.418   6.146  1.00  0.00     0.311 A 
HETATM   11  O4  UNL     1      68.963  -8.017   7.118  1.00  0.00    -0.262 OA
HETATM   12  N2  UNL     1      68.263  -9.711   5.778  1.00  0.00    -0.262 N 
ATOM     13  H2  UNL     1      68.815 -10.379   6.315  1.00  0.00     0.190 HD
HETATM   14  N3  UNL     1      67.556 -10.157   4.754  1.00  0.00    -0.281 N 
ATOM     15  H3  UNL     1      67.580 -11.152   4.531  1.00  0.00     0.188 HD
HETATM   16  C6  UNL     1      66.807  -9.338   4.000  1.00  0.00     0.144 A 
HETATM   17  N4  UNL     1      66.081  -9.786   2.951  1.00  0.00    -0.292 N 
ATOM     18  H4  UNL     1      66.103 -10.779   2.723  1.00  0.00     0.172 HD
ENDROOT
TORSDOF 0
ENDMDL
MODEL 4
REMARK VINA RESULT: -6.596331382      2.206      4.425
REMARK  0 active torsions:
REMARK  status: ('A' for Active; 'I' for Inactive)
ROOT
HETATM    1  O1  UNL     1      66.853 -12.058   3.882  1.00  0.00    -0.247 OA
HETATM    2  C1  UNL     1      67.064 -10.837   4.083  1.00  0.00     0.328 A 
HETATM    3  N1  UNL     1      66.793 -10.350   5.306  1.00  0.00    -0.275 N 
ATOM      4  H1  UNL     1      66.429 -10.970   6.031  1.00  0.00     0.173 HD
HETATM    5  C2  UNL     1      67.002  -9.034   5.582  1.00  0.00     0.267 A 
HETATM    6  O2  UNL     1      66.758  -8.566   6.705  1.00  0.00    -0.267 OA
HETATM    7  C3  UNL     1      67.491  -8.191   4.616  1.00  0.00     0.133 A 
HETATM    8  C4  UNL     1      67.720  -6.852   4.843  1.00  0.00     0.260 A 
HETATM    9  O3  UNL     1      67.477  -6.357   5.983  1.00  0.00    -0.281 OA
HETATM   10  C5  UNL     1      68.215  -6.016   3.855  1.00  0.00     0.311 A 
HETATM   11  O4  UNL     1      68.423  -4.800   4.060  1.00  0.00    -0.262 OA
HETATM   12  N2  UNL     1      68.455  -6.590   2.664  1.00  0.00    -0.262 N 
ATOM     13  H2  UNL     1      68.819  -6.009   1.909  1.00  0.00     0.190 HD
HETATM   14  N3  UNL     1      68.243  -7.874   2.425  1.00  0.00    -0.281 N 
ATOM     15  H3  UNL     1      68.449  -8.245   1.498  1.00  0.00     0.188 HD
HETATM   16  C6  UNL     1      67.764  -8.699   3.368  1.00  0.00     0.144 A 
HETATM   17  N4  UNL     1      67.544 -10.012   3.132  1.00  0.00    -0.292 N 
ATOM     18  H4  UNL     1      67.747 -10.389   2.207  1.00  0.00     0.172 HD
ENDROOT
TORSDOF 0
ENDMDL
MODEL 5
REMARK VINA RESULT: -6.565213120      1.512      4.216
REMARK  0 active torsions:
REMARK  status: ('A' for Active; 'I' for Inactive)
ROOT
HETATM    1  O1  UNL     1      65.767 -11.200   0.453  1.00  0.00    -0.247 OA
HETATM    2  C1  UNL     1      66.076 -10.436   1.401  1.00  0.00     0.328 A 
HETATM    3  N1  UNL     1      65.730  -9.141   1.296  1.00  0.00    -0.275 N 
ATOM      4  H1  UNL     1      65.235  -8.813   0.466  1.00  0.00     0.173 HD
HETATM    5  C2  UNL     1      66.039  -8.267   2.292  1.00  0.00     0.267 A 
HETATM    6  O2  UNL     1      65.728  -7.068   2.214  1.00  0.00    -0.267 OA
HETATM    7  C3  UNL     1      66.704  -8.697   3.413  1.00  0.00     0.133 A 
HETATM    8  C4  UNL     1      67.039  -7.853   4.448  1.00  0.00     0.260 A 
HETATM    9  O3  UNL     1      66.731  -6.627   4.386  1.00  0.00    -0.281 OA
HETATM   10  C5  UNL     1      67.712  -8.305   5.572  1.00  0.00     0.311 A 
HETATM   11  O4  UNL     1      68.017  -7.540   6.513  1.00  0.00    -0.262 OA
HETATM   12  N2  UNL     1      68.017  -9.614   5.589  1.00  0.00    -0.262 N 
ATOM     13  H2  UNL     1      68.513  -9.987   6.398  1.00  0.00     0.190 HD
HETATM   14  N3  UNL     1      67.703 -10.441   4.605  1.00  0.00    -0.281 N 
ATOM     15  H3  UNL     1      67.964 -11.424   4.683  1.00  0.00     0.188 HD
HETATM   16  C6  UNL     1      67.053 -10.023   3.509  1.00  0.00     0.144 A 
HETATM   17  N4  UNL     1      66.729 -10.862   2.499  1.00  0.00    -0.292 N 
ATOM     18  H4  UNL     1      66.988 -11.845   2.571  1.00  0.00     0.172 HD
ENDROOT
TORSDOF 0
ENDMDL
