MODEL 1
REMARK VINA RESULT: -6.863328063      0.000      0.000
REMARK  0 active torsions:
REMARK  status: ('A' for Active; 'I' for Inactive)
ROOT
HETATM    1  N1  UNL     1      65.044  -7.487   3.994  1.00  0.00    -0.386 N 
ATOM      2  H11 UNL     1      64.643  -8.396   4.223  1.00  0.00     0.157 HD
ATOM      3  H12 UNL     1      64.262  -6.856   3.824  1.00  0.00     0.157 HD
HETATM    4  C1  UNL     1      66.282  -7.151   3.922  1.00  0.00     0.126 A 
HETATM    5  N2  UNL     1      66.841  -5.882   3.601  1.00  0.00    -0.296 N 
ATOM      6  H2  UNL     1      66.309  -5.051   3.343  1.00  0.00     0.172 HD
HETATM    7  C2  UNL     1      68.250  -5.954   3.696  1.00  0.00     0.323 A 
HETATM    8  O1  UNL     1      69.039  -4.975   3.468  1.00  0.00    -0.247 OA
HETATM    9  N3  UNL     1      68.605  -7.275   4.079  1.00  0.00    -0.312 N 
ATOM     10  H3  UNL     1      69.551  -7.609   4.261  1.00  0.00     0.166 HD
HETATM   11  C3  UNL     1      67.408  -8.058   4.166  1.00  0.00     0.244 A 
HETATM   12  C4  UNL     1      67.282  -8.790   5.443  1.00  0.00     0.269 C 
HETATM   13  O2  UNL     1      67.732  -8.373   6.538  1.00  0.00    -0.269 OA
HETATM   14  N4  UNL     1      66.580  -9.989   5.147  1.00  0.00    -0.288 N 
ATOM     15  H4  UNL     1      66.123 -10.584   5.840  1.00  0.00     0.172 HD
HETATM   16  C5  UNL     1      66.604 -10.242   3.754  1.00  0.00     0.297 C 
HETATM   17  O3  UNL     1      66.064 -11.234   3.184  1.00  0.00    -0.264 OA
HETATM   18  C6  UNL     1      67.356  -9.148   3.163  1.00  0.00     0.262 C 
HETATM   19  O4  UNL     1      67.869  -9.104   2.035  1.00  0.00    -0.283 OA
ENDROOT
TORSDOF 0
ENDMDL
MODEL 2
REMARK VINA RESULT: -6.725298358      2.273      3.889
REMARK  0 active torsions:
REMARK  status: ('A' for Active; 'I' for Inactive)
ROOT
HETATM    1  N1  UNL     1      68.490  -7.965   2.923  1.00  0.00    -0.386 N 
ATOM      2  H11 UNL     1      68.610  -7.548   3.846  1.00  0.00     0.157 HD
ATOM      3  H12 UNL     1      69.277  -7.653   2.355  1.00  0.00     0.157 HD
HETATM    4  C1  UNL     1      67.552  -8.738   2.508  1.00  0.00     0.126 A 
HETATM    5  N2  UNL     1      67.383  -9.319   1.220  1.00  0.00    -0.296 N 
ATOM      6  H2  UNL     1      67.993  -9.162   0.418  1.00  0.00     0.172 HD
HETATM    7  C2  UNL     1      66.238 -10.148   1.227  1.00  0.00     0.323 A 
HETATM    8  O1  UNL     1      65.822 -10.811   0.216  1.00  0.00    -0.247 OA
HETATM    9  N3  UNL     1      65.662 -10.103   2.524  1.00  0.00    -0.312 N 
ATOM     10  H3  UNL     1      64.847 -10.633   2.833  1.00  0.00     0.166 HD
HETATM   11  C3  UNL     1      66.419  -9.188   3.324  1.00  0.00     0.244 A 
HETATM   12  C4  UNL     1      66.843  -9.758   4.620  1.00  0.00     0.269 C 
HETATM   13  O2  UNL     1      67.105 -10.972   4.799  1.00  0.00    -0.269 OA
HETATM   14  N4  UNL     1      66.877  -8.675   5.540  1.00  0.00    -0.288 N 
ATOM     15  H4  UNL     1      67.359  -8.689   6.439  1.00  0.00     0.172 HD
HETATM   16  C5  UNL     1      66.147  -7.574   5.030  1.00  0.00     0.297 C 
HETATM   17  O3  UNL     1      65.995  -6.464   5.619  1.00  0.00    -0.264 OA
HETATM   18  C6  UNL     1      65.638  -7.998   3.736  1.00  0.00     0.262 C 
HETATM   19  O4  UNL     1      64.725  -7.480   3.076  1.00  0.00    -0.283 OA
ENDROOT
TORSDOF 0
ENDMDL
MODEL 3
REMARK VINA RESULT: -6.556269709      1.896      3.229
REMARK  0 active torsions:
REMARK  status: ('A' for Active; 'I' for Inactive)
ROOT
HETATM    1  N1  UNL     1      68.562  -7.192   3.015  1.00  0.00    -0.386 N 
ATOM      2  H11 UNL     1      68.312  -7.154   2.028  1.00  0.00     0.157 HD
ATOM      3  H12 UNL     1      69.401  -6.623   3.127  1.00  0.00     0.157 HD
HETATM    4  C1  UNL     1      67.970  -7.816   3.969  1.00  0.00     0.126 A 
HETATM    5  N2  UNL     1      68.320  -7.870   5.347  1.00  0.00    -0.296 N 
ATOM      6  H2  UNL     1      69.139  -7.429   5.766  1.00  0.00     0.172 HD
HETATM    7  C2  UNL     1      67.354  -8.630   6.046  1.00  0.00     0.323 A 
HETATM    8  O1  UNL     1      67.389  -8.860   7.303  1.00  0.00    -0.247 OA
HETATM    9  N3  UNL     1      66.375  -9.071   5.117  1.00  0.00    -0.312 N 
ATOM     10  H3  UNL     1      65.538  -9.607   5.342  1.00  0.00     0.166 HD
HETATM   11  C3  UNL     1      66.763  -8.633   3.809  1.00  0.00     0.244 A 
HETATM   12  C4  UNL     1      65.687  -7.923   3.087  1.00  0.00     0.269 C 
HETATM   13  O2  UNL     1      64.810  -7.224   3.649  1.00  0.00    -0.269 OA
HETATM   14  N4  UNL     1      65.877  -8.208   1.708  1.00  0.00    -0.288 N 
ATOM     15  H4  UNL     1      65.460  -7.680   0.941  1.00  0.00     0.172 HD
HETATM   16  C5  UNL     1      66.727  -9.329   1.550  1.00  0.00     0.297 C 
HETATM   17  O3  UNL     1      67.083  -9.824   0.441  1.00  0.00    -0.264 OA
HETATM   18  C6  UNL     1      67.078  -9.757   2.894  1.00  0.00     0.262 C 
HETATM   19  O4  UNL     1      67.553 -10.848   3.241  1.00  0.00    -0.283 OA
ENDROOT
TORSDOF 0
ENDMDL
MODEL 4
REMARK VINA RESULT: -6.230790505      1.620      3.280
REMARK  0 active torsions:
REMARK  status: ('A' for Active; 'I' for Inactive)
ROOT
HETATM    1  N1  UNL     1      65.080  -7.489   4.039  1.00  0.00    -0.386 N 
ATOM      2  H11 UNL     1      65.282  -7.121   4.968  1.00  0.00     0.157 HD
ATOM      3  H12 UNL     1      64.114  -7.236   3.828  1.00  0.00     0.157 HD
HETATM    4  C1  UNL     1      65.851  -8.145   3.250  1.00  0.00     0.126 A 
HETATM    5  N2  UNL     1      65.568  -8.658   1.953  1.00  0.00    -0.296 N 
ATOM      6  H2  UNL     1      64.667  -8.598   1.479  1.00  0.00     0.172 HD
HETATM    7  C2  UNL     1      66.731  -9.265   1.425  1.00  0.00     0.323 A 
HETATM    8  O1  UNL     1      66.797  -9.818   0.275  1.00  0.00    -0.247 OA
HETATM    9  N3  UNL     1      67.771  -9.145   2.384  1.00  0.00    -0.312 N 
ATOM     10  H3  UNL     1      68.734  -9.458   2.261  1.00  0.00     0.166 HD
HETATM   11  C3  UNL     1      67.239  -8.509   3.552  1.00  0.00     0.244 A 
HETATM   12  C4  UNL     1      68.043  -7.356   4.006  1.00  0.00     0.269 C 
HETATM   13  O2  UNL     1      68.693  -6.607   3.236  1.00  0.00    -0.269 OA
HETATM   14  N4  UNL     1      67.910  -7.308   5.420  1.00  0.00    -0.288 N 
ATOM     15  H4  UNL     1      68.135  -6.500   6.000  1.00  0.00     0.172 HD
HETATM   16  C5  UNL     1      67.418  -8.544   5.909  1.00  0.00     0.297 C 
HETATM   17  O3  UNL     1      67.194  -8.808   7.126  1.00  0.00    -0.264 OA
HETATM   18  C6  UNL     1      67.242  -9.392   4.742  1.00  0.00     0.262 C 
HETATM   19  O4  UNL     1      67.114 -10.625   4.716  1.00  0.00    -0.283 OA
ENDROOT
TORSDOF 0
ENDMDL
MODEL 5
REMARK VINA RESULT: -6.181770603      1.616      2.537
REMARK  0 active torsions:
REMARK  status: ('A' for Active; 'I' for Inactive)
ROOT
HETATM    1  N1  UNL     1      68.377  -9.035   1.995  1.00  0.00    -0.386 N 
ATOM      2  H11 UNL     1      67.893  -9.928   1.912  1.00  0.00     0.157 HD
ATOM      3  H12 UNL     1      69.169  -9.071   1.353  1.00  0.00     0.157 HD
HETATM    4  C1  UNL     1      68.086  -8.030   2.740  1.00  0.00     0.126 A 
HETATM    5  N2  UNL     1      68.762  -6.784   2.855  1.00  0.00    -0.296 N 
ATOM      6  H2  UNL     1      69.620  -6.530   2.364  1.00  0.00     0.172 HD
HETATM    7  C2  UNL     1      68.059  -5.951   3.755  1.00  0.00     0.323 A 
HETATM    8  O1  UNL     1      68.415  -4.764   4.069  1.00  0.00    -0.247 OA
HETATM    9  N3  UNL     1      66.924  -6.661   4.227  1.00  0.00    -0.312 N 
ATOM     10  H3  UNL     1      66.212  -6.296   4.860  1.00  0.00     0.166 HD
HETATM   11  C3  UNL     1      66.947  -7.978   3.662  1.00  0.00     0.244 A 
HETATM   12  C4  UNL     1      65.674  -8.358   3.015  1.00  0.00     0.269 C 
HETATM   13  O2  UNL     1      64.905  -7.544   2.449  1.00  0.00    -0.269 OA
HETATM   14  N4  UNL     1      65.547  -9.764   3.182  1.00  0.00    -0.288 N 
ATOM     15  H4  UNL     1      64.915 -10.359   2.646  1.00  0.00     0.172 HD
HETATM   16  C5  UNL     1      66.422 -10.220   4.198  1.00  0.00     0.297 C 
HETATM   17  O3  UNL     1      66.537 -11.422   4.575  1.00  0.00    -0.264 OA
HETATM   18  C6  UNL     1      67.121  -9.040   4.681  1.00  0.00     0.262 C 
HETATM   19  O4  UNL     1      67.753  -8.916   5.740  1.00  0.00    -0.283 OA
ENDROOT
TORSDOF 0
ENDMDL
