MODEL 1
REMARK VINA RESULT: -5.149566760      0.000      0.000
REMARK  5 active torsions:
REMARK  status: ('A' for Active; 'I' for Inactive)
REMARK    1  A    between atoms: C3_3  and  N1_4 
REMARK    2  A    between atoms: N1_4  and  N3_8 
REMARK    3  A    between atoms: C5_13  and  N5_14 
REMARK    4  A    between atoms: N5_14  and  N6_16 
REMARK    5  A    between atoms: N8_21  and  N9_22 
ROOT
HETATM    1  C1  UNL     1      66.147  -7.082   5.167  1.00  0.00     0.076 C 
HETATM    2  C2  UNL     1      66.208  -8.119   4.108  1.00  0.00     0.096 A 
HETATM    3  C3  UNL     1      66.859  -9.326   4.346  1.00  0.00     0.187 A 
HETATM    4  N4  UNL     1      66.920 -10.251   3.382  1.00  0.00    -0.164 N 
HETATM    5  C4  UNL     1      67.635 -11.486   3.679  1.00  0.00     0.177 C 
HETATM    6  C5  UNL     1      66.372 -10.084   2.162  1.00  0.00     0.716 A 
HETATM    7  N7  UNL     1      65.735  -8.892   1.949  1.00  0.00    -0.109 N 
ATOM      8  H7  UNL     1      65.305  -8.717   1.041  1.00  0.00     0.208 HD
HETATM    9  N8  UNL     1      65.661  -7.959   2.885  1.00  0.00    -0.190 N 
ENDROOT
BRANCH   3  10
HETATM   10  N1  UNL     1      67.443  -9.519   5.646  1.00  0.00    -0.190 N 
HETATM   11  N2  UNL     1      66.932 -10.243   6.456  1.00  0.00    -0.323 N 
ATOM     12  H22 UNL     1      66.075 -10.756   6.245  1.00  0.00     0.179 HD
ATOM     13  H21 UNL     1      67.345 -10.380   7.378  1.00  0.00     0.179 HD
BRANCH  10  14
HETATM   14  N3  UNL     1      68.619  -8.815   5.936  1.00  0.00    -0.323 N 
ATOM     15  H32 UNL     1      68.858  -7.954   5.445  1.00  0.00     0.179 HD
ATOM     16  H31 UNL     1      69.235  -9.204   6.650  1.00  0.00     0.179 HD
ENDBRANCH  10  14
ENDBRANCH   3  10
BRANCH   9  17
HETATM   17  N9  UNL     1      64.994  -6.744   2.658  1.00  0.00    -0.323 N 
ATOM     18  H92 UNL     1      65.483  -5.929   2.288  1.00  0.00     0.178 HD
ATOM     19  H91 UNL     1      63.998  -6.728   2.879  1.00  0.00     0.178 HD
ENDBRANCH   9  17
BRANCH   6  20
HETATM   20  N5  UNL     1      66.431 -10.964   1.226  1.00  0.00    -0.137 N 
ATOM     21  H5  UNL     1      66.510 -11.952   1.471  1.00  0.00     0.205 HD
BRANCH  20  22
HETATM   22  N6  UNL     1      66.387 -10.589  -0.130  1.00  0.00    -0.331 N 
ATOM     23  H62 UNL     1      66.654  -9.636  -0.379  1.00  0.00     0.177 HD
ATOM     24  H61 UNL     1      66.098 -11.249  -0.851  1.00  0.00     0.177 HD
ENDBRANCH  20  22
ENDBRANCH   6  20
TORSDOF 5
ENDMDL
MODEL 2
REMARK VINA RESULT: -4.955740156      0.799      3.131
REMARK  5 active torsions:
REMARK  status: ('A' for Active; 'I' for Inactive)
REMARK    1  A    between atoms: C3_3  and  N1_4 
REMARK    2  A    between atoms: N1_4  and  N3_8 
REMARK    3  A    between atoms: C5_13  and  N5_14 
REMARK    4  A    between atoms: N5_14  and  N6_16 
REMARK    5  A    between atoms: N8_21  and  N9_22 
ROOT
HETATM    1  C1  UNL     1      67.603 -11.490   3.637  1.00  0.00     0.076 C 
HETATM    2  C2  UNL     1      66.941 -10.194   3.352  1.00  0.00     0.096 A 
HETATM    3  C3  UNL     1      66.859  -9.218   4.341  1.00  0.00     0.187 A 
HETATM    4  N4  UNL     1      66.249  -8.056   4.081  1.00  0.00    -0.164 N 
HETATM    5  C4  UNL     1      66.171  -7.080   5.161  1.00  0.00     0.177 C 
HETATM    6  C5  UNL     1      65.699  -7.763   2.886  1.00  0.00     0.716 A 
HETATM    7  N7  UNL     1      65.792  -8.734   1.928  1.00  0.00    -0.109 N 
ATOM      8  H7  UNL     1      65.390  -8.560   1.007  1.00  0.00     0.208 HD
HETATM    9  N8  UNL     1      66.389  -9.893   2.159  1.00  0.00    -0.190 N 
ENDROOT
BRANCH   3  10
HETATM   10  N1  UNL     1      67.448  -9.517   5.619  1.00  0.00    -0.190 N 
HETATM   11  N2  UNL     1      66.911 -10.262   6.392  1.00  0.00    -0.323 N 
ATOM     12  H22 UNL     1      66.027 -10.718   6.164  1.00  0.00     0.179 HD
ATOM     13  H21 UNL     1      67.329 -10.474   7.297  1.00  0.00     0.179 HD
BRANCH  10  14
HETATM   14  N3  UNL     1      68.663  -8.891   5.931  1.00  0.00    -0.323 N 
ATOM     15  H32 UNL     1      69.555  -9.288   5.638  1.00  0.00     0.179 HD
ATOM     16  H31 UNL     1      68.620  -8.030   6.474  1.00  0.00     0.179 HD
ENDBRANCH  10  14
ENDBRANCH   3  10
BRANCH   9  17
HETATM   17  N9  UNL     1      66.489 -10.878   1.163  1.00  0.00    -0.323 N 
ATOM     18  H92 UNL     1      65.672 -11.401   0.847  1.00  0.00     0.178 HD
ATOM     19  H91 UNL     1      67.419 -11.033   0.775  1.00  0.00     0.178 HD
ENDBRANCH   9  17
BRANCH   6  20
HETATM   20  N5  UNL     1      65.105  -6.651   2.627  1.00  0.00    -0.137 N 
ATOM     21  H5  UNL     1      65.131  -5.897   3.314  1.00  0.00     0.205 HD
BRANCH  20  22
HETATM   22  N6  UNL     1      64.419  -6.458   1.413  1.00  0.00    -0.331 N 
ATOM     23  H62 UNL     1      64.783  -5.769   0.754  1.00  0.00     0.177 HD
ATOM     24  H61 UNL     1      63.579  -6.992   1.191  1.00  0.00     0.177 HD
ENDBRANCH  20  22
ENDBRANCH   6  20
TORSDOF 5
ENDMDL
MODEL 3
REMARK VINA RESULT: -4.918255668      1.297      3.850
REMARK  5 active torsions:
REMARK  status: ('A' for Active; 'I' for Inactive)
REMARK    1  A    between atoms: C3_3  and  N1_4 
REMARK    2  A    between atoms: N1_4  and  N3_8 
REMARK    3  A    between atoms: C5_13  and  N5_14 
REMARK    4  A    between atoms: N5_14  and  N6_16 
REMARK    5  A    between atoms: N8_21  and  N9_22 
ROOT
HETATM    1  C1  UNL     1      65.109  -7.672   1.290  1.00  0.00     0.076 C 
HETATM    2  C2  UNL     1      65.680  -8.281   2.516  1.00  0.00     0.096 A 
HETATM    3  C3  UNL     1      66.368  -9.489   2.442  1.00  0.00     0.187 A 
HETATM    4  N4  UNL     1      66.870 -10.038   3.554  1.00  0.00    -0.164 N 
HETATM    5  C4  UNL     1      67.560 -11.316   3.421  1.00  0.00     0.177 C 
HETATM    6  C5  UNL     1      66.751  -9.477   4.773  1.00  0.00     0.716 A 
HETATM    7  N7  UNL     1      66.073  -8.290   4.824  1.00  0.00    -0.109 N 
ATOM      8  H7  UNL     1      65.955  -7.827   5.725  1.00  0.00     0.208 HD
HETATM    9  N8  UNL     1      65.565  -7.725   3.740  1.00  0.00    -0.190 N 
ENDROOT
BRANCH   3  10
HETATM   10  N1  UNL     1      66.508 -10.094   1.145  1.00  0.00    -0.190 N 
HETATM   11  N2  UNL     1      65.756 -10.954   0.776  1.00  0.00    -0.323 N 
ATOM     12  H22 UNL     1      64.985 -11.275   1.363  1.00  0.00     0.179 HD
ATOM     13  H21 UNL     1      65.854 -11.383  -0.144  1.00  0.00     0.179 HD
BRANCH  10  14
HETATM   14  N3  UNL     1      67.565  -9.653   0.338  1.00  0.00    -0.323 N 
ATOM     15  H32 UNL     1      68.471 -10.121   0.347  1.00  0.00     0.179 HD
ATOM     16  H31 UNL     1      67.398  -8.838  -0.250  1.00  0.00     0.179 HD
ENDBRANCH  10  14
ENDBRANCH   3  10
BRANCH   9  17
HETATM   17  N9  UNL     1      64.881  -6.501   3.802  1.00  0.00    -0.323 N 
ATOM     18  H92 UNL     1      64.269  -6.193   3.047  1.00  0.00     0.178 HD
ATOM     19  H91 UNL     1      65.028  -5.945   4.646  1.00  0.00     0.178 HD
ENDBRANCH   9  17
BRANCH   6  20
HETATM   20  N5  UNL     1      67.224 -10.001   5.849  1.00  0.00    -0.137 N 
ATOM     21  H5  UNL     1      67.663 -10.921   5.808  1.00  0.00     0.205 HD
BRANCH  20  22
HETATM   22  N6  UNL     1      67.147  -9.325   7.082  1.00  0.00    -0.331 N 
ATOM     23  H62 UNL     1      66.721  -8.398   7.102  1.00  0.00     0.177 HD
ATOM     24  H61 UNL     1      67.506  -9.747   7.938  1.00  0.00     0.177 HD
ENDBRANCH  20  22
ENDBRANCH   6  20
TORSDOF 5
ENDMDL
MODEL 4
REMARK VINA RESULT: -4.912202370      1.121      1.124
REMARK  5 active torsions:
REMARK  status: ('A' for Active; 'I' for Inactive)
REMARK    1  A    between atoms: C3_3  and  N1_4 
REMARK    2  A    between atoms: N1_4  and  N3_8 
REMARK    3  A    between atoms: C5_13  and  N5_14 
REMARK    4  A    between atoms: N5_14  and  N6_16 
REMARK    5  A    between atoms: N8_21  and  N9_22 
ROOT
HETATM    1  C1  UNL     1      67.830  -7.388   5.672  1.00  0.00     0.076 C 
HETATM    2  C2  UNL     1      67.270  -8.164   4.539  1.00  0.00     0.096 A 
HETATM    3  C3  UNL     1      67.189  -9.552   4.613  1.00  0.00     0.187 A 
HETATM    4  N4  UNL     1      66.693 -10.246   3.583  1.00  0.00    -0.164 N 
HETATM    5  C4  UNL     1      66.655 -11.698   3.706  1.00  0.00     0.177 C 
HETATM    6  C5  UNL     1      66.253  -9.668   2.448  1.00  0.00     0.716 A 
HETATM    7  N7  UNL     1      66.339  -8.305   2.396  1.00  0.00    -0.109 N 
ATOM      8  H7  UNL     1      66.019  -7.821   1.557  1.00  0.00     0.208 HD
HETATM    9  N8  UNL     1      66.826  -7.593   3.400  1.00  0.00    -0.190 N 
ENDROOT
BRANCH   3  10
HETATM   10  N1  UNL     1      67.651 -10.179   5.823  1.00  0.00    -0.190 N 
HETATM   11  N2  UNL     1      66.892 -10.445   6.714  1.00  0.00    -0.323 N 
ATOM     12  H22 UNL     1      65.894 -10.248   6.639  1.00  0.00     0.179 HD
ATOM     13  H21 UNL     1      67.219 -10.890   7.571  1.00  0.00     0.179 HD
BRANCH  10  14
HETATM   14  N3  UNL     1      69.022 -10.450   5.926  1.00  0.00    -0.323 N 
ATOM     15  H32 UNL     1      69.691  -9.719   6.167  1.00  0.00     0.179 HD
ATOM     16  H31 UNL     1      69.327 -11.404   5.737  1.00  0.00     0.179 HD
ENDBRANCH  10  14
ENDBRANCH   3  10
BRANCH   9  17
HETATM   17  N9  UNL     1      66.899  -6.192   3.340  1.00  0.00    -0.323 N 
ATOM     18  H92 UNL     1      67.616  -5.674   3.846  1.00  0.00     0.178 HD
ATOM     19  H91 UNL     1      66.200  -5.730   2.758  1.00  0.00     0.178 HD
ENDBRANCH   9  17
BRANCH   6  20
HETATM   20  N5  UNL     1      65.781 -10.328   1.449  1.00  0.00    -0.137 N 
ATOM     21  H5  UNL     1      64.857 -10.756   1.521  1.00  0.00     0.205 HD
BRANCH  20  22
HETATM   22  N6  UNL     1      66.517 -10.467   0.256  1.00  0.00    -0.331 N 
ATOM     23  H62 UNL     1      66.032 -10.338  -0.632  1.00  0.00     0.177 HD
ATOM     24  H61 UNL     1      67.512 -10.692   0.274  1.00  0.00     0.177 HD
ENDBRANCH  20  22
ENDBRANCH   6  20
TORSDOF 5
ENDMDL
MODEL 5
REMARK VINA RESULT: -4.901384469      1.394      4.491
REMARK  5 active torsions:
REMARK  status: ('A' for Active; 'I' for Inactive)
REMARK    1  A    between atoms: C3_3  and  N1_4 
REMARK    2  A    between atoms: N1_4  and  N3_8 
REMARK    3  A    between atoms: C5_13  and  N5_14 
REMARK    4  A    between atoms: N5_14  and  N6_16 
REMARK    5  A    between atoms: N8_21  and  N9_22 
ROOT
HETATM    1  C1  UNL     1      67.717 -11.514   3.468  1.00  0.00     0.076 C 
HETATM    2  C2  UNL     1      66.983 -10.236   3.635  1.00  0.00     0.096 A 
HETATM    3  C3  UNL     1      66.454  -9.582   2.525  1.00  0.00     0.187 A 
HETATM    4  N4  UNL     1      65.804  -8.424   2.682  1.00  0.00    -0.164 N 
HETATM    5  C4  UNL     1      65.292  -7.771   1.483  1.00  0.00     0.177 C 
HETATM    6  C5  UNL     1      65.621  -7.837   3.882  1.00  0.00     0.716 A 
HETATM    7  N7  UNL     1      66.146  -8.496   4.959  1.00  0.00    -0.109 N 
ATOM      8  H7  UNL     1      66.034  -8.091   5.888  1.00  0.00     0.208 HD
HETATM    9  N8  UNL     1      66.794  -9.643   4.832  1.00  0.00    -0.190 N 
ENDROOT
BRANCH   3  10
HETATM   10  N1  UNL     1      66.638 -10.202   1.241  1.00  0.00    -0.190 N 
HETATM   11  N2  UNL     1      65.963 -11.134   0.898  1.00  0.00    -0.323 N 
ATOM     12  H22 UNL     1      65.229 -11.509   1.500  1.00  0.00     0.179 HD
ATOM     13  H21 UNL     1      66.093 -11.574  -0.012  1.00  0.00     0.179 HD
BRANCH  10  14
HETATM   14  N3  UNL     1      67.645  -9.687   0.414  1.00  0.00    -0.323 N 
ATOM     15  H32 UNL     1      68.488  -9.267   0.803  1.00  0.00     0.179 HD
ATOM     16  H31 UNL     1      67.498  -9.739  -0.594  1.00  0.00     0.179 HD
ENDBRANCH  10  14
ENDBRANCH   3  10
BRANCH   9  17
HETATM   17  N9  UNL     1      67.320 -10.316   5.946  1.00  0.00    -0.323 N 
ATOM     18  H92 UNL     1      68.155  -9.982   6.426  1.00  0.00     0.178 HD
ATOM     19  H91 UNL     1      66.815 -11.149   6.248  1.00  0.00     0.178 HD
ENDBRANCH   9  17
BRANCH   6  20
HETATM   20  N5  UNL     1      65.003  -6.719   4.042  1.00  0.00    -0.137 N 
ATOM     21  H5  UNL     1      64.876  -6.097   3.244  1.00  0.00     0.205 HD
BRANCH  20  22
HETATM   22  N6  UNL     1      64.498  -6.342   5.302  1.00  0.00    -0.331 N 
ATOM     23  H62 UNL     1      64.466  -5.349   5.535  1.00  0.00     0.177 HD
ATOM     24  H61 UNL     1      64.170  -7.041   5.969  1.00  0.00     0.177 HD
ENDBRANCH  20  22
ENDBRANCH   6  20
TORSDOF 5
ENDMDL
