MODEL 1
REMARK VINA RESULT: -9.028726211      0.000      0.000
REMARK  6 active torsions:
REMARK  status: ('A' for Active; 'I' for Inactive)
REMARK    1  A    between atoms: N2_7  and  C5_9 
REMARK    2  A    between atoms: C17_23  and  N4_24 
REMARK    3  A    between atoms: C18_26  and  C19_27 
REMARK    4  A    between atoms: C19_27  and  C20_28 
REMARK    5  A    between atoms: C20_28  and  O1_29 
REMARK    6  A    between atoms: O1_29  and  C21_30 
ROOT
HETATM    1  C1  UNL     1      14.446  11.639   3.603  1.00  0.00     0.038 C 
HETATM    2  C2  UNL     1      15.741  11.331   3.005  1.00  0.00    -0.001 C 
HETATM    3  C3  UNL     1      16.607  10.450   3.543  1.00  0.00     0.037 A 
HETATM    4  N1  UNL     1      16.203   9.822   4.739  1.00  0.00    -0.337 N 
ATOM      5  H1  UNL     1      15.287  10.083   5.106  1.00  0.00     0.168 HD
HETATM    6  C4  UNL     1      16.935   8.866   5.482  1.00  0.00     0.146 A 
HETATM    7  N2  UNL     1      16.550   8.323   6.553  1.00  0.00    -0.366 N 
ATOM      8  H2  UNL     1      17.235   7.662   6.920  1.00  0.00     0.162 HD
HETATM    9  S1  UNL     1      18.556   8.408   4.815  1.00  0.00    -0.051 SA
HETATM   10  C11 UNL     1      18.784   9.352   3.327  1.00  0.00     0.044 A 
HETATM   11  C12 UNL     1      17.892  10.185   2.884  1.00  0.00    -0.011 A 
HETATM   12  C13 UNL     1      18.134  10.927   1.631  1.00  0.00     0.062 A 
HETATM   13  C14 UNL     1      19.441  10.752   1.000  1.00  0.00     0.139 A 
HETATM   14  N3  UNL     1      20.347   9.794   1.538  1.00  0.00    -0.298 N 
HETATM   15  C15 UNL     1      20.074   9.122   2.649  1.00  0.00     0.060 A 
HETATM   16  C16 UNL     1      20.986   8.224   3.131  1.00  0.00     0.080 A 
HETATM   17  C17 UNL     1      22.223   7.962   2.505  1.00  0.00     0.110 A 
HETATM   18  N5  UNL     1      22.431   8.673   1.392  1.00  0.00    -0.294 N 
ATOM     19  H5  UNL     1      23.306   8.534   0.886  1.00  0.00     0.172 HD
HETATM   20  C23 UNL     1      21.548   9.558   0.904  1.00  0.00     0.328 A 
HETATM   21  O2  UNL     1      21.763  10.228  -0.161  1.00  0.00    -0.246 OA
ENDROOT
BRANCH   7  22
HETATM   22  C5  UNL     1      15.406   8.407   7.362  1.00  0.00     0.083 C 
HETATM   23  C6  UNL     1      15.148   9.753   8.005  1.00  0.00     0.025 C 
HETATM   24  C7  UNL     1      14.249   9.555   9.233  1.00  0.00     0.002 C 
HETATM   25  C8  UNL     1      13.130   8.638   8.802  1.00  0.00     0.000 C 
HETATM   26  C9  UNL     1      12.971   8.671   7.298  1.00  0.00     0.002 C 
HETATM   27  C10 UNL     1      14.156   7.966   6.663  1.00  0.00     0.025 C 
ENDBRANCH   7  22
BRANCH  17  28
HETATM   28  N4  UNL     1      23.028   7.148   2.960  1.00  0.00    -0.356 N 
HETATM   29  C18 UNL     1      23.322   5.852   3.228  1.00  0.00     0.064 C 
ATOM     30  H4  UNL     1      23.831   7.691   3.277  1.00  0.00     0.166 HD
BRANCH  29  31
HETATM   31  C19 UNL     1      22.295   4.771   2.874  1.00  0.00     0.071 C 
BRANCH  31  32
HETATM   32  C20 UNL     1      21.978   4.007   4.131  1.00  0.00     0.172 C 
BRANCH  32  33
HETATM   33  O1  UNL     1      21.158   2.967   4.037  1.00  0.00    -0.391 OA
BRANCH  33  34
HETATM   34  C21 UNL     1      20.082   2.877   3.251  1.00  0.00     0.163 C 
HETATM   35  C22 UNL     1      19.827   1.605   2.502  1.00  0.00     0.033 C 
ENDBRANCH  33  34
ENDBRANCH  32  33
ENDBRANCH  31  32
ENDBRANCH  29  31
ENDBRANCH  17  28
TORSDOF 6
ENDMDL
MODEL 2
REMARK VINA RESULT: -8.993792317      0.522      1.022
REMARK  6 active torsions:
REMARK  status: ('A' for Active; 'I' for Inactive)
REMARK    1  A    between atoms: N2_7  and  C5_9 
REMARK    2  A    between atoms: C17_23  and  N4_24 
REMARK    3  A    between atoms: C18_26  and  C19_27 
REMARK    4  A    between atoms: C19_27  and  C20_28 
REMARK    5  A    between atoms: C20_28  and  O1_29 
REMARK    6  A    between atoms: O1_29  and  C21_30 
ROOT
HETATM    1  C1  UNL     1      14.124  11.429   3.010  1.00  0.00     0.038 C 
HETATM    2  C2  UNL     1      15.438  11.089   2.473  1.00  0.00    -0.001 C 
HETATM    3  C3  UNL     1      16.341  10.357   3.152  1.00  0.00     0.037 A 
HETATM    4  N1  UNL     1      15.958   9.920   4.437  1.00  0.00    -0.337 N 
ATOM      5  H1  UNL     1      15.028  10.193   4.754  1.00  0.00     0.168 HD
HETATM    6  C4  UNL     1      16.730   9.142   5.332  1.00  0.00     0.146 A 
HETATM    7  N2  UNL     1      16.363   8.768   6.479  1.00  0.00    -0.366 N 
ATOM      8  H2  UNL     1      17.076   8.214   6.952  1.00  0.00     0.162 HD
HETATM    9  S1  UNL     1      18.378   8.659   4.753  1.00  0.00    -0.051 SA
HETATM   10  C11 UNL     1      18.572   9.348   3.126  1.00  0.00     0.044 A 
HETATM   11  C12 UNL     1      17.644  10.049   2.548  1.00  0.00    -0.011 A 
HETATM   12  C13 UNL     1      17.860  10.580   1.188  1.00  0.00     0.062 A 
HETATM   13  C14 UNL     1      19.180  10.367   0.596  1.00  0.00     0.139 A 
HETATM   14  N3  UNL     1      20.127   9.560   1.289  1.00  0.00    -0.298 N 
HETATM   15  C15 UNL     1      19.878   9.073   2.498  1.00  0.00     0.060 A 
HETATM   16  C16 UNL     1      20.829   8.316   3.125  1.00  0.00     0.080 A 
HETATM   17  C17 UNL     1      22.083   8.015   2.553  1.00  0.00     0.110 A 
HETATM   18  N5  UNL     1      22.265   8.536   1.335  1.00  0.00    -0.294 N 
ATOM     19  H5  UNL     1      23.151   8.358   0.861  1.00  0.00     0.172 HD
HETATM   20  C23 UNL     1      21.345   9.282   0.705  1.00  0.00     0.328 A 
HETATM   21  O2  UNL     1      21.535   9.772  -0.459  1.00  0.00    -0.246 OA
ENDROOT
BRANCH   7  22
HETATM   22  C5  UNL     1      15.209   8.931   7.262  1.00  0.00     0.083 C 
HETATM   23  C6  UNL     1      14.232   7.775   7.246  1.00  0.00     0.025 C 
HETATM   24  C7  UNL     1      12.846   8.289   7.659  1.00  0.00     0.002 C 
HETATM   25  C8  UNL     1      13.054   9.154   8.878  1.00  0.00     0.000 C 
HETATM   26  C9  UNL     1      14.361   8.803   9.556  1.00  0.00     0.002 C 
HETATM   27  C10 UNL     1      15.510   9.281   8.687  1.00  0.00     0.025 C 
ENDBRANCH   7  22
BRANCH  17  28
HETATM   28  N4  UNL     1      22.924   7.330   3.140  1.00  0.00    -0.356 N 
HETATM   29  C18 UNL     1      23.327   6.098   3.534  1.00  0.00     0.064 C 
ATOM     30  H4  UNL     1      23.630   7.982   3.481  1.00  0.00     0.166 HD
BRANCH  29  31
HETATM   31  C19 UNL     1      22.459   4.886   3.179  1.00  0.00     0.071 C 
BRANCH  31  32
HETATM   32  C20 UNL     1      22.268   4.073   4.431  1.00  0.00     0.172 C 
BRANCH  32  33
HETATM   33  O1  UNL     1      21.148   3.371   4.552  1.00  0.00    -0.391 OA
BRANCH  33  34
HETATM   34  C21 UNL     1      20.102   3.401   3.722  1.00  0.00     0.163 C 
HETATM   35  C22 UNL     1      19.803   2.201   2.877  1.00  0.00     0.033 C 
ENDBRANCH  33  34
ENDBRANCH  32  33
ENDBRANCH  31  32
ENDBRANCH  29  31
ENDBRANCH  17  28
TORSDOF 6
ENDMDL
MODEL 3
REMARK VINA RESULT: -8.989831441      2.668      4.281
REMARK  6 active torsions:
REMARK  status: ('A' for Active; 'I' for Inactive)
REMARK    1  A    between atoms: N2_7  and  C5_9 
REMARK    2  A    between atoms: C17_23  and  N4_24 
REMARK    3  A    between atoms: C18_26  and  C19_27 
REMARK    4  A    between atoms: C19_27  and  C20_28 
REMARK    5  A    between atoms: C20_28  and  O1_29 
REMARK    6  A    between atoms: O1_29  and  C21_30 
ROOT
HETATM    1  C1  UNL     1      11.056   9.406   3.472  1.00  0.00     0.038 C 
HETATM    2  C2  UNL     1      12.061   9.626   2.436  1.00  0.00    -0.001 C 
HETATM    3  C3  UNL     1      13.370   9.787   2.707  1.00  0.00     0.037 A 
HETATM    4  N1  UNL     1      13.743   9.734   4.065  1.00  0.00    -0.337 N 
ATOM      5  H1  UNL     1      12.993   9.580   4.739  1.00  0.00     0.168 HD
HETATM    6  C4  UNL     1      15.049   9.872   4.591  1.00  0.00     0.146 A 
HETATM    7  N2  UNL     1      15.353   9.824   5.814  1.00  0.00    -0.366 N 
ATOM      8  H2  UNL     1      16.353   9.947   5.970  1.00  0.00     0.162 HD
HETATM    9  S1  UNL     1      16.372  10.141   3.383  1.00  0.00    -0.051 SA
HETATM   10  C11 UNL     1      15.605  10.161   1.779  1.00  0.00     0.044 A 
HETATM   11  C12 UNL     1      14.327  10.001   1.613  1.00  0.00    -0.011 A 
HETATM   12  C13 UNL     1      13.753  10.012   0.254  1.00  0.00     0.062 A 
HETATM   13  C14 UNL     1      14.667  10.312  -0.848  1.00  0.00     0.139 A 
HETATM   14  N3  UNL     1      16.059  10.444  -0.577  1.00  0.00    -0.298 N 
HETATM   15  C15 UNL     1      16.537  10.392   0.659  1.00  0.00     0.060 A 
HETATM   16  C16 UNL     1      17.881  10.540   0.865  1.00  0.00     0.080 A 
HETATM   17  C17 UNL     1      18.808  10.745  -0.179  1.00  0.00     0.110 A 
HETATM   18  N5  UNL     1      18.257  10.785  -1.396  1.00  0.00    -0.294 N 
ATOM     19  H5  UNL     1      18.870  10.930  -2.199  1.00  0.00     0.172 HD
HETATM   20  C23 UNL     1      16.941  10.643  -1.617  1.00  0.00     0.328 A 
HETATM   21  O2  UNL     1      16.432  10.682  -2.787  1.00  0.00    -0.246 OA
ENDROOT
BRANCH   7  22
HETATM   22  C5  UNL     1      14.647   9.643   7.014  1.00  0.00     0.083 C 
HETATM   23  C6  UNL     1      15.450   9.105   8.179  1.00  0.00     0.025 C 
HETATM   24  C7  UNL     1      14.491   8.460   9.189  1.00  0.00     0.002 C 
HETATM   25  C8  UNL     1      13.348   9.428   9.375  1.00  0.00     0.000 C 
HETATM   26  C9  UNL     1      13.769  10.825   8.972  1.00  0.00     0.002 C 
HETATM   27  C10 UNL     1      13.923  10.876   7.463  1.00  0.00     0.025 C 
ENDBRANCH   7  22
BRANCH  17  28
HETATM   28  N4  UNL     1      20.015  10.876   0.034  1.00  0.00    -0.356 N 
HETATM   29  C18 UNL     1      21.224  10.282   0.187  1.00  0.00     0.064 C 
ATOM     30  H4  UNL     1      20.176  11.877   0.142  1.00  0.00     0.166 HD
BRANCH  29  31
HETATM   31  C19 UNL     1      21.317   8.756   0.089  1.00  0.00     0.071 C 
BRANCH  31  32
HETATM   32  C20 UNL     1      22.774   8.381   0.086  1.00  0.00     0.172 C 
BRANCH  32  33
HETATM   33  O1  UNL     1      23.314   7.972   1.228  1.00  0.00    -0.391 OA
BRANCH  33  34
HETATM   34  C21 UNL     1      22.684   7.333   2.217  1.00  0.00     0.163 C 
HETATM   35  C22 UNL     1      22.710   5.836   2.254  1.00  0.00     0.033 C 
ENDBRANCH  33  34
ENDBRANCH  32  33
ENDBRANCH  31  32
ENDBRANCH  29  31
ENDBRANCH  17  28
TORSDOF 6
ENDMDL
MODEL 4
REMARK VINA RESULT: -8.842999087      3.108      4.587
REMARK  6 active torsions:
REMARK  status: ('A' for Active; 'I' for Inactive)
REMARK    1  A    between atoms: N2_7  and  C5_9 
REMARK    2  A    between atoms: C17_23  and  N4_24 
REMARK    3  A    between atoms: C18_26  and  C19_27 
REMARK    4  A    between atoms: C19_27  and  C20_28 
REMARK    5  A    between atoms: C20_28  and  O1_29 
REMARK    6  A    between atoms: O1_29  and  C21_30 
ROOT
HETATM    1  C1  UNL     1      11.089   9.401   3.471  1.00  0.00     0.038 C 
HETATM    2  C2  UNL     1      12.062   9.608   2.403  1.00  0.00    -0.001 C 
HETATM    3  C3  UNL     1      13.380   9.764   2.632  1.00  0.00     0.037 A 
HETATM    4  N1  UNL     1      13.795   9.718   3.979  1.00  0.00    -0.337 N 
ATOM      5  H1  UNL     1      13.065   9.572   4.677  1.00  0.00     0.168 HD
HETATM    6  C4  UNL     1      15.117   9.852   4.463  1.00  0.00     0.146 A 
HETATM    7  N2  UNL     1      15.458   9.811   5.676  1.00  0.00    -0.366 N 
ATOM      8  H2  UNL     1      16.464   9.929   5.800  1.00  0.00     0.162 HD
HETATM    9  S1  UNL     1      16.403  10.106   3.212  1.00  0.00    -0.051 SA
HETATM   10  C11 UNL     1      15.587  10.120   1.633  1.00  0.00     0.044 A 
HETATM   11  C12 UNL     1      14.304   9.966   1.508  1.00  0.00    -0.011 A 
HETATM   12  C13 UNL     1      13.688   9.970   0.167  1.00  0.00     0.062 A 
HETATM   13  C14 UNL     1      14.568  10.258  -0.965  1.00  0.00     0.139 A 
HETATM   14  N3  UNL     1      15.968  10.385  -0.738  1.00  0.00    -0.298 N 
HETATM   15  C15 UNL     1      16.485  10.339   0.483  1.00  0.00     0.060 A 
HETATM   16  C16 UNL     1      17.836  10.481   0.646  1.00  0.00     0.080 A 
HETATM   17  C17 UNL     1      18.730  10.674  -0.427  1.00  0.00     0.110 A 
HETATM   18  N5  UNL     1      18.142  10.708  -1.627  1.00  0.00    -0.294 N 
ATOM     19  H5  UNL     1      18.730  10.845  -2.450  1.00  0.00     0.172 HD
HETATM   20  C23 UNL     1      16.820  10.572  -1.806  1.00  0.00     0.328 A 
HETATM   21  O2  UNL     1      16.274  10.607  -2.960  1.00  0.00    -0.246 OA
ENDROOT
BRANCH   7  22
HETATM   22  C5  UNL     1      14.789   9.642   6.898  1.00  0.00     0.083 C 
HETATM   23  C6  UNL     1      15.635   9.148   8.052  1.00  0.00     0.025 C 
HETATM   24  C7  UNL     1      14.719   8.505   9.102  1.00  0.00     0.002 C 
HETATM   25  C8  UNL     1      13.559   9.452   9.298  1.00  0.00     0.000 C 
HETATM   26  C9  UNL     1      13.938  10.847   8.853  1.00  0.00     0.002 C 
HETATM   27  C10 UNL     1      14.050  10.868   7.340  1.00  0.00     0.025 C 
ENDBRANCH   7  22
BRANCH  17  28
HETATM   28  N4  UNL     1      19.944  10.800  -0.253  1.00  0.00    -0.356 N 
HETATM   29  C18 UNL     1      21.133  10.204   0.007  1.00  0.00     0.064 C 
ATOM     30  H4  UNL     1      20.142  11.796  -0.347  1.00  0.00     0.166 HD
BRANCH  29  31
HETATM   31  C19 UNL     1      21.172   8.686   0.213  1.00  0.00     0.071 C 
BRANCH  31  32
HETATM   32  C20 UNL     1      21.221   8.422   1.693  1.00  0.00     0.172 C 
BRANCH  32  33
HETATM   33  O1  UNL     1      20.192   8.820   2.431  1.00  0.00    -0.391 OA
BRANCH  33  34
HETATM   34  C21 UNL     1      20.256   9.535   3.558  1.00  0.00     0.163 C 
HETATM   35  C22 UNL     1      21.058  10.800   3.578  1.00  0.00     0.033 C 
ENDBRANCH  33  34
ENDBRANCH  32  33
ENDBRANCH  31  32
ENDBRANCH  29  31
ENDBRANCH  17  28
TORSDOF 6
ENDMDL
MODEL 5
REMARK VINA RESULT: -8.739972158      1.875      2.849
REMARK  6 active torsions:
REMARK  status: ('A' for Active; 'I' for Inactive)
REMARK    1  A    between atoms: N2_7  and  C5_9 
REMARK    2  A    between atoms: C17_23  and  N4_24 
REMARK    3  A    between atoms: C18_26  and  C19_27 
REMARK    4  A    between atoms: C19_27  and  C20_28 
REMARK    5  A    between atoms: C20_28  and  O1_29 
REMARK    6  A    between atoms: O1_29  and  C21_30 
ROOT
HETATM    1  C1  UNL     1      15.234  12.153   3.368  1.00  0.00     0.038 C 
HETATM    2  C2  UNL     1      16.483  11.668   2.789  1.00  0.00    -0.001 C 
HETATM    3  C3  UNL     1      17.175  10.631   3.299  1.00  0.00     0.037 A 
HETATM    4  N1  UNL     1      16.631  10.015   4.444  1.00  0.00    -0.337 N 
ATOM      5  H1  UNL     1      15.756  10.403   4.800  1.00  0.00     0.168 HD
HETATM    6  C4  UNL     1      17.170   8.915   5.151  1.00  0.00     0.146 A 
HETATM    7  N2  UNL     1      16.663   8.386   6.177  1.00  0.00    -0.366 N 
ATOM      8  H2  UNL     1      17.218   7.604   6.524  1.00  0.00     0.162 HD
HETATM    9  S1  UNL     1      18.720   8.233   4.504  1.00  0.00    -0.051 SA
HETATM   10  C11 UNL     1      19.152   9.204   3.080  1.00  0.00     0.044 A 
HETATM   11  C12 UNL     1      18.423  10.194   2.662  1.00  0.00    -0.011 A 
HETATM   12  C13 UNL     1      18.828  10.951   1.461  1.00  0.00     0.062 A 
HETATM   13  C14 UNL     1      20.112  10.599   0.858  1.00  0.00     0.139 A 
HETATM   14  N3  UNL     1      20.831   9.478   1.364  1.00  0.00    -0.298 N 
HETATM   15  C15 UNL     1      20.412   8.802   2.427  1.00  0.00     0.060 A 
HETATM   16  C16 UNL     1      21.148   7.743   2.881  1.00  0.00     0.080 A 
HETATM   17  C17 UNL     1      22.349   7.315   2.275  1.00  0.00     0.110 A 
HETATM   18  N5  UNL     1      22.710   8.040   1.211  1.00  0.00    -0.294 N 
ATOM     19  H5  UNL     1      23.569   7.787   0.723  1.00  0.00     0.172 HD
HETATM   20  C23 UNL     1      22.001   9.083   0.752  1.00  0.00     0.328 A 
HETATM   21  O2  UNL     1      22.360   9.764  -0.267  1.00  0.00    -0.246 OA
ENDROOT
BRANCH   7  22
HETATM   22  C5  UNL     1      15.519   8.613   6.958  1.00  0.00     0.083 C 
HETATM   23  C6  UNL     1      14.485   7.508   6.954  1.00  0.00     0.025 C 
HETATM   24  C7  UNL     1      13.126   8.095   7.360  1.00  0.00     0.002 C 
HETATM   25  C8  UNL     1      13.377   8.961   8.572  1.00  0.00     0.000 C 
HETATM   26  C9  UNL     1      14.665   8.551   9.253  1.00  0.00     0.002 C 
HETATM   27  C10 UNL     1      15.836   8.963   8.380  1.00  0.00     0.025 C 
ENDBRANCH   7  22
BRANCH  17  28
HETATM   28  N4  UNL     1      22.994   6.357   2.705  1.00  0.00    -0.356 N 
HETATM   29  C18 UNL     1      23.442   5.666   3.781  1.00  0.00     0.064 C 
ATOM     30  H4  UNL     1      23.351   5.866   1.885  1.00  0.00     0.166 HD
BRANCH  29  31
HETATM   31  C19 UNL     1      23.080   6.164   5.184  1.00  0.00     0.071 C 
BRANCH  31  32
HETATM   32  C20 UNL     1      24.095   7.200   5.583  1.00  0.00     0.172 C 
BRANCH  32  33
HETATM   33  O1  UNL     1      24.088   8.360   4.938  1.00  0.00    -0.391 OA
BRANCH  33  34
HETATM   34  C21 UNL     1      23.403   9.453   5.283  1.00  0.00     0.163 C 
HETATM   35  C22 UNL     1      23.191  10.535   4.270  1.00  0.00     0.033 C 
ENDBRANCH  33  34
ENDBRANCH  32  33
ENDBRANCH  31  32
ENDBRANCH  29  31
ENDBRANCH  17  28
TORSDOF 6
ENDMDL
