MODEL 1
REMARK VINA RESULT: -9.605501842      0.000      0.000
REMARK  6 active torsions:
REMARK  status: ('A' for Active; 'I' for Inactive)
REMARK    1  A    between atoms: C6_6  and  C7_7 
REMARK    2  A    between atoms: C11_15  and  C12_16 
REMARK    3  A    between atoms: C12_16  and  N3_17 
REMARK    4  A    between atoms: C15_20  and  N4_21 
REMARK    5  A    between atoms: C18_24  and  C19_25 
REMARK    6  A    between atoms: C18_24  and  N6_28 
ROOT
HETATM    1  C19 UNL     1      17.043  10.525  -2.250  1.00  0.00     0.159 C 
HETATM    2  C20 UNL     1      17.621  10.538  -0.913  1.00  0.00     0.061 C 
HETATM    3  N5  UNL     1      18.054  10.547   0.139  1.00  0.00    -0.197 NA
ENDROOT
BRANCH   1   4
HETATM    4  C18 UNL     1      15.647   9.981  -2.161  1.00  0.00     0.096 C 
HETATM    5  C17 UNL     1      15.720   8.554  -1.637  1.00  0.00     0.056 C 
HETATM    6  C16 UNL     1      14.436   8.438  -0.847  1.00  0.00     0.120 C 
HETATM    7  N4  UNL     1      14.017   9.743  -0.476  1.00  0.00    -0.406 N 
HETATM    8  C22 UNL     1      14.782  10.721  -1.156  1.00  0.00     0.152 C 
BRANCH   7   9
HETATM    9  C15 UNL     1      13.737   9.940   0.896  1.00  0.00     0.082 C 
HETATM   10  C14 UNL     1      13.669   8.718   1.740  1.00  0.00     0.055 C 
HETATM   11  C13 UNL     1      14.717   8.801   2.820  1.00  0.00     0.275 C 
HETATM   12  N3  UNL     1      14.459   9.870   3.786  1.00  0.00     0.092 N 
HETATM   13  C24 UNL     1      14.142  11.088   2.993  1.00  0.00     0.275 C 
HETATM   14  C23 UNL     1      14.620  10.947   1.566  1.00  0.00     0.055 C 
BRANCH  12  15
HETATM   15  C12 UNL     1      15.709  10.161   4.408  1.00  0.00     0.314 C 
BRANCH  15  16
HETATM   16  C11 UNL     1      15.866   9.747   5.812  1.00  0.00     0.005 A 
HETATM   17  C2  UNL     1      16.903   8.861   6.137  1.00  0.00    -0.052 A 
HETATM   18  C1  UNL     1      17.851   8.388   5.068  1.00  0.00     0.049 C 
HETATM   19  C3  UNL     1      17.053   8.425   7.425  1.00  0.00     0.008 A 
HETATM   20  C4  UNL     1      16.229   8.811   8.457  1.00  0.00     0.016 A 
HETATM   21  C5  UNL     1      15.205   9.681   8.154  1.00  0.00     0.017 A 
HETATM   22  C6  UNL     1      14.216  10.232   8.955  1.00  0.00     0.042 A 
HETATM   23  C10 UNL     1      15.039  10.136   6.838  1.00  0.00     0.069 A 
HETATM   24  N1  UNL     1      13.474  10.998   8.141  1.00  0.00    -0.303 N 
HETATM   25  N2  UNL     1      13.962  10.931   6.927  1.00  0.00    -0.299 N 
ATOM     26  H1  UNL     1      12.660  11.545   8.422  1.00  0.00     0.186 HD
ATOM     27  H2  UNL     1      13.565  11.430   6.132  1.00  0.00     0.187 HD
BRANCH  22  28
HETATM   28  C7  UNL     1      14.043   9.995  10.429  1.00  0.00     0.030 C 
HETATM   29  C8  UNL     1      13.940  11.322  11.149  1.00  0.00     0.016 C 
HETATM   30  C9  UNL     1      12.867   9.104  10.709  1.00  0.00     0.016 C 
ENDBRANCH  22  28
ENDBRANCH  15  16
ENDBRANCH  12  15
ENDBRANCH   7   9
BRANCH   4  31
HETATM   31  N6  UNL     1      15.020   9.924  -3.465  1.00  0.00    -0.168 N 
HETATM   32  O1  UNL     1      14.852  10.851  -4.362  1.00  0.00    -0.145 OA
HETATM   33  N7  UNL     1      14.248  10.036  -5.181  1.00  0.00    -0.189 N 
HETATM   34  C21 UNL     1      14.410   9.069  -4.273  1.00  0.00     0.370 A 
ATOM     35  H7  UNL     1      13.832  10.106  -6.109  1.00  0.00     0.202 HD
HETATM   36  O2  UNL     1      14.113   7.851  -4.205  1.00  0.00    -0.243 OA
ENDBRANCH   4  31
ENDBRANCH   1   4
TORSDOF 6
ENDMDL
MODEL 2
REMARK VINA RESULT: -9.512216855      5.613      9.797
REMARK  6 active torsions:
REMARK  status: ('A' for Active; 'I' for Inactive)
REMARK    1  A    between atoms: C6_6  and  C7_7 
REMARK    2  A    between atoms: C11_15  and  C12_16 
REMARK    3  A    between atoms: C12_16  and  N3_17 
REMARK    4  A    between atoms: C15_20  and  N4_21 
REMARK    5  A    between atoms: C18_24  and  C19_25 
REMARK    6  A    between atoms: C18_24  and  N6_28 
ROOT
HETATM    1  C19 UNL     1      20.612   5.514   4.069  1.00  0.00     0.159 C 
HETATM    2  C20 UNL     1      20.145   6.348   5.167  1.00  0.00     0.061 C 
HETATM    3  N5  UNL     1      19.799   7.006   6.029  1.00  0.00    -0.197 NA
ENDROOT
BRANCH   1   4
HETATM    4  C18 UNL     1      21.958   6.014   3.629  1.00  0.00     0.096 C 
HETATM    5  C17 UNL     1      22.308   5.348   2.306  1.00  0.00     0.056 C 
HETATM    6  C16 UNL     1      23.113   6.422   1.610  1.00  0.00     0.120 C 
HETATM    7  N4  UNL     1      22.759   7.679   2.168  1.00  0.00    -0.406 N 
HETATM    8  C22 UNL     1      21.971   7.503   3.331  1.00  0.00     0.152 C 
BRANCH   7   9
HETATM    9  C15 UNL     1      22.386   8.685   1.247  1.00  0.00     0.082 C 
HETATM   10  C14 UNL     1      21.378   8.304   0.222  1.00  0.00     0.055 C 
HETATM   11  C13 UNL     1      20.164   9.184   0.368  1.00  0.00     0.275 C 
HETATM   12  N3  UNL     1      20.432  10.586   0.045  1.00  0.00     0.092 N 
HETATM   13  C24 UNL     1      21.680  10.955   0.765  1.00  0.00     0.275 C 
HETATM   14  C23 UNL     1      21.972   9.978   1.881  1.00  0.00     0.055 C 
BRANCH  12  15
HETATM   15  C12 UNL     1      19.410  11.350   0.684  1.00  0.00     0.314 C 
BRANCH  15  16
HETATM   16  C11 UNL     1      18.034  10.834   0.584  1.00  0.00     0.005 A 
HETATM   17  C2  UNL     1      17.344  10.536   1.768  1.00  0.00    -0.052 A 
HETATM   18  C1  UNL     1      17.996  10.784   3.102  1.00  0.00     0.049 C 
HETATM   19  C3  UNL     1      16.080  10.018   1.712  1.00  0.00     0.008 A 
HETATM   20  C4  UNL     1      15.417   9.762   0.533  1.00  0.00     0.016 A 
HETATM   21  C5  UNL     1      16.081  10.050  -0.639  1.00  0.00     0.017 A 
HETATM   22  C6  UNL     1      15.696   9.894  -1.962  1.00  0.00     0.042 A 
HETATM   23  C10 UNL     1      17.378  10.581  -0.596  1.00  0.00     0.069 A 
HETATM   24  N1  UNL     1      16.736  10.319  -2.696  1.00  0.00    -0.303 N 
HETATM   25  N2  UNL     1      17.695  10.711  -1.893  1.00  0.00    -0.299 N 
ATOM     26  H1  UNL     1      16.774  10.336  -3.715  1.00  0.00     0.186 HD
ATOM     27  H2  UNL     1      18.588  11.077  -2.220  1.00  0.00     0.187 HD
BRANCH  22  28
HETATM   28  C7  UNL     1      14.376   9.355  -2.438  1.00  0.00     0.030 C 
HETATM   29  C8  UNL     1      13.346  10.463  -2.443  1.00  0.00     0.016 C 
HETATM   30  C9  UNL     1      14.505   8.691  -3.779  1.00  0.00     0.016 C 
ENDBRANCH  22  28
ENDBRANCH  15  16
ENDBRANCH  12  15
ENDBRANCH   7   9
BRANCH   4  31
HETATM   31  N6  UNL     1      22.991   5.649   4.576  1.00  0.00    -0.168 N 
HETATM   32  O1  UNL     1      23.223   4.519   5.178  1.00  0.00    -0.145 OA
HETATM   33  N7  UNL     1      24.256   4.999   5.812  1.00  0.00    -0.189 N 
HETATM   34  C21 UNL     1      24.035   6.169   5.204  1.00  0.00     0.370 A 
ATOM     35  H7  UNL     1      24.937   4.639   6.480  1.00  0.00     0.202 HD
HETATM   36  O2  UNL     1      24.586   7.297   5.216  1.00  0.00    -0.243 OA
ENDBRANCH   4  31
ENDBRANCH   1   4
TORSDOF 6
ENDMDL
MODEL 3
REMARK VINA RESULT: -9.510231008      3.891      9.954
REMARK  6 active torsions:
REMARK  status: ('A' for Active; 'I' for Inactive)
REMARK    1  A    between atoms: C6_6  and  C7_7 
REMARK    2  A    between atoms: C11_15  and  C12_16 
REMARK    3  A    between atoms: C12_16  and  N3_17 
REMARK    4  A    between atoms: C15_20  and  N4_21 
REMARK    5  A    between atoms: C18_24  and  C19_25 
REMARK    6  A    between atoms: C18_24  and  N6_28 
ROOT
HETATM    1  C19 UNL     1      12.905   8.575   7.936  1.00  0.00     0.159 C 
HETATM    2  C20 UNL     1      13.324   7.387   7.205  1.00  0.00     0.061 C 
HETATM    3  N5  UNL     1      13.664   6.469   6.624  1.00  0.00    -0.197 NA
ENDROOT
BRANCH   1   4
HETATM    4  C18 UNL     1      14.014   9.585   7.879  1.00  0.00     0.096 C 
HETATM    5  C17 UNL     1      15.305   8.906   8.314  1.00  0.00     0.056 C 
HETATM    6  C16 UNL     1      16.342   9.628   7.483  1.00  0.00     0.120 C 
HETATM    7  N4  UNL     1      15.699  10.177   6.342  1.00  0.00    -0.406 N 
HETATM    8  C22 UNL     1      14.293  10.085   6.472  1.00  0.00     0.152 C 
BRANCH   7   9
HETATM    9  C15 UNL     1      16.283   9.868   5.092  1.00  0.00     0.082 C 
HETATM   10  C14 UNL     1      15.522   8.936   4.218  1.00  0.00     0.055 C 
HETATM   11  C13 UNL     1      15.184   9.633   2.925  1.00  0.00     0.275 C 
HETATM   12  N3  UNL     1      16.364   9.937   2.114  1.00  0.00     0.092 N 
HETATM   13  C24 UNL     1      17.356  10.561   3.030  1.00  0.00     0.275 C 
HETATM   14  C23 UNL     1      16.690  11.066   4.290  1.00  0.00     0.055 C 
BRANCH  12  15
HETATM   15  C12 UNL     1      15.983  10.989   1.228  1.00  0.00     0.314 C 
BRANCH  15  16
HETATM   16  C11 UNL     1      15.926  10.663  -0.206  1.00  0.00     0.005 A 
HETATM   17  C2  UNL     1      17.131  10.554  -0.916  1.00  0.00    -0.052 A 
HETATM   18  C1  UNL     1      18.444  10.729  -0.201  1.00  0.00     0.049 C 
HETATM   19  C3  UNL     1      17.113  10.290  -2.258  1.00  0.00     0.008 A 
HETATM   20  C4  UNL     1      15.956  10.118  -2.982  1.00  0.00     0.016 A 
HETATM   21  C5  UNL     1      14.764  10.222  -2.300  1.00  0.00     0.017 A 
HETATM   22  C6  UNL     1      13.453  10.117  -2.740  1.00  0.00     0.042 A 
HETATM   23  C10 UNL     1      14.766  10.492  -0.923  1.00  0.00     0.069 A 
HETATM   24  N1  UNL     1      12.688  10.319  -1.657  1.00  0.00    -0.303 N 
HETATM   25  N2  UNL     1      13.461  10.533  -0.621  1.00  0.00    -0.299 N 
ATOM     26  H1  UNL     1      11.668  10.308  -1.643  1.00  0.00     0.186 HD
ATOM     27  H2  UNL     1      13.106  10.713   0.318  1.00  0.00     0.187 HD
BRANCH  22  28
HETATM   28  C7  UNL     1      13.019   9.833  -4.151  1.00  0.00     0.030 C 
HETATM   29  C8  UNL     1      13.557   8.488  -4.589  1.00  0.00     0.016 C 
HETATM   30  C9  UNL     1      11.527   9.923  -4.295  1.00  0.00     0.016 C 
ENDBRANCH  22  28
ENDBRANCH  15  16
ENDBRANCH  12  15
ENDBRANCH   7   9
BRANCH   4  31
HETATM   31  N6  UNL     1      13.777  10.679   8.797  1.00  0.00    -0.168 N 
HETATM   32  O1  UNL     1      12.882  11.623   8.773  1.00  0.00    -0.145 OA
HETATM   33  N7  UNL     1      13.324  12.154   9.878  1.00  0.00    -0.189 N 
HETATM   34  C21 UNL     1      14.252  11.194   9.922  1.00  0.00     0.370 A 
ATOM     35  H7  UNL     1      13.071  12.955  10.458  1.00  0.00     0.202 HD
HETATM   36  O2  UNL     1      15.188  10.894  10.703  1.00  0.00    -0.243 OA
ENDBRANCH   4  31
ENDBRANCH   1   4
TORSDOF 6
ENDMDL
MODEL 4
REMARK VINA RESULT: -9.390033723      3.945     10.103
REMARK  6 active torsions:
REMARK  status: ('A' for Active; 'I' for Inactive)
REMARK    1  A    between atoms: C6_6  and  C7_7 
REMARK    2  A    between atoms: C11_15  and  C12_16 
REMARK    3  A    between atoms: C12_16  and  N3_17 
REMARK    4  A    between atoms: C15_20  and  N4_21 
REMARK    5  A    between atoms: C18_24  and  C19_25 
REMARK    6  A    between atoms: C18_24  and  N6_28 
ROOT
HETATM    1  C19 UNL     1      13.463   8.514   8.028  1.00  0.00     0.159 C 
HETATM    2  C20 UNL     1      13.533   7.426   7.063  1.00  0.00     0.061 C 
HETATM    3  N5  UNL     1      13.602   6.585   6.299  1.00  0.00    -0.197 NA
ENDROOT
BRANCH   1   4
HETATM    4  C18 UNL     1      14.796   9.204   8.066  1.00  0.00     0.096 C 
HETATM    5  C17 UNL     1      15.882   8.145   8.187  1.00  0.00     0.056 C 
HETATM    6  C16 UNL     1      17.025   8.769   7.420  1.00  0.00     0.120 C 
HETATM    7  N4  UNL     1      16.489   9.720   6.511  1.00  0.00    -0.406 N 
HETATM    8  C22 UNL     1      15.118   9.947   6.781  1.00  0.00     0.152 C 
BRANCH   7   9
HETATM    9  C15 UNL     1      16.899   9.591   5.164  1.00  0.00     0.082 C 
HETATM   10  C14 UNL     1      16.090   8.681   4.309  1.00  0.00     0.055 C 
HETATM   11  C13 UNL     1      15.505   9.466   3.163  1.00  0.00     0.275 C 
HETATM   12  N3  UNL     1      16.521   9.958   2.231  1.00  0.00     0.092 N 
HETATM   13  C24 UNL     1      17.588  10.580   3.059  1.00  0.00     0.275 C 
HETATM   14  C23 UNL     1      17.084  10.894   4.449  1.00  0.00     0.055 C 
BRANCH  12  15
HETATM   15  C12 UNL     1      15.928  11.051   1.530  1.00  0.00     0.314 C 
BRANCH  15  16
HETATM   16  C11 UNL     1      15.111  10.720   0.351  1.00  0.00     0.005 A 
HETATM   17  C2  UNL     1      13.720  10.632   0.505  1.00  0.00    -0.052 A 
HETATM   18  C1  UNL     1      13.091  10.915   1.843  1.00  0.00     0.049 C 
HETATM   19  C3  UNL     1      12.934  10.288  -0.560  1.00  0.00     0.008 A 
HETATM   20  C4  UNL     1      13.432  10.014  -1.814  1.00  0.00     0.016 A 
HETATM   21  C5  UNL     1      14.796  10.096  -1.981  1.00  0.00     0.017 A 
HETATM   22  C6  UNL     1      15.590   9.868  -3.095  1.00  0.00     0.042 A 
HETATM   23  C10 UNL     1      15.615  10.447  -0.898  1.00  0.00     0.069 A 
HETATM   24  N1  UNL     1      16.852  10.077  -2.692  1.00  0.00    -0.303 N 
HETATM   25  N2  UNL     1      16.848  10.409  -1.425  1.00  0.00    -0.299 N 
ATOM     26  H1  UNL     1      17.683   9.991  -3.279  1.00  0.00     0.186 HD
ATOM     27  H2  UNL     1      17.693  10.617  -0.894  1.00  0.00     0.187 HD
BRANCH  22  28
HETATM   28  C7  UNL     1      15.098   9.471  -4.459  1.00  0.00     0.030 C 
HETATM   29  C8  UNL     1      14.191   8.266  -4.343  1.00  0.00     0.016 C 
HETATM   30  C9  UNL     1      14.431  10.621  -5.159  1.00  0.00     0.016 C 
ENDBRANCH  22  28
ENDBRANCH  15  16
ENDBRANCH  12  15
ENDBRANCH   7   9
BRANCH   4  31
HETATM   31  N6  UNL     1      14.910  10.065   9.224  1.00  0.00    -0.168 N 
HETATM   32  O1  UNL     1      15.832  10.130  10.140  1.00  0.00    -0.145 OA
HETATM   33  N7  UNL     1      15.224  11.096  10.770  1.00  0.00    -0.189 N 
HETATM   34  C21 UNL     1      14.266  11.046   9.840  1.00  0.00     0.370 A 
ATOM     35  H7  UNL     1      15.402  11.649  11.609  1.00  0.00     0.202 HD
HETATM   36  O2  UNL     1      13.196  11.668   9.628  1.00  0.00    -0.243 OA
ENDBRANCH   4  31
ENDBRANCH   1   4
TORSDOF 6
ENDMDL
MODEL 5
REMARK VINA RESULT: -9.386141626      3.930     10.088
REMARK  6 active torsions:
REMARK  status: ('A' for Active; 'I' for Inactive)
REMARK    1  A    between atoms: C6_6  and  C7_7 
REMARK    2  A    between atoms: C11_15  and  C12_16 
REMARK    3  A    between atoms: C12_16  and  N3_17 
REMARK    4  A    between atoms: C15_20  and  N4_21 
REMARK    5  A    between atoms: C18_24  and  C19_25 
REMARK    6  A    between atoms: C18_24  and  N6_28 
ROOT
HETATM    1  C19 UNL     1      14.332   7.822   8.785  1.00  0.00     0.159 C 
HETATM    2  C20 UNL     1      13.997   6.942   7.675  1.00  0.00     0.061 C 
HETATM    3  N5  UNL     1      13.735   6.269   6.795  1.00  0.00    -0.197 NA
ENDROOT
BRANCH   1   4
HETATM    4  C18 UNL     1      14.893   9.099   8.229  1.00  0.00     0.096 C 
HETATM    5  C17 UNL     1      16.237   8.793   7.585  1.00  0.00     0.056 C 
HETATM    6  C16 UNL     1      16.280   9.787   6.447  1.00  0.00     0.120 C 
HETATM    7  N4  UNL     1      14.948  10.160   6.126  1.00  0.00    -0.406 N 
HETATM    8  C22 UNL     1      14.049   9.682   7.110  1.00  0.00     0.152 C 
BRANCH   7   9
HETATM    9  C15 UNL     1      14.581  10.046   4.766  1.00  0.00     0.082 C 
HETATM   10  C14 UNL     1      13.924  11.232   4.155  1.00  0.00     0.055 C 
HETATM   11  C13 UNL     1      14.762  11.726   3.004  1.00  0.00     0.275 C 
HETATM   12  N3  UNL     1      14.812  10.780   1.887  1.00  0.00     0.092 N 
HETATM   13  C24 UNL     1      15.111   9.448   2.476  1.00  0.00     0.275 C 
HETATM   14  C23 UNL     1      15.686   9.584   3.867  1.00  0.00     0.055 C 
BRANCH  12  15
HETATM   15  C12 UNL     1      15.979  11.109   1.134  1.00  0.00     0.314 C 
BRANCH  15  16
HETATM   16  C11 UNL     1      16.023  10.642  -0.262  1.00  0.00     0.005 A 
HETATM   17  C2  UNL     1      17.267  10.312  -0.818  1.00  0.00    -0.052 A 
HETATM   18  C1  UNL     1      18.513  10.398   0.021  1.00  0.00     0.049 C 
HETATM   19  C3  UNL     1      17.349   9.912  -2.123  1.00  0.00     0.008 A 
HETATM   20  C4  UNL     1      16.257   9.808  -2.955  1.00  0.00     0.016 A 
HETATM   21  C5  UNL     1      15.028  10.129  -2.423  1.00  0.00     0.017 A 
HETATM   22  C6  UNL     1      13.765  10.140  -2.998  1.00  0.00     0.042 A 
HETATM   23  C10 UNL     1      14.928  10.541  -1.086  1.00  0.00     0.069 A 
HETATM   24  N1  UNL     1      12.929  10.548  -2.031  1.00  0.00    -0.303 N 
HETATM   25  N2  UNL     1      13.616  10.774  -0.938  1.00  0.00    -0.299 N 
ATOM     26  H1  UNL     1      11.921  10.664  -2.131  1.00  0.00     0.186 HD
ATOM     27  H2  UNL     1      13.197  11.095  -0.066  1.00  0.00     0.187 HD
BRANCH  22  28
HETATM   28  C7  UNL     1      13.440   9.764  -4.417  1.00  0.00     0.030 C 
HETATM   29  C8  UNL     1      11.940   9.774  -4.616  1.00  0.00     0.016 C 
HETATM   30  C9  UNL     1      14.150  10.653  -5.397  1.00  0.00     0.016 C 
ENDBRANCH  22  28
ENDBRANCH  15  16
ENDBRANCH  12  15
ENDBRANCH   7   9
BRANCH   4  31
HETATM   31  N6  UNL     1      15.134  10.069   9.278  1.00  0.00    -0.168 N 
HETATM   32  O1  UNL     1      16.177  10.254  10.033  1.00  0.00    -0.145 OA
HETATM   33  N7  UNL     1      15.621  11.250  10.663  1.00  0.00    -0.189 N 
HETATM   34  C21 UNL     1      14.538  11.077   9.897  1.00  0.00     0.370 A 
ATOM     35  H7  UNL     1      15.893  11.886  11.413  1.00  0.00     0.202 HD
HETATM   36  O2  UNL     1      13.418  11.636   9.799  1.00  0.00    -0.243 OA
ENDBRANCH   4  31
ENDBRANCH   1   4
TORSDOF 6
ENDMDL
