MODEL 1
REMARK VINA RESULT: -8.997142323      0.000      0.000
REMARK  8 active torsions:
REMARK  status: ('A' for Active; 'I' for Inactive)
REMARK    1  A    between atoms: C10_10  and  O1_11 
REMARK    2  A    between atoms: C11_13  and  O2_14 
REMARK    3  A    between atoms: O2_14  and  S1_15 
REMARK    4  A    between atoms: S1_15  and  C12_18 
REMARK    5  A    between atoms: C12_18  and  C13_19 
REMARK    6  A    between atoms: C13_19  and  C14_20 
REMARK    7  A    between atoms: C14_20  and  N1_21 
REMARK    8  A    between atoms: C19_26  and  O5_27 
ROOT
HETATM    1  C1  UNL     1      12.153  11.846   9.545  1.00  0.00     0.010 C 
HETATM    2  C2  UNL     1      13.638  11.908   9.632  1.00  0.00    -0.014 C 
HETATM    3  C3  UNL     1      14.021  11.655  11.086  1.00  0.00     0.005 C 
HETATM    4  C4  UNL     1      13.897  10.177  11.209  1.00  0.00     0.005 C 
HETATM    5  C5  UNL     1      13.888   9.599   9.782  1.00  0.00    -0.010 C 
HETATM    6  C6  UNL     1      14.734   8.389   9.829  1.00  0.00     0.005 C 
HETATM    7  C7  UNL     1      15.233   7.811   8.563  1.00  0.00     0.006 C 
HETATM    8  C8  UNL     1      15.448   8.775   7.446  1.00  0.00    -0.001 C 
HETATM    9  C9  UNL     1      16.280   8.105   6.346  1.00  0.00     0.039 C 
HETATM   10  C10 UNL     1      16.855   9.286   5.554  1.00  0.00     0.151 C 
HETATM   11  C11 UNL     1      15.742  10.025   4.887  1.00  0.00     0.200 C 
HETATM   12  C19 UNL     1      14.376   9.654   5.367  1.00  0.00     0.159 C 
HETATM   13  C20 UNL     1      14.252   9.382   6.846  1.00  0.00    -0.011 C 
HETATM   14  C21 UNL     1      12.967   8.626   7.036  1.00  0.00     0.018 C 
HETATM   15  C22 UNL     1      14.048  10.743   7.534  1.00  0.00     0.017 C 
HETATM   16  C23 UNL     1      14.354  10.732   8.977  1.00  0.00    -0.006 C 
ENDROOT
BRANCH  11  17
HETATM   17  O2  UNL     1      15.941  11.400   4.858  1.00  0.00    -0.265 OA
BRANCH  17  18
HETATM   18  S1  UNL     1      15.694  12.130   3.407  1.00  0.00     0.265 S 
HETATM   19  O3  UNL     1      15.955  13.628   3.489  1.00  0.00    -0.199 OA
HETATM   20  O4  UNL     1      14.225  12.021   3.021  1.00  0.00    -0.199 OA
BRANCH  18  21
HETATM   21  C12 UNL     1      16.622  11.503   2.063  1.00  0.00     0.172 C 
BRANCH  21  22
HETATM   22  C13 UNL     1      15.837  10.381   1.415  1.00  0.00     0.047 C 
BRANCH  22  23
HETATM   23  C14 UNL     1      15.484  10.874   0.011  1.00  0.00     0.273 C 
BRANCH  23  24
HETATM   24  N1  UNL     1      14.336  10.194  -0.502  1.00  0.00     0.088 N 
HETATM   25  C15 UNL     1      13.428  11.092  -1.142  1.00  0.00     0.272 C 
HETATM   26  C16 UNL     1      13.176  10.522  -2.536  1.00  0.00     0.032 C 
HETATM   27  C17 UNL     1      14.392   9.627  -2.789  1.00  0.00     0.032 C 
HETATM   28  C18 UNL     1      14.666   9.126  -1.397  1.00  0.00     0.272 C 
ENDBRANCH  23  24
ENDBRANCH  22  23
ENDBRANCH  21  22
ENDBRANCH  18  21
ENDBRANCH  17  18
ENDBRANCH  11  17
BRANCH  10  29
HETATM   29  O1  UNL     1      17.865   8.905   4.709  1.00  0.00    -0.393 OA
ATOM     30  H1  UNL     1      18.681   9.355   4.895  1.00  0.00     0.210 HD
ENDBRANCH  10  29
BRANCH  12  31
HETATM   31  O5  UNL     1      13.870   8.611   4.587  1.00  0.00    -0.392 OA
ATOM     32  H5  UNL     1      13.121   8.220   5.020  1.00  0.00     0.210 HD
ENDBRANCH  12  31
TORSDOF 8
ENDMDL
MODEL 2
REMARK VINA RESULT: -8.852655151      2.420      8.653
REMARK  8 active torsions:
REMARK  status: ('A' for Active; 'I' for Inactive)
REMARK    1  A    between atoms: C10_10  and  O1_11 
REMARK    2  A    between atoms: C11_13  and  O2_14 
REMARK    3  A    between atoms: O2_14  and  S1_15 
REMARK    4  A    between atoms: S1_15  and  C12_18 
REMARK    5  A    between atoms: C12_18  and  C13_19 
REMARK    6  A    between atoms: C13_19  and  C14_20 
REMARK    7  A    between atoms: C14_20  and  N1_21 
REMARK    8  A    between atoms: C19_26  and  O5_27 
ROOT
HETATM    1  C1  UNL     1      13.846  11.064  -1.193  1.00  0.00     0.010 C 
HETATM    2  C2  UNL     1      14.427   9.732  -0.868  1.00  0.00    -0.014 C 
HETATM    3  C3  UNL     1      14.863   9.092  -2.182  1.00  0.00     0.005 C 
HETATM    4  C4  UNL     1      16.148   9.780  -2.476  1.00  0.00     0.005 C 
HETATM    5  C5  UNL     1      16.625  10.437  -1.168  1.00  0.00    -0.010 C 
HETATM    6  C6  UNL     1      18.082  10.199  -1.101  1.00  0.00     0.005 C 
HETATM    7  C7  UNL     1      18.780  10.371   0.190  1.00  0.00     0.006 C 
HETATM    8  C8  UNL     1      17.968  10.103   1.412  1.00  0.00    -0.001 C 
HETATM    9  C9  UNL     1      18.896   9.979   2.625  1.00  0.00     0.039 C 
HETATM   10  C10 UNL     1      18.052   9.218   3.654  1.00  0.00     0.151 C 
HETATM   11  C11 UNL     1      16.889  10.059   4.063  1.00  0.00     0.200 C 
HETATM   12  C19 UNL     1      16.655  11.256   3.198  1.00  0.00     0.159 C 
HETATM   13  C20 UNL     1      16.890  11.053   1.722  1.00  0.00    -0.011 C 
HETATM   14  C21 UNL     1      17.031  12.422   1.119  1.00  0.00     0.018 C 
HETATM   15  C22 UNL     1      15.594  10.464   1.139  1.00  0.00     0.017 C 
HETATM   16  C23 UNL     1      15.777   9.792  -0.161  1.00  0.00    -0.006 C 
ENDROOT
BRANCH  11  17
HETATM   17  O2  UNL     1      15.730   9.323   4.278  1.00  0.00    -0.265 OA
BRANCH  17  18
HETATM   18  S1  UNL     1      14.951   9.608   5.696  1.00  0.00     0.265 S 
HETATM   19  O3  UNL     1      13.547   9.020   5.685  1.00  0.00    -0.199 OA
HETATM   20  O4  UNL     1      14.735  11.106   5.871  1.00  0.00    -0.199 OA
BRANCH  18  21
HETATM   21  C12 UNL     1      15.753   9.038   7.143  1.00  0.00     0.172 C 
BRANCH  21  22
HETATM   22  C13 UNL     1      14.788   8.165   7.918  1.00  0.00     0.047 C 
BRANCH  22  23
HETATM   23  C14 UNL     1      14.689   8.786   9.312  1.00  0.00     0.273 C 
BRANCH  23  24
HETATM   24  N1  UNL     1      14.734  10.214   9.246  1.00  0.00     0.088 N 
HETATM   25  C15 UNL     1      13.430  10.780   9.101  1.00  0.00     0.272 C 
HETATM   26  C16 UNL     1      13.288  11.812  10.218  1.00  0.00     0.032 C 
HETATM   27  C17 UNL     1      14.320  11.367  11.259  1.00  0.00     0.032 C 
HETATM   28  C18 UNL     1      15.395  10.810  10.367  1.00  0.00     0.272 C 
ENDBRANCH  23  24
ENDBRANCH  22  23
ENDBRANCH  21  22
ENDBRANCH  18  21
ENDBRANCH  17  18
ENDBRANCH  11  17
BRANCH  10  29
HETATM   29  O1  UNL     1      18.803   8.746   4.700  1.00  0.00    -0.393 OA
ATOM     30  H1  UNL     1      19.722   8.658   4.476  1.00  0.00     0.210 HD
ENDBRANCH  10  29
BRANCH  12  31
HETATM   31  O5  UNL     1      17.359  12.350   3.707  1.00  0.00    -0.392 OA
ATOM     32  H5  UNL     1      18.164  12.468   3.219  1.00  0.00     0.210 HD
ENDBRANCH  12  31
TORSDOF 8
ENDMDL
MODEL 3
REMARK VINA RESULT: -8.625949251      2.565      8.557
REMARK  8 active torsions:
REMARK  status: ('A' for Active; 'I' for Inactive)
REMARK    1  A    between atoms: C10_10  and  O1_11 
REMARK    2  A    between atoms: C11_13  and  O2_14 
REMARK    3  A    between atoms: O2_14  and  S1_15 
REMARK    4  A    between atoms: S1_15  and  C12_18 
REMARK    5  A    between atoms: C12_18  and  C13_19 
REMARK    6  A    between atoms: C13_19  and  C14_20 
REMARK    7  A    between atoms: C14_20  and  N1_21 
REMARK    8  A    between atoms: C19_26  and  O5_27 
ROOT
HETATM    1  C1  UNL     1      13.962  11.037  -1.050  1.00  0.00     0.010 C 
HETATM    2  C2  UNL     1      14.628   9.724  -0.824  1.00  0.00    -0.014 C 
HETATM    3  C3  UNL     1      15.039   9.180  -2.188  1.00  0.00     0.005 C 
HETATM    4  C4  UNL     1      16.272   9.953  -2.495  1.00  0.00     0.005 C 
HETATM    5  C5  UNL     1      16.770  10.566  -1.173  1.00  0.00    -0.010 C 
HETATM    6  C6  UNL     1      18.238  10.407  -1.179  1.00  0.00     0.005 C 
HETATM    7  C7  UNL     1      18.982  10.549   0.090  1.00  0.00     0.006 C 
HETATM    8  C8  UNL     1      18.240  10.171   1.327  1.00  0.00    -0.001 C 
HETATM    9  C9  UNL     1      19.226  10.036   2.493  1.00  0.00     0.039 C 
HETATM   10  C10 UNL     1      18.470   9.175   3.511  1.00  0.00     0.151 C 
HETATM   11  C11 UNL     1      17.282   9.927   4.014  1.00  0.00     0.200 C 
HETATM   12  C19 UNL     1      16.946  11.153   3.226  1.00  0.00     0.159 C 
HETATM   13  C20 UNL     1      17.127  11.042   1.733  1.00  0.00    -0.011 C 
HETATM   14  C21 UNL     1      17.168  12.447   1.201  1.00  0.00     0.018 C 
HETATM   15  C22 UNL     1      15.841  10.413   1.172  1.00  0.00     0.017 C 
HETATM   16  C23 UNL     1      16.002   9.822  -0.170  1.00  0.00    -0.006 C 
ENDROOT
BRANCH  11  17
HETATM   17  O2  UNL     1      16.175   9.116   4.234  1.00  0.00    -0.265 OA
BRANCH  17  18
HETATM   18  S1  UNL     1      15.414   9.318   5.677  1.00  0.00     0.265 S 
HETATM   19  O3  UNL     1      14.875  10.734   5.825  1.00  0.00    -0.199 OA
HETATM   20  O4  UNL     1      16.419   9.173   6.812  1.00  0.00    -0.199 OA
BRANCH  18  21
HETATM   21  C12 UNL     1      14.101   8.213   6.015  1.00  0.00     0.172 C 
BRANCH  21  22
HETATM   22  C13 UNL     1      14.055   7.959   7.508  1.00  0.00     0.047 C 
BRANCH  22  23
HETATM   23  C14 UNL     1      12.847   8.738   8.028  1.00  0.00     0.273 C 
BRANCH  23  24
HETATM   24  N1  UNL     1      13.131   9.354   9.287  1.00  0.00     0.088 N 
HETATM   25  C15 UNL     1      14.452   9.053   9.739  1.00  0.00     0.272 C 
HETATM   26  C16 UNL     1      15.115  10.395  10.040  1.00  0.00     0.032 C 
HETATM   27  C17 UNL     1      14.305  11.396   9.210  1.00  0.00     0.032 C 
HETATM   28  C18 UNL     1      12.938  10.773   9.277  1.00  0.00     0.272 C 
ENDBRANCH  23  24
ENDBRANCH  22  23
ENDBRANCH  21  22
ENDBRANCH  18  21
ENDBRANCH  17  18
ENDBRANCH  11  17
BRANCH  10  29
HETATM   29  O1  UNL     1      19.289   8.691   4.498  1.00  0.00    -0.393 OA
ATOM     30  H1  UNL     1      19.440   7.757   4.419  1.00  0.00     0.210 HD
ENDBRANCH  10  29
BRANCH  12  31
HETATM   31  O5  UNL     1      17.612  12.256   3.766  1.00  0.00    -0.392 OA
ATOM     32  H5  UNL     1      18.457  12.357   3.346  1.00  0.00     0.210 HD
ENDBRANCH  12  31
TORSDOF 8
ENDMDL
MODEL 4
REMARK VINA RESULT: -8.515183827      2.068      2.951
REMARK  8 active torsions:
REMARK  status: ('A' for Active; 'I' for Inactive)
REMARK    1  A    between atoms: C10_10  and  O1_11 
REMARK    2  A    between atoms: C11_13  and  O2_14 
REMARK    3  A    between atoms: O2_14  and  S1_15 
REMARK    4  A    between atoms: S1_15  and  C12_18 
REMARK    5  A    between atoms: C12_18  and  C13_19 
REMARK    6  A    between atoms: C13_19  and  C14_20 
REMARK    7  A    between atoms: C14_20  and  N1_21 
REMARK    8  A    between atoms: C19_26  and  O5_27 
ROOT
HETATM    1  C1  UNL     1      12.122  11.862   9.691  1.00  0.00     0.010 C 
HETATM    2  C2  UNL     1      13.610  11.929   9.713  1.00  0.00    -0.014 C 
HETATM    3  C3  UNL     1      14.058  11.645  11.143  1.00  0.00     0.005 C 
HETATM    4  C4  UNL     1      13.946  10.165  11.237  1.00  0.00     0.005 C 
HETATM    5  C5  UNL     1      13.875   9.618   9.799  1.00  0.00    -0.010 C 
HETATM    6  C6  UNL     1      14.727   8.412   9.780  1.00  0.00     0.005 C 
HETATM    7  C7  UNL     1      15.171   7.865   8.480  1.00  0.00     0.006 C 
HETATM    8  C8  UNL     1      15.332   8.855   7.377  1.00  0.00    -0.001 C 
HETATM    9  C9  UNL     1      16.116   8.214   6.227  1.00  0.00     0.039 C 
HETATM   10  C10 UNL     1      16.650   9.415   5.437  1.00  0.00     0.151 C 
HETATM   11  C11 UNL     1      15.506  10.164   4.837  1.00  0.00     0.200 C 
HETATM   12  C19 UNL     1      14.164   9.776   5.369  1.00  0.00     0.159 C 
HETATM   13  C20 UNL     1      14.108   9.470   6.845  1.00  0.00    -0.011 C 
HETATM   14  C21 UNL     1      12.836   8.703   7.075  1.00  0.00     0.018 C 
HETATM   15  C22 UNL     1      13.930  10.814   7.573  1.00  0.00     0.017 C 
HETATM   16  C23 UNL     1      14.300  10.772   9.000  1.00  0.00    -0.006 C 
ENDROOT
BRANCH  11  17
HETATM   17  O2  UNL     1      15.698  11.541   4.831  1.00  0.00    -0.265 OA
BRANCH  17  18
HETATM   18  S1  UNL     1      16.467  12.151   3.513  1.00  0.00     0.265 S 
HETATM   19  O3  UNL     1      17.978  12.141   3.700  1.00  0.00    -0.199 OA
HETATM   20  O4  UNL     1      16.114  13.624   3.349  1.00  0.00    -0.199 OA
BRANCH  18  21
HETATM   21  C12 UNL     1      16.116  11.371   1.987  1.00  0.00     0.172 C 
BRANCH  21  22
HETATM   22  C13 UNL     1      17.144  11.817   0.968  1.00  0.00     0.047 C 
BRANCH  22  23
HETATM   23  C14 UNL     1      17.925  10.560   0.584  1.00  0.00     0.273 C 
BRANCH  23  24
HETATM   24  N1  UNL     1      19.314  10.699   0.891  1.00  0.00     0.088 N 
HETATM   25  C15 UNL     1      19.722   9.805   1.927  1.00  0.00     0.272 C 
HETATM   26  C16 UNL     1      20.923   9.037   1.380  1.00  0.00     0.032 C 
HETATM   27  C17 UNL     1      20.773   9.162  -0.140  1.00  0.00     0.032 C 
HETATM   28  C18 UNL     1      20.164  10.533  -0.249  1.00  0.00     0.272 C 
ENDBRANCH  23  24
ENDBRANCH  22  23
ENDBRANCH  21  22
ENDBRANCH  18  21
ENDBRANCH  17  18
ENDBRANCH  11  17
BRANCH  10  29
HETATM   29  O1  UNL     1      17.623   9.059   4.538  1.00  0.00    -0.393 OA
ATOM     30  H1  UNL     1      18.134   8.315   4.834  1.00  0.00     0.210 HD
ENDBRANCH  10  29
BRANCH  12  31
HETATM   31  O5  UNL     1      13.628   8.748   4.588  1.00  0.00    -0.392 OA
ATOM     32  H5  UNL     1      12.719   8.609   4.823  1.00  0.00     0.210 HD
ENDBRANCH  12  31
TORSDOF 8
ENDMDL
MODEL 5
REMARK VINA RESULT: -8.366114981      3.986      6.330
REMARK  8 active torsions:
REMARK  status: ('A' for Active; 'I' for Inactive)
REMARK    1  A    between atoms: C10_10  and  O1_11 
REMARK    2  A    between atoms: C11_13  and  O2_14 
REMARK    3  A    between atoms: O2_14  and  S1_15 
REMARK    4  A    between atoms: S1_15  and  C12_18 
REMARK    5  A    between atoms: C12_18  and  C13_19 
REMARK    6  A    between atoms: C13_19  and  C14_20 
REMARK    7  A    between atoms: C14_20  and  N1_21 
REMARK    8  A    between atoms: C19_26  and  O5_27 
ROOT
HETATM    1  C1  UNL     1      15.360   9.755   7.784  1.00  0.00     0.010 C 
HETATM    2  C2  UNL     1      15.759   8.645   6.875  1.00  0.00    -0.014 C 
HETATM    3  C3  UNL     1      14.764   7.508   7.078  1.00  0.00     0.005 C 
HETATM    4  C4  UNL     1      13.581   7.959   6.298  1.00  0.00     0.005 C 
HETATM    5  C5  UNL     1      14.058   9.070   5.344  1.00  0.00    -0.010 C 
HETATM    6  C6  UNL     1      13.384   8.815   4.054  1.00  0.00     0.005 C 
HETATM    7  C7  UNL     1      13.900   9.467   2.832  1.00  0.00     0.006 C 
HETATM    8  C8  UNL     1      15.364   9.754   2.814  1.00  0.00    -0.001 C 
HETATM    9  C9  UNL     1      15.800  10.093   1.385  1.00  0.00     0.039 C 
HETATM   10  C10 UNL     1      17.314   9.854   1.400  1.00  0.00     0.151 C 
HETATM   11  C11 UNL     1      17.965  10.840   2.313  1.00  0.00     0.200 C 
HETATM   12  C19 UNL     1      17.016  11.590   3.192  1.00  0.00     0.159 C 
HETATM   13  C20 UNL     1      15.853  10.795   3.730  1.00  0.00    -0.011 C 
HETATM   14  C21 UNL     1      14.829  11.793   4.193  1.00  0.00     0.018 C 
HETATM   15  C22 UNL     1      16.349  10.078   4.997  1.00  0.00     0.017 C 
HETATM   16  C23 UNL     1      15.517   8.928   5.396  1.00  0.00    -0.006 C 
ENDROOT
BRANCH  11  17
HETATM   17  O2  UNL     1      19.036  10.306   3.020  1.00  0.00    -0.265 OA
BRANCH  17  18
HETATM   18  S1  UNL     1      20.517  10.510   2.340  1.00  0.00     0.265 S 
HETATM   19  O3  UNL     1      21.314  11.588   3.062  1.00  0.00    -0.199 OA
HETATM   20  O4  UNL     1      20.362  11.040   0.920  1.00  0.00    -0.199 OA
BRANCH  18  21
HETATM   21  C12 UNL     1      21.523   9.083   2.243  1.00  0.00     0.172 C 
BRANCH  21  22
HETATM   22  C13 UNL     1      20.824   7.949   2.965  1.00  0.00     0.047 C 
BRANCH  22  23
HETATM   23  C14 UNL     1      21.882   6.862   3.160  1.00  0.00     0.273 C 
BRANCH  23  24
HETATM   24  N1  UNL     1      21.499   5.946   4.189  1.00  0.00     0.088 N 
HETATM   25  C15 UNL     1      20.082   5.782   4.254  1.00  0.00     0.272 C 
HETATM   26  C16 UNL     1      19.823   4.279   4.174  1.00  0.00     0.032 C 
HETATM   27  C17 UNL     1      21.089   3.726   3.512  1.00  0.00     0.032 C 
HETATM   28  C18 UNL     1      22.126   4.664   4.065  1.00  0.00     0.272 C 
ENDBRANCH  23  24
ENDBRANCH  22  23
ENDBRANCH  21  22
ENDBRANCH  18  21
ENDBRANCH  17  18
ENDBRANCH  11  17
BRANCH  10  29
HETATM   29  O1  UNL     1      17.850   9.816   0.138  1.00  0.00    -0.393 OA
ATOM     30  H1  UNL     1      18.449   9.088   0.021  1.00  0.00     0.210 HD
ENDBRANCH  10  29
BRANCH  12  31
HETATM   31  O5  UNL     1      16.611  12.765   2.552  1.00  0.00    -0.392 OA
ATOM     32  H5  UNL     1      17.124  13.497   2.873  1.00  0.00     0.210 HD
ENDBRANCH  12  31
TORSDOF 8
ENDMDL
