MODEL 1
REMARK VINA RESULT: -7.317743331      0.000      0.000
REMARK  8 active torsions:
REMARK  status: ('A' for Active; 'I' for Inactive)
REMARK    1  A    between atoms: C14_14  and  O1_15 
REMARK    2  A    between atoms: C15_17  and  O2_19 
REMARK    3  A    between atoms: O2_19  and  C17_20 
REMARK    4  A    between atoms: C17_20  and  N1_21 
REMARK    5  A    between atoms: N1_21  and  C19_23 
REMARK    6  A    between atoms: C19_23  and  C20_24 
REMARK    7  A    between atoms: C21_26  and  O4_27 
REMARK    8  A    between atoms: C22_29  and  O5_30 
ROOT
HETATM    1  C1  UNL     1      14.206   7.275   1.444  1.00  0.00     0.044 C 
HETATM    2  C2  UNL     1      13.511   8.580   1.773  1.00  0.00    -0.075 C 
HETATM    3  C3  UNL     1      12.827   8.585   3.086  1.00  0.00    -0.023 C 
HETATM    4  C4  UNL     1      13.518   8.866   4.331  1.00  0.00     0.034 C 
HETATM    5  C5  UNL     1      14.961   9.384   4.230  1.00  0.00     0.012 C 
HETATM    6  C6  UNL     1      15.115  10.597   3.418  1.00  0.00    -0.015 C 
HETATM    7  C7  UNL     1      15.977  11.719   3.743  1.00  0.00     0.020 C 
HETATM    8  C8  UNL     1      13.767  11.280   3.106  1.00  0.00     0.015 C 
HETATM    9  C9  UNL     1      13.417  10.971   1.708  1.00  0.00     0.019 C 
HETATM   10  C10 UNL     1      14.263   9.799   1.375  1.00  0.00     0.003 C 
HETATM   11  C11 UNL     1      14.477   9.764  -0.113  1.00  0.00     0.025 C 
HETATM   12  C12 UNL     1      15.538  10.059   2.065  1.00  0.00    -0.056 C 
HETATM   13  C13 UNL     1      16.787   9.877   1.709  1.00  0.00     0.040 C 
HETATM   14  C14 UNL     1      18.059  10.082   2.353  1.00  0.00     0.080 C 
HETATM   15  C15 UNL     1      18.752   9.426   3.452  1.00  0.00     0.135 C 
HETATM   16  C16 UNL     1      19.875   8.479   2.920  1.00  0.00     0.056 C 
HETATM   17  C21 UNL     1      17.908   8.489   4.339  1.00  0.00     0.188 C 
HETATM   18  C22 UNL     1      17.172   9.083   5.438  1.00  0.00     0.158 C 
HETATM   19  C23 UNL     1      15.719   9.268   5.519  1.00  0.00    -0.014 C 
HETATM   20  C24 UNL     1      15.502  10.514   6.403  1.00  0.00     0.018 C 
HETATM   21  C25 UNL     1      15.092   8.179   6.377  1.00  0.00     0.018 C 
ENDROOT
BRANCH  15  22
HETATM   22  O2  UNL     1      19.512  10.239   4.268  1.00  0.00    -0.342 OA
BRANCH  22  23
HETATM   23  C17 UNL     1      20.826  10.238   4.292  1.00  0.00     0.441 C 
BRANCH  23  24
HETATM   24  N1  UNL     1      21.298  10.079   5.701  1.00  0.00     0.113 N 
HETATM   25  C18 UNL     1      22.682  10.386   5.834  1.00  0.00     0.313 C 
BRANCH  24  26
HETATM   26  C19 UNL     1      20.952   8.745   6.153  1.00  0.00     0.343 C 
BRANCH  26  27
HETATM   27  C20 UNL     1      21.959   7.747   5.767  1.00  0.00     0.261 C 
HETATM   28  O3  UNL     1      21.609   6.646   5.379  1.00  0.00    -0.305 OA
ENDBRANCH  26  27
ENDBRANCH  24  26
ENDBRANCH  23  24
ENDBRANCH  22  23
ENDBRANCH  15  22
BRANCH  14  29
HETATM   29  O1  UNL     1      18.740  11.065   1.839  1.00  0.00    -0.362 OA
ATOM     30  H1  UNL     1      19.527  10.778   1.390  1.00  0.00     0.217 HD
ENDBRANCH  14  29
BRANCH  17  31
HETATM   31  O4  UNL     1      17.447   7.378   3.698  1.00  0.00    -0.390 OA
ATOM     32  H4  UNL     1      16.645   7.021   4.063  1.00  0.00     0.210 HD
ENDBRANCH  17  31
BRANCH  18  33
HETATM   33  O5  UNL     1      17.464   8.366   6.647  1.00  0.00    -0.392 OA
ATOM     34  H5  UNL     1      17.280   8.923   7.394  1.00  0.00     0.210 HD
ENDBRANCH  18  33
TORSDOF 8
ENDMDL
MODEL 2
REMARK VINA RESULT: -6.790294242      1.099      1.679
REMARK  8 active torsions:
REMARK  status: ('A' for Active; 'I' for Inactive)
REMARK    1  A    between atoms: C14_14  and  O1_15 
REMARK    2  A    between atoms: C15_17  and  O2_19 
REMARK    3  A    between atoms: O2_19  and  C17_20 
REMARK    4  A    between atoms: C17_20  and  N1_21 
REMARK    5  A    between atoms: N1_21  and  C19_23 
REMARK    6  A    between atoms: C19_23  and  C20_24 
REMARK    7  A    between atoms: C21_26  and  O4_27 
REMARK    8  A    between atoms: C22_29  and  O5_30 
ROOT
HETATM    1  C1  UNL     1      14.319   7.005   1.430  1.00  0.00     0.044 C 
HETATM    2  C2  UNL     1      13.586   8.318   1.614  1.00  0.00    -0.075 C 
HETATM    3  C3  UNL     1      12.887   8.442   2.913  1.00  0.00    -0.023 C 
HETATM    4  C4  UNL     1      13.556   8.871   4.127  1.00  0.00     0.034 C 
HETATM    5  C5  UNL     1      14.986   9.414   3.985  1.00  0.00     0.012 C 
HETATM    6  C6  UNL     1      15.118  10.539   3.052  1.00  0.00    -0.015 C 
HETATM    7  C7  UNL     1      15.947  11.712   3.264  1.00  0.00     0.020 C 
HETATM    8  C8  UNL     1      13.757  11.149   2.658  1.00  0.00     0.015 C 
HETATM    9  C9  UNL     1      13.431  10.685   1.298  1.00  0.00     0.019 C 
HETATM   10  C10 UNL     1      14.310   9.508   1.097  1.00  0.00     0.003 C 
HETATM   11  C11 UNL     1      14.543   9.323  -0.377  1.00  0.00     0.025 C 
HETATM   12  C12 UNL     1      15.570   9.873   1.767  1.00  0.00    -0.056 C 
HETATM   13  C13 UNL     1      16.828   9.689   1.442  1.00  0.00     0.040 C 
HETATM   14  C14 UNL     1      18.087   9.994   2.073  1.00  0.00     0.080 C 
HETATM   15  C15 UNL     1      18.784   9.476   3.240  1.00  0.00     0.135 C 
HETATM   16  C16 UNL     1      19.937   8.509   2.820  1.00  0.00     0.056 C 
HETATM   17  C21 UNL     1      17.954   8.615   4.214  1.00  0.00     0.188 C 
HETATM   18  C22 UNL     1      17.191   9.301   5.237  1.00  0.00     0.158 C 
HETATM   19  C23 UNL     1      15.733   9.454   5.286  1.00  0.00    -0.014 C 
HETATM   20  C24 UNL     1      15.473  10.780   6.032  1.00  0.00     0.018 C 
HETATM   21  C25 UNL     1      15.124   8.445   6.248  1.00  0.00     0.018 C 
ENDROOT
BRANCH  15  22
HETATM   22  O2  UNL     1      19.513  10.390   3.973  1.00  0.00    -0.342 OA
BRANCH  22  23
HETATM   23  C17 UNL     1      20.465  10.065   4.819  1.00  0.00     0.441 C 
BRANCH  23  24
HETATM   24  N1  UNL     1      21.777  10.038   4.102  1.00  0.00     0.113 N 
HETATM   25  C18 UNL     1      22.875  10.012   5.009  1.00  0.00     0.313 C 
BRANCH  24  26
HETATM   26  C19 UNL     1      21.817  11.152   3.175  1.00  0.00     0.343 C 
BRANCH  26  27
HETATM   27  C20 UNL     1      22.308  10.756   1.848  1.00  0.00     0.261 C 
HETATM   28  O3  UNL     1      21.706  11.103   0.846  1.00  0.00    -0.305 OA
ENDBRANCH  26  27
ENDBRANCH  24  26
ENDBRANCH  23  24
ENDBRANCH  22  23
ENDBRANCH  15  22
BRANCH  14  29
HETATM   29  O1  UNL     1      18.748  10.936   1.464  1.00  0.00    -0.362 OA
ATOM     30  H1  UNL     1      19.301  11.440   2.049  1.00  0.00     0.217 HD
ENDBRANCH  14  29
BRANCH  17  31
HETATM   31  O4  UNL     1      17.529   7.430   3.689  1.00  0.00    -0.390 OA
ATOM     32  H4  UNL     1      16.744   7.083   4.096  1.00  0.00     0.210 HD
ENDBRANCH  17  31
BRANCH  18  33
HETATM   33  O5  UNL     1      17.487   8.723   6.518  1.00  0.00    -0.392 OA
ATOM     34  H5  UNL     1      16.694   8.351   6.886  1.00  0.00     0.210 HD
ENDBRANCH  18  33
TORSDOF 8
ENDMDL
MODEL 3
REMARK VINA RESULT: -5.830431781      3.526      7.845
REMARK  8 active torsions:
REMARK  status: ('A' for Active; 'I' for Inactive)
REMARK    1  A    between atoms: C14_14  and  O1_15 
REMARK    2  A    between atoms: C15_17  and  O2_19 
REMARK    3  A    between atoms: O2_19  and  C17_20 
REMARK    4  A    between atoms: C17_20  and  N1_21 
REMARK    5  A    between atoms: N1_21  and  C19_23 
REMARK    6  A    between atoms: C19_23  and  C20_24 
REMARK    7  A    between atoms: C21_26  and  O4_27 
REMARK    8  A    between atoms: C22_29  and  O5_30 
ROOT
HETATM    1  C1  UNL     1      25.810   8.262   5.166  1.00  0.00     0.044 C 
HETATM    2  C2  UNL     1      25.035   7.056   5.654  1.00  0.00    -0.075 C 
HETATM    3  C3  UNL     1      24.197   7.320   6.845  1.00  0.00    -0.023 C 
HETATM    4  C4  UNL     1      22.866   7.893   6.758  1.00  0.00     0.034 C 
HETATM    5  C5  UNL     1      22.249   8.022   5.357  1.00  0.00     0.012 C 
HETATM    6  C6  UNL     1      22.177   6.762   4.607  1.00  0.00    -0.015 C 
HETATM    7  C7  UNL     1      21.060   6.339   3.782  1.00  0.00     0.020 C 
HETATM    8  C8  UNL     1      22.434   5.526   5.495  1.00  0.00     0.015 C 
HETATM    9  C9  UNL     1      23.802   5.050   5.222  1.00  0.00     0.019 C 
HETATM   10  C10 UNL     1      24.465   6.208   4.575  1.00  0.00     0.003 C 
HETATM   11  C11 UNL     1      25.592   5.704   3.716  1.00  0.00     0.025 C 
HETATM   12  C12 UNL     1      23.415   6.807   3.733  1.00  0.00    -0.056 C 
HETATM   13  C13 UNL     1      23.437   7.317   2.524  1.00  0.00     0.040 C 
HETATM   14  C14 UNL     1      22.455   7.941   1.674  1.00  0.00     0.080 C 
HETATM   15  C15 UNL     1      21.752   9.214   1.709  1.00  0.00     0.135 C 
HETATM   16  C16 UNL     1      22.369  10.221   0.685  1.00  0.00     0.056 C 
HETATM   17  C21 UNL     1      21.810   9.999   3.034  1.00  0.00     0.188 C 
HETATM   18  C22 UNL     1      20.832   9.675   4.053  1.00  0.00     0.158 C 
HETATM   19  C23 UNL     1      21.083   8.964   5.312  1.00  0.00    -0.014 C 
HETATM   20  C24 UNL     1      19.767   8.232   5.652  1.00  0.00     0.018 C 
HETATM   21  C25 UNL     1      21.185   9.948   6.467  1.00  0.00     0.018 C 
ENDROOT
BRANCH  15  22
HETATM   22  O2  UNL     1      20.448   9.207   1.259  1.00  0.00    -0.342 OA
BRANCH  22  23
HETATM   23  C17 UNL     1      19.923  10.145   0.503  1.00  0.00     0.441 C 
BRANCH  23  24
HETATM   24  N1  UNL     1      18.548  10.468   0.995  1.00  0.00     0.113 N 
HETATM   25  C18 UNL     1      17.582  10.397  -0.049  1.00  0.00     0.313 C 
BRANCH  24  26
HETATM   26  C19 UNL     1      18.590  11.754   1.662  1.00  0.00     0.343 C 
BRANCH  26  27
HETATM   27  C20 UNL     1      17.439  11.959   2.552  1.00  0.00     0.261 C 
HETATM   28  O3  UNL     1      17.611  12.102   3.751  1.00  0.00    -0.305 OA
ENDBRANCH  26  27
ENDBRANCH  24  26
ENDBRANCH  23  24
ENDBRANCH  22  23
ENDBRANCH  15  22
BRANCH  14  29
HETATM   29  O1  UNL     1      22.125   7.207   0.651  1.00  0.00    -0.362 OA
ATOM     30  H1  UNL     1      21.208   7.289   0.414  1.00  0.00     0.217 HD
ENDBRANCH  14  29
BRANCH  17  31
HETATM   31  O4  UNL     1      23.055  10.445   3.367  1.00  0.00    -0.390 OA
ATOM     32  H4  UNL     1      23.510   9.900   3.997  1.00  0.00     0.210 HD
ENDBRANCH  17  31
BRANCH  18  33
HETATM   33  O5  UNL     1      20.191  10.881   4.498  1.00  0.00    -0.392 OA
ATOM     34  H5  UNL     1      19.876  10.760   5.386  1.00  0.00     0.210 HD
ENDBRANCH  18  33
TORSDOF 8
ENDMDL
MODEL 4
REMARK VINA RESULT: -5.806537168      2.319      4.764
REMARK  8 active torsions:
REMARK  status: ('A' for Active; 'I' for Inactive)
REMARK    1  A    between atoms: C14_14  and  O1_15 
REMARK    2  A    between atoms: C15_17  and  O2_19 
REMARK    3  A    between atoms: O2_19  and  C17_20 
REMARK    4  A    between atoms: C17_20  and  N1_21 
REMARK    5  A    between atoms: N1_21  and  C19_23 
REMARK    6  A    between atoms: C19_23  and  C20_24 
REMARK    7  A    between atoms: C21_26  and  O4_27 
REMARK    8  A    between atoms: C22_29  and  O5_30 
ROOT
HETATM    1  C1  UNL     1      18.312   9.289  -0.457  1.00  0.00     0.044 C 
HETATM    2  C2  UNL     1      17.978  10.764  -0.362  1.00  0.00    -0.075 C 
HETATM    3  C3  UNL     1      16.550  11.075  -0.595  1.00  0.00    -0.023 C 
HETATM    4  C4  UNL     1      15.545  10.982   0.448  1.00  0.00     0.034 C 
HETATM    5  C5  UNL     1      16.044  10.757   1.884  1.00  0.00     0.012 C 
HETATM    6  C6  UNL     1      17.002  11.763   2.358  1.00  0.00    -0.015 C 
HETATM    7  C7  UNL     1      17.022  12.341   3.689  1.00  0.00     0.020 C 
HETATM    8  C8  UNL     1      17.061  13.006   1.445  1.00  0.00     0.015 C 
HETATM    9  C9  UNL     1      18.291  12.915   0.638  1.00  0.00     0.019 C 
HETATM   10  C10 UNL     1      18.680  11.487   0.731  1.00  0.00     0.003 C 
HETATM   11  C11 UNL     1      20.162  11.373   0.505  1.00  0.00     0.025 C 
HETATM   12  C12 UNL     1      18.346  11.106   2.113  1.00  0.00    -0.056 C 
HETATM   13  C13 UNL     1      18.966  10.360   2.997  1.00  0.00     0.040 C 
HETATM   14  C14 UNL     1      18.670   9.931   4.340  1.00  0.00     0.080 C 
HETATM   15  C15 UNL     1      17.699   9.013   4.917  1.00  0.00     0.135 C 
HETATM   16  C16 UNL     1      18.372   7.654   5.295  1.00  0.00     0.056 C 
HETATM   17  C21 UNL     1      16.537   8.575   4.004  1.00  0.00     0.188 C 
HETATM   18  C22 UNL     1      15.370   9.433   3.941  1.00  0.00     0.158 C 
HETATM   19  C23 UNL     1      14.968  10.281   2.813  1.00  0.00    -0.014 C 
HETATM   20  C24 UNL     1      14.205  11.471   3.433  1.00  0.00     0.018 C 
HETATM   21  C25 UNL     1      13.867   9.608   2.007  1.00  0.00     0.018 C 
ENDROOT
BRANCH  15  22
HETATM   22  O2  UNL     1      17.185   9.360   6.149  1.00  0.00    -0.342 OA
BRANCH  22  23
HETATM   23  C17 UNL     1      16.756   8.494   7.039  1.00  0.00     0.441 C 
BRANCH  23  24
HETATM   24  N1  UNL     1      15.836   9.181   7.997  1.00  0.00     0.113 N 
HETATM   25  C18 UNL     1      15.061   8.250   8.746  1.00  0.00     0.313 C 
BRANCH  24  26
HETATM   26  C19 UNL     1      15.038  10.140   7.259  1.00  0.00     0.343 C 
BRANCH  26  27
HETATM   27  C20 UNL     1      13.627  10.124   7.667  1.00  0.00     0.261 C 
HETATM   28  O3  UNL     1      13.148  11.083   8.249  1.00  0.00    -0.305 OA
ENDBRANCH  26  27
ENDBRANCH  24  26
ENDBRANCH  23  24
ENDBRANCH  22  23
ENDBRANCH  15  22
BRANCH  14  29
HETATM   29  O1  UNL     1      19.439  10.482   5.234  1.00  0.00    -0.362 OA
ATOM     30  H1  UNL     1      19.374  10.069   6.087  1.00  0.00     0.217 HD
ENDBRANCH  14  29
BRANCH  17  31
HETATM   31  O4  UNL     1      16.918   7.821   2.934  1.00  0.00    -0.390 OA
ATOM     32  H4  UNL     1      17.806   7.984   2.638  1.00  0.00     0.210 HD
ENDBRANCH  17  31
BRANCH  18  33
HETATM   33  O5  UNL     1      14.190   8.648   4.178  1.00  0.00    -0.392 OA
ATOM     34  H5  UNL     1      13.445   9.072   3.769  1.00  0.00     0.210 HD
ENDBRANCH  18  33
TORSDOF 8
ENDMDL
MODEL 5
REMARK VINA RESULT: -5.762101189      2.752      5.855
REMARK  8 active torsions:
REMARK  status: ('A' for Active; 'I' for Inactive)
REMARK    1  A    between atoms: C14_14  and  O1_15 
REMARK    2  A    between atoms: C15_17  and  O2_19 
REMARK    3  A    between atoms: O2_19  and  C17_20 
REMARK    4  A    between atoms: C17_20  and  N1_21 
REMARK    5  A    between atoms: N1_21  and  C19_23 
REMARK    6  A    between atoms: C19_23  and  C20_24 
REMARK    7  A    between atoms: C21_26  and  O4_27 
REMARK    8  A    between atoms: C22_29  and  O5_30 
ROOT
HETATM    1  C1  UNL     1      14.123   6.607   6.836  1.00  0.00     0.044 C 
HETATM    2  C2  UNL     1      14.352   7.940   7.518  1.00  0.00    -0.075 C 
HETATM    3  C3  UNL     1      15.768   8.209   7.855  1.00  0.00    -0.023 C 
HETATM    4  C4  UNL     1      16.714   8.757   6.900  1.00  0.00     0.034 C 
HETATM    5  C5  UNL     1      16.146   9.266   5.566  1.00  0.00     0.012 C 
HETATM    6  C6  UNL     1      15.098  10.284   5.701  1.00  0.00    -0.015 C 
HETATM    7  C7  UNL     1      14.962  11.464   4.866  1.00  0.00     0.020 C 
HETATM    8  C8  UNL     1      15.012  10.864   7.129  1.00  0.00     0.015 C 
HETATM    9  C9  UNL     1      13.840  10.262   7.790  1.00  0.00     0.019 C 
HETATM   10  C10 UNL     1      13.541   9.061   6.974  1.00  0.00     0.003 C 
HETATM   11  C11 UNL     1      12.086   8.718   7.131  1.00  0.00     0.025 C 
HETATM   12  C12 UNL     1      13.817   9.481   5.589  1.00  0.00    -0.056 C 
HETATM   13  C13 UNL     1      13.196   9.250   4.457  1.00  0.00     0.040 C 
HETATM   14  C14 UNL     1      13.440   9.606   3.082  1.00  0.00     0.080 C 
HETATM   15  C15 UNL     1      14.432   9.208   2.096  1.00  0.00     0.135 C 
HETATM   16  C16 UNL     1      13.830   8.188   1.077  1.00  0.00     0.056 C 
HETATM   17  C21 UNL     1      15.674   8.464   2.628  1.00  0.00     0.188 C 
HETATM   18  C22 UNL     1      16.783   9.262   3.110  1.00  0.00     0.158 C 
HETATM   19  C23 UNL     1      17.195   9.435   4.507  1.00  0.00    -0.014 C 
HETATM   20  C24 UNL     1      17.839  10.836   4.586  1.00  0.00     0.018 C 
HETATM   21  C25 UNL     1      18.383   8.541   4.826  1.00  0.00     0.018 C 
ENDROOT
BRANCH  15  22
HETATM   22  O2  UNL     1      14.849  10.186   1.217  1.00  0.00    -0.342 OA
BRANCH  22  23
HETATM   23  C17 UNL     1      14.934  10.020  -0.084  1.00  0.00     0.441 C 
BRANCH  23  24
HETATM   24  N1  UNL     1      16.343  10.256  -0.524  1.00  0.00     0.113 N 
HETATM   25  C18 UNL     1      16.907  11.406   0.100  1.00  0.00     0.313 C 
BRANCH  24  26
HETATM   26  C19 UNL     1      16.368  10.310  -1.973  1.00  0.00     0.343 C 
BRANCH  26  27
HETATM   27  C20 UNL     1      15.024  10.221  -2.559  1.00  0.00     0.261 C 
HETATM   28  O3  UNL     1      14.686  11.001  -3.433  1.00  0.00    -0.305 OA
ENDBRANCH  26  27
ENDBRANCH  24  26
ENDBRANCH  23  24
ENDBRANCH  22  23
ENDBRANCH  15  22
BRANCH  14  29
HETATM   29  O1  UNL     1      12.584  10.471   2.620  1.00  0.00    -0.362 OA
ATOM     30  H1  UNL     1      12.988  11.288   2.353  1.00  0.00     0.217 HD
ENDBRANCH  14  29
BRANCH  17  31
HETATM   31  O4  UNL     1      15.406   7.235   3.155  1.00  0.00    -0.390 OA
ATOM     32  H4  UNL     1      14.832   7.251   3.912  1.00  0.00     0.210 HD
ENDBRANCH  17  31
BRANCH  18  33
HETATM   33  O5  UNL     1      17.996   8.820   2.479  1.00  0.00    -0.392 OA
ATOM     34  H5  UNL     1      18.266   9.462   1.833  1.00  0.00     0.210 HD
ENDBRANCH  18  33
TORSDOF 8
ENDMDL
