MODEL 1
REMARK VINA RESULT: -9.240650560      0.000      0.000
REMARK  7 active torsions:
REMARK  status: ('A' for Active; 'I' for Inactive)
REMARK    1  A    between atoms: C6_8  and  C7_9 
REMARK    2  A    between atoms: C7_9  and  C8_10 
REMARK    3  A    between atoms: C7_9  and  C10_14 
REMARK    4  A    between atoms: C9_11  and  O3_12 
REMARK    5  A    between atoms: C10_14  and  C11_15 
REMARK    6  A    between atoms: C18_23  and  O5_24 
REMARK    7  A    between atoms: C18_23  and  C19_26 
ROOT
HETATM    1  C7  UNL     1      17.221  11.321   2.042  1.00  0.00    -0.035 C 
ENDROOT
BRANCH   1   2
HETATM    2  C6  UNL     1      18.559  10.847   2.366  1.00  0.00    -0.067 C 
HETATM    3  C5  UNL     1      19.827  11.287   1.808  1.00  0.00     0.068 C 
HETATM    4  C4  UNL     1      20.784  10.297   1.324  1.00  0.00     0.145 C 
HETATM    5  O2  UNL     1      21.879  10.808   0.590  1.00  0.00    -0.311 OA
HETATM    6  C26 UNL     1      21.515   9.451   2.333  1.00  0.00     0.057 C 
HETATM    7  C3  UNL     1      22.678   9.665   0.365  1.00  0.00     0.289 C 
HETATM    8  C2  UNL     1      22.283   8.637   1.371  1.00  0.00     0.015 C 
HETATM    9  O1  UNL     1      23.554   9.570  -0.535  1.00  0.00    -0.260 OA
HETATM   10  C1  UNL     1      22.633   7.404   1.236  1.00  0.00     0.025 C 
HETATM   11  C24 UNL     1      20.595   8.757   3.249  1.00  0.00    -0.007 C 
HETATM   12  C23 UNL     1      20.002   9.804   4.167  1.00  0.00     0.009 C 
HETATM   13  C25 UNL     1      21.214   7.705   4.118  1.00  0.00     0.011 C 
HETATM   14  C22 UNL     1      18.638  10.262   3.791  1.00  0.00     0.035 C 
ENDBRANCH   1   2
BRANCH   1  15
HETATM   15  C8  UNL     1      16.565  12.408   2.850  1.00  0.00     0.035 C 
HETATM   16  C9  UNL     1      17.101  13.555   3.473  1.00  0.00     0.132 C 
BRANCH  16  17
HETATM   17  O3  UNL     1      17.643  14.513   2.632  1.00  0.00    -0.373 OA
ATOM     18  H3  UNL     1      18.517  14.815   2.848  1.00  0.00     0.216 HD
ENDBRANCH  16  17
ENDBRANCH   1  15
BRANCH   1  19
HETATM   19  C10 UNL     1      16.191  10.472   1.380  1.00  0.00     0.005 C 
BRANCH  19  20
HETATM   20  C11 UNL     1      14.929   9.946   1.766  1.00  0.00     0.067 C 
HETATM   21  C12 UNL     1      13.885  10.915   2.274  1.00  0.00     0.031 C 
HETATM   22  C13 UNL     1      14.882   8.759   2.622  1.00  0.00     0.142 C 
HETATM   23  O4  UNL     1      15.743   8.338   3.351  1.00  0.00    -0.297 OA
HETATM   24  C14 UNL     1      13.643   7.868   2.677  1.00  0.00     0.084 C 
HETATM   25  C15 UNL     1      13.673   7.074   1.397  1.00  0.00    -0.009 C 
HETATM   26  C16 UNL     1      14.478   5.788   1.623  1.00  0.00     0.010 C 
HETATM   27  C17 UNL     1      14.468   7.878   0.387  1.00  0.00     0.044 C 
HETATM   28  C18 UNL     1      14.181   9.357   0.499  1.00  0.00     0.079 C 
BRANCH  28  29
HETATM   29  O5  UNL     1      12.807   9.472   0.704  1.00  0.00    -0.388 OA
ATOM     30  H5  UNL     1      12.365   8.838   0.151  1.00  0.00     0.210 HD
ENDBRANCH  28  29
BRANCH  28  31
HETATM   31  C19 UNL     1      14.439   9.994  -0.791  1.00  0.00     0.013 C 
HETATM   32  C20 UNL     1      14.938   8.837  -1.704  1.00  0.00     0.012 C 
HETATM   33  C21 UNL     1      13.173  10.424  -1.561  1.00  0.00     0.012 C 
ENDBRANCH  28  31
ENDBRANCH  19  20
ENDBRANCH   1  19
TORSDOF 7
ENDMDL
MODEL 2
REMARK VINA RESULT: -8.938443765      1.688      3.284
REMARK  7 active torsions:
REMARK  status: ('A' for Active; 'I' for Inactive)
REMARK    1  A    between atoms: C6_8  and  C7_9 
REMARK    2  A    between atoms: C7_9  and  C8_10 
REMARK    3  A    between atoms: C7_9  and  C10_14 
REMARK    4  A    between atoms: C9_11  and  O3_12 
REMARK    5  A    between atoms: C10_14  and  C11_15 
REMARK    6  A    between atoms: C18_23  and  O5_24 
REMARK    7  A    between atoms: C18_23  and  C19_26 
ROOT
HETATM    1  C7  UNL     1      17.682   9.160   4.500  1.00  0.00    -0.035 C 
ENDROOT
BRANCH   1   2
HETATM    2  C6  UNL     1      19.088   8.879   4.245  1.00  0.00    -0.067 C 
HETATM    3  C5  UNL     1      20.078   9.742   3.622  1.00  0.00     0.068 C 
HETATM    4  C4  UNL     1      20.911   9.222   2.543  1.00  0.00     0.145 C 
HETATM    5  O2  UNL     1      21.677  10.181   1.840  1.00  0.00    -0.311 OA
HETATM    6  C26 UNL     1      21.988   8.224   2.882  1.00  0.00     0.057 C 
HETATM    7  C3  UNL     1      22.454   9.393   0.962  1.00  0.00     0.289 C 
HETATM    8  C2  UNL     1      22.478   8.006   1.508  1.00  0.00     0.015 C 
HETATM    9  O1  UNL     1      23.010   9.823  -0.084  1.00  0.00    -0.260 OA
HETATM   10  C1  UNL     1      22.866   7.011   0.784  1.00  0.00     0.025 C 
HETATM   11  C24 UNL     1      21.460   7.067   3.623  1.00  0.00    -0.007 C 
HETATM   12  C23 UNL     1      21.102   7.548   5.012  1.00  0.00     0.009 C 
HETATM   13  C25 UNL     1      22.402   5.913   3.783  1.00  0.00     0.011 C 
HETATM   14  C22 UNL     1      19.657   7.829   5.222  1.00  0.00     0.035 C 
ENDBRANCH   1   2
BRANCH   1  15
HETATM   15  C8  UNL     1      17.197   9.501   5.882  1.00  0.00     0.035 C 
HETATM   16  C9  UNL     1      16.441   8.757   6.812  1.00  0.00     0.132 C 
BRANCH  16  17
HETATM   17  O3  UNL     1      17.036   7.610   7.309  1.00  0.00    -0.373 OA
ATOM     18  H3  UNL     1      17.128   7.559   8.253  1.00  0.00     0.216 HD
ENDBRANCH  16  17
ENDBRANCH   1  15
BRANCH   1  19
HETATM   19  C10 UNL     1      16.574   8.587   3.686  1.00  0.00     0.005 C 
BRANCH  19  20
HETATM   20  C11 UNL     1      15.396   9.112   3.089  1.00  0.00     0.067 C 
HETATM   21  C12 UNL     1      14.353   9.720   4.000  1.00  0.00     0.031 C 
HETATM   22  C13 UNL     1      14.691   8.317   2.082  1.00  0.00     0.142 C 
HETATM   23  O4  UNL     1      14.743   7.126   1.908  1.00  0.00    -0.297 OA
HETATM   24  C14 UNL     1      13.749   8.971   1.071  1.00  0.00     0.084 C 
HETATM   25  C15 UNL     1      14.653   9.638   0.067  1.00  0.00    -0.009 C 
HETATM   26  C16 UNL     1      14.987   8.640  -1.049  1.00  0.00     0.010 C 
HETATM   27  C17 UNL     1      15.969   9.922   0.764  1.00  0.00     0.044 C 
HETATM   28  C18 UNL     1      15.760  10.366   2.193  1.00  0.00     0.079 C 
BRANCH  28  29
HETATM   29  O5  UNL     1      14.666  11.230   2.175  1.00  0.00    -0.388 OA
ATOM     30  H5  UNL     1      14.686  11.727   1.366  1.00  0.00     0.210 HD
ENDBRANCH  28  29
BRANCH  28  31
HETATM   31  C19 UNL     1      16.897  11.185   2.611  1.00  0.00     0.013 C 
HETATM   32  C20 UNL     1      17.450  11.789   1.288  1.00  0.00     0.012 C 
HETATM   33  C21 UNL     1      16.519  12.476   3.365  1.00  0.00     0.012 C 
ENDBRANCH  28  31
ENDBRANCH  19  20
ENDBRANCH   1  19
TORSDOF 7
ENDMDL
MODEL 3
REMARK VINA RESULT: -8.891885994      2.507      3.580
REMARK  7 active torsions:
REMARK  status: ('A' for Active; 'I' for Inactive)
REMARK    1  A    between atoms: C6_8  and  C7_9 
REMARK    2  A    between atoms: C7_9  and  C8_10 
REMARK    3  A    between atoms: C7_9  and  C10_14 
REMARK    4  A    between atoms: C9_11  and  O3_12 
REMARK    5  A    between atoms: C10_14  and  C11_15 
REMARK    6  A    between atoms: C18_23  and  O5_24 
REMARK    7  A    between atoms: C18_23  and  C19_26 
ROOT
HETATM    1  C7  UNL     1      18.065   9.518   2.536  1.00  0.00    -0.035 C 
ENDROOT
BRANCH   1   2
HETATM    2  C6  UNL     1      19.418   9.408   3.061  1.00  0.00    -0.067 C 
HETATM    3  C5  UNL     1      20.639   9.090   2.337  1.00  0.00     0.068 C 
HETATM    4  C4  UNL     1      21.533   8.057   2.850  1.00  0.00     0.145 C 
HETATM    5  O2  UNL     1      22.567   7.649   1.977  1.00  0.00    -0.311 OA
HETATM    6  C26 UNL     1      22.337   8.352   4.090  1.00  0.00     0.057 C 
HETATM    7  C3  UNL     1      23.323   6.756   2.767  1.00  0.00     0.289 C 
HETATM    8  C2  UNL     1      23.003   7.039   4.195  1.00  0.00     0.015 C 
HETATM    9  O1  UNL     1      24.115   5.889   2.309  1.00  0.00    -0.260 OA
HETATM   10  C1  UNL     1      23.319   6.207   5.128  1.00  0.00     0.025 C 
HETATM   11  C24 UNL     1      21.491   8.793   5.210  1.00  0.00    -0.007 C 
HETATM   12  C23 UNL     1      20.999  10.185   4.881  1.00  0.00     0.009 C 
HETATM   13  C25 UNL     1      22.167   8.867   6.546  1.00  0.00     0.011 C 
HETATM   14  C22 UNL     1      19.614  10.246   4.341  1.00  0.00     0.035 C 
ENDBRANCH   1   2
BRANCH   1  15
HETATM   15  C8  UNL     1      17.747  10.447   1.396  1.00  0.00     0.035 C 
HETATM   16  C9  UNL     1      18.362  10.619   0.138  1.00  0.00     0.132 C 
BRANCH  16  17
HETATM   17  O3  UNL     1      18.298   9.541  -0.729  1.00  0.00    -0.373 OA
ATOM     18  H3  UNL     1      19.128   9.152  -0.978  1.00  0.00     0.216 HD
ENDBRANCH  16  17
ENDBRANCH   1  15
BRANCH   1  19
HETATM   19  C10 UNL     1      16.847   9.265   3.356  1.00  0.00     0.005 C 
BRANCH  19  20
HETATM   20  C11 UNL     1      16.023  10.063   4.195  1.00  0.00     0.067 C 
HETATM   21  C12 UNL     1      16.132  11.566   4.070  1.00  0.00     0.031 C 
HETATM   22  C13 UNL     1      15.936   9.745   5.621  1.00  0.00     0.142 C 
HETATM   23  O4  UNL     1      16.719   9.121   6.290  1.00  0.00    -0.297 OA
HETATM   24  C14 UNL     1      14.750  10.207   6.467  1.00  0.00     0.084 C 
HETATM   25  C15 UNL     1      13.616   9.292   6.085  1.00  0.00    -0.009 C 
HETATM   26  C16 UNL     1      13.643   8.054   6.990  1.00  0.00     0.010 C 
HETATM   27  C17 UNL     1      13.901   8.780   4.688  1.00  0.00     0.044 C 
HETATM   28  C18 UNL     1      14.500   9.853   3.810  1.00  0.00     0.079 C 
BRANCH  28  29
HETATM   29  O5  UNL     1      13.805  11.026   4.101  1.00  0.00    -0.388 OA
ATOM     30  H5  UNL     1      12.929  10.955   3.740  1.00  0.00     0.210 HD
ENDBRANCH  28  29
BRANCH  28  31
HETATM   31  C19 UNL     1      14.195   9.555   2.411  1.00  0.00     0.013 C 
HETATM   32  C20 UNL     1      13.397   8.219   2.463  1.00  0.00     0.012 C 
HETATM   33  C21 UNL     1      13.139  10.480   1.771  1.00  0.00     0.012 C 
ENDBRANCH  28  31
ENDBRANCH  19  20
ENDBRANCH   1  19
TORSDOF 7
ENDMDL
MODEL 4
REMARK VINA RESULT: -8.859753856      3.635      9.156
REMARK  7 active torsions:
REMARK  status: ('A' for Active; 'I' for Inactive)
REMARK    1  A    between atoms: C6_8  and  C7_9 
REMARK    2  A    between atoms: C7_9  and  C8_10 
REMARK    3  A    between atoms: C7_9  and  C10_14 
REMARK    4  A    between atoms: C9_11  and  O3_12 
REMARK    5  A    between atoms: C10_14  and  C11_15 
REMARK    6  A    between atoms: C18_23  and  O5_24 
REMARK    7  A    between atoms: C18_23  and  C19_26 
ROOT
HETATM    1  C7  UNL     1      20.682   6.431   4.295  1.00  0.00    -0.035 C 
ENDROOT
BRANCH   1   2
HETATM    2  C6  UNL     1      19.890   7.614   3.990  1.00  0.00    -0.067 C 
HETATM    3  C5  UNL     1      18.661   8.060   4.625  1.00  0.00     0.068 C 
HETATM    4  C4  UNL     1      17.515   8.426   3.800  1.00  0.00     0.145 C 
HETATM    5  O2  UNL     1      16.297   8.623   4.490  1.00  0.00    -0.311 OA
HETATM    6  C26 UNL     1      17.578   9.706   3.008  1.00  0.00     0.057 C 
HETATM    7  C3  UNL     1      15.422   9.075   3.478  1.00  0.00     0.289 C 
HETATM    8  C2  UNL     1      16.259   9.586   2.357  1.00  0.00     0.015 C 
HETATM    9  O1  UNL     1      14.164   9.035   3.549  1.00  0.00    -0.260 OA
HETATM   10  C1  UNL     1      15.753   9.799   1.190  1.00  0.00     0.025 C 
HETATM   11  C24 UNL     1      18.772   9.772   2.150  1.00  0.00    -0.007 C 
HETATM   12  C23 UNL     1      19.967   9.968   3.058  1.00  0.00     0.009 C 
HETATM   13  C25 UNL     1      18.791  10.886   1.147  1.00  0.00     0.011 C 
HETATM   14  C22 UNL     1      20.739   8.730   3.347  1.00  0.00     0.035 C 
ENDBRANCH   1   2
BRANCH   1  15
HETATM   15  C8  UNL     1      20.071   5.057   4.258  1.00  0.00     0.035 C 
HETATM   16  C9  UNL     1      20.612   3.808   3.886  1.00  0.00     0.132 C 
BRANCH  16  17
HETATM   17  O3  UNL     1      21.640   3.324   4.677  1.00  0.00    -0.373 OA
ATOM     18  H3  UNL     1      22.508   3.332   4.291  1.00  0.00     0.216 HD
ENDBRANCH  16  17
ENDBRANCH   1  15
BRANCH   1  19
HETATM   19  C10 UNL     1      21.864   6.450   5.202  1.00  0.00     0.005 C 
BRANCH  19  20
HETATM   20  C11 UNL     1      23.264   6.609   5.018  1.00  0.00     0.067 C 
HETATM   21  C12 UNL     1      23.761   6.935   3.627  1.00  0.00     0.031 C 
HETATM   22  C13 UNL     1      24.177   5.619   5.591  1.00  0.00     0.142 C 
HETATM   23  O4  UNL     1      23.932   4.484   5.911  1.00  0.00    -0.297 OA
HETATM   24  C14 UNL     1      25.643   5.953   5.863  1.00  0.00     0.084 C 
HETATM   25  C15 UNL     1      25.626   6.811   7.101  1.00  0.00    -0.009 C 
HETATM   26  C16 UNL     1      25.712   5.909   8.338  1.00  0.00     0.010 C 
HETATM   27  C17 UNL     1      24.263   7.471   7.174  1.00  0.00     0.044 C 
HETATM   28  C18 UNL     1      23.769   7.886   5.809  1.00  0.00     0.079 C 
BRANCH  28  29
HETATM   29  O5  UNL     1      24.873   8.413   5.139  1.00  0.00    -0.388 OA
ATOM     30  H5  UNL     1      25.601   8.458   5.748  1.00  0.00     0.210 HD
ENDBRANCH  28  29
BRANCH  28  31
HETATM   31  C19 UNL     1      22.834   9.000   5.955  1.00  0.00     0.013 C 
HETATM   32  C20 UNL     1      22.494   9.026   7.474  1.00  0.00     0.012 C 
HETATM   33  C21 UNL     1      23.466  10.398   5.792  1.00  0.00     0.012 C 
ENDBRANCH  28  31
ENDBRANCH  19  20
ENDBRANCH   1  19
TORSDOF 7
ENDMDL
MODEL 5
REMARK VINA RESULT: -8.828895600      1.826      3.435
REMARK  7 active torsions:
REMARK  status: ('A' for Active; 'I' for Inactive)
REMARK    1  A    between atoms: C6_8  and  C7_9 
REMARK    2  A    between atoms: C7_9  and  C8_10 
REMARK    3  A    between atoms: C7_9  and  C10_14 
REMARK    4  A    between atoms: C9_11  and  O3_12 
REMARK    5  A    between atoms: C10_14  and  C11_15 
REMARK    6  A    between atoms: C18_23  and  O5_24 
REMARK    7  A    between atoms: C18_23  and  C19_26 
ROOT
HETATM    1  C7  UNL     1      18.149   9.003   4.919  1.00  0.00    -0.035 C 
ENDROOT
BRANCH   1   2
HETATM    2  C6  UNL     1      19.512   8.701   4.505  1.00  0.00    -0.067 C 
HETATM    3  C5  UNL     1      20.469   9.581   3.855  1.00  0.00     0.068 C 
HETATM    4  C4  UNL     1      21.174   9.124   2.662  1.00  0.00     0.145 C 
HETATM    5  O2  UNL     1      21.904  10.111   1.962  1.00  0.00    -0.311 OA
HETATM    6  C26 UNL     1      22.239   8.069   2.816  1.00  0.00     0.057 C 
HETATM    7  C3  UNL     1      22.562   9.372   0.954  1.00  0.00     0.289 C 
HETATM    8  C2  UNL     1      22.586   7.946   1.387  1.00  0.00     0.015 C 
HETATM    9  O1  UNL     1      23.030   9.867  -0.107  1.00  0.00    -0.260 OA
HETATM   10  C1  UNL     1      22.864   7.001   0.555  1.00  0.00     0.025 C 
HETATM   11  C24 UNL     1      21.742   6.874   3.515  1.00  0.00    -0.007 C 
HETATM   12  C23 UNL     1      21.538   7.253   4.966  1.00  0.00     0.009 C 
HETATM   13  C25 UNL     1      22.651   5.682   3.492  1.00  0.00     0.011 C 
HETATM   14  C22 UNL     1      20.132   7.560   5.338  1.00  0.00     0.035 C 
ENDBRANCH   1   2
BRANCH   1  15
HETATM   15  C8  UNL     1      17.656   8.639   6.292  1.00  0.00     0.035 C 
HETATM   16  C9  UNL     1      16.385   8.775   6.891  1.00  0.00     0.132 C 
BRANCH  16  17
HETATM   17  O3  UNL     1      15.361   8.030   6.330  1.00  0.00    -0.373 OA
ATOM     18  H3  UNL     1      15.165   8.205   5.417  1.00  0.00     0.216 HD
ENDBRANCH  16  17
ENDBRANCH   1  15
BRANCH   1  19
HETATM   19  C10 UNL     1      17.008   9.102   3.965  1.00  0.00     0.005 C 
BRANCH  19  20
HETATM   20  C11 UNL     1      16.104  10.131   3.591  1.00  0.00     0.067 C 
HETATM   21  C12 UNL     1      16.195  11.453   4.321  1.00  0.00     0.031 C 
HETATM   22  C13 UNL     1      14.684   9.812   3.434  1.00  0.00     0.142 C 
HETATM   23  O4  UNL     1      14.077   8.885   3.905  1.00  0.00    -0.297 OA
HETATM   24  C14 UNL     1      13.761  10.690   2.589  1.00  0.00     0.084 C 
HETATM   25  C15 UNL     1      14.103  10.357   1.160  1.00  0.00    -0.009 C 
HETATM   26  C16 UNL     1      13.234   9.182   0.697  1.00  0.00     0.010 C 
HETATM   27  C17 UNL     1      15.527   9.840   1.146  1.00  0.00     0.044 C 
HETATM   28  C18 UNL     1      16.409  10.601   2.108  1.00  0.00     0.079 C 
BRANCH  28  29
HETATM   29  O5  UNL     1      16.048  11.943   1.987  1.00  0.00    -0.388 OA
ATOM     30  H5  UNL     1      16.559  12.330   1.285  1.00  0.00     0.210 HD
ENDBRANCH  28  29
BRANCH  28  31
HETATM   31  C19 UNL     1      17.795  10.526   1.650  1.00  0.00     0.013 C 
HETATM   32  C20 UNL     1      17.687  10.315   0.112  1.00  0.00     0.012 C 
HETATM   33  C21 UNL     1      18.560  11.866   1.690  1.00  0.00     0.012 C 
ENDBRANCH  28  31
ENDBRANCH  19  20
ENDBRANCH   1  19
TORSDOF 7
ENDMDL
