MODEL 1
REMARK VINA RESULT: -9.882241961      0.000      0.000
REMARK  2 active torsions:
REMARK  status: ('A' for Active; 'I' for Inactive)
REMARK    1  A    between atoms: N1_1  and  C1_4 
REMARK    2  A    between atoms: C3_12  and  C4_13 
ROOT
HETATM    1  C4  UNL     1      18.080  -3.947  87.143  1.00  0.00     0.170 A 
HETATM    2  N5  UNL     1      18.148  -3.440  85.883  1.00  0.00    -0.281 N 
ATOM      3  H5  UNL     1      18.840  -3.698  85.180  1.00  0.00     0.188 HD
HETATM    4  N6  UNL     1      17.176  -2.563  85.715  1.00  0.00    -0.287 N 
ATOM      5  H6  UNL     1      17.001  -2.035  84.859  1.00  0.00     0.188 HD
HETATM    6  C5  UNL     1      16.453  -2.471  86.844  1.00  0.00     0.103 A 
HETATM    7  N7  UNL     1      17.033  -3.343  87.721  1.00  0.00    -0.317 N 
HETATM    8  C6  UNL     1      16.456  -3.463  89.063  1.00  0.00     0.136 C 
HETATM    9  C7  UNL     1      16.240  -2.013  89.511  1.00  0.00     0.082 C 
HETATM   10  C8  UNL     1      15.212  -1.321  88.688  1.00  0.00     0.208 C 
HETATM   11  C9  UNL     1      15.263  -1.664  87.223  1.00  0.00     0.139 C 
HETATM   12  N8  UNL     1      15.369   0.112  88.802  1.00  0.00    -0.040 N 
ATOM     13  H81 UNL     1      16.002   0.493  88.099  1.00  0.00     0.280 HD
ATOM     14  H82 UNL     1      15.899   0.383  89.630  1.00  0.00     0.280 HD
HETATM   15  C10 UNL     1      14.080   0.713  88.759  1.00  0.00     0.337 C 
HETATM   16  C11 UNL     1      13.112  -0.407  88.825  1.00  0.00     0.245 C 
HETATM   17  O2  UNL     1      11.864  -0.371  88.591  1.00  0.00    -0.272 OA
HETATM   18  N9  UNL     1      13.858  -1.554  89.208  1.00  0.00    -0.327 N 
ATOM     19  H9  UNL     1      13.525  -2.364  89.730  1.00  0.00     0.165 HD
ENDROOT
BRANCH   1  20
HETATM   20  C3  UNL     1      18.975  -4.949  87.729  1.00  0.00     0.182 A 
HETATM   21  N4  UNL     1      19.877  -5.652  87.026  1.00  0.00    -0.256 N 
HETATM   22  N3  UNL     1      20.527  -6.470  87.831  1.00  0.00    -0.029 N 
ATOM     23  H4  UNL     1      20.037  -5.565  86.022  1.00  0.00     0.190 HD
HETATM   24  C2  UNL     1      21.508  -7.370  87.640  1.00  0.00     0.374 A 
HETATM   25  C12 UNL     1      20.047  -6.304  89.074  1.00  0.00     0.724 A 
HETATM   26  N2  UNL     1      21.998  -8.087  88.662  1.00  0.00    -0.139 N 
HETATM   27  O1  UNL     1      21.982  -7.554  86.494  1.00  0.00    -0.244 OA
HETATM   28  C1  UNL     1      21.532  -7.936  89.909  1.00  0.00     0.694 A 
ATOM     29  H2  UNL     1      22.743  -8.763  88.485  1.00  0.00     0.189 HD
HETATM   30  N11 UNL     1      20.555  -7.038  90.089  1.00  0.00    -0.020 N 
ATOM     31  H11 UNL     1      20.181  -6.901  91.028  1.00  0.00     0.203 HD
HETATM   32  N10 UNL     1      19.086  -5.359  88.995  1.00  0.00    -0.169 N 
ATOM     33  H10 UNL     1      18.533  -5.013  89.778  1.00  0.00     0.186 HD
BRANCH  28  34
HETATM   34  N1  UNL     1      22.014  -8.635  90.889  1.00  0.00    -0.234 N 
ATOM     35  H12 UNL     1      21.567  -8.664  91.805  1.00  0.00     0.174 HD
ATOM     36  H11 UNL     1      22.866  -9.184  90.773  1.00  0.00     0.174 HD
ENDBRANCH  28  34
ENDBRANCH   1  20
TORSDOF 2
ENDMDL
MODEL 2
REMARK VINA RESULT: -9.821336618      1.693      2.774
REMARK  2 active torsions:
REMARK  status: ('A' for Active; 'I' for Inactive)
REMARK    1  A    between atoms: N1_1  and  C1_4 
REMARK    2  A    between atoms: C3_12  and  C4_13 
ROOT
HETATM    1  C4  UNL     1      18.424  -5.195  89.272  1.00  0.00     0.170 A 
HETATM    2  N5  UNL     1      17.906  -5.419  90.508  1.00  0.00    -0.281 N 
ATOM      3  H5  UNL     1      18.177  -6.178  91.133  1.00  0.00     0.188 HD
HETATM    4  N6  UNL     1      16.995  -4.500  90.771  1.00  0.00    -0.287 N 
ATOM      5  H6  UNL     1      16.452  -4.438  91.633  1.00  0.00     0.188 HD
HETATM    6  C5  UNL     1      16.893  -3.657  89.728  1.00  0.00     0.103 A 
HETATM    7  N7  UNL     1      17.793  -4.108  88.805  1.00  0.00    -0.317 N 
HETATM    8  C6  UNL     1      17.910  -3.381  87.538  1.00  0.00     0.136 C 
HETATM    9  C7  UNL     1      16.459  -3.161  87.095  1.00  0.00     0.082 C 
HETATM   10  C8  UNL     1      15.725  -2.254  88.018  1.00  0.00     0.208 C 
HETATM   11  C9  UNL     1      16.053  -2.458  89.473  1.00  0.00     0.139 C 
HETATM   12  N8  UNL     1      14.299  -2.441  87.866  1.00  0.00    -0.040 N 
ATOM     13  H81 UNL     1      13.931  -3.161  88.488  1.00  0.00     0.280 HD
ATOM     14  H82 UNL     1      14.055  -2.884  86.979  1.00  0.00     0.280 HD
HETATM   15  C10 UNL     1      13.656  -1.184  88.043  1.00  0.00     0.337 C 
HETATM   16  C11 UNL     1      14.745  -0.181  88.102  1.00  0.00     0.245 C 
HETATM   17  O2  UNL     1      14.666   1.031  88.474  1.00  0.00    -0.272 OA
HETATM   18  N9  UNL     1      15.919  -0.843  87.656  1.00  0.00    -0.327 N 
ATOM     19  H9  UNL     1      16.724  -0.429  87.186  1.00  0.00     0.165 HD
ENDROOT
BRANCH   1  20
HETATM   20  C3  UNL     1      19.461  -5.987  88.604  1.00  0.00     0.182 A 
HETATM   21  N4  UNL     1      19.434  -6.312  87.301  1.00  0.00    -0.256 N 
HETATM   22  N3  UNL     1      20.501  -7.026  87.001  1.00  0.00    -0.029 N 
ATOM     23  H4  UNL     1      18.700  -6.046  86.645  1.00  0.00     0.190 HD
HETATM   24  C2  UNL     1      20.947  -7.589  85.863  1.00  0.00     0.374 A 
HETATM   25  C12 UNL     1      21.236  -7.173  88.115  1.00  0.00     0.724 A 
HETATM   26  N2  UNL     1      22.095  -8.281  85.836  1.00  0.00    -0.139 N 
HETATM   27  O1  UNL     1      20.288  -7.475  84.802  1.00  0.00    -0.244 OA
HETATM   28  C1  UNL     1      22.842  -8.438  86.938  1.00  0.00     0.694 A 
ATOM     29  H2  UNL     1      22.407  -8.696  84.958  1.00  0.00     0.189 HD
HETATM   30  N11 UNL     1      22.390  -7.874  88.066  1.00  0.00    -0.020 N 
ATOM     31  H11 UNL     1      22.938  -7.977  88.920  1.00  0.00     0.203 HD
HETATM   32  N10 UNL     1      20.579  -6.524  89.099  1.00  0.00    -0.169 N 
ATOM     33  H10 UNL     1      20.887  -6.455  90.068  1.00  0.00     0.186 HD
BRANCH  28  34
HETATM   34  N1  UNL     1      23.951  -9.109  86.900  1.00  0.00    -0.234 N 
ATOM     35  H12 UNL     1      24.253  -9.610  86.065  1.00  0.00     0.174 HD
ATOM     36  H11 UNL     1      24.563  -9.156  87.715  1.00  0.00     0.174 HD
ENDBRANCH  28  34
ENDBRANCH   1  20
TORSDOF 2
ENDMDL
MODEL 3
REMARK VINA RESULT: -9.761625594      1.329      1.855
REMARK  2 active torsions:
REMARK  status: ('A' for Active; 'I' for Inactive)
REMARK    1  A    between atoms: N1_1  and  C1_4 
REMARK    2  A    between atoms: C3_12  and  C4_13 
ROOT
HETATM    1  C4  UNL     1      18.604  -4.054  86.548  1.00  0.00     0.170 A 
HETATM    2  N5  UNL     1      18.634  -3.258  85.446  1.00  0.00    -0.281 N 
ATOM      3  H5  UNL     1      19.310  -3.328  84.686  1.00  0.00     0.188 HD
HETATM    4  N6  UNL     1      17.651  -2.379  85.518  1.00  0.00    -0.287 N 
ATOM      5  H6  UNL     1      17.449  -1.663  84.819  1.00  0.00     0.188 HD
HETATM    6  C5  UNL     1      16.957  -2.573  86.652  1.00  0.00     0.103 A 
HETATM    7  N7  UNL     1      17.567  -3.622  87.279  1.00  0.00    -0.317 N 
HETATM    8  C6  UNL     1      17.027  -4.071  88.566  1.00  0.00     0.136 C 
HETATM    9  C7  UNL     1      16.811  -2.774  89.355  1.00  0.00     0.082 C 
HETATM   10  C8  UNL     1      15.756  -1.919  88.748  1.00  0.00     0.208 C 
HETATM   11  C9  UNL     1      15.771  -1.898  87.243  1.00  0.00     0.139 C 
HETATM   12  N8  UNL     1      15.904  -0.554  89.201  1.00  0.00    -0.040 N 
ATOM     13  H81 UNL     1      16.516  -0.006  88.596  1.00  0.00     0.280 HD
ATOM     14  H82 UNL     1      16.454  -0.483  90.057  1.00  0.00     0.280 HD
HETATM   15  C10 UNL     1      14.609   0.022  89.335  1.00  0.00     0.337 C 
HETATM   16  C11 UNL     1      13.653  -1.095  89.152  1.00  0.00     0.245 C 
HETATM   17  O2  UNL     1      12.399  -1.021  88.963  1.00  0.00    -0.272 OA
HETATM   18  N9  UNL     1      14.418  -2.289  89.228  1.00  0.00    -0.327 N 
ATOM     19  H9  UNL     1      14.105  -3.206  89.548  1.00  0.00     0.165 HD
ENDROOT
BRANCH   1  20
HETATM   20  C3  UNL     1      19.521  -5.155  86.854  1.00  0.00     0.182 A 
HETATM   21  N4  UNL     1      19.729  -5.636  88.090  1.00  0.00    -0.256 N 
HETATM   22  N3  UNL     1      20.607  -6.619  88.041  1.00  0.00    -0.029 N 
ATOM     23  H4  UNL     1      19.276  -5.294  88.937  1.00  0.00     0.190 HD
HETATM   24  C2  UNL     1      21.150  -7.422  88.974  1.00  0.00     0.374 A 
HETATM   25  C12 UNL     1      20.980  -6.786  86.762  1.00  0.00     0.724 A 
HETATM   26  N2  UNL     1      22.043  -8.365  88.641  1.00  0.00    -0.139 N 
HETATM   27  O1  UNL     1      20.827  -7.297  90.179  1.00  0.00    -0.244 OA
HETATM   28  C1  UNL     1      22.428  -8.546  87.370  1.00  0.00     0.694 A 
ATOM     29  H2  UNL     1      22.438  -8.959  89.371  1.00  0.00     0.189 HD
HETATM   30  N11 UNL     1      21.881  -7.743  86.448  1.00  0.00    -0.020 N 
ATOM     31  H11 UNL     1      22.155  -7.857  85.473  1.00  0.00     0.203 HD
HETATM   32  N10 UNL     1      20.299  -5.871  86.039  1.00  0.00    -0.169 N 
ATOM     33  H10 UNL     1      20.369  -5.747  85.029  1.00  0.00     0.186 HD
BRANCH  28  34
HETATM   34  N1  UNL     1      23.292  -9.462  87.060  1.00  0.00    -0.234 N 
ATOM     35  H12 UNL     1      24.048  -9.729  87.690  1.00  0.00     0.174 HD
ATOM     36  H11 UNL     1      23.241  -9.950  86.165  1.00  0.00     0.174 HD
ENDBRANCH  28  34
ENDBRANCH   1  20
TORSDOF 2
ENDMDL
MODEL 4
REMARK VINA RESULT: -9.571728979      1.942      3.206
REMARK  2 active torsions:
REMARK  status: ('A' for Active; 'I' for Inactive)
REMARK    1  A    between atoms: N1_1  and  C1_4 
REMARK    2  A    between atoms: C3_12  and  C4_13 
ROOT
HETATM    1  C4  UNL     1      18.619  -5.268  88.626  1.00  0.00     0.170 A 
HETATM    2  N5  UNL     1      18.232  -5.563  89.896  1.00  0.00    -0.281 N 
ATOM      3  H5  UNL     1      18.569  -6.352  90.447  1.00  0.00     0.188 HD
HETATM    4  N6  UNL     1      17.353  -4.666  90.302  1.00  0.00    -0.287 N 
ATOM      5  H6  UNL     1      16.903  -4.655  91.218  1.00  0.00     0.188 HD
HETATM    6  C5  UNL     1      17.142  -3.769  89.323  1.00  0.00     0.103 A 
HETATM    7  N7  UNL     1      17.941  -4.162  88.288  1.00  0.00    -0.317 N 
HETATM    8  C6  UNL     1      17.924  -3.366  87.058  1.00  0.00     0.136 C 
HETATM    9  C7  UNL     1      16.434  -3.133  86.781  1.00  0.00     0.082 C 
HETATM   10  C8  UNL     1      15.799  -2.283  87.824  1.00  0.00     0.208 C 
HETATM   11  C9  UNL     1      16.277  -2.563  89.223  1.00  0.00     0.139 C 
HETATM   12  N8  UNL     1      14.365  -2.471  87.811  1.00  0.00    -0.040 N 
ATOM     13  H81 UNL     1      14.065  -3.227  88.427  1.00  0.00     0.280 HD
ATOM     14  H82 UNL     1      14.030  -2.867  86.932  1.00  0.00     0.280 HD
HETATM   15  C10 UNL     1      13.742  -1.231  88.123  1.00  0.00     0.337 C 
HETATM   16  C11 UNL     1      14.830  -0.225  88.123  1.00  0.00     0.245 C 
HETATM   17  O2  UNL     1      14.788   0.965  88.567  1.00  0.00    -0.272 OA
HETATM   18  N9  UNL     1      15.952  -0.853  87.521  1.00  0.00    -0.327 N 
ATOM     19  H9  UNL     1      16.703  -0.408  86.994  1.00  0.00     0.165 HD
ENDROOT
BRANCH   1  20
HETATM   20  C3  UNL     1      19.581  -6.015  87.812  1.00  0.00     0.182 A 
HETATM   21  N4  UNL     1      20.444  -6.916  88.308  1.00  0.00    -0.256 N 
HETATM   22  N3  UNL     1      21.176  -7.414  87.331  1.00  0.00    -0.029 N 
ATOM     23  H4  UNL     1      20.522  -7.175  89.292  1.00  0.00     0.190 HD
HETATM   24  C2  UNL     1      22.161  -8.329  87.286  1.00  0.00     0.374 A 
HETATM   25  C12 UNL     1      20.791  -6.836  86.181  1.00  0.00     0.724 A 
HETATM   26  N2  UNL     1      22.749  -8.658  86.127  1.00  0.00    -0.139 N 
HETATM   27  O1  UNL     1      22.549  -8.890  88.339  1.00  0.00    -0.244 OA
HETATM   28  C1  UNL     1      22.379  -8.092  84.970  1.00  0.00     0.694 A 
ATOM     29  H2  UNL     1      23.494  -9.355  86.126  1.00  0.00     0.189 HD
HETATM   30  N11 UNL     1      21.397  -7.183  85.024  1.00  0.00    -0.020 N 
ATOM     31  H11 UNL     1      21.094  -6.735  84.159  1.00  0.00     0.203 HD
HETATM   32  N10 UNL     1      19.803  -5.971  86.496  1.00  0.00    -0.169 N 
ATOM     33  H10 UNL     1      19.305  -5.379  85.832  1.00  0.00     0.186 HD
BRANCH  28  34
HETATM   34  N1  UNL     1      22.955  -8.418  83.855  1.00  0.00    -0.234 N 
ATOM     35  H12 UNL     1      23.736  -9.072  83.820  1.00  0.00     0.174 HD
ATOM     36  H11 UNL     1      22.639  -8.026  82.967  1.00  0.00     0.174 HD
ENDBRANCH  28  34
ENDBRANCH   1  20
TORSDOF 2
ENDMDL
MODEL 5
REMARK VINA RESULT: -9.533498652      1.804      3.198
REMARK  2 active torsions:
REMARK  status: ('A' for Active; 'I' for Inactive)
REMARK    1  A    between atoms: N1_1  and  C1_4 
REMARK    2  A    between atoms: C3_12  and  C4_13 
ROOT
HETATM    1  C4  UNL     1      18.907  -6.064  89.022  1.00  0.00     0.170 A 
HETATM    2  N5  UNL     1      18.164  -6.426  90.102  1.00  0.00    -0.281 N 
ATOM      3  H5  UNL     1      18.318  -7.258  90.672  1.00  0.00     0.188 HD
HETATM    4  N6  UNL     1      17.213  -5.531  90.295  1.00  0.00    -0.287 N 
ATOM      5  H6  UNL     1      16.516  -5.564  91.040  1.00  0.00     0.188 HD
HETATM    6  C5  UNL     1      17.305  -4.569  89.361  1.00  0.00     0.103 A 
HETATM    7  N7  UNL     1      18.367  -4.921  88.578  1.00  0.00    -0.317 N 
HETATM    8  C6  UNL     1      18.717  -4.050  87.452  1.00  0.00     0.136 C 
HETATM    9  C7  UNL     1      17.374  -3.757  86.772  1.00  0.00     0.082 C 
HETATM   10  C8  UNL     1      16.471  -2.955  87.641  1.00  0.00     0.208 C 
HETATM   11  C9  UNL     1      16.518  -3.336  89.096  1.00  0.00     0.139 C 
HETATM   12  N8  UNL     1      15.102  -3.102  87.200  1.00  0.00    -0.040 N 
ATOM     13  H81 UNL     1      14.628  -3.885  87.650  1.00  0.00     0.280 HD
ATOM     14  H82 UNL     1      15.034  -3.432  86.237  1.00  0.00     0.280 HD
HETATM   15  C10 UNL     1      14.426  -1.865  87.401  1.00  0.00     0.337 C 
HETATM   16  C11 UNL     1      15.477  -0.893  87.785  1.00  0.00     0.245 C 
HETATM   17  O2  UNL     1      15.318   0.267  88.277  1.00  0.00    -0.272 OA
HETATM   18  N9  UNL     1      16.719  -1.515  87.493  1.00  0.00    -0.327 N 
ATOM     19  H9  UNL     1      17.595  -1.059  87.238  1.00  0.00     0.165 HD
ENDROOT
BRANCH   1  20
HETATM   20  C3  UNL     1      20.057  -6.786  88.473  1.00  0.00     0.182 A 
HETATM   21  N4  UNL     1      20.236  -7.030  87.165  1.00  0.00    -0.256 N 
HETATM   22  N3  UNL     1      21.359  -7.697  86.987  1.00  0.00    -0.029 N 
ATOM     23  H4  UNL     1      19.599  -6.742  86.422  1.00  0.00     0.190 HD
HETATM   24  C2  UNL     1      21.988  -8.176  85.899  1.00  0.00     0.374 A 
HETATM   25  C12 UNL     1      21.925  -7.894  88.189  1.00  0.00     0.724 A 
HETATM   26  N2  UNL     1      23.151  -8.836  86.005  1.00  0.00    -0.139 N 
HETATM   27  O1  UNL     1      21.491  -8.013  84.759  1.00  0.00    -0.244 OA
HETATM   28  C1  UNL     1      23.731  -9.043  87.196  1.00  0.00     0.694 A 
ATOM     29  H2  UNL     1      23.604  -9.188  85.162  1.00  0.00     0.189 HD
HETATM   30  N11 UNL     1      23.097  -8.562  88.273  1.00  0.00    -0.020 N 
ATOM     31  H11 UNL     1      23.515  -8.704  89.193  1.00  0.00     0.203 HD
HETATM   32  N10 UNL     1      21.107  -7.325  89.099  1.00  0.00    -0.169 N 
ATOM     33  H10 UNL     1      21.266  -7.309  90.106  1.00  0.00     0.186 HD
BRANCH  28  34
HETATM   34  N1  UNL     1      24.856  -9.682  87.286  1.00  0.00    -0.234 N 
ATOM     35  H12 UNL     1      24.896 -10.697  87.368  1.00  0.00     0.174 HD
ATOM     36  H11 UNL     1      25.745  -9.182  87.279  1.00  0.00     0.174 HD
ENDBRANCH  28  34
ENDBRANCH   1  20
TORSDOF 2
ENDMDL
