MODEL 1
REMARK VINA RESULT: -6.987075686      0.000      0.000
REMARK  1 active torsions:
REMARK  status: ('A' for Active; 'I' for Inactive)
REMARK    1  A    between atoms: N5_22  and  N6_24 
ROOT
HETATM    1  C1  UNL     1      20.011  -5.288  84.851  1.00  0.00     0.161 C 
HETATM    2  N1  UNL     1      19.943  -5.879  86.151  1.00  0.00    -0.302 N 
HETATM    3  C2  UNL     1      19.293  -5.106  87.109  1.00  0.00     0.329 A 
HETATM    4  O1  UNL     1      18.552  -4.166  86.647  1.00  0.00    -0.246 OA
HETATM    5  N2  UNL     1      19.404  -5.292  88.420  1.00  0.00    -0.274 N 
ATOM      6  H2  UNL     1      18.897  -4.689  89.069  1.00  0.00     0.173 HD
HETATM    7  C3  UNL     1      20.179  -6.271  88.882  1.00  0.00     0.265 A 
HETATM    8  O2  UNL     1      20.333  -6.495  90.115  1.00  0.00    -0.267 OA
HETATM    9  C4  UNL     1      20.838  -7.071  87.993  1.00  0.00     0.104 A 
HETATM   10  C5  UNL     1      21.705  -8.039  88.473  1.00  0.00     0.120 A 
HETATM   11  N3  UNL     1      21.744  -8.155  89.733  1.00  0.00    -0.384 N 
ATOM     12  H31 UNL     1      22.382  -8.868  90.086  1.00  0.00     0.157 HD
ATOM     13  H32 UNL     1      21.188  -7.553  90.341  1.00  0.00     0.157 HD
HETATM   14  N4  UNL     1      22.444  -8.838  87.666  1.00  0.00    -0.322 N 
HETATM   15  C6  UNL     1      23.408  -9.727  88.218  1.00  0.00     0.159 C 
HETATM   16  C7  UNL     1      22.292  -8.676  86.337  1.00  0.00     0.129 A 
HETATM   17  C8  UNL     1      21.414  -7.695  85.781  1.00  0.00     0.088 A 
HETATM   18  C9  UNL     1      21.156  -7.653  84.456  1.00  0.00     0.206 A 
HETATM   19  O3  UNL     1      20.408  -6.934  83.868  1.00  0.00    -0.286 OA
HETATM   20  C10 UNL     1      21.798  -8.577  83.603  1.00  0.00     0.107 A 
HETATM   21  C11 UNL     1      21.732  -8.735  82.226  1.00  0.00     0.152 A 
HETATM   22  N5  UNL     1      21.129  -8.179  81.290  1.00  0.00    -0.290 N 
ATOM     23  H5  UNL     1      21.374  -8.621  80.405  1.00  0.00     0.188 HD
HETATM   24  N7  UNL     1      22.583  -9.789  81.961  1.00  0.00    -0.282 N 
ATOM     25  H7  UNL     1      22.780 -10.181  81.040  1.00  0.00     0.188 HD
HETATM   26  N8  UNL     1      23.105 -10.210  83.120  1.00  0.00    -0.283 N 
ATOM     27  H8  UNL     1      23.769 -10.980  83.213  1.00  0.00     0.188 HD
HETATM   28  C12 UNL     1      22.638  -9.480  84.142  1.00  0.00     0.141 A 
HETATM   29  N9  UNL     1      22.892  -9.548  85.490  1.00  0.00    -0.321 N 
HETATM   30  C13 UNL     1      23.744 -10.567  85.989  1.00  0.00     0.159 C 
HETATM   31  C14 UNL     1      20.701  -6.871  86.617  1.00  0.00     0.076 A 
ENDROOT
BRANCH  22  32
HETATM   32  N6  UNL     1      20.258  -7.183  81.081  1.00  0.00    -0.344 N 
ATOM     33  H62 UNL     1      20.726  -6.297  81.276  1.00  0.00     0.176 HD
ATOM     34  H61 UNL     1      19.291  -7.040  80.793  1.00  0.00     0.176 HD
ENDBRANCH  22  32
TORSDOF 1
ENDMDL
MODEL 2
REMARK VINA RESULT: -6.933194036      1.366      2.106
REMARK  1 active torsions:
REMARK  status: ('A' for Active; 'I' for Inactive)
REMARK    1  A    between atoms: N5_22  and  N6_24 
ROOT
HETATM    1  C1  UNL     1      19.585  -4.469  84.908  1.00  0.00     0.161 C 
HETATM    2  N1  UNL     1      19.066  -4.802  86.198  1.00  0.00    -0.302 N 
HETATM    3  C2  UNL     1      18.146  -3.890  86.709  1.00  0.00     0.329 A 
HETATM    4  O1  UNL     1      17.627  -3.092  85.848  1.00  0.00    -0.246 OA
HETATM    5  N2  UNL     1      17.799  -3.815  87.989  1.00  0.00    -0.274 N 
ATOM      6  H2  UNL     1      17.116  -3.123  88.297  1.00  0.00     0.173 HD
HETATM    7  C3  UNL     1      18.349  -4.649  88.868  1.00  0.00     0.265 A 
HETATM    8  O2  UNL     1      18.069  -4.625  90.100  1.00  0.00    -0.267 OA
HETATM    9  C4  UNL     1      19.253  -5.575  88.430  1.00  0.00     0.104 A 
HETATM   10  C5  UNL     1      19.883  -6.391  89.355  1.00  0.00     0.120 A 
HETATM   11  N3  UNL     1      19.488  -6.261  90.550  1.00  0.00    -0.384 N 
ATOM     12  H31 UNL     1      19.952  -6.862  91.231  1.00  0.00     0.157 HD
ATOM     13  H32 UNL     1      18.772  -5.580  90.804  1.00  0.00     0.157 HD
HETATM   14  N4  UNL     1      20.834  -7.295  89.019  1.00  0.00    -0.322 N 
HETATM   15  C6  UNL     1      21.533  -8.016  90.027  1.00  0.00     0.159 C 
HETATM   16  C7  UNL     1      21.148  -7.398  87.712  1.00  0.00     0.129 A 
HETATM   17  C8  UNL     1      20.534  -6.585  86.712  1.00  0.00     0.088 A 
HETATM   18  C9  UNL     1      20.743  -6.810  85.397  1.00  0.00     0.206 A 
HETATM   19  O3  UNL     1      20.256  -6.253  84.461  1.00  0.00    -0.286 OA
HETATM   20  C10 UNL     1      21.616  -7.850  85.010  1.00  0.00     0.107 A 
HETATM   21  C11 UNL     1      22.019  -8.272  83.751  1.00  0.00     0.152 A 
HETATM   22  N5  UNL     1      21.783  -7.935  82.577  1.00  0.00    -0.290 N 
ATOM     23  H5  UNL     1      22.305  -8.527  81.931  1.00  0.00     0.188 HD
HETATM   24  N7  UNL     1      22.886  -9.317  84.002  1.00  0.00    -0.282 N 
ATOM     25  H7  UNL     1      23.376  -9.869  83.298  1.00  0.00     0.188 HD
HETATM   26  N8  UNL     1      22.973  -9.483  85.328  1.00  0.00    -0.283 N 
ATOM     27  H8  UNL     1      23.548 -10.189  85.789  1.00  0.00     0.188 HD
HETATM   28  C12 UNL     1      22.202  -8.593  85.967  1.00  0.00     0.141 A 
HETATM   29  N9  UNL     1      21.980  -8.388  87.307  1.00  0.00    -0.321 N 
HETATM   30  C13 UNL     1      22.589  -9.252  88.254  1.00  0.00     0.159 C 
HETATM   31  C14 UNL     1      19.597  -5.649  87.078  1.00  0.00     0.076 A 
ENDROOT
BRANCH  22  32
HETATM   32  N6  UNL     1      21.058  -7.039  81.895  1.00  0.00    -0.344 N 
ATOM     33  H62 UNL     1      21.697  -6.398  81.423  1.00  0.00     0.176 HD
ATOM     34  H61 UNL     1      20.084  -6.806  81.706  1.00  0.00     0.176 HD
ENDBRANCH  22  32
TORSDOF 1
ENDMDL
MODEL 3
REMARK VINA RESULT: -6.603081419      1.825      5.328
REMARK  1 active torsions:
REMARK  status: ('A' for Active; 'I' for Inactive)
REMARK    1  A    between atoms: N5_22  and  N6_24 
ROOT
HETATM    1  C1  UNL     1      20.513  -6.976  83.862  1.00  0.00     0.161 C 
HETATM    2  N1  UNL     1      21.769  -7.592  84.160  1.00  0.00    -0.302 N 
HETATM    3  C2  UNL     1      22.472  -8.049  83.048  1.00  0.00     0.329 A 
HETATM    4  O1  UNL     1      22.098  -7.560  81.922  1.00  0.00    -0.246 OA
HETATM    5  N2  UNL     1      23.468  -8.927  83.103  1.00  0.00    -0.274 N 
ATOM      6  H2  UNL     1      23.943  -9.218  82.248  1.00  0.00     0.173 HD
HETATM    7  C3  UNL     1      23.841  -9.425  84.279  1.00  0.00     0.265 A 
HETATM    8  O2  UNL     1      24.773 -10.269  84.398  1.00  0.00    -0.267 OA
HETATM    9  C4  UNL     1      23.197  -9.011  85.410  1.00  0.00     0.104 A 
HETATM   10  C5  UNL     1      23.532  -9.587  86.625  1.00  0.00     0.120 A 
HETATM   11  N3  UNL     1      24.496 -10.406  86.588  1.00  0.00    -0.384 N 
ATOM     12  H31 UNL     1      24.743 -10.830  87.482  1.00  0.00     0.157 HD
ATOM     13  H32 UNL     1      24.967 -10.637  85.713  1.00  0.00     0.157 HD
HETATM   14  N4  UNL     1      22.906  -9.281  87.787  1.00  0.00    -0.322 N 
HETATM   15  C6  UNL     1      23.211  -9.996  88.979  1.00  0.00     0.159 C 
HETATM   16  C7  UNL     1      21.929  -8.355  87.733  1.00  0.00     0.129 A 
HETATM   17  C8  UNL     1      21.537  -7.727  86.511  1.00  0.00     0.088 A 
HETATM   18  C9  UNL     1      20.670  -6.692  86.499  1.00  0.00     0.206 A 
HETATM   19  O3  UNL     1      20.303  -6.042  85.570  1.00  0.00    -0.286 OA
HETATM   20  C10 UNL     1      20.115  -6.249  87.720  1.00  0.00     0.107 A 
HETATM   21  C11 UNL     1      19.198  -5.242  87.985  1.00  0.00     0.152 A 
HETATM   22  N5  UNL     1      18.571  -4.405  87.311  1.00  0.00    -0.290 N 
ATOM     23  H5  UNL     1      17.983  -3.836  87.920  1.00  0.00     0.188 HD
HETATM   24  N7  UNL     1      19.028  -5.285  89.354  1.00  0.00    -0.282 N 
ATOM     25  H7  UNL     1      18.417  -4.677  89.899  1.00  0.00     0.188 HD
HETATM   26  N8  UNL     1      19.803  -6.261  89.844  1.00  0.00    -0.283 N 
ATOM     27  H8  UNL     1      19.870  -6.510  90.831  1.00  0.00     0.188 HD
HETATM   28  C12 UNL     1      20.480  -6.867  88.858  1.00  0.00     0.141 A 
HETATM   29  N9  UNL     1      21.377  -7.906  88.886  1.00  0.00    -0.321 N 
HETATM   30  C13 UNL     1      21.757  -8.466  90.133  1.00  0.00     0.159 C 
HETATM   31  C14 UNL     1      22.160  -8.077  85.338  1.00  0.00     0.076 A 
ENDROOT
BRANCH  22  32
HETATM   32  N6  UNL     1      18.425  -4.016  86.038  1.00  0.00    -0.344 N 
ATOM     33  H62 UNL     1      19.274  -4.257  85.526  1.00  0.00     0.176 HD
ATOM     34  H61 UNL     1      17.739  -3.562  85.435  1.00  0.00     0.176 HD
ENDBRANCH  22  32
TORSDOF 1
ENDMDL
MODEL 4
REMARK VINA RESULT: -6.553175660      1.930      5.642
REMARK  1 active torsions:
REMARK  status: ('A' for Active; 'I' for Inactive)
REMARK    1  A    between atoms: N5_22  and  N6_24 
ROOT
HETATM    1  C1  UNL     1      20.556  -7.512  83.414  1.00  0.00     0.161 C 
HETATM    2  N1  UNL     1      21.633  -8.379  83.053  1.00  0.00    -0.302 N 
HETATM    3  C2  UNL     1      21.746  -8.629  81.688  1.00  0.00     0.329 A 
HETATM    4  O1  UNL     1      21.129  -7.803  80.924  1.00  0.00    -0.246 OA
HETATM    5  N2  UNL     1      22.435  -9.639  81.167  1.00  0.00    -0.274 N 
ATOM      6  H2  UNL     1      22.479  -9.763  80.155  1.00  0.00     0.173 HD
HETATM    7  C3  UNL     1      23.068 -10.487  81.974  1.00  0.00     0.265 A 
HETATM    8  O2  UNL     1      23.732 -11.471  81.543  1.00  0.00    -0.267 OA
HETATM    9  C4  UNL     1      23.003 -10.293  83.324  1.00  0.00     0.104 A 
HETATM   10  C5  UNL     1      23.596 -11.219  84.167  1.00  0.00     0.120 A 
HETATM   11  N3  UNL     1      24.239 -12.144  83.589  1.00  0.00    -0.384 N 
ATOM     12  H31 UNL     1      24.675 -12.826  84.209  1.00  0.00     0.157 HD
ATOM     13  H32 UNL     1      24.287 -12.205  82.571  1.00  0.00     0.157 HD
HETATM   14  N4  UNL     1      23.532 -11.139  85.518  1.00  0.00    -0.322 N 
HETATM   15  C6  UNL     1      24.054 -12.187  86.327  1.00  0.00     0.159 C 
HETATM   16  C7  UNL     1      22.872 -10.087  86.040  1.00  0.00     0.129 A 
HETATM   17  C8  UNL     1      22.239  -9.100  85.223  1.00  0.00     0.088 A 
HETATM   18  C9  UNL     1      21.721  -7.974  85.757  1.00  0.00     0.206 A 
HETATM   19  O3  UNL     1      21.221  -7.047  85.197  1.00  0.00    -0.286 OA
HETATM   20  C10 UNL     1      21.775  -7.790  87.157  1.00  0.00     0.107 A 
HETATM   21  C11 UNL     1      21.305  -6.756  87.953  1.00  0.00     0.152 A 
HETATM   22  N5  UNL     1      20.712  -5.679  87.762  1.00  0.00    -0.290 N 
ATOM     23  H5  UNL     1      20.550  -5.206  88.651  1.00  0.00     0.188 HD
HETATM   24  N7  UNL     1      21.636  -7.137  89.239  1.00  0.00    -0.282 N 
ATOM     25  H7  UNL     1      21.439  -6.606  90.088  1.00  0.00     0.188 HD
HETATM   26  N8  UNL     1      22.260  -8.320  89.180  1.00  0.00    -0.283 N 
ATOM     27  H8  UNL     1      22.613  -8.831  89.989  1.00  0.00     0.188 HD
HETATM   28  C12 UNL     1      22.357  -8.741  87.911  1.00  0.00     0.141 A 
HETATM   29  N9  UNL     1      22.907  -9.880  87.378  1.00  0.00    -0.321 N 
HETATM   30  C13 UNL     1      23.556 -10.808  88.234  1.00  0.00     0.159 C 
HETATM   31  C14 UNL     1      22.285  -9.219  83.856  1.00  0.00     0.076 A 
ENDROOT
BRANCH  22  32
HETATM   32  N6  UNL     1      20.221  -4.945  86.755  1.00  0.00    -0.344 N 
ATOM     33  H62 UNL     1      20.997  -4.480  86.284  1.00  0.00     0.176 HD
ATOM     34  H61 UNL     1      19.327  -4.713  86.324  1.00  0.00     0.176 HD
ENDBRANCH  22  32
TORSDOF 1
ENDMDL
MODEL 5
REMARK VINA RESULT: -6.533840651      1.418      1.734
REMARK  1 active torsions:
REMARK  status: ('A' for Active; 'I' for Inactive)
REMARK    1  A    between atoms: N5_22  and  N6_24 
ROOT
HETATM    1  C1  UNL     1      20.876  -6.806  83.827  1.00  0.00     0.161 C 
HETATM    2  N1  UNL     1      20.695  -6.906  85.242  1.00  0.00    -0.302 N 
HETATM    3  C2  UNL     1      20.139  -5.778  85.840  1.00  0.00     0.329 A 
HETATM    4  O1  UNL     1      19.549  -4.966  85.040  1.00  0.00    -0.246 OA
HETATM    5  N2  UNL     1      20.192  -5.519  87.142  1.00  0.00    -0.274 N 
ATOM      6  H2  UNL     1      19.761  -4.673  87.515  1.00  0.00     0.173 HD
HETATM    7  C3  UNL     1      20.810  -6.371  87.956  1.00  0.00     0.265 A 
HETATM    8  O2  UNL     1      20.902  -6.180  89.202  1.00  0.00    -0.267 OA
HETATM    9  C4  UNL     1      21.368  -7.503  87.434  1.00  0.00     0.104 A 
HETATM   10  C5  UNL     1      22.078  -8.351  88.269  1.00  0.00     0.120 A 
HETATM   11  N3  UNL     1      22.071  -8.035  89.495  1.00  0.00    -0.384 N 
ATOM     12  H31 UNL     1      22.593  -8.659  90.109  1.00  0.00     0.157 HD
ATOM     13  H32 UNL     1      21.592  -7.197  89.827  1.00  0.00     0.157 HD
HETATM   14  N4  UNL     1      22.715  -9.462  87.828  1.00  0.00    -0.322 N 
HETATM   15  C6  UNL     1      23.530 -10.224  88.711  1.00  0.00     0.159 C 
HETATM   16  C7  UNL     1      22.619  -9.744  86.514  1.00  0.00     0.129 A 
HETATM   17  C8  UNL     1      21.902  -8.909  85.603  1.00  0.00     0.088 A 
HETATM   18  C9  UNL     1      21.683  -9.288  84.326  1.00  0.00     0.206 A 
HETATM   19  O3  UNL     1      21.058  -8.724  83.481  1.00  0.00    -0.286 OA
HETATM   20  C10 UNL     1      22.207 -10.520  83.877  1.00  0.00     0.107 A 
HETATM   21  C11 UNL     1      22.151 -11.127  82.631  1.00  0.00     0.152 A 
HETATM   22  N5  UNL     1      21.654 -10.851  81.523  1.00  0.00    -0.290 N 
ATOM     23  H5  UNL     1      21.855 -11.595  80.855  1.00  0.00     0.188 HD
HETATM   24  N7  UNL     1      22.850 -12.307  82.793  1.00  0.00    -0.282 N 
ATOM     25  H7  UNL     1      23.011 -13.010  82.071  1.00  0.00     0.188 HD
HETATM   26  N8  UNL     1      23.280 -12.370  84.059  1.00  0.00    -0.283 N 
ATOM     27  H8  UNL     1      23.825 -13.139  84.449  1.00  0.00     0.188 HD
HETATM   28  C12 UNL     1      22.897 -11.284  84.744  1.00  0.00     0.141 A 
HETATM   29  N9  UNL     1      23.108 -10.920  86.051  1.00  0.00    -0.321 N 
HETATM   30  C13 UNL     1      23.795 -11.807  86.920  1.00  0.00     0.159 C 
HETATM   31  C14 UNL     1      21.294  -7.767  86.064  1.00  0.00     0.076 A 
ENDROOT
BRANCH  22  32
HETATM   32  N6  UNL     1      20.939  -9.885  80.933  1.00  0.00    -0.344 N 
ATOM     33  H62 UNL     1      19.979 -10.212  80.826  1.00  0.00     0.176 HD
ATOM     34  H61 UNL     1      21.058  -8.941  80.566  1.00  0.00     0.176 HD
ENDBRANCH  22  32
TORSDOF 1
ENDMDL
