MODEL 1
REMARK VINA RESULT: -9.895361681      0.000      0.000
REMARK  6 active torsions:
REMARK  status: ('A' for Active; 'I' for Inactive)
REMARK    1  A    between atoms: N1_1  and  C1_4 
REMARK    2  A    between atoms: N6_15  and  C4_16 
REMARK    3  A    between atoms: C4_16  and  O2_17 
REMARK    4  A    between atoms: C4_16  and  N7_19 
REMARK    5  A    between atoms: N7_19  and  N8_21 
REMARK    6  A    between atoms: C9_27  and  N9_28 
ROOT
HETATM    1  C1  UNL     1      21.811  -7.874  88.894  1.00  0.00     0.163 A 
HETATM    2  N2  UNL     1      21.220  -7.904  90.103  1.00  0.00    -0.268 N 
ATOM      3  H2  UNL     1      21.514  -8.494  90.881  1.00  0.00     0.190 HD
HETATM    4  N3  UNL     1      20.192  -7.048  90.140  1.00  0.00    -0.231 N 
ATOM      5  H3  UNL     1      19.580  -6.876  90.937  1.00  0.00     0.209 HD
HETATM    6  N4  UNL     1      20.115  -6.468  88.958  1.00  0.00    -0.201 N 
HETATM    7  C2  UNL     1      19.232  -5.548  88.524  1.00  0.00     0.167 A 
HETATM    8  N5  UNL     1      18.225  -5.040  89.232  1.00  0.00    -0.290 N 
ATOM      9  H5  UNL     1      18.104  -5.346  90.197  1.00  0.00     0.172 HD
HETATM   10  C3  UNL     1      17.341  -4.121  88.718  1.00  0.00     0.337 A 
HETATM   11  O1  UNL     1      16.425  -3.713  89.488  1.00  0.00    -0.246 OA
HETATM   12  N6  UNL     1      17.424  -3.665  87.467  1.00  0.00    -0.210 N 
HETATM   13  C9  UNL     1      18.461  -4.169  86.699  1.00  0.00     0.145 A 
HETATM   14  C10 UNL     1      19.367  -5.081  87.148  1.00  0.00     0.139 A 
HETATM   15  N10 UNL     1      20.360  -5.595  86.411  1.00  0.00    -0.292 N 
ATOM     16  H10 UNL     1      20.473  -5.281  85.447  1.00  0.00     0.187 HD
HETATM   17  N11 UNL     1      21.196  -6.496  86.893  1.00  0.00    -0.280 N 
ATOM     18  H11 UNL     1      21.935  -6.856  86.289  1.00  0.00     0.188 HD
HETATM   19  C11 UNL     1      21.108  -6.954  88.148  1.00  0.00     0.190 A 
ENDROOT
BRANCH  12  20
HETATM   20  C4  UNL     1      16.523  -2.767  86.856  1.00  0.00     0.249 C 
BRANCH  20  21
HETATM   21  O2  UNL     1      15.793  -3.247  85.877  1.00  0.00    -0.331 OA
ATOM     22  H2  UNL     1      14.921  -2.882  85.781  1.00  0.00     0.221 HD
ENDBRANCH  20  21
BRANCH  20  23
HETATM   23  N7  UNL     1      16.313  -1.425  87.174  1.00  0.00    -0.259 N 
ATOM     24  H7  UNL     1      16.947  -0.728  86.784  1.00  0.00     0.191 HD
BRANCH  23  25
HETATM   25  N8  UNL     1      15.277  -0.995  87.999  1.00  0.00    -0.279 N 
HETATM   26  C5  UNL     1      14.060  -1.674  87.944  1.00  0.00     0.114 C 
HETATM   27  C6  UNL     1      13.003  -1.147  88.891  1.00  0.00     0.214 C 
HETATM   28  O3  UNL     1      13.539  -0.712  90.097  1.00  0.00    -0.381 OA
HETATM   29  C7  UNL     1      14.368   0.369  89.807  1.00  0.00     0.214 C 
HETATM   30  C8  UNL     1      15.575  -0.160  89.071  1.00  0.00     0.114 C 
ENDBRANCH  23  25
ENDBRANCH  20  23
ENDBRANCH  12  20
BRANCH  13  31
HETATM   31  N9  UNL     1      18.587  -3.760  85.492  1.00  0.00    -0.383 N 
ATOM     32  H92 UNL     1      17.785  -3.874  84.874  1.00  0.00     0.157 HD
ATOM     33  H91 UNL     1      19.473  -3.345  85.206  1.00  0.00     0.157 HD
ENDBRANCH  13  31
BRANCH   1  34
HETATM   34  N1  UNL     1      22.824  -8.560  88.476  1.00  0.00    -0.381 N 
ATOM     35  H12 UNL     1      22.908  -8.986  87.554  1.00  0.00     0.157 HD
ATOM     36  H11 UNL     1      23.680  -8.795  88.976  1.00  0.00     0.157 HD
ENDBRANCH   1  34
TORSDOF 6
ENDMDL
MODEL 2
REMARK VINA RESULT: -9.105401878      1.037      2.476
REMARK  6 active torsions:
REMARK  status: ('A' for Active; 'I' for Inactive)
REMARK    1  A    between atoms: N1_1  and  C1_4 
REMARK    2  A    between atoms: N6_15  and  C4_16 
REMARK    3  A    between atoms: C4_16  and  O2_17 
REMARK    4  A    between atoms: C4_16  and  N7_19 
REMARK    5  A    between atoms: N7_19  and  N8_21 
REMARK    6  A    between atoms: C9_27  and  N9_28 
ROOT
HETATM    1  C1  UNL     1      22.569  -8.504  87.659  1.00  0.00     0.163 A 
HETATM    2  N2  UNL     1      22.532  -8.182  86.352  1.00  0.00    -0.268 N 
ATOM      3  H2  UNL     1      23.138  -8.581  85.636  1.00  0.00     0.190 HD
HETATM    4  N3  UNL     1      21.586  -7.262  86.127  1.00  0.00    -0.231 N 
ATOM      5  H3  UNL     1      21.351  -6.848  85.225  1.00  0.00     0.209 HD
HETATM    6  N4  UNL     1      21.015  -6.987  87.283  1.00  0.00    -0.201 N 
HETATM    7  C2  UNL     1      20.024  -6.115  87.549  1.00  0.00     0.167 A 
HETATM    8  N5  UNL     1      19.419  -5.327  86.662  1.00  0.00    -0.290 N 
ATOM      9  H5  UNL     1      19.703  -5.387  85.685  1.00  0.00     0.172 HD
HETATM   10  C3  UNL     1      18.430  -4.437  87.007  1.00  0.00     0.337 A 
HETATM   11  O1  UNL     1      17.933  -3.743  86.075  1.00  0.00    -0.246 OA
HETATM   12  N6  UNL     1      17.997  -4.293  88.261  1.00  0.00    -0.210 N 
HETATM   13  C9  UNL     1      18.601  -5.098  89.213  1.00  0.00     0.145 A 
HETATM   14  C10 UNL     1      19.585  -5.997  88.937  1.00  0.00     0.139 A 
HETATM   15  N10 UNL     1      20.195  -6.764  89.849  1.00  0.00    -0.292 N 
ATOM     16  H10 UNL     1      19.903  -6.698  90.824  1.00  0.00     0.187 HD
HETATM   17  N11 UNL     1      21.163  -7.603  89.527  1.00  0.00    -0.280 N 
ATOM     18  H11 UNL     1      21.594  -8.163  90.261  1.00  0.00     0.188 HD
HETATM   19  C11 UNL     1      21.597  -7.742  88.268  1.00  0.00     0.190 A 
ENDROOT
BRANCH  12  20
HETATM   20  C4  UNL     1      17.029  -3.364  88.697  1.00  0.00     0.249 C 
BRANCH  20  21
HETATM   21  O2  UNL     1      16.427  -3.635  89.831  1.00  0.00    -0.331 OA
ATOM     22  H2  UNL     1      15.638  -3.142  90.020  1.00  0.00     0.221 HD
ENDBRANCH  20  21
BRANCH  20  23
HETATM   23  N7  UNL     1      16.637  -2.184  88.064  1.00  0.00    -0.259 N 
ATOM     24  H7  UNL     1      17.217  -1.821  87.308  1.00  0.00     0.191 HD
BRANCH  23  25
HETATM   25  N8  UNL     1      15.489  -1.478  88.418  1.00  0.00    -0.279 N 
HETATM   26  C5  UNL     1      14.250  -1.999  88.045  1.00  0.00     0.114 C 
HETATM   27  C6  UNL     1      13.062  -1.173  88.492  1.00  0.00     0.214 C 
HETATM   28  O3  UNL     1      13.260  -0.587  89.736  1.00  0.00    -0.381 OA
HETATM   29  C7  UNL     1      14.319   0.308  89.601  1.00  0.00     0.214 C 
HETATM   30  C8  UNL     1      15.580  -0.499  89.401  1.00  0.00     0.114 C 
ENDBRANCH  23  25
ENDBRANCH  20  23
ENDBRANCH  12  20
BRANCH  13  31
HETATM   31  N9  UNL     1      18.218  -5.002  90.432  1.00  0.00    -0.383 N 
ATOM     32  H92 UNL     1      18.696  -4.318  91.019  1.00  0.00     0.157 HD
ATOM     33  H91 UNL     1      17.463  -5.604  90.756  1.00  0.00     0.157 HD
ENDBRANCH  13  31
BRANCH   1  34
HETATM   34  N1  UNL     1      23.348  -9.344  88.258  1.00  0.00    -0.381 N 
ATOM     35  H12 UNL     1      23.614 -10.261  87.901  1.00  0.00     0.157 HD
ATOM     36  H11 UNL     1      23.810  -9.246  89.162  1.00  0.00     0.157 HD
ENDBRANCH   1  34
TORSDOF 6
ENDMDL
MODEL 3
REMARK VINA RESULT: -9.039412221      1.136      2.196
REMARK  6 active torsions:
REMARK  status: ('A' for Active; 'I' for Inactive)
REMARK    1  A    between atoms: N1_1  and  C1_4 
REMARK    2  A    between atoms: N6_15  and  C4_16 
REMARK    3  A    between atoms: C4_16  and  O2_17 
REMARK    4  A    between atoms: C4_16  and  N7_19 
REMARK    5  A    between atoms: N7_19  and  N8_21 
REMARK    6  A    between atoms: C9_27  and  N9_28 
ROOT
HETATM    1  C1  UNL     1      21.358  -7.443  89.433  1.00  0.00     0.163 A 
HETATM    2  N2  UNL     1      22.040  -7.314  88.280  1.00  0.00    -0.268 N 
ATOM      3  H2  UNL     1      22.930  -7.767  88.076  1.00  0.00     0.190 HD
HETATM    4  N3  UNL     1      21.384  -6.505  87.440  1.00  0.00    -0.231 N 
ATOM      5  H3  UNL     1      21.683  -6.241  86.501  1.00  0.00     0.209 HD
HETATM    6  N4  UNL     1      20.283  -6.109  88.046  1.00  0.00    -0.201 N 
HETATM    7  C2  UNL     1      19.321  -5.280  87.597  1.00  0.00     0.167 A 
HETATM    8  N5  UNL     1      19.308  -4.672  86.413  1.00  0.00    -0.290 N 
ATOM      9  H5  UNL     1      20.075  -4.850  85.765  1.00  0.00     0.172 HD
HETATM   10  C3  UNL     1      18.306  -3.814  86.026  1.00  0.00     0.337 A 
HETATM   11  O1  UNL     1      18.405  -3.296  84.877  1.00  0.00    -0.246 OA
HETATM   12  N6  UNL     1      17.265  -3.524  86.809  1.00  0.00    -0.210 N 
HETATM   13  C9  UNL     1      17.242  -4.141  88.050  1.00  0.00     0.145 A 
HETATM   14  C10 UNL     1      18.203  -4.997  88.492  1.00  0.00     0.139 A 
HETATM   15  N10 UNL     1      18.207  -5.581  89.697  1.00  0.00    -0.292 N 
ATOM     16  H10 UNL     1      17.435  -5.398  90.337  1.00  0.00     0.187 HD
HETATM   17  N11 UNL     1      19.180  -6.387  90.082  1.00  0.00    -0.280 N 
ATOM     18  H11 UNL     1      19.135  -6.805  91.011  1.00  0.00     0.188 HD
HETATM   19  C11 UNL     1      20.224  -6.673  89.295  1.00  0.00     0.190 A 
ENDROOT
BRANCH  12  20
HETATM   20  C4  UNL     1      16.231  -2.613  86.503  1.00  0.00     0.249 C 
BRANCH  20  21
HETATM   21  O2  UNL     1      15.285  -3.049  85.706  1.00  0.00    -0.331 OA
ATOM     22  H2  UNL     1      15.534  -3.217  84.805  1.00  0.00     0.221 HD
ENDBRANCH  20  21
BRANCH  20  23
HETATM   23  N7  UNL     1      16.094  -1.300  86.952  1.00  0.00    -0.259 N 
ATOM     24  H7  UNL     1      16.727  -0.590  86.584  1.00  0.00     0.191 HD
BRANCH  23  25
HETATM   25  N8  UNL     1      15.131  -0.913  87.882  1.00  0.00    -0.279 N 
HETATM   26  C5  UNL     1      13.893  -1.554  87.858  1.00  0.00     0.114 C 
HETATM   27  C6  UNL     1      12.920  -1.081  88.918  1.00  0.00     0.214 C 
HETATM   28  O3  UNL     1      13.551  -0.763  90.114  1.00  0.00    -0.381 OA
HETATM   29  C7  UNL     1      14.391   0.318  89.855  1.00  0.00     0.214 C 
HETATM   30  C8  UNL     1      15.528  -0.179  88.994  1.00  0.00     0.114 C 
ENDBRANCH  23  25
ENDBRANCH  20  23
ENDBRANCH  12  20
BRANCH  13  31
HETATM   31  N9  UNL     1      16.262  -3.899  88.838  1.00  0.00    -0.383 N 
ATOM     32  H92 UNL     1      15.333  -4.184  88.530  1.00  0.00     0.157 HD
ATOM     33  H91 UNL     1      16.452  -3.437  89.727  1.00  0.00     0.157 HD
ENDBRANCH  13  31
BRANCH   1  34
HETATM   34  N1  UNL     1      21.672  -8.131  90.481  1.00  0.00    -0.381 N 
ATOM     35  H12 UNL     1      22.576  -8.109  90.953  1.00  0.00     0.157 HD
ATOM     36  H11 UNL     1      21.099  -8.798  90.997  1.00  0.00     0.157 HD
ENDBRANCH   1  34
TORSDOF 6
ENDMDL
MODEL 4
REMARK VINA RESULT: -8.991661873      1.269      1.562
REMARK  6 active torsions:
REMARK  status: ('A' for Active; 'I' for Inactive)
REMARK    1  A    between atoms: N1_1  and  C1_4 
REMARK    2  A    between atoms: N6_15  and  C4_16 
REMARK    3  A    between atoms: C4_16  and  O2_17 
REMARK    4  A    between atoms: C4_16  and  N7_19 
REMARK    5  A    between atoms: N7_19  and  N8_21 
REMARK    6  A    between atoms: C9_27  and  N9_28 
ROOT
HETATM    1  C1  UNL     1      22.178  -7.984  88.395  1.00  0.00     0.163 A 
HETATM    2  N2  UNL     1      21.951  -8.244  89.696  1.00  0.00    -0.268 N 
ATOM      3  H2  UNL     1      22.479  -8.912  90.258  1.00  0.00     0.190 HD
HETATM    4  N3  UNL     1      20.935  -7.500  90.149  1.00  0.00    -0.231 N 
ATOM      5  H3  UNL     1      20.562  -7.502  91.098  1.00  0.00     0.209 HD
HETATM    6  N4  UNL     1      20.503  -6.763  89.144  1.00  0.00    -0.201 N 
HETATM    7  C2  UNL     1      19.491  -5.875  89.122  1.00  0.00     0.167 A 
HETATM    8  N5  UNL     1      18.699  -5.569  90.148  1.00  0.00    -0.290 N 
ATOM      9  H5  UNL     1      18.868  -6.023  91.045  1.00  0.00     0.172 HD
HETATM   10  C3  UNL     1      17.664  -4.670  90.049  1.00  0.00     0.337 A 
HETATM   11  O1  UNL     1      16.982  -4.464  91.093  1.00  0.00    -0.246 OA
HETATM   12  N6  UNL     1      17.372  -4.031  88.915  1.00  0.00    -0.210 N 
HETATM   13  C9  UNL     1      18.176  -4.321  87.824  1.00  0.00     0.145 A 
HETATM   14  C10 UNL     1      19.214  -5.201  87.856  1.00  0.00     0.139 A 
HETATM   15  N10 UNL     1      19.984  -5.510  86.806  1.00  0.00    -0.292 N 
ATOM     16  H10 UNL     1      19.808  -5.050  85.912  1.00  0.00     0.187 HD
HETATM   17  N11 UNL     1      20.964  -6.392  86.889  1.00  0.00    -0.280 N 
ATOM     18  H11 UNL     1      21.520  -6.591  86.058  1.00  0.00     0.188 HD
HETATM   19  C11 UNL     1      21.252  -7.033  88.028  1.00  0.00     0.190 A 
ENDROOT
BRANCH  12  20
HETATM   20  C4  UNL     1      16.294  -3.140  88.725  1.00  0.00     0.249 C 
BRANCH  20  21
HETATM   21  O2  UNL     1      15.695  -3.186  87.559  1.00  0.00    -0.331 OA
ATOM     22  H2  UNL     1      15.847  -2.453  86.975  1.00  0.00     0.221 HD
ENDBRANCH  20  21
BRANCH  20  23
HETATM   23  N7  UNL     1      15.785  -2.214  89.637  1.00  0.00    -0.259 N 
ATOM     24  H7  UNL     1      16.085  -2.275  90.609  1.00  0.00     0.191 HD
BRANCH  23  25
HETATM   25  N8  UNL     1      14.887  -1.212  89.279  1.00  0.00    -0.279 N 
HETATM   26  C5  UNL     1      15.395  -0.020  88.764  1.00  0.00     0.114 C 
HETATM   27  C6  UNL     1      14.342   1.000  88.385  1.00  0.00     0.214 C 
HETATM   28  O3  UNL     1      13.197   0.413  87.863  1.00  0.00    -0.381 OA
HETATM   29  C7  UNL     1      12.636  -0.359  88.878  1.00  0.00     0.214 C 
HETATM   30  C8  UNL     1      13.546  -1.541  89.115  1.00  0.00     0.114 C 
ENDBRANCH  23  25
ENDBRANCH  20  23
ENDBRANCH  12  20
BRANCH  13  31
HETATM   31  N9  UNL     1      17.940  -3.731  86.713  1.00  0.00    -0.383 N 
ATOM     32  H92 UNL     1      17.025  -3.296  86.599  1.00  0.00     0.157 HD
ATOM     33  H91 UNL     1      18.668  -3.722  85.999  1.00  0.00     0.157 HD
ENDBRANCH  13  31
BRANCH   1  34
HETATM   34  N1  UNL     1      23.065  -8.507  87.613  1.00  0.00    -0.381 N 
ATOM     35  H12 UNL     1      24.074  -8.402  87.712  1.00  0.00     0.157 HD
ATOM     36  H11 UNL     1      22.920  -9.087  86.788  1.00  0.00     0.157 HD
ENDBRANCH   1  34
TORSDOF 6
ENDMDL
MODEL 5
REMARK VINA RESULT: -8.781775960      3.213      8.035
REMARK  6 active torsions:
REMARK  status: ('A' for Active; 'I' for Inactive)
REMARK    1  A    between atoms: N1_1  and  C1_4 
REMARK    2  A    between atoms: N6_15  and  C4_16 
REMARK    3  A    between atoms: C4_16  and  O2_17 
REMARK    4  A    between atoms: C4_16  and  N7_19 
REMARK    5  A    between atoms: N7_19  and  N8_21 
REMARK    6  A    between atoms: C9_27  and  N9_28 
ROOT
HETATM    1  C1  UNL     1      15.242  -1.938  88.594  1.00  0.00     0.163 A 
HETATM    2  N2  UNL     1      15.445  -1.587  87.311  1.00  0.00    -0.268 N 
ATOM      3  H2  UNL     1      14.889  -0.903  86.799  1.00  0.00     0.190 HD
HETATM    4  N3  UNL     1      16.480  -2.266  86.801  1.00  0.00    -0.231 N 
ATOM      5  H3  UNL     1      16.844  -2.187  85.852  1.00  0.00     0.209 HD
HETATM    6  N4  UNL     1      16.945  -3.054  87.750  1.00  0.00    -0.201 N 
HETATM    7  C2  UNL     1      17.968  -3.928  87.697  1.00  0.00     0.167 A 
HETATM    8  N5  UNL     1      18.726  -4.177  86.631  1.00  0.00    -0.290 N 
ATOM      9  H5  UNL     1      18.545  -3.658  85.773  1.00  0.00     0.172 HD
HETATM   10  C3  UNL     1      19.741  -5.104  86.638  1.00  0.00     0.337 A 
HETATM   11  O1  UNL     1      20.389  -5.252  85.563  1.00  0.00    -0.246 OA
HETATM   12  N6  UNL     1      20.046  -5.829  87.716  1.00  0.00    -0.210 N 
HETATM   13  C9  UNL     1      19.281  -5.596  88.847  1.00  0.00     0.145 A 
HETATM   14  C10 UNL     1      18.263  -4.695  88.905  1.00  0.00     0.139 A 
HETATM   15  N10 UNL     1      17.499  -4.476  89.982  1.00  0.00    -0.292 N 
ATOM     16  H10 UNL     1      17.689  -5.000  90.837  1.00  0.00     0.187 HD
HETATM   17  N11 UNL     1      16.507  -3.604  89.974  1.00  0.00    -0.280 N 
ATOM     18  H11 UNL     1      15.955  -3.476  90.822  1.00  0.00     0.188 HD
HETATM   19  C11 UNL     1      16.201  -2.881  88.889  1.00  0.00     0.190 A 
ENDROOT
BRANCH  12  20
HETATM   20  C4  UNL     1      21.034  -6.834  87.780  1.00  0.00     0.249 C 
BRANCH  20  21
HETATM   21  O2  UNL     1      22.113  -6.551  88.470  1.00  0.00    -0.331 OA
ATOM     22  H2  UNL     1      22.472  -7.251  89.002  1.00  0.00     0.221 HD
ENDBRANCH  20  21
BRANCH  20  23
HETATM   23  N7  UNL     1      20.997  -8.102  87.198  1.00  0.00    -0.259 N 
ATOM     24  H7  UNL     1      20.629  -8.879  87.746  1.00  0.00     0.191 HD
BRANCH  23  25
HETATM   25  N8  UNL     1      21.439  -8.355  85.901  1.00  0.00    -0.279 N 
HETATM   26  C5  UNL     1      22.784  -8.669  85.710  1.00  0.00     0.114 C 
HETATM   27  C6  UNL     1      23.165  -8.948  84.270  1.00  0.00     0.214 C 
HETATM   28  O3  UNL     1      22.159  -9.602  83.571  1.00  0.00    -0.381 OA
HETATM   29  C7  UNL     1      21.070  -8.734  83.519  1.00  0.00     0.214 C 
HETATM   30  C8  UNL     1      20.499  -8.626  84.913  1.00  0.00     0.114 C 
ENDBRANCH  23  25
ENDBRANCH  20  23
ENDBRANCH  12  20
BRANCH  13  31
HETATM   31  N9  UNL     1      19.537  -6.263  89.910  1.00  0.00    -0.383 N 
ATOM     32  H92 UNL     1      19.377  -5.798  90.803  1.00  0.00     0.157 HD
ATOM     33  H91 UNL     1      19.886  -7.216  89.817  1.00  0.00     0.157 HD
ENDBRANCH  13  31
BRANCH   1  34
HETATM   34  N1  UNL     1      14.338  -1.508  89.412  1.00  0.00    -0.381 N 
ATOM     35  H12 UNL     1      14.290  -0.565  89.797  1.00  0.00     0.157 HD
ATOM     36  H11 UNL     1      13.548  -2.016  89.808  1.00  0.00     0.157 HD
ENDBRANCH   1  34
TORSDOF 6
ENDMDL
