MODEL 1
REMARK VINA RESULT: -8.324373497      0.000      0.000
REMARK  6 active torsions:
REMARK  status: ('A' for Active; 'I' for Inactive)
REMARK    1  A    between atoms: N1_1  and  C1_4 
REMARK    2  A    between atoms: C4_15  and  N6_16 
REMARK    3  A    between atoms: N6_16  and  C5_18 
REMARK    4  A    between atoms: N9_27  and  O1_28 
REMARK    5  A    between atoms: O1_28  and  S1_29 
REMARK    6  A    between atoms: S1_29  and  N10_30 
ROOT
HETATM    1  C1  UNL     1      21.390  -7.574  89.081  1.00  0.00     0.692 A 
HETATM    2  N2  UNL     1      21.213  -6.979  87.881  1.00  0.00    -0.169 N 
ATOM      3  H2  UNL     1      21.844  -7.224  87.118  1.00  0.00     0.186 HD
HETATM    4  C2  UNL     1      20.242  -6.078  87.645  1.00  0.00     0.214 A 
HETATM    5  C3  UNL     1      19.411  -5.778  88.711  1.00  0.00     0.184 A 
HETATM    6  N3  UNL     1      19.610  -6.387  89.895  1.00  0.00    -0.268 N 
ATOM      7  H3  UNL     1      18.986  -6.153  90.667  1.00  0.00     0.189 HD
HETATM    8  N4  UNL     1      20.568  -7.269  90.112  1.00  0.00    -0.131 N 
ATOM      9  H4  UNL     1      20.685  -7.707  91.027  1.00  0.00     0.205 HD
HETATM   10  N5  UNL     1      18.538  -4.871  88.239  1.00  0.00    -0.169 N 
ATOM     11  H5  UNL     1      17.785  -4.441  88.777  1.00  0.00     0.186 HD
HETATM   12  C4  UNL     1      18.813  -4.619  86.946  1.00  0.00     0.728 A 
HETATM   13  N9  UNL     1      19.853  -5.351  86.572  1.00  0.00    -0.010 N 
ENDROOT
BRANCH  12  14
HETATM   14  N6  UNL     1      18.183  -3.797  86.154  1.00  0.00    -0.020 N 
ATOM     15  H6  UNL     1      18.429  -3.750  85.166  1.00  0.00     0.203 HD
BRANCH  14  16
HETATM   16  C5  UNL     1      17.144  -2.956  86.677  1.00  0.00     0.688 C 
HETATM   17  N7  UNL     1      15.931  -3.240  86.365  1.00  0.00    -0.226 N 
HETATM   18  C6  UNL     1      14.665  -2.634  86.696  1.00  0.00     0.138 C 
ATOM     19  H7  UNL     1      15.847  -4.058  85.761  1.00  0.00     0.177 HD
HETATM   20  C7  UNL     1      14.663  -2.035  88.067  1.00  0.00     0.022 C 
HETATM   21  C8  UNL     1      15.491  -0.761  88.075  1.00  0.00     0.022 C 
HETATM   22  C9  UNL     1      16.885  -1.152  88.518  1.00  0.00     0.138 C 
HETATM   23  N8  UNL     1      17.594  -1.886  87.495  1.00  0.00    -0.226 N 
ATOM     24  H8  UNL     1      18.558  -1.593  87.338  1.00  0.00     0.177 HD
ENDBRANCH  14  16
ENDBRANCH  12  14
BRANCH  13  25
HETATM   25  O1  UNL     1      20.439  -5.378  85.326  1.00  0.00    -0.111 OA
BRANCH  25  26
HETATM   26  S1  UNL     1      20.678  -6.905  84.608  1.00  0.00     0.377 S 
HETATM   27  O2  UNL     1      20.206  -6.922  83.191  1.00  0.00    -0.174 OA
HETATM   28  O3  UNL     1      19.842  -7.888  85.381  1.00  0.00    -0.174 OA
BRANCH  26  29
HETATM   29  N10 UNL     1      22.345  -7.351  84.607  1.00  0.00    -0.304 N 
ATOM     30 2H10 UNL     1      23.085  -6.762  84.990  1.00  0.00     0.171 HD
ATOM     31 1H10 UNL     1      22.488  -8.267  84.180  1.00  0.00     0.171 HD
ENDBRANCH  26  29
ENDBRANCH  25  26
ENDBRANCH  13  25
BRANCH   1  32
HETATM   32  N1  UNL     1      22.340  -8.434  89.252  1.00  0.00    -0.233 N 
ATOM     33  H12 UNL     1      22.348  -9.018  90.088  1.00  0.00     0.174 HD
ATOM     34  H11 UNL     1      23.080  -8.531  88.557  1.00  0.00     0.174 HD
ENDBRANCH   1  32
TORSDOF 6
ENDMDL
MODEL 2
REMARK VINA RESULT: -8.120431683      2.688      3.878
REMARK  6 active torsions:
REMARK  status: ('A' for Active; 'I' for Inactive)
REMARK    1  A    between atoms: N1_1  and  C1_4 
REMARK    2  A    between atoms: C4_15  and  N6_16 
REMARK    3  A    between atoms: N6_16  and  C5_18 
REMARK    4  A    between atoms: N9_27  and  O1_28 
REMARK    5  A    between atoms: O1_28  and  S1_29 
REMARK    6  A    between atoms: S1_29  and  N10_30 
ROOT
HETATM    1  C1  UNL     1      20.845  -7.359  89.767  1.00  0.00     0.692 A 
HETATM    2  N2  UNL     1      19.692  -6.696  89.524  1.00  0.00    -0.169 N 
ATOM      3  H2  UNL     1      18.919  -6.809  90.180  1.00  0.00     0.186 HD
HETATM    4  C2  UNL     1      19.518  -5.896  88.458  1.00  0.00     0.214 A 
HETATM    5  C3  UNL     1      20.596  -5.775  87.598  1.00  0.00     0.184 A 
HETATM    6  N3  UNL     1      21.732  -6.446  87.864  1.00  0.00    -0.268 N 
ATOM      7  H3  UNL     1      22.514  -6.343  87.219  1.00  0.00     0.189 HD
HETATM    8  N4  UNL     1      21.889  -7.230  88.915  1.00  0.00    -0.131 N 
ATOM      9  H4  UNL     1      22.768  -7.721  89.080  1.00  0.00     0.205 HD
HETATM   10  N5  UNL     1      20.187  -4.938  86.627  1.00  0.00    -0.169 N 
ATOM     11  H5  UNL     1      20.750  -4.638  85.832  1.00  0.00     0.186 HD
HETATM   12  C4  UNL     1      18.920  -4.559  86.872  1.00  0.00     0.728 A 
HETATM   13  N9  UNL     1      18.500  -5.137  87.988  1.00  0.00    -0.010 N 
ENDROOT
BRANCH  12  14
HETATM   14  N6  UNL     1      18.188  -3.754  86.154  1.00  0.00    -0.020 N 
ATOM     15  H6  UNL     1      18.327  -3.700  85.145  1.00  0.00     0.203 HD
BRANCH  14  16
HETATM   16  C5  UNL     1      17.185  -2.943  86.785  1.00  0.00     0.688 C 
HETATM   17  N7  UNL     1      17.579  -1.928  87.466  1.00  0.00    -0.226 N 
HETATM   18  C6  UNL     1      16.875  -0.918  88.217  1.00  0.00     0.138 C 
ATOM     19  H7  UNL     1      18.593  -1.813  87.477  1.00  0.00     0.177 HD
HETATM   20  C7  UNL     1      15.544  -0.588  87.617  1.00  0.00     0.022 C 
HETATM   21  C8  UNL     1      14.569  -1.725  87.869  1.00  0.00     0.022 C 
HETATM   22  C9  UNL     1      14.620  -2.619  86.647  1.00  0.00     0.138 C 
HETATM   23  N8  UNL     1      15.848  -3.375  86.577  1.00  0.00    -0.226 N 
ATOM     24  H8  UNL     1      15.740  -4.362  86.345  1.00  0.00     0.177 HD
ENDBRANCH  14  16
ENDBRANCH  12  14
BRANCH  13  25
HETATM   25  O1  UNL     1      17.261  -5.002  88.574  1.00  0.00    -0.111 OA
BRANCH  25  26
HETATM   26  S1  UNL     1      17.212  -4.411  90.171  1.00  0.00     0.377 S 
HETATM   27  O2  UNL     1      16.504  -3.098  90.247  1.00  0.00    -0.174 OA
HETATM   28  O3  UNL     1      18.637  -4.188  90.600  1.00  0.00    -0.174 OA
BRANCH  26  29
HETATM   29  N10 UNL     1      16.395  -5.506  91.227  1.00  0.00    -0.304 N 
ATOM     30 2H10 UNL     1      16.878  -6.183  91.817  1.00  0.00     0.171 HD
ATOM     31 1H10 UNL     1      15.383  -5.385  91.181  1.00  0.00     0.171 HD
ENDBRANCH  26  29
ENDBRANCH  25  26
ENDBRANCH  13  25
BRANCH   1  32
HETATM   32  N1  UNL     1      20.958  -8.117  90.808  1.00  0.00    -0.233 N 
ATOM     33  H12 UNL     1      21.873  -8.252  91.237  1.00  0.00     0.174 HD
ATOM     34  H11 UNL     1      20.139  -8.579  91.202  1.00  0.00     0.174 HD
ENDBRANCH   1  32
TORSDOF 6
ENDMDL
MODEL 3
REMARK VINA RESULT: -7.949721841      2.944      5.892
REMARK  6 active torsions:
REMARK  status: ('A' for Active; 'I' for Inactive)
REMARK    1  A    between atoms: N1_1  and  C1_4 
REMARK    2  A    between atoms: C4_15  and  N6_16 
REMARK    3  A    between atoms: N6_16  and  C5_18 
REMARK    4  A    between atoms: N9_27  and  O1_28 
REMARK    5  A    between atoms: O1_28  and  S1_29 
REMARK    6  A    between atoms: S1_29  and  N10_30 
ROOT
HETATM    1  C1  UNL     1      17.587  -4.619  90.390  1.00  0.00     0.692 A 
HETATM    2  N2  UNL     1      18.759  -5.096  89.916  1.00  0.00    -0.169 N 
ATOM      3  H2  UNL     1      19.418  -5.510  90.576  1.00  0.00     0.186 HD
HETATM    4  C2  UNL     1      19.098  -5.049  88.615  1.00  0.00     0.214 A 
HETATM    5  C3  UNL     1      18.171  -4.477  87.761  1.00  0.00     0.184 A 
HETATM    6  N3  UNL     1      17.012  -4.012  88.259  1.00  0.00    -0.268 N 
ATOM      7  H3  UNL     1      16.342  -3.595  87.613  1.00  0.00     0.189 HD
HETATM    8  N4  UNL     1      16.692  -4.064  89.540  1.00  0.00    -0.131 N 
ATOM      9  H4  UNL     1      15.801  -3.698  89.877  1.00  0.00     0.205 HD
HETATM   10  N5  UNL     1      18.725  -4.544  86.537  1.00  0.00    -0.169 N 
ATOM     11  H5  UNL     1      18.297  -4.207  85.676  1.00  0.00     0.186 HD
HETATM   12  C4  UNL     1      19.935  -5.127  86.628  1.00  0.00     0.728 A 
HETATM   13  N9  UNL     1      20.174  -5.439  87.893  1.00  0.00    -0.010 N 
ENDROOT
BRANCH  12  14
HETATM   14  N6  UNL     1      20.768  -5.364  85.653  1.00  0.00    -0.020 N 
ATOM     15  H6  UNL     1      21.307  -4.601  85.244  1.00  0.00     0.203 HD
BRANCH  14  16
HETATM   16  C5  UNL     1      20.926  -6.702  85.157  1.00  0.00     0.688 C 
HETATM   17  N7  UNL     1      20.164  -7.075  84.193  1.00  0.00    -0.226 N 
HETATM   18  C6  UNL     1      20.043  -8.312  83.461  1.00  0.00     0.138 C 
ATOM     19  H7  UNL     1      19.515  -6.351  83.882  1.00  0.00     0.177 HD
HETATM   20  C7  UNL     1      21.355  -9.019  83.318  1.00  0.00     0.022 C 
HETATM   21  C8  UNL     1      21.762  -9.625  84.650  1.00  0.00     0.022 C 
HETATM   22  C9  UNL     1      22.662  -8.615  85.330  1.00  0.00     0.138 C 
HETATM   23  N8  UNL     1      21.927  -7.468  85.809  1.00  0.00    -0.226 N 
ATOM     24  H8  UNL     1      22.162  -7.164  86.755  1.00  0.00     0.177 HD
ENDBRANCH  14  16
ENDBRANCH  12  14
BRANCH  13  25
HETATM   25  O1  UNL     1      21.302  -6.049  88.396  1.00  0.00    -0.111 OA
BRANCH  25  26
HETATM   26  S1  UNL     1      21.145  -7.656  88.941  1.00  0.00     0.377 S 
HETATM   27  O2  UNL     1      22.362  -8.461  88.627  1.00  0.00    -0.174 OA
HETATM   28  O3  UNL     1      19.989  -8.262  88.192  1.00  0.00    -0.174 OA
BRANCH  26  29
HETATM   29  N10 UNL     1      20.900  -7.724  90.649  1.00  0.00    -0.304 N 
ATOM     30 2H10 UNL     1      20.632  -8.573  91.145  1.00  0.00     0.171 HD
ATOM     31 1H10 UNL     1      21.058  -6.815  91.086  1.00  0.00     0.171 HD
ENDBRANCH  26  29
ENDBRANCH  25  26
ENDBRANCH  13  25
BRANCH   1  32
HETATM   32  N1  UNL     1      17.312  -4.690  91.651  1.00  0.00    -0.233 N 
ATOM     33  H12 UNL     1      17.982  -5.118  92.290  1.00  0.00     0.174 HD
ATOM     34  H11 UNL     1      16.431  -4.321  92.010  1.00  0.00     0.174 HD
ENDBRANCH   1  32
TORSDOF 6
ENDMDL
MODEL 4
REMARK VINA RESULT: -7.942634523      2.319      6.581
REMARK  6 active torsions:
REMARK  status: ('A' for Active; 'I' for Inactive)
REMARK    1  A    between atoms: N1_1  and  C1_4 
REMARK    2  A    between atoms: C4_15  and  N6_16 
REMARK    3  A    between atoms: N6_16  and  C5_18 
REMARK    4  A    between atoms: N9_27  and  O1_28 
REMARK    5  A    between atoms: O1_28  and  S1_29 
REMARK    6  A    between atoms: S1_29  and  N10_30 
ROOT
HETATM    1  C1  UNL     1      17.596  -4.539  88.374  1.00  0.00     0.692 A 
HETATM    2  N2  UNL     1      18.747  -4.985  87.822  1.00  0.00    -0.169 N 
ATOM      3  H2  UNL     1      19.037  -4.596  86.925  1.00  0.00     0.186 HD
HETATM    4  C2  UNL     1      19.524  -5.917  88.400  1.00  0.00     0.214 A 
HETATM    5  C3  UNL     1      19.086  -6.413  89.616  1.00  0.00     0.184 A 
HETATM    6  N3  UNL     1      17.938  -5.951  90.143  1.00  0.00    -0.268 N 
ATOM      7  H3  UNL     1      17.634  -6.329  91.040  1.00  0.00     0.189 HD
HETATM    8  N4  UNL     1      17.183  -5.035  89.564  1.00  0.00    -0.131 N 
ATOM      9  H4  UNL     1      16.318  -4.712  89.998  1.00  0.00     0.205 HD
HETATM   10  N5  UNL     1      20.013  -7.314  89.989  1.00  0.00    -0.169 N 
ATOM     11  H5  UNL     1      19.989  -7.864  90.847  1.00  0.00     0.186 HD
HETATM   12  C4  UNL     1      20.977  -7.374  89.052  1.00  0.00     0.728 A 
HETATM   13  N9  UNL     1      20.689  -6.525  88.076  1.00  0.00    -0.010 N 
ENDROOT
BRANCH  12  14
HETATM   14  N6  UNL     1      22.039  -8.131  89.064  1.00  0.00    -0.020 N 
ATOM     15  H6  UNL     1      22.568  -8.255  89.926  1.00  0.00     0.203 HD
BRANCH  14  16
HETATM   16  C5  UNL     1      22.460  -8.790  87.860  1.00  0.00     0.688 C 
HETATM   17  N7  UNL     1      23.653  -8.566  87.443  1.00  0.00    -0.226 N 
HETATM   18  C6  UNL     1      24.399  -9.039  86.302  1.00  0.00     0.138 C 
ATOM     19  H7  UNL     1      24.179  -7.924  88.036  1.00  0.00     0.177 HD
HETATM   20  C7  UNL     1      24.029 -10.439  85.923  1.00  0.00     0.022 C 
HETATM   21  C8  UNL     1      22.657 -10.452  85.271  1.00  0.00     0.022 C 
HETATM   22  C9  UNL     1      21.658 -10.750  86.370  1.00  0.00     0.138 C 
HETATM   23  N8  UNL     1      21.482  -9.629  87.263  1.00  0.00    -0.226 N 
ATOM     24  H8  UNL     1      20.515  -9.407  87.500  1.00  0.00     0.177 HD
ENDBRANCH  14  16
ENDBRANCH  12  14
BRANCH  13  25
HETATM   25  O1  UNL     1      21.428  -6.293  86.937  1.00  0.00    -0.111 OA
BRANCH  25  26
HETATM   26  S1  UNL     1      20.698  -6.662  85.443  1.00  0.00     0.377 S 
HETATM   27  O2  UNL     1      19.871  -5.523  84.942  1.00  0.00    -0.174 OA
HETATM   28  O3  UNL     1      19.776  -7.827  85.681  1.00  0.00    -0.174 OA
BRANCH  26  29
HETATM   29  N10 UNL     1      21.876  -7.022  84.233  1.00  0.00    -0.304 N 
ATOM     30 2H10 UNL     1      21.707  -6.912  83.234  1.00  0.00     0.171 HD
ATOM     31 1H10 UNL     1      22.748  -7.354  84.647  1.00  0.00     0.171 HD
ENDBRANCH  26  29
ENDBRANCH  25  26
ENDBRANCH  13  25
BRANCH   1  32
HETATM   32  N1  UNL     1      16.886  -3.641  87.774  1.00  0.00    -0.233 N 
ATOM     33  H12 UNL     1      17.214  -2.676  87.745  1.00  0.00     0.174 HD
ATOM     34  H11 UNL     1      16.002  -3.891  87.331  1.00  0.00     0.174 HD
ENDBRANCH   1  32
TORSDOF 6
ENDMDL
MODEL 5
REMARK VINA RESULT: -7.541129415      2.896      7.292
REMARK  6 active torsions:
REMARK  status: ('A' for Active; 'I' for Inactive)
REMARK    1  A    between atoms: N1_1  and  C1_4 
REMARK    2  A    between atoms: C4_15  and  N6_16 
REMARK    3  A    between atoms: N6_16  and  C5_18 
REMARK    4  A    between atoms: N9_27  and  O1_28 
REMARK    5  A    between atoms: O1_28  and  S1_29 
REMARK    6  A    between atoms: S1_29  and  N10_30 
ROOT
HETATM    1  C1  UNL     1      18.575  -5.435  88.747  1.00  0.00     0.692 A 
HETATM    2  N2  UNL     1      19.308  -5.795  87.669  1.00  0.00    -0.169 N 
ATOM      3  H2  UNL     1      19.049  -5.418  86.758  1.00  0.00     0.186 HD
HETATM    4  C2  UNL     1      20.361  -6.628  87.745  1.00  0.00     0.214 A 
HETATM    5  C3  UNL     1      20.670  -7.113  89.004  1.00  0.00     0.184 A 
HETATM    6  N3  UNL     1      19.925  -6.737  90.058  1.00  0.00    -0.268 N 
ATOM      7  H3  UNL     1      20.170  -7.104  90.978  1.00  0.00     0.189 HD
HETATM    8  N4  UNL     1      18.892  -5.918  89.970  1.00  0.00    -0.131 N 
ATOM      9  H4  UNL     1      18.352  -5.659  90.796  1.00  0.00     0.205 HD
HETATM   10  N5  UNL     1      21.740  -7.909  88.827  1.00  0.00    -0.169 N 
ATOM     11  H5  UNL     1      22.220  -8.424  89.564  1.00  0.00     0.186 HD
HETATM   12  C4  UNL     1      22.076  -7.919  87.524  1.00  0.00     0.728 A 
HETATM   13  N9  UNL     1      21.241  -7.140  86.852  1.00  0.00    -0.010 N 
ENDROOT
BRANCH  12  14
HETATM   14  N6  UNL     1      23.058  -8.574  86.970  1.00  0.00    -0.020 N 
ATOM     15  H6  UNL     1      23.721  -8.089  86.367  1.00  0.00     0.203 HD
BRANCH  14  16
HETATM   16  C5  UNL     1      23.204  -9.982  87.213  1.00  0.00     0.688 C 
HETATM   17  N7  UNL     1      24.095 -10.353  88.059  1.00  0.00    -0.226 N 
HETATM   18  C6  UNL     1      24.512 -11.648  88.540  1.00  0.00     0.138 C 
ATOM     19  H7  UNL     1      24.613  -9.578  88.474  1.00  0.00     0.177 HD
HETATM   20  C7  UNL     1      23.379 -12.624  88.600  1.00  0.00     0.022 C 
HETATM   21  C8  UNL     1      22.997 -13.058  87.195  1.00  0.00     0.022 C 
HETATM   22  C9  UNL     1      21.867 -12.151  86.753  1.00  0.00     0.138 C 
HETATM   23  N8  UNL     1      22.324 -10.812  86.468  1.00  0.00    -0.226 N 
ATOM     24  H8  UNL     1      21.963 -10.401  85.607  1.00  0.00     0.177 HD
ENDBRANCH  14  16
ENDBRANCH  12  14
BRANCH  13  25
HETATM   25  O1  UNL     1      21.252  -6.887  85.499  1.00  0.00    -0.111 OA
BRANCH  25  26
HETATM   26  S1  UNL     1      20.686  -8.120  84.469  1.00  0.00     0.377 S 
HETATM   27  O2  UNL     1      21.806  -8.972  83.970  1.00  0.00    -0.174 OA
HETATM   28  O3  UNL     1      20.060  -7.444  83.279  1.00  0.00    -0.174 OA
BRANCH  26  29
HETATM   29  N10 UNL     1      19.563  -9.154  85.276  1.00  0.00    -0.304 N 
ATOM     30 2H10 UNL     1      18.712  -9.508  84.840  1.00  0.00     0.171 HD
ATOM     31 1H10 UNL     1      19.862  -9.358  86.230  1.00  0.00     0.171 HD
ENDBRANCH  26  29
ENDBRANCH  25  26
ENDBRANCH  13  25
BRANCH   1  32
HETATM   32  N1  UNL     1      17.572  -4.630  88.617  1.00  0.00    -0.233 N 
ATOM     33  H12 UNL     1      17.697  -3.741  88.134  1.00  0.00     0.174 HD
ATOM     34  H11 UNL     1      16.657  -4.879  88.994  1.00  0.00     0.174 HD
ENDBRANCH   1  32
TORSDOF 6
ENDMDL
