MODEL 1
REMARK VINA RESULT: -7.483424262      0.000      0.000
REMARK  18 active torsions:
REMARK  status: ('A' for Active; 'I' for Inactive)
REMARK    1  A    between atoms: N1_2  and  N2_4 
REMARK       I    between atoms: N2_4  and  C2_6 
REMARK       I    between atoms: N4_8  and  C3_10 
REMARK    2  A    between atoms: C3_10  and  C4_12 
REMARK    3  A    between atoms: C5_15  and  C6_16 
REMARK    4  A    between atoms: C6_16  and  C7_17 
REMARK    5  A    between atoms: C7_17  and  C8_18 
REMARK    6  A    between atoms: C8_18  and  C9_19 
REMARK    7  A    between atoms: C9_19  and  N6_20 
REMARK    8  A    between atoms: C11_22  and  C12_23 
REMARK    9  A    between atoms: C12_23  and  C13_24 
REMARK   10  A    between atoms: C13_24  and  C14_25 
REMARK   11  A    between atoms: C14_25  and  C15_26 
REMARK   12  A    between atoms: C15_26  and  C16_27 
REMARK   13  A    between atoms: C16_27  and  C17_28 
REMARK   14  A    between atoms: N8_31  and  C18_32 
REMARK   15  A    between atoms: C18_32  and  C19_33 
REMARK   16  A    between atoms: C19_33  and  O2_34 
REMARK   17  A    between atoms: C21_37  and  O3_38 
REMARK   18  A    between atoms: C22_42  and  N10_43 
ROOT
HETATM    1  N6  UNL     1     -36.043  -1.008 -11.321  1.00  0.00    -0.284 N 
HETATM    2  C10 UNL     1     -36.705  -1.716 -10.392  1.00  0.00     0.138 A 
HETATM    3  C11 UNL     1     -36.244  -1.374  -9.138  1.00  0.00     0.044 A 
HETATM    4  N12 UNL     1     -35.304  -0.456  -9.352  1.00  0.00    -0.289 N 
ATOM      5  H12 UNL     1     -34.755   0.010  -8.630  1.00  0.00     0.188 HD
HETATM    6  N13 UNL     1     -35.192  -0.244 -10.674  1.00  0.00    -0.240 N 
ATOM      7  H13 UNL     1     -34.544   0.412 -11.110  1.00  0.00     0.208 HD
ENDROOT
BRANCH   3   8
HETATM    8  C12 UNL     1     -36.700  -1.889  -7.841  1.00  0.00     0.060 C 
BRANCH   8   9
HETATM    9  C13 UNL     1     -35.633  -2.147  -6.845  1.00  0.00     0.006 C 
BRANCH   9  10
HETATM   10  C14 UNL     1     -35.907  -1.576  -5.467  1.00  0.00     0.001 C 
BRANCH  10  11
HETATM   11  C15 UNL     1     -35.804  -0.102  -5.432  1.00  0.00     0.006 C 
BRANCH  11  12
HETATM   12  C16 UNL     1     -37.065   0.685  -5.345  1.00  0.00     0.061 C 
BRANCH  12  13
HETATM   13  C17 UNL     1     -37.037   1.841  -6.279  1.00  0.00     0.055 A 
HETATM   14  N7  UNL     1     -36.507   1.850  -7.531  1.00  0.00    -0.300 N 
HETATM   15  N8  UNL     1     -36.596   3.035  -8.094  1.00  0.00    -0.284 N 
ATOM     16  H7  UNL     1     -36.090   1.035  -7.981  1.00  0.00     0.187 HD
HETATM   17  C20 UNL     1     -37.197   3.845  -7.212  1.00  0.00     0.131 A 
HETATM   18  C21 UNL     1     -37.575   5.168  -7.217  1.00  0.00     0.186 A 
HETATM   19  C23 UNL     1     -37.487   3.128  -6.063  1.00  0.00     0.105 A 
HETATM   20  N9  UNL     1     -38.195   5.756  -6.185  1.00  0.00    -0.169 N 
HETATM   21  C22 UNL     1     -38.467   5.040  -5.083  1.00  0.00     0.678 A 
ATOM     22  H9  UNL     1     -38.457   6.740  -6.236  1.00  0.00     0.186 HD
HETATM   23  N11 UNL     1     -38.111   3.755  -5.048  1.00  0.00    -0.188 N 
ATOM     24  H11 UNL     1     -38.322   3.219  -4.207  1.00  0.00     0.184 HD
BRANCH  15  25
HETATM   25  C18 UNL     1     -36.119   3.384  -9.439  1.00  0.00     0.175 C 
BRANCH  25  26
HETATM   26  C19 UNL     1     -34.608   3.545  -9.430  1.00  0.00     0.185 C 
BRANCH  26  27
HETATM   27  O2  UNL     1     -34.065   2.257  -9.437  1.00  0.00    -0.399 OA
ATOM     28  H2  UNL     1     -33.296   2.287  -9.995  1.00  0.00     0.209 HD
ENDBRANCH  26  27
ENDBRANCH  25  26
ENDBRANCH  15  25
BRANCH  18  29
HETATM   29  O3  UNL     1     -37.296   5.914  -8.355  1.00  0.00    -0.344 OA
ATOM     30  H3  UNL     1     -38.032   6.219  -8.874  1.00  0.00     0.219 HD
ENDBRANCH  18  29
BRANCH  21  31
HETATM   31  N10 UNL     1     -39.076   5.607  -4.065  1.00  0.00    -0.234 N 
ATOM     32 2H10 UNL     1     -39.379   6.581  -4.106  1.00  0.00     0.174 HD
ATOM     33 1H10 UNL     1     -39.251   5.073  -3.215  1.00  0.00     0.174 HD
ENDBRANCH  21  31
ENDBRANCH  12  13
ENDBRANCH  11  12
ENDBRANCH  10  11
ENDBRANCH   9  10
ENDBRANCH   8   9
ENDBRANCH   3   8
BRANCH   1  34
HETATM   34  C9  UNL     1     -36.244  -1.099 -12.792  1.00  0.00     0.176 C 
BRANCH  34  35
HETATM   35  C8  UNL     1     -36.096  -2.522 -13.127  1.00  0.00    -0.009 C 
BRANCH  35  36
HETATM   36  C7  UNL     1     -34.795  -3.160 -13.274  1.00  0.00    -0.022 C 
BRANCH  36  37
HETATM   37  C6  UNL     1     -33.638  -2.553 -13.922  1.00  0.00     0.104 C 
BRANCH  37  38
HETATM   38  C5  UNL     1     -32.361  -2.531 -13.209  1.00  0.00     0.101 A 
HETATM   39  N5  UNL     1     -31.510  -3.544 -12.927  1.00  0.00    -0.325 N 
HETATM   40  C4  UNL     1     -30.452  -3.032 -12.242  1.00  0.00     0.191 A 
ATOM     41  H5  UNL     1     -31.639  -4.523 -13.184  1.00  0.00     0.169 HD
HETATM   42  N15 UNL     1     -30.635  -1.722 -12.095  1.00  0.00    -0.280 N 
HETATM   43  N14 UNL     1     -31.779  -1.412 -12.673  1.00  0.00    -0.287 N 
ATOM     44  H15 UNL     1     -30.004  -1.075 -11.621  1.00  0.00     0.189 HD
ATOM     45  H14 UNL     1     -32.175  -0.473 -12.715  1.00  0.00     0.188 HD
BRANCH  40  46
HETATM   46  C3  UNL     1     -29.299  -3.784 -11.744  1.00  0.00     0.293 C 
HETATM   47  N4  UNL     1     -29.176  -5.148 -12.096  1.00  0.00    -0.293 N 
HETATM   48  C2  UNL     1     -28.592  -5.470 -13.190  1.00  0.00     0.210 C 
ATOM     49  H4  UNL     1     -29.549  -5.871 -11.482  1.00  0.00     0.172 HD
HETATM   50  N2  UNL     1     -28.440  -6.840 -13.595  1.00  0.00    -0.275 N 
HETATM   51  N3  UNL     1     -28.079  -4.449 -14.029  1.00  0.00    -0.062 NA
ATOM     52  H2  UNL     1     -28.092  -7.524 -12.922  1.00  0.00     0.189 HD
HETATM   53  O1  UNL     1     -28.440  -3.201 -11.013  1.00  0.00    -0.264 OA
BRANCH  50  54
HETATM   54  N1  UNL     1     -28.758  -7.258 -14.889  1.00  0.00    -0.320 N 
HETATM   55  C1  UNL     1     -29.904  -7.147 -15.419  1.00  0.00     0.139 C 
ATOM     56  H1  UNL     1     -28.016  -7.682 -15.446  1.00  0.00     0.185 HD
ENDBRANCH  50  54
ENDBRANCH  40  46
ENDBRANCH  37  38
ENDBRANCH  36  37
ENDBRANCH  35  36
ENDBRANCH  34  35
ENDBRANCH   1  34
TORSDOF 18
ENDMDL
MODEL 2
REMARK VINA RESULT: -7.368195002      2.671      4.786
REMARK  18 active torsions:
REMARK  status: ('A' for Active; 'I' for Inactive)
REMARK    1  A    between atoms: N1_2  and  N2_4 
REMARK       I    between atoms: N2_4  and  C2_6 
REMARK       I    between atoms: N4_8  and  C3_10 
REMARK    2  A    between atoms: C3_10  and  C4_12 
REMARK    3  A    between atoms: C5_15  and  C6_16 
REMARK    4  A    between atoms: C6_16  and  C7_17 
REMARK    5  A    between atoms: C7_17  and  C8_18 
REMARK    6  A    between atoms: C8_18  and  C9_19 
REMARK    7  A    between atoms: C9_19  and  N6_20 
REMARK    8  A    between atoms: C11_22  and  C12_23 
REMARK    9  A    between atoms: C12_23  and  C13_24 
REMARK   10  A    between atoms: C13_24  and  C14_25 
REMARK   11  A    between atoms: C14_25  and  C15_26 
REMARK   12  A    between atoms: C15_26  and  C16_27 
REMARK   13  A    between atoms: C16_27  and  C17_28 
REMARK   14  A    between atoms: N8_31  and  C18_32 
REMARK   15  A    between atoms: C18_32  and  C19_33 
REMARK   16  A    between atoms: C19_33  and  O2_34 
REMARK   17  A    between atoms: C21_37  and  O3_38 
REMARK   18  A    between atoms: C22_42  and  N10_43 
ROOT
HETATM    1  N6  UNL     1     -34.219  -2.561 -12.949  1.00  0.00    -0.284 N 
HETATM    2  C10 UNL     1     -34.650  -1.436 -13.542  1.00  0.00     0.138 A 
HETATM    3  C11 UNL     1     -35.888  -1.096 -13.040  1.00  0.00     0.044 A 
HETATM    4  N12 UNL     1     -36.170  -2.042 -12.145  1.00  0.00    -0.289 N 
ATOM      5  H12 UNL     1     -37.021  -2.093 -11.585  1.00  0.00     0.188 HD
HETATM    6  N13 UNL     1     -35.154  -2.919 -12.100  1.00  0.00    -0.240 N 
ATOM      7  H13 UNL     1     -35.115  -3.741 -11.497  1.00  0.00     0.208 HD
ENDROOT
BRANCH   3   8
HETATM    8  C12 UNL     1     -36.715   0.064 -13.392  1.00  0.00     0.060 C 
BRANCH   8   9
HETATM    9  C13 UNL     1     -36.598   1.231 -12.487  1.00  0.00     0.006 C 
BRANCH   9  10
HETATM   10  C14 UNL     1     -35.184   1.750 -12.307  1.00  0.00     0.001 C 
BRANCH  10  11
HETATM   11  C15 UNL     1     -34.932   2.252 -10.940  1.00  0.00     0.006 C 
BRANCH  11  12
HETATM   12  C16 UNL     1     -34.531   1.267  -9.897  1.00  0.00     0.061 C 
BRANCH  12  13
HETATM   13  C17 UNL     1     -35.663   0.971  -8.981  1.00  0.00     0.055 A 
HETATM   14  N7  UNL     1     -36.826   1.668  -8.888  1.00  0.00    -0.300 N 
HETATM   15  N8  UNL     1     -37.614   1.187  -7.953  1.00  0.00    -0.284 N 
ATOM     16  H7  UNL     1     -37.060   2.470  -9.475  1.00  0.00     0.187 HD
HETATM   17  C20 UNL     1     -36.979   0.145  -7.400  1.00  0.00     0.131 A 
HETATM   18  C21 UNL     1     -37.283  -0.755  -6.405  1.00  0.00     0.186 A 
HETATM   19  C23 UNL     1     -35.752  -0.018  -8.022  1.00  0.00     0.105 A 
HETATM   20  N9  UNL     1     -36.460  -1.747  -6.039  1.00  0.00    -0.169 N 
HETATM   21  C22 UNL     1     -35.277  -1.886  -6.657  1.00  0.00     0.678 A 
ATOM     22  H9  UNL     1     -36.730  -2.391  -5.296  1.00  0.00     0.186 HD
HETATM   23  N11 UNL     1     -34.953  -1.027  -7.625  1.00  0.00    -0.188 N 
ATOM     24  H11 UNL     1     -34.053  -1.140  -8.089  1.00  0.00     0.184 HD
BRANCH  15  25
HETATM   25  C18 UNL     1     -38.940   1.709  -7.596  1.00  0.00     0.175 C 
BRANCH  25  26
HETATM   26  C19 UNL     1     -39.610   2.311  -8.820  1.00  0.00     0.185 C 
BRANCH  26  27
HETATM   27  O2  UNL     1     -39.687   1.295  -9.778  1.00  0.00    -0.399 OA
ATOM     28  H2  UNL     1     -39.105   1.543 -10.487  1.00  0.00     0.209 HD
ENDBRANCH  26  27
ENDBRANCH  25  26
ENDBRANCH  15  25
BRANCH  18  29
HETATM   29  O3  UNL     1     -38.506  -0.616  -5.762  1.00  0.00    -0.344 OA
ATOM     30  H3  UNL     1     -38.638   0.160  -5.230  1.00  0.00     0.219 HD
ENDBRANCH  18  29
BRANCH  21  31
HETATM   31  N10 UNL     1     -34.462  -2.856  -6.306  1.00  0.00    -0.234 N 
ATOM     32 2H10 UNL     1     -33.773  -3.230  -6.958  1.00  0.00     0.174 HD
ATOM     33 1H10 UNL     1     -34.515  -3.249  -5.366  1.00  0.00     0.174 HD
ENDBRANCH  21  31
ENDBRANCH  12  13
ENDBRANCH  11  12
ENDBRANCH  10  11
ENDBRANCH   9  10
ENDBRANCH   8   9
ENDBRANCH   3   8
BRANCH   1  34
HETATM   34  C9  UNL     1     -32.932  -3.253 -13.228  1.00  0.00     0.176 C 
BRANCH  34  35
HETATM   35  C8  UNL     1     -31.991  -2.199 -13.632  1.00  0.00    -0.009 C 
BRANCH  35  36
HETATM   36  C7  UNL     1     -31.218  -1.430 -12.667  1.00  0.00    -0.022 C 
BRANCH  36  37
HETATM   37  C6  UNL     1     -30.013  -1.903 -11.996  1.00  0.00     0.104 C 
BRANCH  37  38
HETATM   38  C5  UNL     1     -29.512  -3.241 -12.307  1.00  0.00     0.101 A 
HETATM   39  N5  UNL     1     -28.834  -3.680 -13.393  1.00  0.00    -0.325 N 
HETATM   40  C4  UNL     1     -28.584  -5.007 -13.230  1.00  0.00     0.191 A 
ATOM     41  H5  UNL     1     -28.558  -3.113 -14.195  1.00  0.00     0.169 HD
HETATM   42  N15 UNL     1     -29.095  -5.395 -12.064  1.00  0.00    -0.280 N 
HETATM   43  N14 UNL     1     -29.654  -4.341 -11.503  1.00  0.00    -0.287 N 
ATOM     44  H15 UNL     1     -29.061  -6.338 -11.674  1.00  0.00     0.189 HD
ATOM     45  H14 UNL     1     -30.126  -4.343 -10.599  1.00  0.00     0.188 HD
BRANCH  40  46
HETATM   46  C3  UNL     1     -27.873  -5.875 -14.170  1.00  0.00     0.293 C 
HETATM   47  N4  UNL     1     -28.337  -7.197 -14.355  1.00  0.00    -0.293 N 
HETATM   48  C2  UNL     1     -29.251  -7.433 -15.222  1.00  0.00     0.210 C 
ATOM     49  H4  UNL     1     -27.946  -7.960 -13.802  1.00  0.00     0.172 HD
HETATM   50  N2  UNL     1     -29.758  -8.758 -15.449  1.00  0.00    -0.275 N 
HETATM   51  N3  UNL     1     -29.780  -6.360 -15.981  1.00  0.00    -0.062 NA
ATOM     52  H2  UNL     1     -29.101  -9.530 -15.570  1.00  0.00     0.189 HD
HETATM   53  O1  UNL     1     -26.863  -5.426 -14.795  1.00  0.00    -0.264 OA
BRANCH  50  54
HETATM   54  N1  UNL     1     -31.129  -9.014 -15.509  1.00  0.00    -0.320 N 
HETATM   55  C1  UNL     1     -31.639 -10.110 -15.891  1.00  0.00     0.139 C 
ATOM     56  H1  UNL     1     -31.764  -8.268 -15.226  1.00  0.00     0.185 HD
ENDBRANCH  50  54
ENDBRANCH  40  46
ENDBRANCH  37  38
ENDBRANCH  36  37
ENDBRANCH  35  36
ENDBRANCH  34  35
ENDBRANCH   1  34
TORSDOF 18
ENDMDL
MODEL 3
REMARK VINA RESULT: -7.358604997      2.294      3.654
REMARK  18 active torsions:
REMARK  status: ('A' for Active; 'I' for Inactive)
REMARK    1  A    between atoms: N1_2  and  N2_4 
REMARK       I    between atoms: N2_4  and  C2_6 
REMARK       I    between atoms: N4_8  and  C3_10 
REMARK    2  A    between atoms: C3_10  and  C4_12 
REMARK    3  A    between atoms: C5_15  and  C6_16 
REMARK    4  A    between atoms: C6_16  and  C7_17 
REMARK    5  A    between atoms: C7_17  and  C8_18 
REMARK    6  A    between atoms: C8_18  and  C9_19 
REMARK    7  A    between atoms: C9_19  and  N6_20 
REMARK    8  A    between atoms: C11_22  and  C12_23 
REMARK    9  A    between atoms: C12_23  and  C13_24 
REMARK   10  A    between atoms: C13_24  and  C14_25 
REMARK   11  A    between atoms: C14_25  and  C15_26 
REMARK   12  A    between atoms: C15_26  and  C16_27 
REMARK   13  A    between atoms: C16_27  and  C17_28 
REMARK   14  A    between atoms: N8_31  and  C18_32 
REMARK   15  A    between atoms: C18_32  and  C19_33 
REMARK   16  A    between atoms: C19_33  and  O2_34 
REMARK   17  A    between atoms: C21_37  and  O3_38 
REMARK   18  A    between atoms: C22_42  and  N10_43 
ROOT
HETATM    1  N6  UNL     1     -37.572  -1.363 -11.876  1.00  0.00    -0.284 N 
HETATM    2  C10 UNL     1     -36.598  -0.776 -11.163  1.00  0.00     0.138 A 
HETATM    3  C11 UNL     1     -36.635  -1.238  -9.864  1.00  0.00     0.044 A 
HETATM    4  N12 UNL     1     -37.648  -2.103  -9.834  1.00  0.00    -0.289 N 
ATOM      5  H12 UNL     1     -37.952  -2.630  -9.015  1.00  0.00     0.188 HD
HETATM    6  N13 UNL     1     -38.204  -2.170 -11.055  1.00  0.00    -0.240 N 
ATOM      7  H13 UNL     1     -38.999  -2.758 -11.306  1.00  0.00     0.208 HD
ENDROOT
BRANCH   3   8
HETATM    8  C12 UNL     1     -35.745  -0.877  -8.755  1.00  0.00     0.060 C 
BRANCH   8   9
HETATM    9  C13 UNL     1     -35.935  -1.650  -7.504  1.00  0.00     0.006 C 
BRANCH   9  10
HETATM   10  C14 UNL     1     -35.134  -1.140  -6.322  1.00  0.00     0.001 C 
BRANCH  10  11
HETATM   11  C15 UNL     1     -35.875  -0.142  -5.521  1.00  0.00     0.006 C 
BRANCH  11  12
HETATM   12  C16 UNL     1     -37.343  -0.024  -5.738  1.00  0.00     0.061 C 
BRANCH  12  13
HETATM   13  C17 UNL     1     -37.718   1.369  -6.097  1.00  0.00     0.055 A 
HETATM   14  N7  UNL     1     -37.569   2.470  -5.312  1.00  0.00    -0.300 N 
HETATM   15  N8  UNL     1     -38.034   3.553  -5.891  1.00  0.00    -0.284 N 
ATOM     16  H7  UNL     1     -37.147   2.455  -4.383  1.00  0.00     0.187 HD
HETATM   17  C20 UNL     1     -38.507   3.187  -7.090  1.00  0.00     0.131 A 
HETATM   18  C21 UNL     1     -39.092   3.852  -8.143  1.00  0.00     0.186 A 
HETATM   19  C23 UNL     1     -38.323   1.823  -7.251  1.00  0.00     0.105 A 
HETATM   20  N9  UNL     1     -39.472   3.242  -9.274  1.00  0.00    -0.169 N 
HETATM   21  C22 UNL     1     -39.282   1.920  -9.407  1.00  0.00     0.678 A 
ATOM     22  H9  UNL     1     -39.901   3.778 -10.027  1.00  0.00     0.186 HD
HETATM   23  N11 UNL     1     -38.718   1.248  -8.402  1.00  0.00    -0.188 N 
ATOM     24  H11 UNL     1     -38.578   0.244  -8.513  1.00  0.00     0.184 HD
BRANCH  15  25
HETATM   25  C18 UNL     1     -38.029   4.905  -5.315  1.00  0.00     0.175 C 
BRANCH  25  26
HETATM   26  C19 UNL     1     -39.139   5.036  -4.285  1.00  0.00     0.185 C 
BRANCH  26  27
HETATM   27  O2  UNL     1     -38.807   4.188  -3.224  1.00  0.00    -0.399 OA
ATOM     28  H2  UNL     1     -39.621   3.811  -2.910  1.00  0.00     0.209 HD
ENDBRANCH  26  27
ENDBRANCH  25  26
ENDBRANCH  15  25
BRANCH  18  29
HETATM   29  O3  UNL     1     -39.292   5.220  -8.010  1.00  0.00    -0.344 OA
ATOM     30  H3  UNL     1     -40.096   5.584  -8.362  1.00  0.00     0.219 HD
ENDBRANCH  18  29
BRANCH  21  31
HETATM   31  N10 UNL     1     -39.650   1.312 -10.513  1.00  0.00    -0.234 N 
ATOM     32 2H10 UNL     1     -40.569   1.474 -10.925  1.00  0.00     0.174 HD
ATOM     33 1H10 UNL     1     -39.011   0.664 -10.974  1.00  0.00     0.174 HD
ENDBRANCH  21  31
ENDBRANCH  12  13
ENDBRANCH  11  12
ENDBRANCH  10  11
ENDBRANCH   9  10
ENDBRANCH   8   9
ENDBRANCH   3   8
BRANCH   1  34
HETATM   34  C9  UNL     1     -37.866  -1.120 -13.314  1.00  0.00     0.176 C 
BRANCH  34  35
HETATM   35  C8  UNL     1     -38.551  -2.330 -13.791  1.00  0.00    -0.009 C 
BRANCH  35  36
HETATM   36  C7  UNL     1     -38.006  -3.173 -14.846  1.00  0.00    -0.022 C 
BRANCH  36  37
HETATM   37  C6  UNL     1     -37.131  -4.319 -14.629  1.00  0.00     0.104 C 
BRANCH  37  38
HETATM   38  C5  UNL     1     -35.812  -4.097 -14.038  1.00  0.00     0.101 A 
HETATM   39  N5  UNL     1     -34.932  -3.090 -14.240  1.00  0.00    -0.325 N 
HETATM   40  C4  UNL     1     -33.838  -3.319 -13.465  1.00  0.00     0.191 A 
ATOM     41  H5  UNL     1     -35.066  -2.295 -14.866  1.00  0.00     0.169 HD
HETATM   42  N15 UNL     1     -34.026  -4.451 -12.789  1.00  0.00    -0.280 N 
HETATM   43  N14 UNL     1     -35.209  -4.924 -13.127  1.00  0.00    -0.287 N 
ATOM     44  H15 UNL     1     -33.373  -4.874 -12.129  1.00  0.00     0.189 HD
ATOM     45  H14 UNL     1     -35.618  -5.785 -12.762  1.00  0.00     0.188 HD
BRANCH  40  46
HETATM   46  C3  UNL     1     -32.646  -2.474 -13.379  1.00  0.00     0.293 C 
HETATM   47  N4  UNL     1     -31.567  -2.903 -12.573  1.00  0.00    -0.293 N 
HETATM   48  C2  UNL     1     -30.673  -3.675 -13.069  1.00  0.00     0.210 C 
ATOM     49  H4  UNL     1     -31.501  -2.600 -11.601  1.00  0.00     0.172 HD
HETATM   50  N2  UNL     1     -29.556  -4.141 -12.293  1.00  0.00    -0.275 N 
HETATM   51  N3  UNL     1     -30.783  -4.085 -14.421  1.00  0.00    -0.062 NA
ATOM     52  H2  UNL     1     -29.022  -3.472 -11.737  1.00  0.00     0.189 HD
HETATM   53  O1  UNL     1     -32.606  -1.381 -14.025  1.00  0.00    -0.264 OA
BRANCH  50  54
HETATM   54  N1  UNL     1     -29.186  -5.487 -12.283  1.00  0.00    -0.320 N 
HETATM   55  C1  UNL     1     -28.467  -6.041 -13.168  1.00  0.00     0.139 C 
ATOM     56  H1  UNL     1     -29.517  -6.064 -11.510  1.00  0.00     0.185 HD
ENDBRANCH  50  54
ENDBRANCH  40  46
ENDBRANCH  37  38
ENDBRANCH  36  37
ENDBRANCH  35  36
ENDBRANCH  34  35
ENDBRANCH   1  34
TORSDOF 18
ENDMDL
MODEL 4
REMARK VINA RESULT: -7.332287203      1.925      2.889
REMARK  18 active torsions:
REMARK  status: ('A' for Active; 'I' for Inactive)
REMARK    1  A    between atoms: N1_2  and  N2_4 
REMARK       I    between atoms: N2_4  and  C2_6 
REMARK       I    between atoms: N4_8  and  C3_10 
REMARK    2  A    between atoms: C3_10  and  C4_12 
REMARK    3  A    between atoms: C5_15  and  C6_16 
REMARK    4  A    between atoms: C6_16  and  C7_17 
REMARK    5  A    between atoms: C7_17  and  C8_18 
REMARK    6  A    between atoms: C8_18  and  C9_19 
REMARK    7  A    between atoms: C9_19  and  N6_20 
REMARK    8  A    between atoms: C11_22  and  C12_23 
REMARK    9  A    between atoms: C12_23  and  C13_24 
REMARK   10  A    between atoms: C13_24  and  C14_25 
REMARK   11  A    between atoms: C14_25  and  C15_26 
REMARK   12  A    between atoms: C15_26  and  C16_27 
REMARK   13  A    between atoms: C16_27  and  C17_28 
REMARK   14  A    between atoms: N8_31  and  C18_32 
REMARK   15  A    between atoms: C18_32  and  C19_33 
REMARK   16  A    between atoms: C19_33  and  O2_34 
REMARK   17  A    between atoms: C21_37  and  O3_38 
REMARK   18  A    between atoms: C22_42  and  N10_43 
ROOT
HETATM    1  N6  UNL     1     -37.120  -1.390 -11.696  1.00  0.00    -0.284 N 
HETATM    2  C10 UNL     1     -36.307  -0.896 -10.750  1.00  0.00     0.138 A 
HETATM    3  C11 UNL     1     -36.689  -1.379  -9.516  1.00  0.00     0.044 A 
HETATM    4  N12 UNL     1     -37.738  -2.162  -9.761  1.00  0.00    -0.289 N 
ATOM      5  H12 UNL     1     -38.268  -2.680  -9.059  1.00  0.00     0.188 HD
HETATM    6  N13 UNL     1     -37.987  -2.161 -11.081  1.00  0.00    -0.240 N 
ATOM      7  H13 UNL     1     -38.738  -2.680 -11.537  1.00  0.00     0.208 HD
ENDROOT
BRANCH   3   8
HETATM    8  C12 UNL     1     -36.069  -1.111  -8.213  1.00  0.00     0.060 C 
BRANCH   8   9
HETATM    9  C13 UNL     1     -36.244  -2.170  -7.191  1.00  0.00     0.006 C 
BRANCH   9  10
HETATM   10  C14 UNL     1     -36.812  -1.684  -5.872  1.00  0.00     0.001 C 
BRANCH  10  11
HETATM   11  C15 UNL     1     -37.568  -0.422  -6.009  1.00  0.00     0.006 C 
BRANCH  11  12
HETATM   12  C16 UNL     1     -36.876   0.849  -5.658  1.00  0.00     0.061 C 
BRANCH  12  13
HETATM   13  C17 UNL     1     -37.678   2.027  -6.081  1.00  0.00     0.055 A 
HETATM   14  N7  UNL     1     -37.878   3.163  -5.361  1.00  0.00    -0.300 N 
HETATM   15  N8  UNL     1     -38.670   4.007  -5.985  1.00  0.00    -0.284 N 
ATOM     16  H7  UNL     1     -37.464   3.340  -4.446  1.00  0.00     0.187 HD
HETATM   17  C20 UNL     1     -39.014   3.438  -7.148  1.00  0.00     0.131 A 
HETATM   18  C21 UNL     1     -39.791   3.817  -8.217  1.00  0.00     0.186 A 
HETATM   19  C23 UNL     1     -38.408   2.195  -7.240  1.00  0.00     0.105 A 
HETATM   20  N9  UNL     1     -39.969   3.051  -9.302  1.00  0.00    -0.169 N 
HETATM   21  C22 UNL     1     -39.370   1.852  -9.369  1.00  0.00     0.678 A 
ATOM     22  H9  UNL     1     -40.554   3.377 -10.071  1.00  0.00     0.186 HD
HETATM   23  N11 UNL     1     -38.611   1.455  -8.346  1.00  0.00    -0.188 N 
ATOM     24  H11 UNL     1     -38.160   0.543  -8.406  1.00  0.00     0.184 HD
BRANCH  15  25
HETATM   25  C18 UNL     1     -39.088   5.323  -5.483  1.00  0.00     0.175 C 
BRANCH  25  26
HETATM   26  C19 UNL     1     -39.053   5.336  -3.963  1.00  0.00     0.185 C 
BRANCH  26  27
HETATM   27  O2  UNL     1     -37.706   5.385  -3.592  1.00  0.00    -0.399 OA
ATOM     28  H2  UNL     1     -37.681   5.688  -2.692  1.00  0.00     0.209 HD
ENDBRANCH  26  27
ENDBRANCH  25  26
ENDBRANCH  15  25
BRANCH  18  29
HETATM   29  O3  UNL     1     -40.413   5.057  -8.154  1.00  0.00    -0.344 OA
ATOM     30  H3  UNL     1     -41.220   5.121  -7.655  1.00  0.00     0.219 HD
ENDBRANCH  18  29
BRANCH  21  31
HETATM   31  N10 UNL     1     -39.537   1.093 -10.429  1.00  0.00    -0.234 N 
ATOM     32 2H10 UNL     1     -39.559   1.493 -11.368  1.00  0.00     0.174 HD
ATOM     33 1H10 UNL     1     -39.649   0.085 -10.321  1.00  0.00     0.174 HD
ENDBRANCH  21  31
ENDBRANCH  12  13
ENDBRANCH  11  12
ENDBRANCH  10  11
ENDBRANCH   9  10
ENDBRANCH   8   9
ENDBRANCH   3   8
BRANCH   1  34
HETATM   34  C9  UNL     1     -37.041  -1.096 -13.152  1.00  0.00     0.176 C 
BRANCH  34  35
HETATM   35  C8  UNL     1     -36.092  -2.072 -13.706  1.00  0.00    -0.009 C 
BRANCH  35  36
HETATM   36  C7  UNL     1     -34.663  -1.807 -13.799  1.00  0.00    -0.022 C 
BRANCH  36  37
HETATM   37  C6  UNL     1     -33.641  -2.818 -14.042  1.00  0.00     0.104 C 
BRANCH  37  38
HETATM   38  C5  UNL     1     -32.375  -2.730 -13.316  1.00  0.00     0.101 A 
HETATM   39  N5  UNL     1     -31.443  -3.683 -13.086  1.00  0.00    -0.325 N 
HETATM   40  C4  UNL     1     -30.435  -3.126 -12.361  1.00  0.00     0.191 A 
ATOM     41  H5  UNL     1     -31.488  -4.653 -13.401  1.00  0.00     0.169 HD
HETATM   42  N15 UNL     1     -30.729  -1.846 -12.140  1.00  0.00    -0.280 N 
HETATM   43  N14 UNL     1     -31.892  -1.601 -12.710  1.00  0.00    -0.287 N 
ATOM     44  H15 UNL     1     -30.158  -1.178 -11.623  1.00  0.00     0.189 HD
ATOM     45  H14 UNL     1     -32.366  -0.697 -12.701  1.00  0.00     0.188 HD
BRANCH  40  46
HETATM   46  C3  UNL     1     -29.226  -3.806 -11.897  1.00  0.00     0.293 C 
HETATM   47  N4  UNL     1     -29.076  -5.185 -12.170  1.00  0.00    -0.293 N 
HETATM   48  C2  UNL     1     -28.553  -5.558 -13.279  1.00  0.00     0.210 C 
ATOM     49  H4  UNL     1     -29.382  -5.879 -11.488  1.00  0.00     0.172 HD
HETATM   50  N2  UNL     1     -28.379  -6.947 -13.606  1.00  0.00    -0.275 N 
HETATM   51  N3  UNL     1     -28.135  -4.578 -14.213  1.00  0.00    -0.062 NA
ATOM     52  H2  UNL     1     -27.963  -7.574 -12.916  1.00  0.00     0.189 HD
HETATM   53  O1  UNL     1     -28.342  -3.149 -11.263  1.00  0.00    -0.264 OA
BRANCH  50  54
HETATM   54  N1  UNL     1     -28.765  -7.458 -14.847  1.00  0.00    -0.320 N 
HETATM   55  C1  UNL     1     -29.881  -7.228 -15.402  1.00  0.00     0.139 C 
ATOM     56  H1  UNL     1     -28.103  -8.057 -15.340  1.00  0.00     0.185 HD
ENDBRANCH  50  54
ENDBRANCH  40  46
ENDBRANCH  37  38
ENDBRANCH  36  37
ENDBRANCH  35  36
ENDBRANCH  34  35
ENDBRANCH   1  34
TORSDOF 18
ENDMDL
MODEL 5
REMARK VINA RESULT: -7.267308897      1.684      1.900
REMARK  18 active torsions:
REMARK  status: ('A' for Active; 'I' for Inactive)
REMARK    1  A    between atoms: N1_2  and  N2_4 
REMARK       I    between atoms: N2_4  and  C2_6 
REMARK       I    between atoms: N4_8  and  C3_10 
REMARK    2  A    between atoms: C3_10  and  C4_12 
REMARK    3  A    between atoms: C5_15  and  C6_16 
REMARK    4  A    between atoms: C6_16  and  C7_17 
REMARK    5  A    between atoms: C7_17  and  C8_18 
REMARK    6  A    between atoms: C8_18  and  C9_19 
REMARK    7  A    between atoms: C9_19  and  N6_20 
REMARK    8  A    between atoms: C11_22  and  C12_23 
REMARK    9  A    between atoms: C12_23  and  C13_24 
REMARK   10  A    between atoms: C13_24  and  C14_25 
REMARK   11  A    between atoms: C14_25  and  C15_26 
REMARK   12  A    between atoms: C15_26  and  C16_27 
REMARK   13  A    between atoms: C16_27  and  C17_28 
REMARK   14  A    between atoms: N8_31  and  C18_32 
REMARK   15  A    between atoms: C18_32  and  C19_33 
REMARK   16  A    between atoms: C19_33  and  O2_34 
REMARK   17  A    between atoms: C21_37  and  O3_38 
REMARK   18  A    between atoms: C22_42  and  N10_43 
ROOT
HETATM    1  N6  UNL     1     -36.977  -1.394 -11.377  1.00  0.00    -0.284 N 
HETATM    2  C10 UNL     1     -36.070  -0.876 -10.533  1.00  0.00     0.138 A 
HETATM    3  C11 UNL     1     -36.354  -1.285  -9.247  1.00  0.00     0.044 A 
HETATM    4  N12 UNL     1     -37.440  -2.047  -9.357  1.00  0.00    -0.289 N 
ATOM      5  H12 UNL     1     -37.918  -2.512  -8.585  1.00  0.00     0.188 HD
HETATM    6  N13 UNL     1     -37.805  -2.105 -10.648  1.00  0.00    -0.240 N 
ATOM      7  H13 UNL     1     -38.606  -2.624 -11.008  1.00  0.00     0.208 HD
ENDROOT
BRANCH   3   8
HETATM    8  C12 UNL     1     -35.614  -0.969  -8.019  1.00  0.00     0.060 C 
BRANCH   8   9
HETATM    9  C13 UNL     1     -35.515  -2.069  -7.031  1.00  0.00     0.006 C 
BRANCH   9  10
HETATM   10  C14 UNL     1     -36.303  -1.841  -5.755  1.00  0.00     0.001 C 
BRANCH  10  11
HETATM   11  C15 UNL     1     -37.371  -0.833  -5.919  1.00  0.00     0.006 C 
BRANCH  11  12
HETATM   12  C16 UNL     1     -37.086   0.564  -5.488  1.00  0.00     0.061 C 
BRANCH  12  13
HETATM   13  C17 UNL     1     -37.804   1.543  -6.346  1.00  0.00     0.055 A 
HETATM   14  N7  UNL     1     -38.818   1.265  -7.208  1.00  0.00    -0.300 N 
HETATM   15  N8  UNL     1     -39.218   2.335  -7.857  1.00  0.00    -0.284 N 
ATOM     16  H7  UNL     1     -39.221   0.336  -7.335  1.00  0.00     0.187 HD
HETATM   17  C20 UNL     1     -38.466   3.358  -7.431  1.00  0.00     0.131 A 
HETATM   18  C21 UNL     1     -38.412   4.703  -7.717  1.00  0.00     0.186 A 
HETATM   19  C23 UNL     1     -37.568   2.896  -6.482  1.00  0.00     0.105 A 
HETATM   20  N9  UNL     1     -37.554   5.544  -7.124  1.00  0.00    -0.169 N 
HETATM   21  C22 UNL     1     -36.695   5.072  -6.207  1.00  0.00     0.678 A 
ATOM     22  H9  UNL     1     -37.552   6.534  -7.368  1.00  0.00     0.186 HD
HETATM   23  N11 UNL     1     -36.722   3.772  -5.910  1.00  0.00    -0.188 N 
ATOM     24  H11 UNL     1     -36.066   3.423  -5.211  1.00  0.00     0.184 HD
BRANCH  15  25
HETATM   25  C18 UNL     1     -40.291   2.379  -8.860  1.00  0.00     0.175 C 
BRANCH  25  26
HETATM   26  C19 UNL     1     -39.741   2.010 -10.228  1.00  0.00     0.185 C 
BRANCH  26  27
HETATM   27  O2  UNL     1     -39.077   0.788 -10.079  1.00  0.00    -0.399 OA
ATOM     28  H2  UNL     1     -38.324   0.952  -9.525  1.00  0.00     0.209 HD
ENDBRANCH  26  27
ENDBRANCH  25  26
ENDBRANCH  15  25
BRANCH  18  29
HETATM   29  O3  UNL     1     -39.298   5.196  -8.666  1.00  0.00    -0.344 OA
ATOM     30  H3  UNL     1     -39.150   4.957  -9.573  1.00  0.00     0.219 HD
ENDBRANCH  18  29
BRANCH  21  31
HETATM   31  N10 UNL     1     -35.849   5.889  -5.618  1.00  0.00    -0.234 N 
ATOM     32 2H10 UNL     1     -35.000   6.201  -6.090  1.00  0.00     0.174 HD
ATOM     33 1H10 UNL     1     -36.037   6.222  -4.673  1.00  0.00     0.174 HD
ENDBRANCH  21  31
ENDBRANCH  12  13
ENDBRANCH  11  12
ENDBRANCH  10  11
ENDBRANCH   9  10
ENDBRANCH   8   9
ENDBRANCH   3   8
BRANCH   1  34
HETATM   34  C9  UNL     1     -37.020  -1.177 -12.849  1.00  0.00     0.176 C 
BRANCH  34  35
HETATM   35  C8  UNL     1     -36.203  -2.249 -13.434  1.00  0.00    -0.009 C 
BRANCH  35  36
HETATM   36  C7  UNL     1     -34.846  -2.025 -13.914  1.00  0.00    -0.022 C 
BRANCH  36  37
HETATM   37  C6  UNL     1     -33.818  -3.054 -14.019  1.00  0.00     0.104 C 
BRANCH  37  38
HETATM   38  C5  UNL     1     -32.552  -2.860 -13.313  1.00  0.00     0.101 A 
HETATM   39  N5  UNL     1     -31.611  -3.766 -12.962  1.00  0.00    -0.325 N 
HETATM   40  C4  UNL     1     -30.608  -3.110 -12.319  1.00  0.00     0.191 A 
ATOM     41  H5  UNL     1     -31.647  -4.769 -13.147  1.00  0.00     0.169 HD
HETATM   42  N15 UNL     1     -30.913  -1.815 -12.267  1.00  0.00    -0.280 N 
HETATM   43  N14 UNL     1     -32.079  -1.656 -12.862  1.00  0.00    -0.287 N 
ATOM     44  H15 UNL     1     -30.347  -1.079 -11.843  1.00  0.00     0.189 HD
ATOM     45  H14 UNL     1     -32.561  -0.764 -12.971  1.00  0.00     0.188 HD
BRANCH  40  46
HETATM   46  C3  UNL     1     -29.391  -3.712 -11.772  1.00  0.00     0.293 C 
HETATM   47  N4  UNL     1     -29.135  -5.077 -12.032  1.00  0.00    -0.293 N 
HETATM   48  C2  UNL     1     -28.515  -5.414 -13.102  1.00  0.00     0.210 C 
ATOM     49  H4  UNL     1     -29.441  -5.791 -11.370  1.00  0.00     0.172 HD
HETATM   50  N2  UNL     1     -28.230  -6.788 -13.413  1.00  0.00    -0.275 N 
HETATM   51  N3  UNL     1     -28.098  -4.407 -14.007  1.00  0.00    -0.062 NA
ATOM     52  H2  UNL     1     -27.823  -7.388 -12.696  1.00  0.00     0.189 HD
HETATM   53  O1  UNL     1     -28.597  -3.001 -11.081  1.00  0.00    -0.264 OA
BRANCH  50  54
HETATM   54  N1  UNL     1     -28.498  -7.319 -14.676  1.00  0.00    -0.320 N 
HETATM   55  C1  UNL     1     -29.638  -7.315 -15.231  1.00  0.00     0.139 C 
ATOM     56  H1  UNL     1     -27.723  -7.741 -15.188  1.00  0.00     0.185 HD
ENDBRANCH  50  54
ENDBRANCH  40  46
ENDBRANCH  37  38
ENDBRANCH  36  37
ENDBRANCH  35  36
ENDBRANCH  34  35
ENDBRANCH   1  34
TORSDOF 18
ENDMDL
