MODEL 1
REMARK VINA RESULT: -7.558964238      0.000      0.000
REMARK  15 active torsions:
REMARK  status: ('A' for Active; 'I' for Inactive)
REMARK       I    between atoms: C2_2  and  N1_4 
REMARK    1  A    between atoms: N1_4  and  C3_6 
REMARK    2  A    between atoms: C3_6  and  N2_7 
REMARK    3  A    between atoms: C3_6  and  C4_11 
REMARK       I    between atoms: C4_11  and  N3_13 
REMARK    4  A    between atoms: N3_13  and  C5_15 
REMARK    5  A    between atoms: C5_15  and  C6_16 
REMARK    6  A    between atoms: C5_15  and  C19_45 
REMARK       I    between atoms: C6_16  and  N4_18 
REMARK    7  A    between atoms: N4_18  and  C7_20 
REMARK    8  A    between atoms: C7_20  and  C8_21 
REMARK    9  A    between atoms: C7_20  and  C9_25 
REMARK       I    between atoms: C9_25  and  N6_27 
REMARK       I    between atoms: N6_27  and  C10_29 
REMARK   10  A    between atoms: C10_29  and  C11_31 
REMARK   11  A    between atoms: C11_31  and  O6_32 
REMARK   12  A    between atoms: C11_31  and  O7_34 
REMARK   13  A    between atoms: O7_34  and  C12_35 
REMARK   14  A    between atoms: C12_35  and  C13_36 
REMARK   15  A    between atoms: C16_39  and  N7_40 
ROOT
HETATM    1  C6  UNL     1     -36.596  -1.728  -9.697  1.00  0.00     0.247 C 
HETATM    2  O3  UNL     1     -37.757  -2.169  -9.575  1.00  0.00    -0.271 OA
HETATM    3  N4  UNL     1     -35.871  -1.380  -8.528  1.00  0.00    -0.341 N 
ATOM      4  H4  UNL     1     -34.919  -1.020  -8.592  1.00  0.00     0.163 HD
ENDROOT
BRANCH   3   5
HETATM    5  C7  UNL     1     -36.515  -1.546  -7.243  1.00  0.00     0.215 C 
BRANCH   5   6
HETATM    6  C8  UNL     1     -35.564  -2.112  -6.260  1.00  0.00     0.087 C 
HETATM    7  N5  UNL     1     -35.626  -1.825  -5.016  1.00  0.00    -0.409 N 
ATOM      8  H52 UNL     1     -36.358  -1.186  -4.708  1.00  0.00     0.155 HD
ATOM      9  H51 UNL     1     -34.971  -2.215  -4.338  1.00  0.00     0.155 HD
ENDBRANCH   5   6
BRANCH   5  10
HETATM   10  C9  UNL     1     -37.045  -0.219  -6.815  1.00  0.00     0.252 C 
HETATM   11  O4  UNL     1     -38.165  -0.159  -6.277  1.00  0.00    -0.270 OA
HETATM   12  N6  UNL     1     -36.284   0.954  -7.017  1.00  0.00    -0.291 N 
HETATM   13  C10 UNL     1     -36.593   2.270  -6.664  1.00  0.00     0.279 C 
ATOM     14  H6  UNL     1     -35.387   0.822  -7.484  1.00  0.00     0.172 HD
HETATM   15  O5  UNL     1     -35.662   3.133  -6.874  1.00  0.00    -0.268 OA
BRANCH  13  16
HETATM   16  C11 UNL     1     -37.836   2.726  -6.097  1.00  0.00     0.351 C 
BRANCH  16  17
HETATM   17  O6  UNL     1     -37.750   2.358  -4.678  1.00  0.00    -0.363 OA
ATOM     18  H6  UNL     1     -38.609   2.565  -4.327  1.00  0.00     0.213 HD
ENDBRANCH  16  17
BRANCH  16  19
HETATM   19  O7  UNL     1     -37.916   4.121  -5.966  1.00  0.00    -0.348 OA
BRANCH  19  20
HETATM   20  C12 UNL     1     -39.220   4.527  -6.132  1.00  0.00     0.210 C 
BRANCH  20  21
HETATM   21  C13 UNL     1     -39.667   5.351  -4.969  1.00  0.00    -0.034 A 
HETATM   22  C14 UNL     1     -38.711   5.886  -4.144  1.00  0.00     0.012 A 
HETATM   23  C15 UNL     1     -39.077   6.658  -3.050  1.00  0.00     0.037 A 
HETATM   24  C16 UNL     1     -40.408   6.869  -2.822  1.00  0.00     0.102 A 
HETATM   25  C17 UNL     1     -41.380   6.330  -3.653  1.00  0.00     0.037 A 
HETATM   26  C18 UNL     1     -40.994   5.564  -4.737  1.00  0.00     0.012 A 
BRANCH  24  27
HETATM   27  N7  UNL     1     -40.826   7.647  -1.721  1.00  0.00    -0.116 N 
HETATM   28  O8  UNL     1     -40.105   7.651  -0.693  1.00  0.00    -0.532 OA
HETATM   29  O9  UNL     1     -41.985   8.365  -1.804  1.00  0.00    -0.532 OA
ENDBRANCH  24  27
ENDBRANCH  20  21
ENDBRANCH  19  20
ENDBRANCH  16  19
ENDBRANCH  13  16
ENDBRANCH   5  10
ENDBRANCH   3   5
BRANCH   1  30
HETATM   30  C5  UNL     1     -35.922  -1.547 -11.009  1.00  0.00     0.227 C 
BRANCH  30  31
HETATM   31  N3  UNL     1     -35.933  -2.735 -11.803  1.00  0.00    -0.339 N 
HETATM   32  C4  UNL     1     -34.809  -3.177 -12.576  1.00  0.00     0.269 C 
HETATM   33  O2  UNL     1     -33.768  -2.483 -12.549  1.00  0.00    -0.269 OA
ATOM     34  H3  UNL     1     -36.784  -3.297 -11.821  1.00  0.00     0.163 HD
BRANCH  32  35
HETATM   35  C3  UNL     1     -34.839  -4.401 -13.388  1.00  0.00     0.376 C 
BRANCH  35  36
HETATM   36  N1  UNL     1     -36.137  -4.539 -13.998  1.00  0.00    -0.326 N 
HETATM   37  C2  UNL     1     -36.390  -5.698 -14.793  1.00  0.00     0.215 C 
HETATM   38  C1  UNL     1     -37.731  -5.825 -15.414  1.00  0.00     0.117 C 
HETATM   39  O1  UNL     1     -35.530  -6.576 -14.968  1.00  0.00    -0.274 OA
ATOM     40  H1  UNL     1     -36.857  -3.828 -13.865  1.00  0.00     0.165 HD
ENDBRANCH  35  36
BRANCH  35  41
HETATM   41  N2  UNL     1     -33.839  -4.294 -14.467  1.00  0.00    -0.049 N 
ATOM     42  H23 UNL     1     -33.223  -5.106 -14.515  1.00  0.00     0.277 HD
ATOM     43  H22 UNL     1     -34.250  -4.380 -15.396  1.00  0.00     0.277 HD
ATOM     44  H21 UNL     1     -33.331  -3.420 -14.339  1.00  0.00     0.277 HD
ENDBRANCH  35  41
ENDBRANCH  32  35
ENDBRANCH  30  31
BRANCH  30  45
HETATM   45  C19 UNL     1     -36.612  -0.410 -11.754  1.00  0.00     0.048 A 
HETATM   46  C20 UNL     1     -35.850   0.627 -12.234  1.00  0.00     0.078 A 
HETATM   47  S1  UNL     1     -37.040   1.616 -12.960  1.00  0.00    -0.095 SA
HETATM   48  C21 UNL     1     -38.414   0.662 -12.613  1.00  0.00     0.138 A 
HETATM   49  N8  UNL     1     -37.886  -0.363 -11.959  1.00  0.00    -0.361 N 
ATOM     50  H8  UNL     1     -38.485  -1.114 -11.618  1.00  0.00     0.165 HD
ENDBRANCH  30  45
ENDBRANCH   1  30
TORSDOF 15
ENDMDL
MODEL 2
REMARK VINA RESULT: -7.542831418      5.086     11.026
REMARK  15 active torsions:
REMARK  status: ('A' for Active; 'I' for Inactive)
REMARK       I    between atoms: C2_2  and  N1_4 
REMARK    1  A    between atoms: N1_4  and  C3_6 
REMARK    2  A    between atoms: C3_6  and  N2_7 
REMARK    3  A    between atoms: C3_6  and  C4_11 
REMARK       I    between atoms: C4_11  and  N3_13 
REMARK    4  A    between atoms: N3_13  and  C5_15 
REMARK    5  A    between atoms: C5_15  and  C6_16 
REMARK    6  A    between atoms: C5_15  and  C19_45 
REMARK       I    between atoms: C6_16  and  N4_18 
REMARK    7  A    between atoms: N4_18  and  C7_20 
REMARK    8  A    between atoms: C7_20  and  C8_21 
REMARK    9  A    between atoms: C7_20  and  C9_25 
REMARK       I    between atoms: C9_25  and  N6_27 
REMARK       I    between atoms: N6_27  and  C10_29 
REMARK   10  A    between atoms: C10_29  and  C11_31 
REMARK   11  A    between atoms: C11_31  and  O6_32 
REMARK   12  A    between atoms: C11_31  and  O7_34 
REMARK   13  A    between atoms: O7_34  and  C12_35 
REMARK   14  A    between atoms: C12_35  and  C13_36 
REMARK   15  A    between atoms: C16_39  and  N7_40 
ROOT
HETATM    1  C6  UNL     1     -40.059   5.714  -3.822  1.00  0.00     0.247 C 
HETATM    2  O3  UNL     1     -40.898   4.924  -3.341  1.00  0.00    -0.271 OA
HETATM    3  N4  UNL     1     -40.177   6.088  -5.186  1.00  0.00    -0.341 N 
ATOM      4  H4  UNL     1     -39.511   6.734  -5.609  1.00  0.00     0.163 HD
ENDROOT
BRANCH   3   5
HETATM    5  C7  UNL     1     -41.263   5.531  -5.961  1.00  0.00     0.215 C 
BRANCH   5   6
HETATM    6  C8  UNL     1     -41.893   6.581  -6.793  1.00  0.00     0.087 C 
HETATM    7  N5  UNL     1     -42.420   6.320  -7.928  1.00  0.00    -0.409 N 
ATOM      8  H52 UNL     1     -42.398   5.354  -8.256  1.00  0.00     0.155 HD
ATOM      9  H51 UNL     1     -42.855   7.043  -8.501  1.00  0.00     0.155 HD
ENDBRANCH   5   6
BRANCH   5  10
HETATM   10  C9  UNL     1     -40.720   4.411  -6.783  1.00  0.00     0.252 C 
HETATM   11  O4  UNL     1     -41.492   3.519  -7.178  1.00  0.00    -0.270 OA
HETATM   12  N6  UNL     1     -39.347   4.366  -7.111  1.00  0.00    -0.291 N 
HETATM   13  C10 UNL     1     -38.661   3.426  -7.884  1.00  0.00     0.279 C 
ATOM     14  H6  UNL     1     -38.778   5.122  -6.731  1.00  0.00     0.172 HD
HETATM   15  O5  UNL     1     -37.422   3.690  -8.109  1.00  0.00    -0.268 OA
BRANCH  13  16
HETATM   16  C11 UNL     1     -39.215   2.216  -8.436  1.00  0.00     0.351 C 
BRANCH  16  17
HETATM   17  O6  UNL     1     -39.058   2.370  -9.888  1.00  0.00    -0.363 OA
ATOM     18  H6  UNL     1     -39.036   1.480 -10.220  1.00  0.00     0.213 HD
ENDBRANCH  16  17
BRANCH  16  19
HETATM   19  O7  UNL     1     -38.406   1.086  -8.239  1.00  0.00    -0.348 OA
BRANCH  19  20
HETATM   20  C12 UNL     1     -38.323   0.808  -6.893  1.00  0.00     0.210 C 
BRANCH  20  21
HETATM   21  C13 UNL     1     -37.175  -0.107  -6.615  1.00  0.00    -0.034 A 
HETATM   22  C14 UNL     1     -36.544  -0.011  -5.400  1.00  0.00     0.012 A 
HETATM   23  C15 UNL     1     -35.472  -0.838  -5.097  1.00  0.00     0.037 A 
HETATM   24  C16 UNL     1     -35.067  -1.745  -6.035  1.00  0.00     0.102 A 
HETATM   25  C17 UNL     1     -35.701  -1.847  -7.266  1.00  0.00     0.037 A 
HETATM   26  C18 UNL     1     -36.766  -1.013  -7.548  1.00  0.00     0.012 A 
BRANCH  24  27
HETATM   27  N7  UNL     1     -33.981  -2.606  -5.770  1.00  0.00    -0.116 N 
HETATM   28  O8  UNL     1     -33.015  -2.152  -5.108  1.00  0.00    -0.532 OA
HETATM   29  O9  UNL     1     -34.010  -3.892  -6.231  1.00  0.00    -0.532 OA
ENDBRANCH  24  27
ENDBRANCH  20  21
ENDBRANCH  19  20
ENDBRANCH  16  19
ENDBRANCH  13  16
ENDBRANCH   5  10
ENDBRANCH   3   5
BRANCH   1  30
HETATM   30  C5  UNL     1     -38.934   6.291  -3.041  1.00  0.00     0.227 C 
BRANCH  30  31
HETATM   31  N3  UNL     1     -37.797   6.591  -3.852  1.00  0.00    -0.339 N 
HETATM   32  C4  UNL     1     -37.069   5.597  -4.588  1.00  0.00     0.269 C 
HETATM   33  O2  UNL     1     -37.456   4.409  -4.511  1.00  0.00    -0.269 OA
ATOM     34  H3  UNL     1     -37.486   7.560  -3.911  1.00  0.00     0.163 HD
BRANCH  32  35
HETATM   35  C3  UNL     1     -35.900   5.922  -5.416  1.00  0.00     0.376 C 
BRANCH  35  36
HETATM   36  N1  UNL     1     -34.843   6.424  -4.574  1.00  0.00    -0.326 N 
HETATM   37  C2  UNL     1     -34.483   7.801  -4.694  1.00  0.00     0.215 C 
HETATM   38  C1  UNL     1     -33.393   8.303  -3.822  1.00  0.00     0.117 C 
HETATM   39  O1  UNL     1     -35.050   8.563  -5.493  1.00  0.00    -0.274 OA
ATOM     40  H1  UNL     1     -34.366   5.814  -3.912  1.00  0.00     0.165 HD
ENDBRANCH  35  36
BRANCH  35  41
HETATM   41  N2  UNL     1     -35.414   4.697  -6.075  1.00  0.00    -0.049 N 
ATOM     42  H23 UNL     1     -35.722   3.846  -5.603  1.00  0.00     0.277 HD
ATOM     43  H22 UNL     1     -35.865   4.526  -6.973  1.00  0.00     0.277 HD
ATOM     44  H21 UNL     1     -34.399   4.761  -6.149  1.00  0.00     0.277 HD
ENDBRANCH  35  41
ENDBRANCH  32  35
ENDBRANCH  30  31
BRANCH  30  45
HETATM   45  C19 UNL     1     -39.428   7.552  -2.341  1.00  0.00     0.048 A 
HETATM   46  C20 UNL     1     -38.515   8.518  -1.992  1.00  0.00     0.078 A 
HETATM   47  S1  UNL     1     -39.521   9.688  -1.257  1.00  0.00    -0.095 SA
HETATM   48  C21 UNL     1     -41.020   8.887  -1.437  1.00  0.00     0.138 A 
HETATM   49  N8  UNL     1     -40.667   7.766  -2.050  1.00  0.00    -0.361 N 
ATOM     50  H8  UNL     1     -41.374   7.073  -2.292  1.00  0.00     0.165 HD
ENDBRANCH  30  45
ENDBRANCH   1  30
TORSDOF 15
ENDMDL
MODEL 3
REMARK VINA RESULT: -7.489981097      3.878     10.461
REMARK  15 active torsions:
REMARK  status: ('A' for Active; 'I' for Inactive)
REMARK       I    between atoms: C2_2  and  N1_4 
REMARK    1  A    between atoms: N1_4  and  C3_6 
REMARK    2  A    between atoms: C3_6  and  N2_7 
REMARK    3  A    between atoms: C3_6  and  C4_11 
REMARK       I    between atoms: C4_11  and  N3_13 
REMARK    4  A    between atoms: N3_13  and  C5_15 
REMARK    5  A    between atoms: C5_15  and  C6_16 
REMARK    6  A    between atoms: C5_15  and  C19_45 
REMARK       I    between atoms: C6_16  and  N4_18 
REMARK    7  A    between atoms: N4_18  and  C7_20 
REMARK    8  A    between atoms: C7_20  and  C8_21 
REMARK    9  A    between atoms: C7_20  and  C9_25 
REMARK       I    between atoms: C9_25  and  N6_27 
REMARK       I    between atoms: N6_27  and  C10_29 
REMARK   10  A    between atoms: C10_29  and  C11_31 
REMARK   11  A    between atoms: C11_31  and  O6_32 
REMARK   12  A    between atoms: C11_31  and  O7_34 
REMARK   13  A    between atoms: O7_34  and  C12_35 
REMARK   14  A    between atoms: C12_35  and  C13_36 
REMARK   15  A    between atoms: C16_39  and  N7_40 
ROOT
HETATM    1  C6  UNL     1     -39.152   1.643  -8.210  1.00  0.00     0.247 C 
HETATM    2  O3  UNL     1     -40.394   1.602  -8.332  1.00  0.00    -0.271 OA
HETATM    3  N4  UNL     1     -38.347   1.501  -9.370  1.00  0.00    -0.341 N 
ATOM      4  H4  UNL     1     -37.329   1.533  -9.306  1.00  0.00     0.163 HD
ENDROOT
BRANCH   3   5
HETATM    5  C7  UNL     1     -39.003   1.310 -10.644  1.00  0.00     0.215 C 
BRANCH   5   6
HETATM    6  C8  UNL     1     -39.273   2.616 -11.285  1.00  0.00     0.087 C 
HETATM    7  N5  UNL     1     -40.205   2.768 -12.147  1.00  0.00    -0.409 N 
ATOM      8  H52 UNL     1     -40.770   1.954 -12.389  1.00  0.00     0.155 HD
ATOM      9  H51 UNL     1     -40.393   3.668 -12.588  1.00  0.00     0.155 HD
ENDBRANCH   5   6
BRANCH   5  10
HETATM   10  C9  UNL     1     -38.133   0.438 -11.487  1.00  0.00     0.252 C 
HETATM   11  O4  UNL     1     -38.205   0.528 -12.726  1.00  0.00    -0.270 OA
HETATM   12  N6  UNL     1     -37.239  -0.475 -10.886  1.00  0.00    -0.291 N 
HETATM   13  C10 UNL     1     -36.334  -1.346 -11.496  1.00  0.00     0.279 C 
ATOM     14  H6  UNL     1     -37.257  -0.502  -9.867  1.00  0.00     0.172 HD
HETATM   15  O5  UNL     1     -35.562  -1.994 -10.697  1.00  0.00    -0.268 OA
BRANCH  13  16
HETATM   16  C11 UNL     1     -36.199  -1.571 -12.913  1.00  0.00     0.351 C 
BRANCH  16  17
HETATM   17  O6  UNL     1     -35.581  -0.340 -13.423  1.00  0.00    -0.363 OA
ATOM     18  H6  UNL     1     -36.012  -0.186 -14.256  1.00  0.00     0.213 HD
ENDBRANCH  16  17
BRANCH  16  19
HETATM   19  O7  UNL     1     -35.186  -2.486 -13.242  1.00  0.00    -0.348 OA
BRANCH  19  20
HETATM   20  C12 UNL     1     -34.195  -1.843 -13.948  1.00  0.00     0.210 C 
BRANCH  20  21
HETATM   21  C13 UNL     1     -32.848  -2.207 -13.413  1.00  0.00    -0.034 A 
HETATM   22  C14 UNL     1     -32.027  -1.199 -12.974  1.00  0.00     0.012 A 
HETATM   23  C15 UNL     1     -30.767  -1.487 -12.470  1.00  0.00     0.037 A 
HETATM   24  C16 UNL     1     -30.371  -2.794 -12.422  1.00  0.00     0.102 A 
HETATM   25  C17 UNL     1     -31.197  -3.818 -12.864  1.00  0.00     0.037 A 
HETATM   26  C18 UNL     1     -32.448  -3.509 -13.364  1.00  0.00     0.012 A 
BRANCH  24  27
HETATM   27  N7  UNL     1     -29.098  -3.134 -11.916  1.00  0.00    -0.116 N 
HETATM   28  O8  UNL     1     -28.096  -2.908 -12.639  1.00  0.00    -0.532 OA
HETATM   29  O9  UNL     1     -28.991  -3.690 -10.673  1.00  0.00    -0.532 OA
ENDBRANCH  24  27
ENDBRANCH  20  21
ENDBRANCH  19  20
ENDBRANCH  16  19
ENDBRANCH  13  16
ENDBRANCH   5  10
ENDBRANCH   3   5
BRANCH   1  30
HETATM   30  C5  UNL     1     -38.462   1.833  -6.907  1.00  0.00     0.227 C 
BRANCH  30  31
HETATM   31  N3  UNL     1     -37.103   1.392  -6.934  1.00  0.00    -0.339 N 
HETATM   32  C4  UNL     1     -36.715   0.023  -6.750  1.00  0.00     0.269 C 
HETATM   33  O2  UNL     1     -37.618  -0.823  -6.558  1.00  0.00    -0.269 OA
ATOM     34  H3  UNL     1     -36.372   2.085  -7.091  1.00  0.00     0.163 HD
BRANCH  32  35
HETATM   35  C3  UNL     1     -35.312  -0.413  -6.779  1.00  0.00     0.376 C 
BRANCH  35  36
HETATM   36  N1  UNL     1     -35.225  -1.775  -6.316  1.00  0.00    -0.326 N 
HETATM   37  C2  UNL     1     -33.928  -2.332  -6.099  1.00  0.00     0.215 C 
HETATM   38  C1  UNL     1     -33.855  -3.735  -5.623  1.00  0.00     0.117 C 
HETATM   39  O1  UNL     1     -32.891  -1.680  -6.298  1.00  0.00    -0.274 OA
ATOM     40  H1  UNL     1     -36.067  -2.326  -6.147  1.00  0.00     0.165 HD
ENDBRANCH  35  36
BRANCH  35  41
HETATM   41  N2  UNL     1     -34.818  -0.372  -8.167  1.00  0.00    -0.049 N 
ATOM     42  H23 UNL     1     -34.241   0.447  -8.357  1.00  0.00     0.277 HD
ATOM     43  H22 UNL     1     -34.112  -1.083  -8.356  1.00  0.00     0.277 HD
ATOM     44  H21 UNL     1     -35.623  -0.440  -8.790  1.00  0.00     0.277 HD
ENDBRANCH  35  41
ENDBRANCH  32  35
ENDBRANCH  30  31
BRANCH  30  45
HETATM   45  C19 UNL     1     -38.528   3.310  -6.535  1.00  0.00     0.048 A 
HETATM   46  C20 UNL     1     -37.508   3.853  -5.793  1.00  0.00     0.078 A 
HETATM   47  S1  UNL     1     -38.027   5.475  -5.637  1.00  0.00    -0.095 SA
HETATM   48  C21 UNL     1     -39.489   5.362  -6.514  1.00  0.00     0.138 A 
HETATM   49  N8  UNL     1     -39.500   4.087  -6.878  1.00  0.00    -0.361 N 
ATOM     50  H8  UNL     1     -40.276   3.721  -7.429  1.00  0.00     0.165 HD
ENDBRANCH  30  45
ENDBRANCH   1  30
TORSDOF 15
ENDMDL
MODEL 4
REMARK VINA RESULT: -7.429261868      0.850      1.092
REMARK  15 active torsions:
REMARK  status: ('A' for Active; 'I' for Inactive)
REMARK       I    between atoms: C2_2  and  N1_4 
REMARK    1  A    between atoms: N1_4  and  C3_6 
REMARK    2  A    between atoms: C3_6  and  N2_7 
REMARK    3  A    between atoms: C3_6  and  C4_11 
REMARK       I    between atoms: C4_11  and  N3_13 
REMARK    4  A    between atoms: N3_13  and  C5_15 
REMARK    5  A    between atoms: C5_15  and  C6_16 
REMARK    6  A    between atoms: C5_15  and  C19_45 
REMARK       I    between atoms: C6_16  and  N4_18 
REMARK    7  A    between atoms: N4_18  and  C7_20 
REMARK    8  A    between atoms: C7_20  and  C8_21 
REMARK    9  A    between atoms: C7_20  and  C9_25 
REMARK       I    between atoms: C9_25  and  N6_27 
REMARK       I    between atoms: N6_27  and  C10_29 
REMARK   10  A    between atoms: C10_29  and  C11_31 
REMARK   11  A    between atoms: C11_31  and  O6_32 
REMARK   12  A    between atoms: C11_31  and  O7_34 
REMARK   13  A    between atoms: O7_34  and  C12_35 
REMARK   14  A    between atoms: C12_35  and  C13_36 
REMARK   15  A    between atoms: C16_39  and  N7_40 
ROOT
HETATM    1  C6  UNL     1     -36.590  -1.741  -9.678  1.00  0.00     0.247 C 
HETATM    2  O3  UNL     1     -37.749  -2.184  -9.545  1.00  0.00    -0.271 OA
HETATM    3  N4  UNL     1     -35.847  -1.411  -8.515  1.00  0.00    -0.341 N 
ATOM      4  H4  UNL     1     -34.896  -1.049  -8.588  1.00  0.00     0.163 HD
ENDROOT
BRANCH   3   5
HETATM    5  C7  UNL     1     -36.470  -1.599  -7.223  1.00  0.00     0.215 C 
BRANCH   5   6
HETATM    6  C8  UNL     1     -35.489  -2.129  -6.250  1.00  0.00     0.087 C 
HETATM    7  N5  UNL     1     -35.516  -1.802  -5.015  1.00  0.00    -0.409 N 
ATOM      8  H52 UNL     1     -36.242  -1.156  -4.706  1.00  0.00     0.155 HD
ATOM      9  H51 UNL     1     -34.840  -2.167  -4.344  1.00  0.00     0.155 HD
ENDBRANCH   5   6
BRANCH   5  10
HETATM   10  C9  UNL     1     -37.043  -0.291  -6.790  1.00  0.00     0.252 C 
HETATM   11  O4  UNL     1     -38.123  -0.278  -6.173  1.00  0.00    -0.270 OA
HETATM   12  N6  UNL     1     -36.367   0.916  -7.076  1.00  0.00    -0.291 N 
HETATM   13  C10 UNL     1     -36.724   2.222  -6.734  1.00  0.00     0.279 C 
ATOM     14  H6  UNL     1     -35.500   0.820  -7.604  1.00  0.00     0.172 HD
HETATM   15  O5  UNL     1     -35.862   3.130  -7.034  1.00  0.00    -0.268 OA
BRANCH  13  16
HETATM   16  C11 UNL     1     -37.948   2.625  -6.089  1.00  0.00     0.351 C 
BRANCH  16  17
HETATM   17  O6  UNL     1     -37.730   2.326  -4.668  1.00  0.00    -0.363 OA
ATOM     18  H6  UNL     1     -38.126   3.057  -4.208  1.00  0.00     0.213 HD
ENDBRANCH  16  17
BRANCH  16  19
HETATM   19  O7  UNL     1     -38.107   4.018  -6.006  1.00  0.00    -0.348 OA
BRANCH  19  20
HETATM   20  C12 UNL     1     -39.234   4.395  -6.702  1.00  0.00     0.210 C 
BRANCH  20  21
HETATM   21  C13 UNL     1     -40.233   5.020  -5.784  1.00  0.00    -0.034 A 
HETATM   22  C14 UNL     1     -39.818   5.412  -4.537  1.00  0.00     0.012 A 
HETATM   23  C15 UNL     1     -40.710   5.996  -3.650  1.00  0.00     0.037 A 
HETATM   24  C16 UNL     1     -42.005   6.170  -4.052  1.00  0.00     0.102 A 
HETATM   25  C17 UNL     1     -42.431   5.776  -5.312  1.00  0.00     0.037 A 
HETATM   26  C18 UNL     1     -41.526   5.195  -6.181  1.00  0.00     0.012 A 
BRANCH  24  27
HETATM   27  N7  UNL     1     -42.947   6.760  -3.182  1.00  0.00    -0.116 N 
HETATM   28  O8  UNL     1     -42.599   7.784  -2.543  1.00  0.00    -0.532 OA
HETATM   29  O9  UNL     1     -44.191   6.210  -3.061  1.00  0.00    -0.532 OA
ENDBRANCH  24  27
ENDBRANCH  20  21
ENDBRANCH  19  20
ENDBRANCH  16  19
ENDBRANCH  13  16
ENDBRANCH   5  10
ENDBRANCH   3   5
BRANCH   1  30
HETATM   30  C5  UNL     1     -35.937  -1.537 -10.997  1.00  0.00     0.227 C 
BRANCH  30  31
HETATM   31  N3  UNL     1     -35.953  -2.714 -11.807  1.00  0.00    -0.339 N 
HETATM   32  C4  UNL     1     -34.823  -3.162 -12.570  1.00  0.00     0.269 C 
HETATM   33  O2  UNL     1     -33.773  -2.481 -12.518  1.00  0.00    -0.269 OA
ATOM     34  H3  UNL     1     -36.811  -3.264 -11.845  1.00  0.00     0.163 HD
BRANCH  32  35
HETATM   35  C3  UNL     1     -34.857  -4.374 -13.398  1.00  0.00     0.376 C 
BRANCH  35  36
HETATM   36  N1  UNL     1     -36.150  -4.489 -14.024  1.00  0.00    -0.326 N 
HETATM   37  C2  UNL     1     -36.423  -5.657 -14.799  1.00  0.00     0.215 C 
HETATM   38  C1  UNL     1     -37.758  -5.760 -15.438  1.00  0.00     0.117 C 
HETATM   39  O1  UNL     1     -35.585  -6.561 -14.943  1.00  0.00    -0.274 OA
ATOM     40  H1  UNL     1     -36.851  -3.756 -13.917  1.00  0.00     0.165 HD
ENDBRANCH  35  36
BRANCH  35  41
HETATM   41  N2  UNL     1     -33.844  -4.264 -14.464  1.00  0.00    -0.049 N 
ATOM     42  H23 UNL     1     -34.254  -4.089 -15.381  1.00  0.00     0.277 HD
ATOM     43  H22 UNL     1     -33.291  -3.410 -14.396  1.00  0.00     0.277 HD
ATOM     44  H21 UNL     1     -33.271  -5.107 -14.441  1.00  0.00     0.277 HD
ENDBRANCH  35  41
ENDBRANCH  32  35
ENDBRANCH  30  31
BRANCH  30  45
HETATM   45  C19 UNL     1     -36.645  -0.395 -11.716  1.00  0.00     0.048 A 
HETATM   46  C20 UNL     1     -35.903   0.464 -12.491  1.00  0.00     0.078 A 
HETATM   47  S1  UNL     1     -37.107   1.536 -13.060  1.00  0.00    -0.095 SA
HETATM   48  C21 UNL     1     -38.461   0.835 -12.288  1.00  0.00     0.138 A 
HETATM   49  N8  UNL     1     -37.916  -0.182 -11.636  1.00  0.00    -0.361 N 
ATOM     50  H8  UNL     1     -38.501  -0.797 -11.071  1.00  0.00     0.165 HD
ENDBRANCH  30  45
ENDBRANCH   1  30
TORSDOF 15
ENDMDL
MODEL 5
REMARK VINA RESULT: -7.413533594      4.316      6.657
REMARK  15 active torsions:
REMARK  status: ('A' for Active; 'I' for Inactive)
REMARK       I    between atoms: C2_2  and  N1_4 
REMARK    1  A    between atoms: N1_4  and  C3_6 
REMARK    2  A    between atoms: C3_6  and  N2_7 
REMARK    3  A    between atoms: C3_6  and  C4_11 
REMARK       I    between atoms: C4_11  and  N3_13 
REMARK    4  A    between atoms: N3_13  and  C5_15 
REMARK    5  A    between atoms: C5_15  and  C6_16 
REMARK    6  A    between atoms: C5_15  and  C19_45 
REMARK       I    between atoms: C6_16  and  N4_18 
REMARK    7  A    between atoms: N4_18  and  C7_20 
REMARK    8  A    between atoms: C7_20  and  C8_21 
REMARK    9  A    between atoms: C7_20  and  C9_25 
REMARK       I    between atoms: C9_25  and  N6_27 
REMARK       I    between atoms: N6_27  and  C10_29 
REMARK   10  A    between atoms: C10_29  and  C11_31 
REMARK   11  A    between atoms: C11_31  and  O6_32 
REMARK   12  A    between atoms: C11_31  and  O7_34 
REMARK   13  A    between atoms: O7_34  and  C12_35 
REMARK   14  A    between atoms: C12_35  and  C13_36 
REMARK   15  A    between atoms: C16_39  and  N7_40 
ROOT
HETATM    1  C6  UNL     1     -34.455   1.011 -11.451  1.00  0.00     0.247 C 
HETATM    2  O3  UNL     1     -33.684   0.856 -10.482  1.00  0.00    -0.271 OA
HETATM    3  N4  UNL     1     -35.269   2.173 -11.497  1.00  0.00    -0.341 N 
ATOM      4  H4  UNL     1     -35.907   2.332 -12.276  1.00  0.00     0.163 HD
ENDROOT
BRANCH   3   5
HETATM    5  C7  UNL     1     -35.171   3.125 -10.413  1.00  0.00     0.215 C 
BRANCH   5   6
HETATM    6  C8  UNL     1     -35.057   4.501 -10.945  1.00  0.00     0.087 C 
HETATM    7  N5  UNL     1     -35.996   5.358 -10.814  1.00  0.00    -0.409 N 
ATOM      8  H52 UNL     1     -36.843   5.069 -10.326  1.00  0.00     0.155 HD
ATOM      9  H51 UNL     1     -35.917   6.307 -11.181  1.00  0.00     0.155 HD
ENDBRANCH   5   6
BRANCH   5  10
HETATM   10  C9  UNL     1     -36.369   2.956  -9.539  1.00  0.00     0.252 C 
HETATM   11  O4  UNL     1     -36.405   3.542  -8.442  1.00  0.00    -0.270 OA
HETATM   12  N6  UNL     1     -37.447   2.144  -9.953  1.00  0.00    -0.291 N 
HETATM   13  C10 UNL     1     -38.653   1.887  -9.297  1.00  0.00     0.279 C 
ATOM     14  H6  UNL     1     -37.330   1.683 -10.855  1.00  0.00     0.172 HD
HETATM   15  O5  UNL     1     -39.507   1.188  -9.958  1.00  0.00    -0.268 OA
BRANCH  13  16
HETATM   16  C11 UNL     1     -39.008   2.330  -7.973  1.00  0.00     0.351 C 
BRANCH  16  17
HETATM   17  O6  UNL     1     -40.228   1.579  -7.648  1.00  0.00    -0.363 OA
ATOM     18  H6  UNL     1     -40.132   1.355  -6.730  1.00  0.00     0.213 HD
ENDBRANCH  16  17
BRANCH  16  19
HETATM   19  O7  UNL     1     -38.162   1.834  -6.968  1.00  0.00    -0.348 OA
BRANCH  19  20
HETATM   20  C12 UNL     1     -38.499   0.529  -6.685  1.00  0.00     0.210 C 
BRANCH  20  21
HETATM   21  C13 UNL     1     -37.271  -0.293  -6.459  1.00  0.00    -0.034 A 
HETATM   22  C14 UNL     1     -36.991  -1.303  -7.343  1.00  0.00     0.012 A 
HETATM   23  C15 UNL     1     -35.864  -2.093  -7.174  1.00  0.00     0.037 A 
HETATM   24  C16 UNL     1     -35.046  -1.838  -6.109  1.00  0.00     0.102 A 
HETATM   25  C17 UNL     1     -35.324  -0.817  -5.211  1.00  0.00     0.037 A 
HETATM   26  C18 UNL     1     -36.453  -0.042  -5.397  1.00  0.00     0.012 A 
BRANCH  24  27
HETATM   27  N7  UNL     1     -33.888  -2.617  -5.898  1.00  0.00    -0.116 N 
HETATM   28  O8  UNL     1     -32.872  -2.049  -5.426  1.00  0.00    -0.532 OA
HETATM   29  O9  UNL     1     -33.903  -3.947  -6.208  1.00  0.00    -0.532 OA
ENDBRANCH  24  27
ENDBRANCH  20  21
ENDBRANCH  19  20
ENDBRANCH  16  19
ENDBRANCH  13  16
ENDBRANCH   5  10
ENDBRANCH   3   5
BRANCH   1  30
HETATM   30  C5  UNL     1     -34.571   0.040 -12.570  1.00  0.00     0.227 C 
BRANCH  30  31
HETATM   31  N3  UNL     1     -33.614  -1.018 -12.483  1.00  0.00    -0.339 N 
HETATM   32  C4  UNL     1     -32.871  -1.505 -13.609  1.00  0.00     0.269 C 
HETATM   33  O2  UNL     1     -33.076  -0.971 -14.723  1.00  0.00    -0.269 OA
ATOM     34  H3  UNL     1     -33.451  -1.449 -11.573  1.00  0.00     0.163 HD
BRANCH  32  35
HETATM   35  C3  UNL     1     -31.892  -2.594 -13.501  1.00  0.00     0.376 C 
BRANCH  35  36
HETATM   36  N1  UNL     1     -30.997  -2.326 -12.404  1.00  0.00    -0.326 N 
HETATM   37  C2  UNL     1     -29.957  -3.268 -12.136  1.00  0.00     0.215 C 
HETATM   38  C1  UNL     1     -29.045  -2.978 -11.003  1.00  0.00     0.117 C 
HETATM   39  O1  UNL     1     -29.810  -4.296 -12.815  1.00  0.00    -0.274 OA
ATOM     40  H1  UNL     1     -31.103  -1.486 -11.834  1.00  0.00     0.165 HD
ENDBRANCH  35  36
BRANCH  35  41
HETATM   41  N2  UNL     1     -32.598  -3.856 -13.214  1.00  0.00    -0.049 N 
ATOM     42  H23 UNL     1     -32.285  -4.627 -13.805  1.00  0.00     0.277 HD
ATOM     43  H22 UNL     1     -32.336  -4.260 -12.315  1.00  0.00     0.277 HD
ATOM     44  H21 UNL     1     -33.599  -3.681 -13.291  1.00  0.00     0.277 HD
ENDBRANCH  35  41
ENDBRANCH  32  35
ENDBRANCH  30  31
BRANCH  30  45
HETATM   45  C19 UNL     1     -35.985  -0.529 -12.573  1.00  0.00     0.048 A 
HETATM   46  C20 UNL     1     -36.696  -0.532 -13.748  1.00  0.00     0.078 A 
HETATM   47  S1  UNL     1     -38.171  -1.240 -13.252  1.00  0.00    -0.095 SA
HETATM   48  C21 UNL     1     -37.795  -1.485 -11.603  1.00  0.00     0.138 A 
HETATM   49  N8  UNL     1     -36.560  -1.011 -11.523  1.00  0.00    -0.361 N 
ATOM     50  H8  UNL     1     -36.065  -1.026 -10.632  1.00  0.00     0.165 HD
ENDBRANCH  30  45
ENDBRANCH   1  30
TORSDOF 15
ENDMDL
