MODEL 1
REMARK VINA RESULT: -6.710829859      0.000      0.000
REMARK  17 active torsions:
REMARK  status: ('A' for Active; 'I' for Inactive)
REMARK    1  A    between atoms: N1_1  and  C1_4 
REMARK    2  A    between atoms: N4_12  and  C5_13 
REMARK    3  A    between atoms: C5_13  and  C6_14 
REMARK    4  A    between atoms: C6_14  and  S1_15 
REMARK    5  A    between atoms: S1_15  and  C7_18 
REMARK    6  A    between atoms: C7_18  and  C8_19 
REMARK    7  A    between atoms: C8_19  and  C9_20 
REMARK    8  A    between atoms: C9_20  and  C10_21 
REMARK    9  A    between atoms: C10_21  and  C11_22 
REMARK   10  A    between atoms: C11_22  and  N5_23 
REMARK   11  A    between atoms: C13_25  and  C14_26 
REMARK   12  A    between atoms: C14_26  and  C15_27 
REMARK   13  A    between atoms: C15_27  and  N6_28 
REMARK       I    between atoms: N6_28  and  C16_30 
REMARK   14  A    between atoms: C16_30  and  C17_32 
REMARK   15  A    between atoms: C17_32  and  N7_33 
REMARK   16  A    between atoms: C17_32  and  C18_37 
REMARK   17  A    between atoms: C18_37  and  N8_38 
ROOT
HETATM    1  C11 UNL     1     -30.481  -1.478 -12.072  1.00  0.00     0.133 C 
ENDROOT
BRANCH   1   2
HETATM    2  C10 UNL     1     -31.088  -0.624 -13.137  1.00  0.00     0.020 C 
BRANCH   2   3
HETATM    3  C9  UNL     1     -32.539  -0.329 -12.975  1.00  0.00     0.002 C 
BRANCH   3   4
HETATM    4  C8  UNL     1     -33.429  -1.300 -13.700  1.00  0.00     0.015 C 
BRANCH   4   5
HETATM    5  C7  UNL     1     -34.858  -0.845 -13.602  1.00  0.00     0.140 C 
BRANCH   5   6
HETATM    6  S1  UNL     1     -35.833  -2.089 -12.709  1.00  0.00     0.146 S 
HETATM    7  O1  UNL     1     -34.810  -3.064 -12.205  1.00  0.00    -0.228 OA
HETATM    8  O2  UNL     1     -36.668  -2.758 -13.743  1.00  0.00    -0.228 OA
BRANCH   6   9
HETATM    9  C6  UNL     1     -36.709  -1.251 -11.463  1.00  0.00     0.160 C 
BRANCH   9  10
HETATM   10  C5  UNL     1     -36.355  -1.517 -10.056  1.00  0.00     0.146 C 
BRANCH  10  11
HETATM   11  N4  UNL     1     -36.774  -0.591  -9.066  1.00  0.00    -0.326 N 
HETATM   12  C2  UNL     1     -36.493  -0.610  -7.752  1.00  0.00     0.154 A 
HETATM   13  N2  UNL     1     -35.786  -1.482  -6.977  1.00  0.00    -0.174 N 
HETATM   14  C3  UNL     1     -37.058   0.472  -7.110  1.00  0.00     0.120 A 
HETATM   15  C1  UNL     1     -35.664  -1.271  -5.663  1.00  0.00     0.678 A 
ATOM     16  H2  UNL     1     -35.348  -2.300  -7.402  1.00  0.00     0.186 HD
HETATM   17  N11 UNL     1     -36.230  -0.196  -5.048  1.00  0.00    -0.177 N 
HETATM   18  C21 UNL     1     -36.941   0.704  -5.757  1.00  0.00     0.162 A 
ATOM     19  H11 UNL     1     -36.115  -0.070  -4.042  1.00  0.00     0.185 HD
HETATM   20  N10 UNL     1     -37.516   1.809  -5.093  1.00  0.00    -0.080 NA
HETATM   21  N3  UNL     1     -37.692   1.146  -8.084  1.00  0.00    -0.346 N 
HETATM   22  C4  UNL     1     -37.530   0.523  -9.256  1.00  0.00     0.185 A 
ATOM     23  H3  UNL     1     -38.220   2.008  -7.949  1.00  0.00     0.167 HD
BRANCH  15  24
HETATM   24  N1  UNL     1     -34.996  -2.099  -4.940  1.00  0.00    -0.234 N 
ATOM     25  H12 UNL     1     -34.010  -1.900  -4.770  1.00  0.00     0.174 HD
ATOM     26  H11 UNL     1     -35.456  -2.925  -4.558  1.00  0.00     0.174 HD
ENDBRANCH  15  24
ENDBRANCH  10  11
ENDBRANCH   9  10
ENDBRANCH   6   9
ENDBRANCH   5   6
ENDBRANCH   4   5
ENDBRANCH   3   4
ENDBRANCH   2   3
ENDBRANCH   1   2
BRANCH   1  27
HETATM   27  N5  UNL     1     -29.963  -2.740 -12.507  1.00  0.00    -0.309 N 
HETATM   28  C12 UNL     1     -30.428  -3.317 -13.635  1.00  0.00     0.106 A 
HETATM   29  C13 UNL     1     -29.952  -4.553 -14.082  1.00  0.00    -0.003 A 
HETATM   30  C19 UNL     1     -28.982  -5.196 -13.345  1.00  0.00     0.112 A 
HETATM   31  S2  UNL     1     -28.376  -6.660 -13.810  1.00  0.00    -0.060 SA
HETATM   32  N9  UNL     1     -28.532  -4.595 -12.219  1.00  0.00    -0.299 N 
HETATM   33  C20 UNL     1     -29.017  -3.386 -11.808  1.00  0.00     0.327 A 
ATOM     34  H9  UNL     1     -27.813  -5.057 -11.663  1.00  0.00     0.171 HD
HETATM   35  O4  UNL     1     -28.509  -2.943 -10.747  1.00  0.00    -0.246 OA
BRANCH  29  36
HETATM   36  C14 UNL     1     -30.488  -5.148 -15.329  1.00  0.00     0.063 C 
BRANCH  36  37
HETATM   37  C15 UNL     1     -31.772  -4.475 -15.751  1.00  0.00     0.127 C 
BRANCH  37  38
HETATM   38  N6  UNL     1     -32.877  -5.359 -15.478  1.00  0.00    -0.359 N 
HETATM   39  C16 UNL     1     -34.198  -4.880 -15.656  1.00  0.00     0.249 C 
HETATM   40  O3  UNL     1     -34.396  -3.677 -16.049  1.00  0.00    -0.271 OA
ATOM     41  H6  UNL     1     -32.711  -6.314 -15.163  1.00  0.00     0.162 HD
BRANCH  39  42
HETATM   42  C17 UNL     1     -35.398  -5.727 -15.399  1.00  0.00     0.299 C 
BRANCH  42  43
HETATM   43  N7  UNL     1     -35.810  -5.567 -14.010  1.00  0.00    -0.065 N 
ATOM     44  H73 UNL     1     -36.685  -5.050 -13.923  1.00  0.00     0.275 HD
ATOM     45  H72 UNL     1     -36.120  -6.446 -13.594  1.00  0.00     0.275 HD
ATOM     46  H71 UNL     1     -35.051  -5.135 -13.483  1.00  0.00     0.275 HD
ENDBRANCH  42  43
BRANCH  42  47
HETATM   47  C18 UNL     1     -36.588  -5.225 -16.224  1.00  0.00     0.272 C 
BRANCH  47  48
HETATM   48  N8  UNL     1     -36.363  -5.281 -17.637  1.00  0.00    -0.077 N 
ATOM     49  H83 UNL     1     -37.087  -4.768 -18.140  1.00  0.00     0.274 HD
ATOM     50  H82 UNL     1     -35.550  -4.722 -17.897  1.00  0.00     0.274 HD
ATOM     51  H81 UNL     1     -36.278  -6.232 -17.996  1.00  0.00     0.274 HD
ENDBRANCH  47  48
ENDBRANCH  42  47
ENDBRANCH  39  42
ENDBRANCH  37  38
ENDBRANCH  36  37
ENDBRANCH  29  36
ENDBRANCH   1  27
TORSDOF 17
ENDMDL
MODEL 2
REMARK VINA RESULT: -6.695982015      3.262      6.129
REMARK  17 active torsions:
REMARK  status: ('A' for Active; 'I' for Inactive)
REMARK    1  A    between atoms: N1_1  and  C1_4 
REMARK    2  A    between atoms: N4_12  and  C5_13 
REMARK    3  A    between atoms: C5_13  and  C6_14 
REMARK    4  A    between atoms: C6_14  and  S1_15 
REMARK    5  A    between atoms: S1_15  and  C7_18 
REMARK    6  A    between atoms: C7_18  and  C8_19 
REMARK    7  A    between atoms: C8_19  and  C9_20 
REMARK    8  A    between atoms: C9_20  and  C10_21 
REMARK    9  A    between atoms: C10_21  and  C11_22 
REMARK   10  A    between atoms: C11_22  and  N5_23 
REMARK   11  A    between atoms: C13_25  and  C14_26 
REMARK   12  A    between atoms: C14_26  and  C15_27 
REMARK   13  A    between atoms: C15_27  and  N6_28 
REMARK       I    between atoms: N6_28  and  C16_30 
REMARK   14  A    between atoms: C16_30  and  C17_32 
REMARK   15  A    between atoms: C17_32  and  N7_33 
REMARK   16  A    between atoms: C17_32  and  C18_37 
REMARK   17  A    between atoms: C18_37  and  N8_38 
ROOT
HETATM    1  C11 UNL     1     -36.257  -0.074 -10.879  1.00  0.00     0.133 C 
ENDROOT
BRANCH   1   2
HETATM    2  C10 UNL     1     -36.854  -1.424 -10.642  1.00  0.00     0.020 C 
BRANCH   2   3
HETATM    3  C9  UNL     1     -36.865  -1.882  -9.225  1.00  0.00     0.002 C 
BRANCH   3   4
HETATM    4  C8  UNL     1     -35.999  -1.047  -8.322  1.00  0.00     0.015 C 
BRANCH   4   5
HETATM    5  C7  UNL     1     -35.480  -1.895  -7.195  1.00  0.00     0.140 C 
BRANCH   5   6
HETATM    6  S1  UNL     1     -36.143  -1.284  -5.619  1.00  0.00     0.146 S 
HETATM    7  O1  UNL     1     -35.004  -0.516  -5.015  1.00  0.00    -0.228 OA
HETATM    8  O2  UNL     1     -36.397  -2.497  -4.797  1.00  0.00    -0.228 OA
BRANCH   6   9
HETATM    9  C6  UNL     1     -37.543  -0.325  -5.995  1.00  0.00     0.160 C 
BRANCH   9  10
HETATM   10  C5  UNL     1     -37.510   1.117  -5.685  1.00  0.00     0.146 C 
BRANCH  10  11
HETATM   11  N4  UNL     1     -37.141   2.022  -6.714  1.00  0.00    -0.326 N 
HETATM   12  C2  UNL     1     -37.720   2.180  -7.916  1.00  0.00     0.154 A 
HETATM   13  N2  UNL     1     -38.765   1.546  -8.522  1.00  0.00    -0.174 N 
HETATM   14  C3  UNL     1     -37.096   3.176  -8.638  1.00  0.00     0.120 A 
HETATM   15  C1  UNL     1     -39.143   1.895  -9.755  1.00  0.00     0.678 A 
ATOM     16  H2  UNL     1     -39.261   0.801  -8.031  1.00  0.00     0.186 HD
HETATM   17  N11 UNL     1     -38.514   2.881 -10.452  1.00  0.00    -0.177 N 
HETATM   18  C21 UNL     1     -37.474   3.547  -9.910  1.00  0.00     0.162 A 
ATOM     19  H11 UNL     1     -38.832   3.118 -11.391  1.00  0.00     0.185 HD
HETATM   20  N10 UNL     1     -36.841   4.565 -10.655  1.00  0.00    -0.080 NA
HETATM   21  N3  UNL     1     -36.117   3.614  -7.829  1.00  0.00    -0.346 N 
HETATM   22  C4  UNL     1     -36.133   2.934  -6.678  1.00  0.00     0.185 A 
ATOM     23  H3  UNL     1     -35.458   4.356  -8.060  1.00  0.00     0.167 HD
BRANCH  15  24
HETATM   24  N1  UNL     1     -40.130   1.291 -10.318  1.00  0.00    -0.234 N 
ATOM     25  H12 UNL     1     -40.211   0.283 -10.190  1.00  0.00     0.174 HD
ATOM     26  H11 UNL     1     -40.801   1.824 -10.871  1.00  0.00     0.174 HD
ENDBRANCH  15  24
ENDBRANCH  10  11
ENDBRANCH   9  10
ENDBRANCH   6   9
ENDBRANCH   5   6
ENDBRANCH   4   5
ENDBRANCH   3   4
ENDBRANCH   2   3
ENDBRANCH   1   2
BRANCH   1  27
HETATM   27  N5  UNL     1     -35.082  -0.049 -11.695  1.00  0.00    -0.309 N 
HETATM   28  C12 UNL     1     -34.855  -1.027 -12.597  1.00  0.00     0.106 A 
HETATM   29  C13 UNL     1     -33.713  -1.038 -13.403  1.00  0.00    -0.003 A 
HETATM   30  C19 UNL     1     -32.795  -0.020 -13.265  1.00  0.00     0.112 A 
HETATM   31  S2  UNL     1     -31.421   0.029 -14.180  1.00  0.00    -0.060 SA
HETATM   32  N9  UNL     1     -33.046   0.948 -12.354  1.00  0.00    -0.299 N 
HETATM   33  C20 UNL     1     -34.173   0.932 -11.582  1.00  0.00     0.327 A 
ATOM     34  H9  UNL     1     -32.377   1.709 -12.241  1.00  0.00     0.171 HD
HETATM   35  O4  UNL     1     -34.280   1.893 -10.779  1.00  0.00    -0.246 OA
BRANCH  29  36
HETATM   36  C14 UNL     1     -33.507  -2.129 -14.384  1.00  0.00     0.063 C 
BRANCH  36  37
HETATM   37  C15 UNL     1     -33.273  -3.451 -13.694  1.00  0.00     0.127 C 
BRANCH  37  38
HETATM   38  N6  UNL     1     -32.202  -3.301 -12.742  1.00  0.00    -0.359 N 
HETATM   39  C16 UNL     1     -30.935  -3.861 -13.040  1.00  0.00     0.249 C 
HETATM   40  O3  UNL     1     -30.757  -4.491 -14.141  1.00  0.00    -0.271 OA
ATOM     41  H6  UNL     1     -32.353  -2.800 -11.866  1.00  0.00     0.162 HD
BRANCH  39  42
HETATM   42  C17 UNL     1     -29.774  -3.750 -12.112  1.00  0.00     0.299 C 
BRANCH  42  43
HETATM   43  N7  UNL     1     -29.177  -5.068 -11.932  1.00  0.00    -0.065 N 
ATOM     44  H73 UNL     1     -28.332  -5.036 -11.362  1.00  0.00     0.275 HD
ATOM     45  H72 UNL     1     -29.738  -5.667 -11.326  1.00  0.00     0.275 HD
ATOM     46  H71 UNL     1     -29.011  -5.489 -12.846  1.00  0.00     0.275 HD
ENDBRANCH  42  43
BRANCH  42  47
HETATM   47  C18 UNL     1     -28.667  -2.899 -12.747  1.00  0.00     0.272 C 
BRANCH  47  48
HETATM   48  N8  UNL     1     -27.361  -3.199 -12.243  1.00  0.00    -0.077 N 
ATOM     49  H83 UNL     1     -26.771  -2.368 -12.251  1.00  0.00     0.274 HD
ATOM     50  H82 UNL     1     -27.392  -3.373 -11.238  1.00  0.00     0.274 HD
ATOM     51  H81 UNL     1     -26.906  -3.971 -12.730  1.00  0.00     0.274 HD
ENDBRANCH  47  48
ENDBRANCH  42  47
ENDBRANCH  39  42
ENDBRANCH  37  38
ENDBRANCH  36  37
ENDBRANCH  29  36
ENDBRANCH   1  27
TORSDOF 17
ENDMDL
MODEL 3
REMARK VINA RESULT: -6.673339769      3.457     10.840
REMARK  17 active torsions:
REMARK  status: ('A' for Active; 'I' for Inactive)
REMARK    1  A    between atoms: N1_1  and  C1_4 
REMARK    2  A    between atoms: N4_12  and  C5_13 
REMARK    3  A    between atoms: C5_13  and  C6_14 
REMARK    4  A    between atoms: C6_14  and  S1_15 
REMARK    5  A    between atoms: S1_15  and  C7_18 
REMARK    6  A    between atoms: C7_18  and  C8_19 
REMARK    7  A    between atoms: C8_19  and  C9_20 
REMARK    8  A    between atoms: C9_20  and  C10_21 
REMARK    9  A    between atoms: C10_21  and  C11_22 
REMARK   10  A    between atoms: C11_22  and  N5_23 
REMARK   11  A    between atoms: C13_25  and  C14_26 
REMARK   12  A    between atoms: C14_26  and  C15_27 
REMARK   13  A    between atoms: C15_27  and  N6_28 
REMARK       I    between atoms: N6_28  and  C16_30 
REMARK   14  A    between atoms: C16_30  and  C17_32 
REMARK   15  A    between atoms: C17_32  and  N7_33 
REMARK   16  A    between atoms: C17_32  and  C18_37 
REMARK   17  A    between atoms: C18_37  and  N8_38 
ROOT
HETATM    1  C11 UNL     1     -37.293   0.269 -10.642  1.00  0.00     0.133 C 
ENDROOT
BRANCH   1   2
HETATM    2  C10 UNL     1     -36.562   1.444 -11.207  1.00  0.00     0.020 C 
BRANCH   2   3
HETATM    3  C9  UNL     1     -35.643   1.144 -12.341  1.00  0.00     0.002 C 
BRANCH   3   4
HETATM    4  C8  UNL     1     -34.313   0.598 -11.901  1.00  0.00     0.015 C 
BRANCH   4   5
HETATM    5  C7  UNL     1     -33.845  -0.441 -12.880  1.00  0.00     0.140 C 
BRANCH   5   6
HETATM    6  S1  UNL     1     -32.079  -0.200 -13.225  1.00  0.00     0.146 S 
HETATM    7  O1  UNL     1     -31.387  -0.836 -12.056  1.00  0.00    -0.228 OA
HETATM    8  O2  UNL     1     -31.860   1.271 -13.172  1.00  0.00    -0.228 OA
BRANCH   6   9
HETATM    9  C6  UNL     1     -31.752  -0.953 -14.757  1.00  0.00     0.160 C 
BRANCH   9  10
HETATM   10  C5  UNL     1     -30.348  -1.224 -15.120  1.00  0.00     0.146 C 
BRANCH  10  11
HETATM   11  N4  UNL     1     -29.890  -2.566 -15.096  1.00  0.00    -0.326 N 
HETATM   12  C2  UNL     1     -29.586  -3.312 -14.020  1.00  0.00     0.154 A 
HETATM   13  N2  UNL     1     -29.585  -3.037 -12.683  1.00  0.00    -0.174 N 
HETATM   14  C3  UNL     1     -29.197  -4.582 -14.392  1.00  0.00     0.120 A 
HETATM   15  C1  UNL     1     -29.220  -3.974 -11.803  1.00  0.00     0.678 A 
ATOM     16  H2  UNL     1     -29.863  -2.112 -12.355  1.00  0.00     0.186 HD
HETATM   17  N11 UNL     1     -28.840  -5.222 -12.191  1.00  0.00    -0.177 N 
HETATM   18  C21 UNL     1     -28.819  -5.558 -13.497  1.00  0.00     0.162 A 
ATOM     19  H11 UNL     1     -28.568  -5.909 -11.488  1.00  0.00     0.185 HD
HETATM   20  N10 UNL     1     -28.420  -6.859 -13.870  1.00  0.00    -0.080 NA
HETATM   21  N3  UNL     1     -29.277  -4.577 -15.734  1.00  0.00    -0.346 N 
HETATM   22  C4  UNL     1     -29.689  -3.381 -16.166  1.00  0.00     0.185 A 
ATOM     23  H3  UNL     1     -29.054  -5.370 -16.335  1.00  0.00     0.167 HD
BRANCH  15  24
HETATM   24  N1  UNL     1     -29.223  -3.705 -10.545  1.00  0.00    -0.234 N 
ATOM     25  H12 UNL     1     -30.114  -3.740 -10.048  1.00  0.00     0.174 HD
ATOM     26  H11 UNL     1     -28.350  -3.467 -10.075  1.00  0.00     0.174 HD
ENDBRANCH  15  24
ENDBRANCH  10  11
ENDBRANCH   9  10
ENDBRANCH   6   9
ENDBRANCH   5   6
ENDBRANCH   4   5
ENDBRANCH   3   4
ENDBRANCH   2   3
ENDBRANCH   1   2
BRANCH   1  27
HETATM   27  N5  UNL     1     -36.868  -0.164  -9.346  1.00  0.00    -0.309 N 
HETATM   28  C12 UNL     1     -37.120   0.592  -8.257  1.00  0.00     0.106 A 
HETATM   29  C13 UNL     1     -36.710   0.204  -6.978  1.00  0.00    -0.003 A 
HETATM   30  C19 UNL     1     -36.026  -0.983  -6.833  1.00  0.00     0.112 A 
HETATM   31  S2  UNL     1     -35.507  -1.502  -5.353  1.00  0.00    -0.060 SA
HETATM   32  N9  UNL     1     -35.786  -1.722  -7.940  1.00  0.00    -0.299 N 
HETATM   33  C20 UNL     1     -36.201  -1.316  -9.177  1.00  0.00     0.327 A 
ATOM     34  H9  UNL     1     -35.282  -2.604  -7.850  1.00  0.00     0.171 HD
HETATM   35  O4  UNL     1     -35.913  -2.100 -10.117  1.00  0.00    -0.246 OA
BRANCH  29  36
HETATM   36  C14 UNL     1     -37.013   1.063  -5.809  1.00  0.00     0.063 C 
BRANCH  36  37
HETATM   37  C15 UNL     1     -36.760   2.519  -6.116  1.00  0.00     0.127 C 
BRANCH  37  38
HETATM   38  N6  UNL     1     -37.932   3.283  -5.769  1.00  0.00    -0.359 N 
HETATM   39  C16 UNL     1     -37.769   4.537  -5.130  1.00  0.00     0.249 C 
HETATM   40  O3  UNL     1     -36.594   4.974  -4.868  1.00  0.00    -0.271 OA
ATOM     41  H6  UNL     1     -38.864   2.926  -5.979  1.00  0.00     0.162 HD
BRANCH  39  42
HETATM   42  C17 UNL     1     -38.926   5.392  -4.739  1.00  0.00     0.299 C 
BRANCH  42  43
HETATM   43  N7  UNL     1     -39.456   4.926  -3.463  1.00  0.00    -0.065 N 
ATOM     44  H73 UNL     1     -39.785   5.694  -2.878  1.00  0.00     0.275 HD
ATOM     45  H72 UNL     1     -40.344   4.435  -3.570  1.00  0.00     0.275 HD
ATOM     46  H71 UNL     1     -38.752   4.356  -2.996  1.00  0.00     0.275 HD
ENDBRANCH  42  43
BRANCH  42  47
HETATM   47  C18 UNL     1     -38.458   6.827  -4.472  1.00  0.00     0.272 C 
BRANCH  47  48
HETATM   48  N8  UNL     1     -38.076   7.056  -3.111  1.00  0.00    -0.077 N 
ATOM     49  H83 UNL     1     -38.058   6.180  -2.589  1.00  0.00     0.274 HD
ATOM     50  H82 UNL     1     -37.090   7.309  -3.050  1.00  0.00     0.274 HD
ATOM     51  H81 UNL     1     -38.658   7.747  -2.639  1.00  0.00     0.274 HD
ENDBRANCH  47  48
ENDBRANCH  42  47
ENDBRANCH  39  42
ENDBRANCH  37  38
ENDBRANCH  36  37
ENDBRANCH  29  36
ENDBRANCH   1  27
TORSDOF 17
ENDMDL
MODEL 4
REMARK VINA RESULT: -6.673284678      6.217     12.452
REMARK  17 active torsions:
REMARK  status: ('A' for Active; 'I' for Inactive)
REMARK    1  A    between atoms: N1_1  and  C1_4 
REMARK    2  A    between atoms: N4_12  and  C5_13 
REMARK    3  A    between atoms: C5_13  and  C6_14 
REMARK    4  A    between atoms: C6_14  and  S1_15 
REMARK    5  A    between atoms: S1_15  and  C7_18 
REMARK    6  A    between atoms: C7_18  and  C8_19 
REMARK    7  A    between atoms: C8_19  and  C9_20 
REMARK    8  A    between atoms: C9_20  and  C10_21 
REMARK    9  A    between atoms: C10_21  and  C11_22 
REMARK   10  A    between atoms: C11_22  and  N5_23 
REMARK   11  A    between atoms: C13_25  and  C14_26 
REMARK   12  A    between atoms: C14_26  and  C15_27 
REMARK   13  A    between atoms: C15_27  and  N6_28 
REMARK       I    between atoms: N6_28  and  C16_30 
REMARK   14  A    between atoms: C16_30  and  C17_32 
REMARK   15  A    between atoms: C17_32  and  N7_33 
REMARK   16  A    between atoms: C17_32  and  C18_37 
REMARK   17  A    between atoms: C18_37  and  N8_38 
ROOT
HETATM    1  C11 UNL     1     -40.835   4.525  -8.171  1.00  0.00     0.133 C 
ENDROOT
BRANCH   1   2
HETATM    2  C10 UNL     1     -40.469   3.077  -8.125  1.00  0.00     0.020 C 
BRANCH   2   3
HETATM    3  C9  UNL     1     -39.475   2.633  -9.144  1.00  0.00     0.002 C 
BRANCH   3   4
HETATM    4  C8  UNL     1     -38.264   1.972  -8.545  1.00  0.00     0.015 C 
BRANCH   4   5
HETATM    5  C7  UNL     1     -38.532   1.637  -7.105  1.00  0.00     0.140 C 
BRANCH   5   6
HETATM    6  S1  UNL     1     -37.061   2.014  -6.110  1.00  0.00     0.146 S 
HETATM    7  O1  UNL     1     -37.519   3.094  -5.175  1.00  0.00    -0.228 OA
HETATM    8  O2  UNL     1     -36.072   2.587  -7.062  1.00  0.00    -0.228 OA
BRANCH   6   9
HETATM    9  C6  UNL     1     -36.583   0.536  -5.329  1.00  0.00     0.160 C 
BRANCH   9  10
HETATM   10  C5  UNL     1     -35.689  -0.384  -6.057  1.00  0.00     0.146 C 
BRANCH  10  11
HETATM   11  N4  UNL     1     -36.120  -0.901  -7.305  1.00  0.00    -0.326 N 
HETATM   12  C2  UNL     1     -35.757  -0.493  -8.534  1.00  0.00     0.154 A 
HETATM   13  N2  UNL     1     -34.932   0.507  -8.962  1.00  0.00    -0.174 N 
HETATM   14  C3  UNL     1     -36.368  -1.253  -9.508  1.00  0.00     0.120 A 
HETATM   15  C1  UNL     1     -34.746   0.713 -10.269  1.00  0.00     0.678 A 
ATOM     16  H2  UNL     1     -34.456   1.099  -8.282  1.00  0.00     0.186 HD
HETATM   17  N11 UNL     1     -35.360  -0.049 -11.216  1.00  0.00    -0.177 N 
HETATM   18  C21 UNL     1     -36.187  -1.053 -10.859  1.00  0.00     0.162 A 
ATOM     19  H11 UNL     1     -35.192   0.140 -12.204  1.00  0.00     0.185 HD
HETATM   20  N10 UNL     1     -36.809  -1.827 -11.862  1.00  0.00    -0.080 NA
HETATM   21  N3  UNL     1     -37.116  -2.136  -8.825  1.00  0.00    -0.346 N 
HETATM   22  C4  UNL     1     -36.977  -1.936  -7.510  1.00  0.00     0.185 A 
ATOM     23  H3  UNL     1     -37.705  -2.853  -9.247  1.00  0.00     0.167 HD
BRANCH  15  24
HETATM   24  N1  UNL     1     -33.967   1.657 -10.664  1.00  0.00    -0.234 N 
ATOM     25  H12 UNL     1     -33.233   1.971 -10.028  1.00  0.00     0.174 HD
ATOM     26  H11 UNL     1     -34.095   2.067 -11.589  1.00  0.00     0.174 HD
ENDBRANCH  15  24
ENDBRANCH  10  11
ENDBRANCH   9  10
ENDBRANCH   6   9
ENDBRANCH   5   6
ENDBRANCH   4   5
ENDBRANCH   3   4
ENDBRANCH   2   3
ENDBRANCH   1   2
BRANCH   1  27
HETATM   27  N5  UNL     1     -41.191   5.115  -6.916  1.00  0.00    -0.309 N 
HETATM   28  C12 UNL     1     -40.370   5.005  -5.851  1.00  0.00     0.106 A 
HETATM   29  C13 UNL     1     -40.693   5.561  -4.609  1.00  0.00    -0.003 A 
HETATM   30  C19 UNL     1     -41.886   6.236  -4.476  1.00  0.00     0.112 A 
HETATM   31  S2  UNL     1     -42.335   6.914  -3.038  1.00  0.00    -0.060 SA
HETATM   32  N9  UNL     1     -42.691   6.332  -5.559  1.00  0.00    -0.299 N 
HETATM   33  C20 UNL     1     -42.347   5.779  -6.759  1.00  0.00     0.327 A 
ATOM     34  H9  UNL     1     -43.578   6.830  -5.477  1.00  0.00     0.171 HD
HETATM   35  O4  UNL     1     -43.186   5.946  -7.681  1.00  0.00    -0.246 OA
BRANCH  29  36
HETATM   36  C14 UNL     1     -39.759   5.420  -3.468  1.00  0.00     0.063 C 
BRANCH  36  37
HETATM   37  C15 UNL     1     -38.754   6.546  -3.439  1.00  0.00     0.127 C 
BRANCH  37  38
HETATM   38  N6  UNL     1     -37.521   6.091  -4.032  1.00  0.00    -0.359 N 
HETATM   39  C16 UNL     1     -37.020   6.764  -5.173  1.00  0.00     0.249 C 
HETATM   40  O3  UNL     1     -37.661   7.758  -5.664  1.00  0.00    -0.271 OA
ATOM     41  H6  UNL     1     -37.018   5.297  -3.636  1.00  0.00     0.162 HD
BRANCH  39  42
HETATM   42  C17 UNL     1     -35.752   6.361  -5.846  1.00  0.00     0.299 C 
BRANCH  42  43
HETATM   43  N7  UNL     1     -35.271   5.117  -5.258  1.00  0.00    -0.065 N 
ATOM     44  H73 UNL     1     -35.976   4.668  -4.673  1.00  0.00     0.275 HD
ATOM     45  H72 UNL     1     -35.165   4.376  -5.951  1.00  0.00     0.275 HD
ATOM     46  H71 UNL     1     -34.406   5.299  -4.750  1.00  0.00     0.275 HD
ENDBRANCH  42  43
BRANCH  42  47
HETATM   47  C18 UNL     1     -36.017   6.024  -7.318  1.00  0.00     0.272 C 
BRANCH  47  48
HETATM   48  N8  UNL     1     -37.268   5.359  -7.532  1.00  0.00    -0.077 N 
ATOM     49  H83 UNL     1     -37.328   4.999  -8.484  1.00  0.00     0.274 HD
ATOM     50  H82 UNL     1     -37.303   4.480  -7.016  1.00  0.00     0.274 HD
ATOM     51  H81 UNL     1     -38.077   5.940  -7.313  1.00  0.00     0.274 HD
ENDBRANCH  47  48
ENDBRANCH  42  47
ENDBRANCH  39  42
ENDBRANCH  37  38
ENDBRANCH  36  37
ENDBRANCH  29  36
ENDBRANCH   1  27
TORSDOF 17
ENDMDL
MODEL 5
REMARK VINA RESULT: -6.668921324      2.783      9.775
REMARK  17 active torsions:
REMARK  status: ('A' for Active; 'I' for Inactive)
REMARK    1  A    between atoms: N1_1  and  C1_4 
REMARK    2  A    between atoms: N4_12  and  C5_13 
REMARK    3  A    between atoms: C5_13  and  C6_14 
REMARK    4  A    between atoms: C6_14  and  S1_15 
REMARK    5  A    between atoms: S1_15  and  C7_18 
REMARK    6  A    between atoms: C7_18  and  C8_19 
REMARK    7  A    between atoms: C8_19  and  C9_20 
REMARK    8  A    between atoms: C9_20  and  C10_21 
REMARK    9  A    between atoms: C10_21  and  C11_22 
REMARK   10  A    between atoms: C11_22  and  N5_23 
REMARK   11  A    between atoms: C13_25  and  C14_26 
REMARK   12  A    between atoms: C14_26  and  C15_27 
REMARK   13  A    between atoms: C15_27  and  N6_28 
REMARK       I    between atoms: N6_28  and  C16_30 
REMARK   14  A    between atoms: C16_30  and  C17_32 
REMARK   15  A    between atoms: C17_32  and  N7_33 
REMARK   16  A    between atoms: C17_32  and  C18_37 
REMARK   17  A    between atoms: C18_37  and  N8_38 
ROOT
HETATM    1  C11 UNL     1     -38.066   0.903 -13.476  1.00  0.00     0.133 C 
ENDROOT
BRANCH   1   2
HETATM    2  C10 UNL     1     -37.221  -0.315 -13.663  1.00  0.00     0.020 C 
BRANCH   2   3
HETATM    3  C9  UNL     1     -37.964  -1.573 -13.958  1.00  0.00     0.002 C 
BRANCH   3   4
HETATM    4  C8  UNL     1     -37.139  -2.814 -13.751  1.00  0.00     0.015 C 
BRANCH   4   5
HETATM    5  C7  UNL     1     -35.738  -2.576 -14.240  1.00  0.00     0.140 C 
BRANCH   5   6
HETATM    6  S1  UNL     1     -34.555  -3.035 -12.941  1.00  0.00     0.146 S 
HETATM    7  O1  UNL     1     -34.444  -4.527 -13.058  1.00  0.00    -0.228 OA
HETATM    8  O2  UNL     1     -35.226  -2.700 -11.656  1.00  0.00    -0.228 OA
BRANCH   6   9
HETATM    9  C6  UNL     1     -33.082  -2.172 -13.267  1.00  0.00     0.160 C 
BRANCH   9  10
HETATM   10  C5  UNL     1     -32.417  -2.383 -14.566  1.00  0.00     0.146 C 
BRANCH  10  11
HETATM   11  N4  UNL     1     -31.563  -3.506 -14.715  1.00  0.00    -0.326 N 
HETATM   12  C2  UNL     1     -30.670  -3.982 -13.831  1.00  0.00     0.154 A 
HETATM   13  N2  UNL     1     -30.287  -3.556 -12.593  1.00  0.00    -0.174 N 
HETATM   14  C3  UNL     1     -30.040  -5.107 -14.322  1.00  0.00     0.120 A 
HETATM   15  C1  UNL     1     -29.347  -4.218 -11.913  1.00  0.00     0.678 A 
ATOM     16  H2  UNL     1     -30.721  -2.728 -12.184  1.00  0.00     0.186 HD
HETATM   17  N11 UNL     1     -28.737  -5.327 -12.415  1.00  0.00    -0.177 N 
HETATM   18  C21 UNL     1     -29.070  -5.800 -13.633  1.00  0.00     0.162 A 
ATOM     19  H11 UNL     1     -28.023  -5.804 -11.864  1.00  0.00     0.185 HD
HETATM   20  N10 UNL     1     -28.421  -6.952 -14.128  1.00  0.00    -0.080 NA
HETATM   21  N3  UNL     1     -30.586  -5.294 -15.535  1.00  0.00    -0.346 N 
HETATM   22  C4  UNL     1     -31.496  -4.346 -15.783  1.00  0.00     0.185 A 
ATOM     23  H3  UNL     1     -30.340  -6.049 -16.176  1.00  0.00     0.167 HD
BRANCH  15  24
HETATM   24  N1  UNL     1     -28.993  -3.808 -10.745  1.00  0.00    -0.234 N 
ATOM     25  H12 UNL     1     -29.148  -2.827 -10.513  1.00  0.00     0.174 HD
ATOM     26  H11 UNL     1     -28.573  -4.462 -10.085  1.00  0.00     0.174 HD
ENDBRANCH  15  24
ENDBRANCH  10  11
ENDBRANCH   9  10
ENDBRANCH   6   9
ENDBRANCH   5   6
ENDBRANCH   4   5
ENDBRANCH   3   4
ENDBRANCH   2   3
ENDBRANCH   1   2
BRANCH   1  27
HETATM   27  N5  UNL     1     -38.358   1.255 -12.120  1.00  0.00    -0.309 N 
HETATM   28  C12 UNL     1     -37.454   1.026 -11.145  1.00  0.00     0.106 A 
HETATM   29  C13 UNL     1     -37.711   1.347  -9.808  1.00  0.00    -0.003 A 
HETATM   30  C19 UNL     1     -38.925   1.912  -9.485  1.00  0.00     0.112 A 
HETATM   31  S2  UNL     1     -39.300   2.313  -7.928  1.00  0.00    -0.060 SA
HETATM   32  N9  UNL     1     -39.814   2.131 -10.481  1.00  0.00    -0.299 N 
HETATM   33  C20 UNL     1     -39.532   1.807 -11.778  1.00  0.00     0.327 A 
ATOM     34  H9  UNL     1     -40.717   2.550 -10.259  1.00  0.00     0.171 HD
HETATM   35  O4  UNL     1     -40.447   2.068 -12.601  1.00  0.00    -0.246 OA
BRANCH  29  36
HETATM   36  C14 UNL     1     -36.687   1.083  -8.771  1.00  0.00     0.063 C 
BRANCH  36  37
HETATM   37  C15 UNL     1     -36.068  -0.283  -8.946  1.00  0.00     0.127 C 
BRANCH  37  38
HETATM   38  N6  UNL     1     -36.204  -1.021  -7.715  1.00  0.00    -0.359 N 
HETATM   39  C16 UNL     1     -35.074  -1.162  -6.872  1.00  0.00     0.249 C 
HETATM   40  O3  UNL     1     -33.954  -0.640  -7.209  1.00  0.00    -0.271 OA
ATOM     41  H6  UNL     1     -37.098  -1.436  -7.456  1.00  0.00     0.162 HD
BRANCH  39  42
HETATM   42  C17 UNL     1     -35.128  -1.907  -5.582  1.00  0.00     0.299 C 
BRANCH  42  43
HETATM   43  N7  UNL     1     -36.509  -2.282  -5.301  1.00  0.00    -0.065 N 
ATOM     44  H73 UNL     1     -37.170  -1.818  -5.924  1.00  0.00     0.275 HD
ATOM     45  H72 UNL     1     -36.710  -3.246  -5.570  1.00  0.00     0.275 HD
ATOM     46  H71 UNL     1     -36.711  -2.104  -4.318  1.00  0.00     0.275 HD
ENDBRANCH  42  43
BRANCH  42  47
HETATM   47  C18 UNL     1     -34.375  -3.237  -5.706  1.00  0.00     0.272 C 
BRANCH  47  48
HETATM   48  N8  UNL     1     -32.951  -3.089  -5.669  1.00  0.00    -0.077 N 
ATOM     49  H83 UNL     1     -32.493  -3.891  -6.100  1.00  0.00     0.274 HD
ATOM     50  H82 UNL     1     -32.647  -2.357  -6.310  1.00  0.00     0.274 HD
ATOM     51  H81 UNL     1     -32.586  -2.924  -4.731  1.00  0.00     0.274 HD
ENDBRANCH  47  48
ENDBRANCH  42  47
ENDBRANCH  39  42
ENDBRANCH  37  38
ENDBRANCH  36  37
ENDBRANCH  29  36
ENDBRANCH   1  27
TORSDOF 17
ENDMDL
