MODEL 1
REMARK VINA RESULT: -7.445842105      0.000      0.000
REMARK  14 active torsions:
REMARK  status: ('A' for Active; 'I' for Inactive)
REMARK    1  A    between atoms: C2_2  and  C3_3 
REMARK    2  A    between atoms: C3_3  and  N1_4 
REMARK    3  A    between atoms: C3_3  and  C13_19 
REMARK       I    between atoms: N1_4  and  C4_6 
REMARK    4  A    between atoms: C4_6  and  C5_8 
REMARK    5  A    between atoms: C5_8  and  C6_9 
REMARK       I    between atoms: C13_19  and  N3_21 
REMARK    6  A    between atoms: N3_21  and  C14_23 
REMARK    7  A    between atoms: C14_23  and  C16_26 
REMARK    8  A    between atoms: C16_26  and  N5_27 
REMARK    9  A    between atoms: C16_26  and  C23_45 
REMARK   10  A    between atoms: N5_27  and  C17_29 
REMARK   11  A    between atoms: C17_29  and  C18_30 
REMARK   12  A    between atoms: C17_29  and  C22_38 
REMARK   13  A    between atoms: C18_30  and  C19_31 
REMARK       I    between atoms: C22_38  and  N8_40 
REMARK   14  A    between atoms: N8_40  and  N9_42 
ROOT
HETATM    1  C14 UNL     1     -36.971   3.231  -6.045  1.00  0.00     0.222 C 
HETATM    2  C15 UNL     1     -37.438   1.870  -5.693  1.00  0.00     0.087 C 
HETATM    3  N4  UNL     1     -37.781   0.804  -5.415  1.00  0.00    -0.195 NA
ENDROOT
BRANCH   1   4
HETATM    4  N3  UNL     1     -36.576   3.215  -7.427  1.00  0.00    -0.340 N 
HETATM    5  C13 UNL     1     -35.449   3.907  -7.935  1.00  0.00     0.241 C 
HETATM    6  O3  UNL     1     -34.700   4.591  -7.209  1.00  0.00    -0.271 OA
ATOM      7  H3  UNL     1     -37.140   2.672  -8.082  1.00  0.00     0.164 HD
BRANCH   5   8
HETATM    8  C3  UNL     1     -35.112   3.829  -9.401  1.00  0.00     0.176 C 
BRANCH   8   9
HETATM    9  C2  UNL     1     -33.783   4.428  -9.710  1.00  0.00     0.030 C 
HETATM   10  C1  UNL     1     -33.671   4.699 -11.174  1.00  0.00     0.007 C 
ENDBRANCH   8   9
BRANCH   8  11
HETATM   11  N1  UNL     1     -35.133   2.390  -9.691  1.00  0.00    -0.347 N 
HETATM   12  C4  UNL     1     -36.237   1.861 -10.385  1.00  0.00     0.225 C 
HETATM   13  O1  UNL     1     -37.197   2.614 -10.743  1.00  0.00    -0.273 OA
ATOM     14  H1  UNL     1     -34.365   1.787  -9.396  1.00  0.00     0.163 HD
BRANCH  12  15
HETATM   15  C5  UNL     1     -36.268   0.397 -10.693  1.00  0.00     0.187 C 
BRANCH  15  16
HETATM   16  C6  UNL     1     -36.108  -0.284  -9.354  1.00  0.00     0.133 A 
HETATM   17  N2  UNL     1     -37.075  -0.937  -8.686  1.00  0.00    -0.338 N 
HETATM   18  C7  UNL     1     -36.602  -1.427  -7.531  1.00  0.00     0.068 A 
ATOM     19  H2  UNL     1     -38.036  -1.045  -9.013  1.00  0.00     0.168 HD
HETATM   20  C8  UNL     1     -37.125  -2.156  -6.485  1.00  0.00     0.032 A 
HETATM   21  C12 UNL     1     -35.264  -1.043  -7.504  1.00  0.00     0.104 A 
HETATM   22  C9  UNL     1     -36.360  -2.524  -5.394  1.00  0.00     0.002 A 
HETATM   23  C10 UNL     1     -35.039  -2.128  -5.394  1.00  0.00     0.003 A 
HETATM   24  C11 UNL     1     -34.495  -1.409  -6.411  1.00  0.00     0.040 A 
HETATM   25  O2  UNL     1     -35.032  -0.369  -8.608  1.00  0.00    -0.295 OA
ENDBRANCH  15  16
ENDBRANCH  12  15
ENDBRANCH   8  11
ENDBRANCH   5   8
ENDBRANCH   1   4
BRANCH   1  26
HETATM   26  C16 UNL     1     -38.181   4.147  -5.833  1.00  0.00     0.185 C 
BRANCH  26  27
HETATM   27  N5  UNL     1     -38.883   4.330  -7.055  1.00  0.00    -0.396 N 
ATOM     28  H5  UNL     1     -38.438   4.801  -7.842  1.00  0.00     0.155 HD
BRANCH  27  29
HETATM   29  C17 UNL     1     -40.215   3.846  -7.164  1.00  0.00     0.177 C 
BRANCH  29  30
HETATM   30  C18 UNL     1     -41.296   4.813  -7.466  1.00  0.00     0.093 C 
BRANCH  30  31
HETATM   31  C19 UNL     1     -41.953   5.361  -6.248  1.00  0.00     0.028 A 
HETATM   32  C20 UNL     1     -43.147   6.032  -6.264  1.00  0.00     0.114 A 
HETATM   33  N6  UNL     1     -43.481   6.394  -5.010  1.00  0.00    -0.360 N 
HETATM   34  C21 UNL     1     -42.506   5.955  -4.224  1.00  0.00     0.180 A 
ATOM     35  H6  UNL     1     -44.317   6.903  -4.722  1.00  0.00     0.166 HD
HETATM   36  N7  UNL     1     -41.568   5.326  -4.955  1.00  0.00    -0.354 N 
ATOM     37  H7  UNL     1     -40.715   4.898  -4.595  1.00  0.00     0.166 HD
ENDBRANCH  30  31
ENDBRANCH  29  30
BRANCH  29  38
HETATM   38  C22 UNL     1     -40.292   2.616  -8.014  1.00  0.00     0.258 C 
HETATM   39  O4  UNL     1     -40.837   1.599  -7.536  1.00  0.00    -0.269 OA
HETATM   40  N8  UNL     1     -39.767   2.599  -9.318  1.00  0.00    -0.275 N 
ATOM     41  H8  UNL     1     -39.324   3.428  -9.714  1.00  0.00     0.189 HD
BRANCH  40  42
HETATM   42  N9  UNL     1     -39.868   1.394 -10.070  1.00  0.00    -0.343 N 
ATOM     43  H92 UNL     1     -39.950   0.498  -9.589  1.00  0.00     0.176 HD
ATOM     44  H91 UNL     1     -39.857   1.457 -11.088  1.00  0.00     0.176 HD
ENDBRANCH  40  42
ENDBRANCH  29  38
ENDBRANCH  27  29
ENDBRANCH  26  27
BRANCH  26  45
HETATM   45  C23 UNL     1     -37.774   5.339  -5.074  1.00  0.00     0.139 A 
HETATM   46  N10 UNL     1     -38.341   5.801  -3.910  1.00  0.00    -0.270 N 
HETATM   47  N11 UNL     1     -37.657   6.856  -3.532  1.00  0.00    -0.227 N 
ATOM     48  H10 UNL     1     -39.145   5.398  -3.429  1.00  0.00     0.190 HD
HETATM   49  N12 UNL     1     -36.686   7.097  -4.386  1.00  0.00    -0.227 N 
ATOM     50  H11 UNL     1     -37.851   7.409  -2.697  1.00  0.00     0.210 HD
HETATM   51  N13 UNL     1     -36.753   6.179  -5.321  1.00  0.00    -0.270 N 
ATOM     52  H12 UNL     1     -36.007   7.856  -4.332  1.00  0.00     0.210 HD
ATOM     53  H13 UNL     1     -36.122   6.113  -6.120  1.00  0.00     0.190 HD
ENDBRANCH  26  45
ENDBRANCH   1  26
TORSDOF 14
ENDMDL
MODEL 2
REMARK VINA RESULT: -7.268065626      2.211      5.629
REMARK  14 active torsions:
REMARK  status: ('A' for Active; 'I' for Inactive)
REMARK    1  A    between atoms: C2_2  and  C3_3 
REMARK    2  A    between atoms: C3_3  and  N1_4 
REMARK    3  A    between atoms: C3_3  and  C13_19 
REMARK       I    between atoms: N1_4  and  C4_6 
REMARK    4  A    between atoms: C4_6  and  C5_8 
REMARK    5  A    between atoms: C5_8  and  C6_9 
REMARK       I    between atoms: C13_19  and  N3_21 
REMARK    6  A    between atoms: N3_21  and  C14_23 
REMARK    7  A    between atoms: C14_23  and  C16_26 
REMARK    8  A    between atoms: C16_26  and  N5_27 
REMARK    9  A    between atoms: C16_26  and  C23_45 
REMARK   10  A    between atoms: N5_27  and  C17_29 
REMARK   11  A    between atoms: C17_29  and  C18_30 
REMARK   12  A    between atoms: C17_29  and  C22_38 
REMARK   13  A    between atoms: C18_30  and  C19_31 
REMARK       I    between atoms: C22_38  and  N8_40 
REMARK   14  A    between atoms: N8_40  and  N9_42 
ROOT
HETATM    1  C14 UNL     1     -38.249   2.135  -6.521  1.00  0.00     0.222 C 
HETATM    2  C15 UNL     1     -39.406   1.951  -7.428  1.00  0.00     0.087 C 
HETATM    3  N4  UNL     1     -40.316   1.794  -8.120  1.00  0.00    -0.195 NA
ENDROOT
BRANCH   1   4
HETATM    4  N3  UNL     1     -37.305   1.086  -6.798  1.00  0.00    -0.340 N 
HETATM    5  C13 UNL     1     -37.479  -0.261  -6.395  1.00  0.00     0.241 C 
HETATM    6  O3  UNL     1     -38.483  -0.646  -5.762  1.00  0.00    -0.271 OA
ATOM      7  H3  UNL     1     -36.459   1.326  -7.316  1.00  0.00     0.164 HD
BRANCH   5   8
HETATM    8  C3  UNL     1     -36.434  -1.291  -6.733  1.00  0.00     0.176 C 
BRANCH   8   9
HETATM    9  C2  UNL     1     -36.304  -2.336  -5.677  1.00  0.00     0.030 C 
HETATM   10  C1  UNL     1     -34.869  -2.511  -5.305  1.00  0.00     0.007 C 
ENDBRANCH   8   9
BRANCH   8  11
HETATM   11  N1  UNL     1     -36.902  -1.866  -8.001  1.00  0.00    -0.347 N 
HETATM   12  C4  UNL     1     -36.414  -1.325  -9.204  1.00  0.00     0.225 C 
HETATM   13  O1  UNL     1     -35.591  -0.355  -9.190  1.00  0.00    -0.273 OA
ATOM     14  H1  UNL     1     -37.567  -2.639  -8.009  1.00  0.00     0.163 HD
BRANCH  12  15
HETATM   15  C5  UNL     1     -36.878  -1.905 -10.503  1.00  0.00     0.187 C 
BRANCH  15  16
HETATM   16  C6  UNL     1     -37.624  -0.781 -11.184  1.00  0.00     0.133 A 
HETATM   17  N2  UNL     1     -38.344   0.169 -10.564  1.00  0.00    -0.338 N 
HETATM   18  C7  UNL     1     -38.876   1.016 -11.458  1.00  0.00     0.068 A 
ATOM     19  H2  UNL     1     -38.469   0.238  -9.553  1.00  0.00     0.168 HD
HETATM   20  C8  UNL     1     -39.673   2.138 -11.395  1.00  0.00     0.032 A 
HETATM   21  C12 UNL     1     -38.447   0.542 -12.694  1.00  0.00     0.104 A 
HETATM   22  C9  UNL     1     -40.070   2.819 -12.531  1.00  0.00     0.002 A 
HETATM   23  C10 UNL     1     -39.630   2.326 -13.742  1.00  0.00     0.003 A 
HETATM   24  C11 UNL     1     -38.843   1.221 -13.835  1.00  0.00     0.040 A 
HETATM   25  O2  UNL     1     -37.712  -0.524 -12.467  1.00  0.00    -0.295 OA
ENDBRANCH  15  16
ENDBRANCH  12  15
ENDBRANCH   8  11
ENDBRANCH   5   8
ENDBRANCH   1   4
BRANCH   1  26
HETATM   26  C16 UNL     1     -37.663   3.506  -6.876  1.00  0.00     0.185 C 
BRANCH  26  27
HETATM   27  N5  UNL     1     -36.246   3.433  -6.950  1.00  0.00    -0.396 N 
ATOM     28  H5  UNL     1     -35.726   2.811  -6.332  1.00  0.00     0.155 HD
BRANCH  27  29
HETATM   29  C17 UNL     1     -35.563   4.241  -7.900  1.00  0.00     0.177 C 
BRANCH  29  30
HETATM   30  C18 UNL     1     -34.573   5.227  -7.407  1.00  0.00     0.093 C 
BRANCH  30  31
HETATM   31  C19 UNL     1     -35.150   6.215  -6.455  1.00  0.00     0.028 A 
HETATM   32  C20 UNL     1     -34.921   6.194  -5.105  1.00  0.00     0.114 A 
HETATM   33  N6  UNL     1     -35.571   7.218  -4.518  1.00  0.00    -0.360 N 
HETATM   34  C21 UNL     1     -36.199   7.867  -5.491  1.00  0.00     0.180 A 
ATOM     35  H6  UNL     1     -35.580   7.449  -3.524  1.00  0.00     0.166 HD
HETATM   36  N7  UNL     1     -35.957   7.275  -6.675  1.00  0.00    -0.354 N 
ATOM     37  H7  UNL     1     -36.320   7.574  -7.580  1.00  0.00     0.166 HD
ENDBRANCH  30  31
ENDBRANCH  29  30
BRANCH  29  38
HETATM   38  C22 UNL     1     -35.045   3.433  -9.048  1.00  0.00     0.258 C 
HETATM   39  O4  UNL     1     -33.810   3.377  -9.224  1.00  0.00    -0.269 OA
HETATM   40  N8  UNL     1     -35.921   2.752  -9.911  1.00  0.00    -0.275 N 
ATOM     41  H8  UNL     1     -36.930   2.791  -9.770  1.00  0.00     0.189 HD
BRANCH  40  42
HETATM   42  N9  UNL     1     -35.362   2.005 -10.988  1.00  0.00    -0.343 N 
ATOM     43  H92 UNL     1     -34.734   2.460 -11.651  1.00  0.00     0.176 HD
ATOM     44  H91 UNL     1     -35.607   1.019 -11.071  1.00  0.00     0.176 HD
ENDBRANCH  40  42
ENDBRANCH  29  38
ENDBRANCH  27  29
ENDBRANCH  26  27
BRANCH  26  45
HETATM   45  C23 UNL     1     -38.267   4.539  -6.022  1.00  0.00     0.139 A 
HETATM   46  N10 UNL     1     -39.069   5.576  -6.437  1.00  0.00    -0.270 N 
HETATM   47  N11 UNL     1     -39.439   6.239  -5.366  1.00  0.00    -0.227 N 
ATOM     48  H10 UNL     1     -39.329   5.791  -7.399  1.00  0.00     0.190 HD
HETATM   49  N12 UNL     1     -38.921   5.686  -4.290  1.00  0.00    -0.227 N 
ATOM     50  H11 UNL     1     -40.041   7.062  -5.367  1.00  0.00     0.210 HD
HETATM   51  N13 UNL     1     -38.212   4.656  -4.684  1.00  0.00    -0.270 N 
ATOM     52  H12 UNL     1     -39.047   6.001  -3.328  1.00  0.00     0.210 HD
ATOM     53  H13 UNL     1     -37.693   4.033  -4.064  1.00  0.00     0.190 HD
ENDBRANCH  26  45
ENDBRANCH   1  26
TORSDOF 14
ENDMDL
MODEL 3
REMARK VINA RESULT: -7.191604053      1.846      4.237
REMARK  14 active torsions:
REMARK  status: ('A' for Active; 'I' for Inactive)
REMARK    1  A    between atoms: C2_2  and  C3_3 
REMARK    2  A    between atoms: C3_3  and  N1_4 
REMARK    3  A    between atoms: C3_3  and  C13_19 
REMARK       I    between atoms: N1_4  and  C4_6 
REMARK    4  A    between atoms: C4_6  and  C5_8 
REMARK    5  A    between atoms: C5_8  and  C6_9 
REMARK       I    between atoms: C13_19  and  N3_21 
REMARK    6  A    between atoms: N3_21  and  C14_23 
REMARK    7  A    between atoms: C14_23  and  C16_26 
REMARK    8  A    between atoms: C16_26  and  N5_27 
REMARK    9  A    between atoms: C16_26  and  C23_45 
REMARK   10  A    between atoms: N5_27  and  C17_29 
REMARK   11  A    between atoms: C17_29  and  C18_30 
REMARK   12  A    between atoms: C17_29  and  C22_38 
REMARK   13  A    between atoms: C18_30  and  C19_31 
REMARK       I    between atoms: C22_38  and  N8_40 
REMARK   14  A    between atoms: N8_40  and  N9_42 
ROOT
HETATM    1  C14 UNL     1     -36.683   3.132  -8.686  1.00  0.00     0.222 C 
HETATM    2  C15 UNL     1     -36.307   2.333  -7.496  1.00  0.00     0.087 C 
HETATM    3  N4  UNL     1     -35.995   1.717  -6.571  1.00  0.00    -0.195 NA
ENDROOT
BRANCH   1   4
HETATM    4  N3  UNL     1     -36.438   2.325  -9.850  1.00  0.00    -0.340 N 
HETATM    5  C13 UNL     1     -35.203   2.292 -10.543  1.00  0.00     0.241 C 
HETATM    6  O3  UNL     1     -34.217   2.968 -10.188  1.00  0.00    -0.271 OA
ATOM      7  H3  UNL     1     -37.199   1.741 -10.198  1.00  0.00     0.164 HD
BRANCH   5   8
HETATM    8  C3  UNL     1     -35.041   1.411 -11.755  1.00  0.00     0.176 C 
BRANCH   8   9
HETATM    9  C2  UNL     1     -33.652   1.437 -12.293  1.00  0.00     0.030 C 
HETATM   10  C1  UNL     1     -33.268   0.081 -12.786  1.00  0.00     0.007 C 
ENDBRANCH   8   9
BRANCH   8  11
HETATM   11  N1  UNL     1     -35.404   0.073 -11.270  1.00  0.00    -0.347 N 
HETATM   12  C4  UNL     1     -36.745  -0.340 -11.379  1.00  0.00     0.225 C 
HETATM   13  O1  UNL     1     -37.621   0.434 -11.879  1.00  0.00    -0.273 OA
ATOM     14  H1  UNL     1     -34.699  -0.542 -10.863  1.00  0.00     0.163 HD
BRANCH  12  15
HETATM   15  C5  UNL     1     -37.126  -1.703 -10.895  1.00  0.00     0.187 C 
BRANCH  15  16
HETATM   16  C6  UNL     1     -36.666  -1.745  -9.456  1.00  0.00     0.133 A 
HETATM   17  N2  UNL     1     -37.446  -2.005  -8.392  1.00  0.00    -0.338 N 
HETATM   18  C7  UNL     1     -36.727  -1.968  -7.261  1.00  0.00     0.068 A 
ATOM     19  H2  UNL     1     -38.446  -2.203  -8.438  1.00  0.00     0.168 HD
HETATM   20  C8  UNL     1     -36.992  -2.151  -5.921  1.00  0.00     0.032 A 
HETATM   21  C12 UNL     1     -35.432  -1.666  -7.672  1.00  0.00     0.104 A 
HETATM   22  C9  UNL     1     -36.007  -2.045  -4.957  1.00  0.00     0.002 A 
HETATM   23  C10 UNL     1     -34.734  -1.744  -5.395  1.00  0.00     0.003 A 
HETATM   24  C11 UNL     1     -34.442  -1.557  -6.710  1.00  0.00     0.040 A 
HETATM   25  O2  UNL     1     -35.461  -1.546  -8.981  1.00  0.00    -0.295 OA
ENDBRANCH  15  16
ENDBRANCH  12  15
ENDBRANCH   8  11
ENDBRANCH   5   8
ENDBRANCH   1   4
BRANCH   1  26
HETATM   26  C16 UNL     1     -38.178   3.426  -8.528  1.00  0.00     0.185 C 
BRANCH  26  27
HETATM   27  N5  UNL     1     -38.566   3.298  -7.166  1.00  0.00    -0.396 N 
ATOM     28  H5  UNL     1     -38.352   2.448  -6.645  1.00  0.00     0.155 HD
BRANCH  27  29
HETATM   29  C17 UNL     1     -39.256   4.373  -6.541  1.00  0.00     0.177 C 
BRANCH  29  30
HETATM   30  C18 UNL     1     -38.668   5.730  -6.619  1.00  0.00     0.093 C 
BRANCH  30  31
HETATM   31  C19 UNL     1     -37.285   5.805  -6.075  1.00  0.00     0.028 A 
HETATM   32  C20 UNL     1     -36.970   5.567  -4.763  1.00  0.00     0.114 A 
HETATM   33  N6  UNL     1     -35.641   5.704  -4.583  1.00  0.00    -0.360 N 
HETATM   34  C21 UNL     1     -35.137   6.023  -5.768  1.00  0.00     0.180 A 
ATOM     35  H6  UNL     1     -35.126   5.585  -3.711  1.00  0.00     0.166 HD
HETATM   36  N7  UNL     1     -36.117   6.090  -6.688  1.00  0.00    -0.354 N 
ATOM     37  H7  UNL     1     -35.998   6.318  -7.675  1.00  0.00     0.166 HD
ENDBRANCH  30  31
ENDBRANCH  29  30
BRANCH  29  38
HETATM   38  C22 UNL     1     -40.716   4.361  -6.868  1.00  0.00     0.258 C 
HETATM   39  O4  UNL     1     -41.250   3.270  -7.160  1.00  0.00    -0.269 OA
HETATM   40  N8  UNL     1     -41.475   5.544  -6.848  1.00  0.00    -0.275 N 
ATOM     41  H8  UNL     1     -41.045   6.437  -6.607  1.00  0.00     0.189 HD
BRANCH  40  42
HETATM   42  N9  UNL     1     -42.860   5.463  -7.175  1.00  0.00    -0.343 N 
ATOM     43  H92 UNL     1     -43.188   4.751  -7.828  1.00  0.00     0.176 HD
ATOM     44  H91 UNL     1     -43.498   6.129  -6.741  1.00  0.00     0.176 HD
ENDBRANCH  40  42
ENDBRANCH  29  38
ENDBRANCH  27  29
ENDBRANCH  26  27
BRANCH  26  45
HETATM   45  C23 UNL     1     -38.939   2.687  -9.545  1.00  0.00     0.139 A 
HETATM   46  N10 UNL     1     -39.573   1.478  -9.375  1.00  0.00    -0.270 N 
HETATM   47  N11 UNL     1     -40.175   1.188 -10.504  1.00  0.00    -0.227 N 
ATOM     48  H10 UNL     1     -39.575   0.912  -8.526  1.00  0.00     0.190 HD
HETATM   49  N12 UNL     1     -39.964   2.140 -11.388  1.00  0.00    -0.227 N 
ATOM     50  H11 UNL     1     -40.727   0.347 -10.672  1.00  0.00     0.210 HD
HETATM   51  N13 UNL     1     -39.217   3.049 -10.810  1.00  0.00    -0.270 N 
ATOM     52  H12 UNL     1     -40.316   2.165 -12.345  1.00  0.00     0.210 HD
ATOM     53  H13 UNL     1     -38.893   3.908 -11.256  1.00  0.00     0.190 HD
ENDBRANCH  26  45
ENDBRANCH   1  26
TORSDOF 14
ENDMDL
MODEL 4
REMARK VINA RESULT: -7.182728746      2.398      5.343
REMARK  14 active torsions:
REMARK  status: ('A' for Active; 'I' for Inactive)
REMARK    1  A    between atoms: C2_2  and  C3_3 
REMARK    2  A    between atoms: C3_3  and  N1_4 
REMARK    3  A    between atoms: C3_3  and  C13_19 
REMARK       I    between atoms: N1_4  and  C4_6 
REMARK    4  A    between atoms: C4_6  and  C5_8 
REMARK    5  A    between atoms: C5_8  and  C6_9 
REMARK       I    between atoms: C13_19  and  N3_21 
REMARK    6  A    between atoms: N3_21  and  C14_23 
REMARK    7  A    between atoms: C14_23  and  C16_26 
REMARK    8  A    between atoms: C16_26  and  N5_27 
REMARK    9  A    between atoms: C16_26  and  C23_45 
REMARK   10  A    between atoms: N5_27  and  C17_29 
REMARK   11  A    between atoms: C17_29  and  C18_30 
REMARK   12  A    between atoms: C17_29  and  C22_38 
REMARK   13  A    between atoms: C18_30  and  C19_31 
REMARK       I    between atoms: C22_38  and  N8_40 
REMARK   14  A    between atoms: N8_40  and  N9_42 
ROOT
HETATM    1  C14 UNL     1     -38.355   2.244  -6.557  1.00  0.00     0.222 C 
HETATM    2  C15 UNL     1     -39.495   2.003  -7.472  1.00  0.00     0.087 C 
HETATM    3  N4  UNL     1     -40.392   1.802  -8.170  1.00  0.00    -0.195 NA
ENDROOT
BRANCH   1   4
HETATM    4  N3  UNL     1     -37.391   1.198  -6.773  1.00  0.00    -0.340 N 
HETATM    5  C13 UNL     1     -37.576  -0.144  -6.361  1.00  0.00     0.241 C 
HETATM    6  O3  UNL     1     -38.608  -0.528  -5.772  1.00  0.00    -0.271 OA
ATOM      7  H3  UNL     1     -36.523   1.437  -7.252  1.00  0.00     0.164 HD
BRANCH   5   8
HETATM    8  C3  UNL     1     -36.509  -1.172  -6.633  1.00  0.00     0.176 C 
BRANCH   8   9
HETATM    9  C2  UNL     1     -36.380  -2.163  -5.527  1.00  0.00     0.030 C 
HETATM   10  C1  UNL     1     -34.963  -2.616  -5.409  1.00  0.00     0.007 C 
ENDBRANCH   8   9
BRANCH   8  11
HETATM   11  N1  UNL     1     -36.947  -1.812  -7.880  1.00  0.00    -0.347 N 
HETATM   12  C4  UNL     1     -36.392  -1.368  -9.094  1.00  0.00     0.225 C 
HETATM   13  O1  UNL     1     -35.538  -0.426  -9.108  1.00  0.00    -0.273 OA
ATOM     14  H1  UNL     1     -37.638  -2.563  -7.865  1.00  0.00     0.163 HD
BRANCH  12  15
HETATM   15  C5  UNL     1     -36.825  -2.017 -10.371  1.00  0.00     0.187 C 
BRANCH  15  16
HETATM   16  C6  UNL     1     -37.526  -0.923 -11.143  1.00  0.00     0.133 A 
HETATM   17  N2  UNL     1     -38.238   0.082 -10.605  1.00  0.00    -0.338 N 
HETATM   18  C7  UNL     1     -38.726   0.880 -11.565  1.00  0.00     0.068 A 
ATOM     19  H2  UNL     1     -38.388   0.219  -9.604  1.00  0.00     0.168 HD
HETATM   20  C8  UNL     1     -39.497   2.022 -11.597  1.00  0.00     0.032 A 
HETATM   21  C12 UNL     1     -38.277   0.318 -12.756  1.00  0.00     0.104 A 
HETATM   22  C9  UNL     1     -39.847   2.638 -12.784  1.00  0.00     0.002 A 
HETATM   23  C10 UNL     1     -39.389   2.057 -13.948  1.00  0.00     0.003 A 
HETATM   24  C11 UNL     1     -38.627   0.931 -13.949  1.00  0.00     0.040 A 
HETATM   25  O2  UNL     1     -37.574  -0.747 -12.441  1.00  0.00    -0.295 OA
ENDBRANCH  15  16
ENDBRANCH  12  15
ENDBRANCH   8  11
ENDBRANCH   5   8
ENDBRANCH   1   4
BRANCH   1  26
HETATM   26  C16 UNL     1     -37.784   3.606  -6.963  1.00  0.00     0.185 C 
BRANCH  26  27
HETATM   27  N5  UNL     1     -36.745   3.442  -7.920  1.00  0.00    -0.396 N 
ATOM     28  H5  UNL     1     -35.820   3.128  -7.631  1.00  0.00     0.155 HD
BRANCH  27  29
HETATM   29  C17 UNL     1     -37.017   3.722  -9.287  1.00  0.00     0.177 C 
BRANCH  29  30
HETATM   30  C18 UNL     1     -37.315   5.120  -9.677  1.00  0.00     0.093 C 
BRANCH  30  31
HETATM   31  C19 UNL     1     -38.721   5.319 -10.123  1.00  0.00     0.028 A 
HETATM   32  C20 UNL     1     -39.068   5.984 -11.269  1.00  0.00     0.114 A 
HETATM   33  N6  UNL     1     -40.409   5.991 -11.402  1.00  0.00    -0.360 N 
HETATM   34  C21 UNL     1     -40.890   5.340 -10.350  1.00  0.00     0.180 A 
ATOM     35  H6  UNL     1     -40.947   6.412 -12.159  1.00  0.00     0.166 HD
HETATM   36  N7  UNL     1     -39.883   4.924  -9.561  1.00  0.00    -0.354 N 
ATOM     37  H7  UNL     1     -39.980   4.402  -8.690  1.00  0.00     0.166 HD
ENDBRANCH  30  31
ENDBRANCH  29  30
BRANCH  29  38
HETATM   38  C22 UNL     1     -36.021   3.073 -10.197  1.00  0.00     0.258 C 
HETATM   39  O4  UNL     1     -36.126   3.265 -11.426  1.00  0.00    -0.269 OA
HETATM   40  N8  UNL     1     -34.990   2.265  -9.686  1.00  0.00    -0.275 N 
ATOM     41  H8  UNL     1     -34.897   2.106  -8.683  1.00  0.00     0.189 HD
BRANCH  40  42
HETATM   42  N9  UNL     1     -34.079   1.672 -10.608  1.00  0.00    -0.343 N 
ATOM     43  H92 UNL     1     -34.027   0.657 -10.692  1.00  0.00     0.176 HD
ATOM     44  H91 UNL     1     -33.491   2.288 -11.169  1.00  0.00     0.176 HD
ENDBRANCH  40  42
ENDBRANCH  29  38
ENDBRANCH  27  29
ENDBRANCH  26  27
BRANCH  26  45
HETATM   45  C23 UNL     1     -37.507   4.407  -5.761  1.00  0.00     0.139 A 
HETATM   46  N10 UNL     1     -36.366   5.130  -5.505  1.00  0.00    -0.270 N 
HETATM   47  N11 UNL     1     -36.537   5.737  -4.354  1.00  0.00    -0.227 N 
ATOM     48  H10 UNL     1     -35.540   5.186  -6.100  1.00  0.00     0.190 HD
HETATM   49  N12 UNL     1     -37.720   5.445  -3.858  1.00  0.00    -0.227 N 
ATOM     50  H11 UNL     1     -35.852   6.348  -3.908  1.00  0.00     0.210 HD
HETATM   51  N13 UNL     1     -38.311   4.640  -4.708  1.00  0.00    -0.270 N 
ATOM     52  H12 UNL     1     -38.107   5.781  -2.976  1.00  0.00     0.210 HD
ATOM     53  H13 UNL     1     -39.245   4.247  -4.588  1.00  0.00     0.190 HD
ENDBRANCH  26  45
ENDBRANCH   1  26
TORSDOF 14
ENDMDL
MODEL 5
REMARK VINA RESULT: -7.170145456      4.480      7.521
REMARK  14 active torsions:
REMARK  status: ('A' for Active; 'I' for Inactive)
REMARK    1  A    between atoms: C2_2  and  C3_3 
REMARK    2  A    between atoms: C3_3  and  N1_4 
REMARK    3  A    between atoms: C3_3  and  C13_19 
REMARK       I    between atoms: N1_4  and  C4_6 
REMARK    4  A    between atoms: C4_6  and  C5_8 
REMARK    5  A    between atoms: C5_8  and  C6_9 
REMARK       I    between atoms: C13_19  and  N3_21 
REMARK    6  A    between atoms: N3_21  and  C14_23 
REMARK    7  A    between atoms: C14_23  and  C16_26 
REMARK    8  A    between atoms: C16_26  and  N5_27 
REMARK    9  A    between atoms: C16_26  and  C23_45 
REMARK   10  A    between atoms: N5_27  and  C17_29 
REMARK   11  A    between atoms: C17_29  and  C18_30 
REMARK   12  A    between atoms: C17_29  and  C22_38 
REMARK   13  A    between atoms: C18_30  and  C19_31 
REMARK       I    between atoms: C22_38  and  N8_40 
REMARK   14  A    between atoms: N8_40  and  N9_42 
ROOT
HETATM    1  C14 UNL     1     -35.355   1.198 -10.664  1.00  0.00     0.222 C 
HETATM    2  C15 UNL     1     -34.619   2.308 -10.013  1.00  0.00     0.087 C 
HETATM    3  N4  UNL     1     -34.047   3.183  -9.524  1.00  0.00    -0.195 NA
ENDROOT
BRANCH   1   4
HETATM    4  N3  UNL     1     -34.395   0.390 -11.366  1.00  0.00    -0.340 N 
HETATM    5  C13 UNL     1     -34.109   0.523 -12.747  1.00  0.00     0.241 C 
HETATM    6  O3  UNL     1     -34.674   1.369 -13.469  1.00  0.00    -0.271 OA
ATOM      7  H3  UNL     1     -33.890  -0.323 -10.839  1.00  0.00     0.164 HD
BRANCH   5   8
HETATM    8  C3  UNL     1     -33.085  -0.371 -13.396  1.00  0.00     0.176 C 
BRANCH   8   9
HETATM    9  C2  UNL     1     -31.688   0.053 -13.090  1.00  0.00     0.030 C 
HETATM   10  C1  UNL     1     -30.943  -1.069 -12.445  1.00  0.00     0.007 C 
ENDBRANCH   8   9
BRANCH   8  11
HETATM   11  N1  UNL     1     -33.376  -1.700 -12.844  1.00  0.00    -0.347 N 
HETATM   12  C4  UNL     1     -33.807  -2.711 -13.722  1.00  0.00     0.225 C 
HETATM   13  O1  UNL     1     -33.949  -2.473 -14.963  1.00  0.00    -0.273 OA
ATOM     14  H1  UNL     1     -33.268  -1.885 -11.847  1.00  0.00     0.163 HD
BRANCH  12  15
HETATM   15  C5  UNL     1     -34.101  -4.072 -13.174  1.00  0.00     0.187 C 
BRANCH  15  16
HETATM   16  C6  UNL     1     -35.432  -4.454 -13.779  1.00  0.00     0.133 A 
HETATM   17  N2  UNL     1     -36.558  -3.723 -13.719  1.00  0.00    -0.338 N 
HETATM   18  C7  UNL     1     -37.558  -4.346 -14.359  1.00  0.00     0.068 A 
ATOM     19  H2  UNL     1     -36.641  -2.819 -13.252  1.00  0.00     0.168 HD
HETATM   20  C8  UNL     1     -38.886  -4.072 -14.610  1.00  0.00     0.032 A 
HETATM   21  C12 UNL     1     -36.996  -5.527 -14.833  1.00  0.00     0.104 A 
HETATM   22  C9  UNL     1     -39.690  -4.940 -15.324  1.00  0.00     0.002 A 
HETATM   23  C10 UNL     1     -39.105  -6.103 -15.780  1.00  0.00     0.003 A 
HETATM   24  C11 UNL     1     -37.799  -6.400 -15.548  1.00  0.00     0.040 A 
HETATM   25  O2  UNL     1     -35.736  -5.534 -14.457  1.00  0.00    -0.295 OA
ENDBRANCH  15  16
ENDBRANCH  12  15
ENDBRANCH   8  11
ENDBRANCH   5   8
ENDBRANCH   1   4
BRANCH   1  26
HETATM   26  C16 UNL     1     -36.004   0.410  -9.522  1.00  0.00     0.185 C 
BRANCH  26  27
HETATM   27  N5  UNL     1     -35.028   0.052  -8.552  1.00  0.00    -0.396 N 
ATOM     28  H5  UNL     1     -34.084  -0.204  -8.838  1.00  0.00     0.155 HD
BRANCH  27  29
HETATM   29  C17 UNL     1     -35.389   0.058  -7.176  1.00  0.00     0.177 C 
BRANCH  29  30
HETATM   30  C18 UNL     1     -36.735   0.548  -6.801  1.00  0.00     0.093 C 
BRANCH  30  31
HETATM   31  C19 UNL     1     -36.759   1.996  -6.458  1.00  0.00     0.028 A 
HETATM   32  C20 UNL     1     -37.735   2.580  -5.695  1.00  0.00     0.114 A 
HETATM   33  N6  UNL     1     -37.476   3.895  -5.555  1.00  0.00    -0.360 N 
HETATM   34  C21 UNL     1     -36.353   4.126  -6.224  1.00  0.00     0.180 A 
ATOM     35  H6  UNL     1     -38.031   4.577  -5.038  1.00  0.00     0.166 HD
HETATM   36  N7  UNL     1     -35.901   2.987  -6.779  1.00  0.00    -0.354 N 
ATOM     37  H7  UNL     1     -35.058   2.889  -7.346  1.00  0.00     0.166 HD
ENDBRANCH  30  31
ENDBRANCH  29  30
BRANCH  29  38
HETATM   38  C22 UNL     1     -35.041  -1.234  -6.505  1.00  0.00     0.258 C 
HETATM   39  O4  UNL     1     -34.906  -2.253  -7.214  1.00  0.00    -0.269 OA
HETATM   40  N8  UNL     1     -34.869  -1.306  -5.112  1.00  0.00    -0.275 N 
ATOM     41  H8  UNL     1     -34.975  -0.476  -4.528  1.00  0.00     0.189 HD
BRANCH  40  42
HETATM   42  N9  UNL     1     -34.544  -2.568  -4.536  1.00  0.00    -0.343 N 
ATOM     43  H92 UNL     1     -33.670  -2.684  -4.023  1.00  0.00     0.176 HD
ATOM     44  H91 UNL     1     -35.204  -3.336  -4.654  1.00  0.00     0.176 HD
ENDBRANCH  40  42
ENDBRANCH  29  38
ENDBRANCH  27  29
ENDBRANCH  26  27
BRANCH  26  45
HETATM   45  C23 UNL     1     -36.862  -0.648 -10.074  1.00  0.00     0.139 A 
HETATM   46  N10 UNL     1     -37.141  -1.862  -9.492  1.00  0.00    -0.270 N 
HETATM   47  N11 UNL     1     -37.982  -2.491 -10.280  1.00  0.00    -0.227 N 
ATOM     48  H10 UNL     1     -36.764  -2.210  -8.611  1.00  0.00     0.190 HD
HETATM   49  N12 UNL     1     -38.257  -1.751 -11.332  1.00  0.00    -0.227 N 
ATOM     50  H11 UNL     1     -38.366  -3.419 -10.102  1.00  0.00     0.210 HD
HETATM   51  N13 UNL     1     -37.582  -0.633 -11.210  1.00  0.00    -0.270 N 
ATOM     52  H12 UNL     1     -38.881  -1.999 -12.100  1.00  0.00     0.210 HD
ATOM     53  H13 UNL     1     -37.600   0.136 -11.880  1.00  0.00     0.190 HD
ENDBRANCH  26  45
ENDBRANCH   1  26
TORSDOF 14
ENDMDL
