MODEL 1
REMARK VINA RESULT: -6.737869781      0.000      0.000
REMARK  7 active torsions:
REMARK  status: ('A' for Active; 'I' for Inactive)
REMARK    1  A    between atoms: C2_2  and  C3_3 
REMARK    2  A    between atoms: C3_3  and  C4_4 
REMARK    3  A    between atoms: C5_7  and  N2_8 
REMARK    4  A    between atoms: N2_8  and  C6_10 
REMARK    5  A    between atoms: C6_10  and  C7_11 
REMARK    6  A    between atoms: C7_11  and  O1_12 
REMARK    7  A    between atoms: C9_16  and  N4_17 
ROOT
HETATM    1  C4  UNL     1      25.615  75.897  11.610  1.00  0.00     0.051 A 
HETATM    2  N1  UNL     1      26.743  75.358  11.073  1.00  0.00    -0.194 N 
ATOM      3  H1  UNL     1      26.906  75.489  10.074  1.00  0.00     0.184 HD
HETATM    4  C5  UNL     1      27.641  74.675  11.764  1.00  0.00     0.680 A 
HETATM    5  N3  UNL     1      27.448  74.491  13.069  1.00  0.00    -0.176 N 
ATOM      6  H3  UNL     1      28.132  73.967  13.615  1.00  0.00     0.186 HD
HETATM    7  C9  UNL     1      26.359  74.994  13.670  1.00  0.00     0.137 A 
HETATM    8  C10 UNL     1      25.419  75.706  12.959  1.00  0.00     0.111 A 
HETATM    9  C11 UNL     1      24.248  76.248  13.589  1.00  0.00     0.105 C 
HETATM   10  N5  UNL     1      23.288  76.673  14.112  1.00  0.00    -0.191 NA
ENDROOT
BRANCH   1  11
HETATM   11  C3  UNL     1      24.652  76.649  10.785  1.00  0.00     0.059 C 
BRANCH  11  12
HETATM   12  C2  UNL     1      25.325  77.755   9.997  1.00  0.00     0.002 C 
HETATM   13  C1  UNL     1      24.526  78.098   8.759  1.00  0.00     0.005 C 
ENDBRANCH  11  12
ENDBRANCH   1  11
BRANCH   7  14
HETATM   14  N4  UNL     1      26.156  74.829  14.929  1.00  0.00    -0.384 N 
ATOM     15  H42 UNL     1      26.967  74.645  15.519  1.00  0.00     0.157 HD
ATOM     16  H41 UNL     1      25.217  74.879  15.323  1.00  0.00     0.157 HD
ENDBRANCH   7  14
BRANCH   4  17
HETATM   17  N2  UNL     1      28.677  74.196  11.197  1.00  0.00    -0.224 N 
ATOM     18  H2  UNL     1      29.477  73.980  11.791  1.00  0.00     0.177 HD
BRANCH  17  19
HETATM   19  C6  UNL     1      28.813  73.934   9.786  1.00  0.00     0.164 C 
BRANCH  19  20
HETATM   20  C7  UNL     1      28.593  72.472   9.479  1.00  0.00     0.187 C 
BRANCH  20  21
HETATM   21  O1  UNL     1      29.737  71.717   9.463  1.00  0.00    -0.394 OA
HETATM   22  C8  UNL     1      29.930  71.047   8.263  1.00  0.00     0.201 C 
ENDBRANCH  20  21
ENDBRANCH  19  20
ENDBRANCH  17  19
ENDBRANCH   4  17
TORSDOF 7
ENDMDL
MODEL 2
REMARK VINA RESULT: -6.611021849      2.165      2.405
REMARK  7 active torsions:
REMARK  status: ('A' for Active; 'I' for Inactive)
REMARK    1  A    between atoms: C2_2  and  C3_3 
REMARK    2  A    between atoms: C3_3  and  C4_4 
REMARK    3  A    between atoms: C5_7  and  N2_8 
REMARK    4  A    between atoms: N2_8  and  C6_10 
REMARK    5  A    between atoms: C6_10  and  C7_11 
REMARK    6  A    between atoms: C7_11  and  O1_12 
REMARK    7  A    between atoms: C9_16  and  N4_17 
ROOT
HETATM    1  C4  UNL     1      27.033  77.089  11.439  1.00  0.00     0.051 A 
HETATM    2  N1  UNL     1      27.120  75.766  11.134  1.00  0.00    -0.194 N 
ATOM      3  H1  UNL     1      26.558  75.416  10.358  1.00  0.00     0.184 HD
HETATM    4  C5  UNL     1      27.889  74.905  11.781  1.00  0.00     0.680 A 
HETATM    5  N3  UNL     1      28.631  75.339  12.799  1.00  0.00    -0.176 N 
ATOM      6  H3  UNL     1      29.228  74.686  13.307  1.00  0.00     0.186 HD
HETATM    7  C9  UNL     1      28.597  76.631  13.158  1.00  0.00     0.137 A 
HETATM    8  C10 UNL     1      27.801  77.535  12.491  1.00  0.00     0.111 A 
HETATM    9  C11 UNL     1      27.755  78.921  12.865  1.00  0.00     0.105 C 
HETATM   10  N5  UNL     1      27.714  80.046  13.191  1.00  0.00    -0.191 NA
ENDROOT
BRANCH   1  11
HETATM   11  C3  UNL     1      26.157  77.999  10.678  1.00  0.00     0.059 C 
BRANCH  11  12
HETATM   12  C2  UNL     1      25.081  77.247   9.921  1.00  0.00     0.002 C 
HETATM   13  C1  UNL     1      24.536  78.084   8.786  1.00  0.00     0.005 C 
ENDBRANCH  11  12
ENDBRANCH   1  11
BRANCH   7  14
HETATM   14  N4  UNL     1      29.308  77.070  14.136  1.00  0.00    -0.384 N 
ATOM     15  H42 UNL     1      29.946  76.416  14.589  1.00  0.00     0.157 HD
ATOM     16  H41 UNL     1      29.235  78.038  14.449  1.00  0.00     0.157 HD
ENDBRANCH   7  14
BRANCH   4  17
HETATM   17  N2  UNL     1      27.923  73.676  11.443  1.00  0.00    -0.224 N 
ATOM     18  H2  UNL     1      27.929  72.985  12.194  1.00  0.00     0.177 HD
BRANCH  17  19
HETATM   19  C6  UNL     1      27.954  73.181  10.090  1.00  0.00     0.164 C 
BRANCH  19  20
HETATM   20  C7  UNL     1      29.373  73.010   9.604  1.00  0.00     0.187 C 
BRANCH  20  21
HETATM   21  O1  UNL     1      29.805  71.710   9.562  1.00  0.00    -0.394 OA
HETATM   22  C8  UNL     1      29.845  71.192   8.274  1.00  0.00     0.201 C 
ENDBRANCH  20  21
ENDBRANCH  19  20
ENDBRANCH  17  19
ENDBRANCH   4  17
TORSDOF 7
ENDMDL
MODEL 3
REMARK VINA RESULT: -6.554335500      1.396      3.407
REMARK  7 active torsions:
REMARK  status: ('A' for Active; 'I' for Inactive)
REMARK    1  A    between atoms: C2_2  and  C3_3 
REMARK    2  A    between atoms: C3_3  and  C4_4 
REMARK    3  A    between atoms: C5_7  and  N2_8 
REMARK    4  A    between atoms: N2_8  and  C6_10 
REMARK    5  A    between atoms: C6_10  and  C7_11 
REMARK    6  A    between atoms: C7_11  and  O1_12 
REMARK    7  A    between atoms: C9_16  and  N4_17 
ROOT
HETATM    1  C4  UNL     1      26.405  75.096  13.871  1.00  0.00     0.051 A 
HETATM    2  N1  UNL     1      27.457  74.627  13.146  1.00  0.00    -0.194 N 
ATOM      3  H1  UNL     1      28.254  74.243  13.654  1.00  0.00     0.184 HD
HETATM    4  C5  UNL     1      27.511  74.638  11.824  1.00  0.00     0.680 A 
HETATM    5  N3  UNL     1      26.481  75.135  11.139  1.00  0.00    -0.176 N 
ATOM      6  H3  UNL     1      26.509  75.150  10.120  1.00  0.00     0.186 HD
HETATM    7  C9  UNL     1      25.408  75.616  11.785  1.00  0.00     0.137 A 
HETATM    8  C10 UNL     1      25.343  75.609  13.160  1.00  0.00     0.111 A 
HETATM    9  C11 UNL     1      24.201  76.121  13.864  1.00  0.00     0.105 C 
HETATM   10  N5  UNL     1      23.270  76.557  14.428  1.00  0.00    -0.191 NA
ENDROOT
BRANCH   1  11
HETATM   11  C3  UNL     1      26.406  75.055  15.344  1.00  0.00     0.059 C 
BRANCH  11  12
HETATM   12  C2  UNL     1      27.438  75.994  15.936  1.00  0.00     0.002 C 
HETATM   13  C1  UNL     1      27.294  76.075  17.439  1.00  0.00     0.005 C 
ENDBRANCH  11  12
ENDBRANCH   1  11
BRANCH   7  14
HETATM   14  N4  UNL     1      24.404  76.098  11.143  1.00  0.00    -0.384 N 
ATOM     15  H42 UNL     1      24.302  75.840  10.161  1.00  0.00     0.157 HD
ATOM     16  H41 UNL     1      23.734  76.717  11.598  1.00  0.00     0.157 HD
ENDBRANCH   7  14
BRANCH   4  17
HETATM   17  N2  UNL     1      28.529  74.182  11.207  1.00  0.00    -0.224 N 
ATOM     18  H2  UNL     1      29.356  73.969  11.765  1.00  0.00     0.177 HD
BRANCH  17  19
HETATM   19  C6  UNL     1      28.610  73.943   9.788  1.00  0.00     0.164 C 
BRANCH  19  20
HETATM   20  C7  UNL     1      28.439  72.477   9.470  1.00  0.00     0.187 C 
BRANCH  20  21
HETATM   21  O1  UNL     1      29.603  71.754   9.486  1.00  0.00    -0.394 OA
HETATM   22  C8  UNL     1      29.863  71.116   8.280  1.00  0.00     0.201 C 
ENDBRANCH  20  21
ENDBRANCH  19  20
ENDBRANCH  17  19
ENDBRANCH   4  17
TORSDOF 7
ENDMDL
MODEL 4
REMARK VINA RESULT: -6.471373041      1.063      1.331
REMARK  7 active torsions:
REMARK  status: ('A' for Active; 'I' for Inactive)
REMARK    1  A    between atoms: C2_2  and  C3_3 
REMARK    2  A    between atoms: C3_3  and  C4_4 
REMARK    3  A    between atoms: C5_7  and  N2_8 
REMARK    4  A    between atoms: N2_8  and  C6_10 
REMARK    5  A    between atoms: C6_10  and  C7_11 
REMARK    6  A    between atoms: C7_11  and  O1_12 
REMARK    7  A    between atoms: C9_16  and  N4_17 
ROOT
HETATM    1  C4  UNL     1      26.069  75.599  11.037  1.00  0.00     0.051 A 
HETATM    2  N1  UNL     1      26.911  75.000  10.152  1.00  0.00    -0.194 N 
ATOM      3  H1  UNL     1      26.748  75.155   9.157  1.00  0.00     0.184 HD
HETATM    4  C5  UNL     1      27.928  74.229  10.501  1.00  0.00     0.680 A 
HETATM    5  N3  UNL     1      28.160  74.012  11.795  1.00  0.00    -0.176 N 
ATOM      6  H3  UNL     1      28.941  73.420  12.079  1.00  0.00     0.186 HD
HETATM    7  C9  UNL     1      27.372  74.570  12.727  1.00  0.00     0.137 A 
HETATM    8  C10 UNL     1      26.311  75.373  12.374  1.00  0.00     0.111 A 
HETATM    9  C11 UNL     1      25.459  75.976  13.360  1.00  0.00     0.105 C 
HETATM   10  N5  UNL     1      24.761  76.449  14.175  1.00  0.00    -0.191 NA
ENDROOT
BRANCH   1  11
HETATM   11  C3  UNL     1      24.952  76.449  10.584  1.00  0.00     0.059 C 
BRANCH  11  12
HETATM   12  C2  UNL     1      25.442  77.725   9.931  1.00  0.00     0.002 C 
HETATM   13  C1  UNL     1      24.520  78.145   8.809  1.00  0.00     0.005 C 
ENDBRANCH  11  12
ENDBRANCH   1  11
BRANCH   7  14
HETATM   14  N4  UNL     1      27.581  74.374  13.980  1.00  0.00    -0.384 N 
ATOM     15  H42 UNL     1      27.946  75.153  14.527  1.00  0.00     0.157 HD
ATOM     16  H41 UNL     1      27.389  73.471  14.413  1.00  0.00     0.157 HD
ENDBRANCH   7  14
BRANCH   4  17
HETATM   17  N2  UNL     1      28.679  73.698   9.619  1.00  0.00    -0.224 N 
ATOM     18  H2  UNL     1      29.325  74.313   9.124  1.00  0.00     0.177 HD
BRANCH  17  19
HETATM   19  C6  UNL     1      28.691  72.302   9.261  1.00  0.00     0.164 C 
BRANCH  19  20
HETATM   20  C7  UNL     1      30.097  71.819   8.997  1.00  0.00     0.187 C 
BRANCH  20  21
HETATM   21  O1  UNL     1      30.225  71.027   7.884  1.00  0.00    -0.394 OA
HETATM   22  C8  UNL     1      29.022  70.823   7.222  1.00  0.00     0.201 C 
ENDBRANCH  20  21
ENDBRANCH  19  20
ENDBRANCH  17  19
ENDBRANCH   4  17
TORSDOF 7
ENDMDL
MODEL 5
REMARK VINA RESULT: -6.451260778      3.407      5.016
REMARK  7 active torsions:
REMARK  status: ('A' for Active; 'I' for Inactive)
REMARK    1  A    between atoms: C2_2  and  C3_3 
REMARK    2  A    between atoms: C3_3  and  C4_4 
REMARK    3  A    between atoms: C5_7  and  N2_8 
REMARK    4  A    between atoms: N2_8  and  C6_10 
REMARK    5  A    between atoms: C6_10  and  C7_11 
REMARK    6  A    between atoms: C7_11  and  O1_12 
REMARK    7  A    between atoms: C9_16  and  N4_17 
ROOT
HETATM    1  C4  UNL     1      26.573  76.967  11.692  1.00  0.00     0.051 A 
HETATM    2  N1  UNL     1      27.263  77.759  12.556  1.00  0.00    -0.194 N 
ATOM      3  H1  UNL     1      26.918  78.706  12.717  1.00  0.00     0.184 HD
HETATM    4  C5  UNL     1      28.353  77.379  13.203  1.00  0.00     0.680 A 
HETATM    5  N3  UNL     1      28.822  76.147  13.009  1.00  0.00    -0.176 N 
ATOM      6  H3  UNL     1      29.662  75.840  13.500  1.00  0.00     0.186 HD
HETATM    7  C9  UNL     1      28.195  75.308  12.171  1.00  0.00     0.137 A 
HETATM    8  C10 UNL     1      27.060  75.695  11.494  1.00  0.00     0.111 A 
HETATM    9  C11 UNL     1      26.379  74.807  10.594  1.00  0.00     0.105 C 
HETATM   10  N5  UNL     1      25.841  74.078   9.848  1.00  0.00    -0.191 NA
ENDROOT
BRANCH   1  11
HETATM   11  C3  UNL     1      25.362  77.450  11.003  1.00  0.00     0.059 C 
BRANCH  11  12
HETATM   12  C2  UNL     1      25.694  78.161   9.707  1.00  0.00     0.002 C 
HETATM   13  C1  UNL     1      24.526  78.110   8.749  1.00  0.00     0.005 C 
ENDBRANCH  11  12
ENDBRANCH   1  11
BRANCH   7  14
HETATM   14  N4  UNL     1      28.631  74.115  11.972  1.00  0.00    -0.384 N 
ATOM     15  H42 UNL     1      27.949  73.357  11.963  1.00  0.00     0.157 HD
ATOM     16  H41 UNL     1      29.624  73.933  11.829  1.00  0.00     0.157 HD
ENDBRANCH   7  14
BRANCH   4  17
HETATM   17  N2  UNL     1      28.951  78.173  14.000  1.00  0.00    -0.224 N 
ATOM     18  H2  UNL     1      29.913  78.427  13.771  1.00  0.00     0.177 HD
BRANCH  17  19
HETATM   19  C6  UNL     1      28.385  78.743  15.197  1.00  0.00     0.164 C 
BRANCH  19  20
HETATM   20  C7  UNL     1      27.739  77.681  16.054  1.00  0.00     0.187 C 
BRANCH  20  21
HETATM   21  O1  UNL     1      26.410  77.471  15.790  1.00  0.00    -0.394 OA
HETATM   22  C8  UNL     1      26.070  76.126  15.747  1.00  0.00     0.201 C 
ENDBRANCH  20  21
ENDBRANCH  19  20
ENDBRANCH  17  19
ENDBRANCH   4  17
TORSDOF 7
ENDMDL
