MODEL 1
REMARK VINA RESULT: -5.955087505      0.000      0.000
REMARK  5 active torsions:
REMARK  status: ('A' for Active; 'I' for Inactive)
REMARK    1  A    between atoms: C5_7  and  N2_8 
REMARK    2  A    between atoms: N2_8  and  C6_10 
REMARK    3  A    between atoms: C6_10  and  C7_11 
REMARK    4  A    between atoms: C7_11  and  C8_12 
REMARK    5  A    between atoms: C8_12  and  N3_13 
ROOT
HETATM    1  N2  UNL     1      27.119  75.027  15.629  1.00  0.00    -0.417 N 
ATOM      2  H2  UNL     1      27.774  74.248  15.688  1.00  0.00     0.153 HD
ENDROOT
BRANCH   1   3
HETATM    3  C5  UNL     1      26.009  74.987  14.762  1.00  0.00     0.078 C 
HETATM    4  C4  UNL     1      26.267  75.446  13.353  1.00  0.00     0.044 C 
HETATM    5  C3  UNL     1      24.997  75.883  12.646  1.00  0.00     0.115 C 
HETATM    6  N1  UNL     1      24.010  74.849  12.671  1.00  0.00    -0.421 N 
HETATM    7  C2  UNL     1      23.305  74.713  13.913  1.00  0.00     0.113 C 
ATOM      8  H1  UNL     1      23.821  74.254  11.865  1.00  0.00     0.153 HD
HETATM    9  C1  UNL     1      23.602  75.778  14.906  1.00  0.00     0.021 C 
HETATM   10  C13 UNL     1      24.991  75.973  15.329  1.00  0.00     0.026 C 
ENDBRANCH   1   3
BRANCH   1  11
HETATM   11  C6  UNL     1      27.291  76.223  16.434  1.00  0.00     0.119 C 
BRANCH  11  12
HETATM   12  C7  UNL     1      28.477  77.016  16.074  1.00  0.00     0.063 C 
BRANCH  12  13
HETATM   13  C8  UNL     1      28.224  78.471  15.949  1.00  0.00     0.060 C 
BRANCH  13  14
HETATM   14  N3  UNL     1      28.241  79.020  14.686  1.00  0.00    -0.390 N 
HETATM   15  C9  UNL     1      28.547  78.361  13.500  1.00  0.00     0.141 C 
HETATM   16  C10 UNL     1      27.537  78.804  12.420  1.00  0.00     0.133 C 
HETATM   17  N4  UNL     1      27.640  80.227  12.326  1.00  0.00    -0.418 N 
HETATM   18  C11 UNL     1      28.628  80.828  13.167  1.00  0.00     0.133 C 
ATOM     19  H4  UNL     1      27.050  80.777  11.701  1.00  0.00     0.153 HD
HETATM   20  C12 UNL     1      28.527  80.446  14.625  1.00  0.00     0.141 C 
ENDBRANCH  13  14
ENDBRANCH  12  13
ENDBRANCH  11  12
ENDBRANCH   1  11
TORSDOF 5
ENDMDL
MODEL 2
REMARK VINA RESULT: -5.862282373      1.205      1.890
REMARK  5 active torsions:
REMARK  status: ('A' for Active; 'I' for Inactive)
REMARK    1  A    between atoms: C5_7  and  N2_8 
REMARK    2  A    between atoms: N2_8  and  C6_10 
REMARK    3  A    between atoms: C6_10  and  C7_11 
REMARK    4  A    between atoms: C7_11  and  C8_12 
REMARK    5  A    between atoms: C8_12  and  N3_13 
ROOT
HETATM    1  N2  UNL     1      27.129  75.323  15.872  1.00  0.00    -0.417 N 
ATOM      2  H2  UNL     1      27.879  74.636  15.939  1.00  0.00     0.153 HD
ENDROOT
BRANCH   1   3
HETATM    3  C5  UNL     1      26.052  75.149  14.979  1.00  0.00     0.078 C 
HETATM    4  C4  UNL     1      26.339  75.483  13.542  1.00  0.00     0.044 C 
HETATM    5  C3  UNL     1      25.077  75.792  12.757  1.00  0.00     0.115 C 
HETATM    6  N1  UNL     1      24.135  74.721  12.852  1.00  0.00    -0.421 N 
HETATM    7  C2  UNL     1      23.394  74.672  14.080  1.00  0.00     0.113 C 
ATOM      8  H1  UNL     1      23.999  74.043  12.103  1.00  0.00     0.153 HD
HETATM    9  C1  UNL     1      23.610  75.840  14.973  1.00  0.00     0.021 C 
HETATM   10  C13 UNL     1      24.975  76.138  15.417  1.00  0.00     0.026 C 
ENDBRANCH   1   3
BRANCH   1  11
HETATM   11  C6  UNL     1      27.125  76.521  16.692  1.00  0.00     0.119 C 
BRANCH  11  12
HETATM   12  C7  UNL     1      28.300  77.384  16.487  1.00  0.00     0.063 C 
BRANCH  12  13
HETATM   13  C8  UNL     1      28.265  78.174  15.233  1.00  0.00     0.060 C 
BRANCH  13  14
HETATM   14  N3  UNL     1      28.621  79.503  15.301  1.00  0.00    -0.390 N 
HETATM   15  C9  UNL     1      28.642  80.298  16.442  1.00  0.00     0.141 C 
HETATM   16  C10 UNL     1      29.928  81.152  16.418  1.00  0.00     0.133 C 
HETATM   17  N4  UNL     1      29.895  81.902  15.200  1.00  0.00    -0.418 N 
HETATM   18  C11 UNL     1      28.727  81.715  14.397  1.00  0.00     0.133 C 
ATOM     19  H4  UNL     1      30.653  82.526  14.924  1.00  0.00     0.153 HD
HETATM   20  C12 UNL     1      28.403  80.273  14.086  1.00  0.00     0.141 C 
ENDBRANCH  13  14
ENDBRANCH  12  13
ENDBRANCH  11  12
ENDBRANCH   1  11
TORSDOF 5
ENDMDL
MODEL 3
REMARK VINA RESULT: -5.773149834      2.753      3.909
REMARK  5 active torsions:
REMARK  status: ('A' for Active; 'I' for Inactive)
REMARK    1  A    between atoms: C5_7  and  N2_8 
REMARK    2  A    between atoms: N2_8  and  C6_10 
REMARK    3  A    between atoms: C6_10  and  C7_11 
REMARK    4  A    between atoms: C7_11  and  C8_12 
REMARK    5  A    between atoms: C8_12  and  N3_13 
ROOT
HETATM    1  N2  UNL     1      27.625  75.580  14.568  1.00  0.00    -0.417 N 
ATOM      2  H2  UNL     1      28.360  76.077  15.069  1.00  0.00     0.153 HD
ENDROOT
BRANCH   1   3
HETATM    3  C5  UNL     1      26.265  75.902  14.751  1.00  0.00     0.078 C 
HETATM    4  C4  UNL     1      25.925  76.568  16.056  1.00  0.00     0.044 C 
HETATM    5  C3  UNL     1      24.461  76.406  16.423  1.00  0.00     0.115 C 
HETATM    6  N1  UNL     1      23.611  76.877  15.374  1.00  0.00    -0.421 N 
HETATM    7  C2  UNL     1      23.461  75.979  14.266  1.00  0.00     0.113 C 
ATOM      8  H1  UNL     1      23.145  77.783  15.412  1.00  0.00     0.153 HD
HETATM    9  C1  UNL     1      24.079  74.643  14.471  1.00  0.00     0.021 C 
HETATM   10  C13 UNL     1      25.513  74.573  14.767  1.00  0.00     0.026 C 
ENDBRANCH   1   3
BRANCH   1  11
HETATM   11  C6  UNL     1      27.935  74.511  13.634  1.00  0.00     0.119 C 
BRANCH  11  12
HETATM   12  C7  UNL     1      28.600  74.972  12.405  1.00  0.00     0.063 C 
BRANCH  12  13
HETATM   13  C8  UNL     1      27.769  74.863  11.183  1.00  0.00     0.060 C 
BRANCH  13  14
HETATM   14  N3  UNL     1      26.816  75.832  10.966  1.00  0.00    -0.390 N 
HETATM   15  C9  UNL     1      26.910  77.178  11.305  1.00  0.00     0.141 C 
HETATM   16  C10 UNL     1      26.363  78.017  10.131  1.00  0.00     0.133 C 
HETATM   17  N4  UNL     1      25.021  77.577   9.906  1.00  0.00    -0.418 N 
HETATM   18  C11 UNL     1      24.546  76.573  10.806  1.00  0.00     0.133 C 
ATOM     19  H4  UNL     1      24.442  77.954   9.156  1.00  0.00     0.153 HD
HETATM   20  C12 UNL     1      25.440  75.360  10.921  1.00  0.00     0.141 C 
ENDBRANCH  13  14
ENDBRANCH  12  13
ENDBRANCH  11  12
ENDBRANCH   1  11
TORSDOF 5
ENDMDL
MODEL 4
REMARK VINA RESULT: -5.715684760      1.754      4.227
REMARK  5 active torsions:
REMARK  status: ('A' for Active; 'I' for Inactive)
REMARK    1  A    between atoms: C5_7  and  N2_8 
REMARK    2  A    between atoms: N2_8  and  C6_10 
REMARK    3  A    between atoms: C6_10  and  C7_11 
REMARK    4  A    between atoms: C7_11  and  C8_12 
REMARK    5  A    between atoms: C8_12  and  N3_13 
ROOT
HETATM    1  N2  UNL     1      27.561  78.662  12.422  1.00  0.00    -0.417 N 
ATOM      2  H2  UNL     1      27.420  79.606  12.064  1.00  0.00     0.153 HD
ENDROOT
BRANCH   1   3
HETATM    3  C5  UNL     1      26.774  77.582  11.972  1.00  0.00     0.078 C 
HETATM    4  C4  UNL     1      27.507  76.285  11.769  1.00  0.00     0.044 C 
HETATM    5  C3  UNL     1      26.779  75.354  10.816  1.00  0.00     0.115 C 
HETATM    6  N1  UNL     1      25.437  75.118  11.249  1.00  0.00    -0.421 N 
HETATM    7  C2  UNL     1      24.512  76.177  10.965  1.00  0.00     0.113 C 
ATOM      8  H1  UNL     1      25.158  74.260  11.725  1.00  0.00     0.153 HD
HETATM    9  C1  UNL     1      25.069  77.266  10.120  1.00  0.00     0.021 C 
HETATM   10  C13 UNL     1      26.260  77.978  10.591  1.00  0.00     0.026 C 
ENDBRANCH   1   3
BRANCH   1  11
HETATM   11  C6  UNL     1      28.581  78.373  13.414  1.00  0.00     0.119 C 
BRANCH  11  12
HETATM   12  C7  UNL     1      28.194  78.740  14.786  1.00  0.00     0.063 C 
BRANCH  12  13
HETATM   13  C8  UNL     1      28.139  77.599  15.731  1.00  0.00     0.060 C 
BRANCH  13  14
HETATM   14  N3  UNL     1      27.142  76.666  15.554  1.00  0.00    -0.390 N 
HETATM   15  C9  UNL     1      25.945  76.589  16.257  1.00  0.00     0.141 C 
HETATM   16  C10 UNL     1      24.809  76.289  15.256  1.00  0.00     0.133 C 
HETATM   17  N4  UNL     1      25.161  75.071  14.594  1.00  0.00    -0.418 N 
HETATM   18  C11 UNL     1      26.374  74.459  15.041  1.00  0.00     0.133 C 
ATOM     19  H4  UNL     1      24.587  74.667  13.854  1.00  0.00     0.153 HD
HETATM   20  C12 UNL     1      27.575  75.374  15.042  1.00  0.00     0.141 C 
ENDBRANCH  13  14
ENDBRANCH  12  13
ENDBRANCH  11  12
ENDBRANCH   1  11
TORSDOF 5
ENDMDL
MODEL 5
REMARK VINA RESULT: -5.702214286      2.619      3.632
REMARK  5 active torsions:
REMARK  status: ('A' for Active; 'I' for Inactive)
REMARK    1  A    between atoms: C5_7  and  N2_8 
REMARK    2  A    between atoms: N2_8  and  C6_10 
REMARK    3  A    between atoms: C6_10  and  C7_11 
REMARK    4  A    between atoms: C7_11  and  C8_12 
REMARK    5  A    between atoms: C8_12  and  N3_13 
ROOT
HETATM    1  N2  UNL     1      27.914  75.375  14.143  1.00  0.00    -0.417 N 
ATOM      2  H2  UNL     1      28.807  75.851  14.272  1.00  0.00     0.153 HD
ENDROOT
BRANCH   1   3
HETATM    3  C5  UNL     1      27.412  75.095  12.856  1.00  0.00     0.078 C 
HETATM    4  C4  UNL     1      28.262  74.187  12.011  1.00  0.00     0.044 C 
HETATM    5  C3  UNL     1      27.978  74.345  10.528  1.00  0.00     0.115 C 
HETATM    6  N1  UNL     1      26.590  74.153  10.245  1.00  0.00    -0.421 N 
HETATM    7  C2  UNL     1      25.747  75.272  10.555  1.00  0.00     0.113 C 
ATOM      8  H1  UNL     1      26.226  73.285   9.851  1.00  0.00     0.153 HD
HETATM    9  C1  UNL     1      26.481  76.499  10.959  1.00  0.00     0.021 C 
HETATM   10  C13 UNL     1      27.381  76.428  12.113  1.00  0.00     0.026 C 
ENDBRANCH   1   3
BRANCH   1  11
HETATM   11  C6  UNL     1      27.109  74.958  15.277  1.00  0.00     0.119 C 
BRANCH  11  12
HETATM   12  C7  UNL     1      26.945  75.999  16.304  1.00  0.00     0.063 C 
BRANCH  12  13
HETATM   13  C8  UNL     1      27.328  77.360  15.861  1.00  0.00     0.060 C 
BRANCH  13  14
HETATM   14  N3  UNL     1      28.424  77.945  16.454  1.00  0.00    -0.390 N 
HETATM   15  C9  UNL     1      29.067  77.517  17.611  1.00  0.00     0.141 C 
HETATM   16  C10 UNL     1      30.591  77.609  17.383  1.00  0.00     0.133 C 
HETATM   17  N4  UNL     1      30.871  78.970  17.046  1.00  0.00    -0.418 N 
HETATM   18  C11 UNL     1      29.743  79.849  17.056  1.00  0.00     0.133 C 
ATOM     19  H4  UNL     1      31.811  79.293  16.814  1.00  0.00     0.153 HD
HETATM   20  C12 UNL     1      28.572  79.375  16.228  1.00  0.00     0.141 C 
ENDBRANCH  13  14
ENDBRANCH  12  13
ENDBRANCH  11  12
ENDBRANCH   1  11
TORSDOF 5
ENDMDL
