MODEL 1
REMARK VINA RESULT: -6.359166270      0.000      0.000
REMARK  7 active torsions:
REMARK  status: ('A' for Active; 'I' for Inactive)
REMARK    1  A    between atoms: C2_2  and  C3_3 
REMARK    2  A    between atoms: C3_3  and  C4_4 
REMARK    3  A    between atoms: C4_4  and  C5_5 
REMARK    4  A    between atoms: C4_4  and  N1_7 
REMARK    5  A    between atoms: N1_7  and  C7_9 
REMARK    6  A    between atoms: C8_12  and  S1_13 
REMARK    7  A    between atoms: S1_13  and  N3_15 
ROOT
HETATM    1  C7  UNL     1      27.718  74.356  10.601  1.00  0.00     0.695 A 
HETATM    2  N2  UNL     1      28.415  73.988   9.506  1.00  0.00    -0.165 N 
ATOM      3  H2  UNL     1      28.519  74.539   8.654  1.00  0.00     0.186 HD
HETATM    4  C8  UNL     1      28.952  72.767   9.727  1.00  0.00     0.210 A 
HETATM    5  N4  UNL     1      28.569  72.407  10.962  1.00  0.00    -0.263 N 
ATOM      6  H4  UNL     1      28.812  71.532  11.427  1.00  0.00     0.189 HD
HETATM    7  N5  UNL     1      27.824  73.376  11.481  1.00  0.00    -0.130 N 
ATOM      8  H5  UNL     1      27.400  73.366  12.409  1.00  0.00     0.205 HD
ENDROOT
BRANCH   1   9
HETATM    9  N1  UNL     1      27.094  75.455  10.712  1.00  0.00    -0.220 N 
ATOM     10  H1  UNL     1      27.673  76.287  10.599  1.00  0.00     0.178 HD
BRANCH   9  11
HETATM   11  C4  UNL     1      25.734  75.715  10.965  1.00  0.00     0.099 C 
BRANCH  11  12
HETATM   12  C3  UNL     1      25.301  75.727  12.396  1.00  0.00     0.025 C 
BRANCH  12  13
HETATM   13  C2  UNL     1      23.869  75.285  12.584  1.00  0.00    -0.002 C 
HETATM   14  C1  UNL     1      23.759  74.735  13.996  1.00  0.00     0.005 C 
ENDBRANCH  12  13
ENDBRANCH  11  12
BRANCH  11  15
HETATM   15  C5  UNL     1      25.181  76.960  10.291  1.00  0.00     0.021 C 
HETATM   16  C6  UNL     1      26.316  77.974  10.094  1.00  0.00     0.007 C 
ENDBRANCH  11  15
ENDBRANCH   9  11
ENDBRANCH   1   9
BRANCH   4  17
HETATM   17  S1  UNL     1      29.945  71.812   8.652  1.00  0.00     0.080 S 
HETATM   18  C9  UNL     1      28.973  70.986   7.424  1.00  0.00     0.145 C 
HETATM   19  O1  UNL     1      30.940  72.755   8.026  1.00  0.00    -0.242 OA
BRANCH  17  20
HETATM   20  N3  UNL     1      30.764  70.819   9.518  1.00  0.00    -0.354 N 
ATOM     21  H32 UNL     1      30.697  69.802   9.472  1.00  0.00     0.166 HD
ATOM     22  H31 UNL     1      31.372  71.364  10.130  1.00  0.00     0.166 HD
ENDBRANCH  17  20
ENDBRANCH   4  17
TORSDOF 7
ENDMDL
MODEL 2
REMARK VINA RESULT: -6.358554695      0.770      2.288
REMARK  7 active torsions:
REMARK  status: ('A' for Active; 'I' for Inactive)
REMARK    1  A    between atoms: C2_2  and  C3_3 
REMARK    2  A    between atoms: C3_3  and  C4_4 
REMARK    3  A    between atoms: C4_4  and  C5_5 
REMARK    4  A    between atoms: C4_4  and  N1_7 
REMARK    5  A    between atoms: N1_7  and  C7_9 
REMARK    6  A    between atoms: C8_12  and  S1_13 
REMARK    7  A    between atoms: S1_13  and  N3_15 
ROOT
HETATM    1  C7  UNL     1      27.592  74.316  10.595  1.00  0.00     0.695 A 
HETATM    2  N2  UNL     1      28.281  73.949   9.496  1.00  0.00    -0.165 N 
ATOM      3  H2  UNL     1      28.324  74.468   8.619  1.00  0.00     0.186 HD
HETATM    4  C8  UNL     1      28.906  72.777   9.751  1.00  0.00     0.210 A 
HETATM    5  N4  UNL     1      28.583  72.446  11.010  1.00  0.00    -0.263 N 
ATOM      6  H4  UNL     1      28.897  71.610  11.503  1.00  0.00     0.189 HD
HETATM    7  N5  UNL     1      27.788  73.384  11.511  1.00  0.00    -0.130 N 
ATOM      8  H5  UNL     1      27.392  73.385  12.451  1.00  0.00     0.205 HD
ENDROOT
BRANCH   1   9
HETATM    9  N1  UNL     1      26.897  75.375  10.680  1.00  0.00    -0.220 N 
ATOM     10  H1  UNL     1      26.377  75.611   9.835  1.00  0.00     0.178 HD
BRANCH   9  11
HETATM   11  C4  UNL     1      26.726  76.276  11.748  1.00  0.00     0.099 C 
BRANCH  11  12
HETATM   12  C3  UNL     1      26.439  77.700  11.393  1.00  0.00     0.025 C 
BRANCH  12  13
HETATM   13  C2  UNL     1      26.432  77.948   9.904  1.00  0.00    -0.002 C 
HETATM   14  C1  UNL     1      24.980  78.105   9.490  1.00  0.00     0.005 C 
ENDBRANCH  12  13
ENDBRANCH  11  12
BRANCH  11  15
HETATM   15  C5  UNL     1      25.724  75.838  12.804  1.00  0.00     0.021 C 
HETATM   16  C6  UNL     1      24.366  75.582  12.136  1.00  0.00     0.007 C 
ENDBRANCH  11  15
ENDBRANCH   9  11
ENDBRANCH   1   9
BRANCH   4  17
HETATM   17  S1  UNL     1      29.931  71.845   8.686  1.00  0.00     0.080 S 
HETATM   18  C9  UNL     1      28.992  71.007   7.441  1.00  0.00     0.145 C 
HETATM   19  O1  UNL     1      30.918  72.809   8.078  1.00  0.00    -0.242 OA
BRANCH  17  20
HETATM   20  N3  UNL     1      30.756  70.863   9.559  1.00  0.00    -0.354 N 
ATOM     21  H32 UNL     1      30.597  70.678  10.549  1.00  0.00     0.166 HD
ATOM     22  H31 UNL     1      31.474  70.445   8.967  1.00  0.00     0.166 HD
ENDBRANCH  17  20
ENDBRANCH   4  17
TORSDOF 7
ENDMDL
MODEL 3
REMARK VINA RESULT: -6.251449350      4.292      6.524
REMARK  7 active torsions:
REMARK  status: ('A' for Active; 'I' for Inactive)
REMARK    1  A    between atoms: C2_2  and  C3_3 
REMARK    2  A    between atoms: C3_3  and  C4_4 
REMARK    3  A    between atoms: C4_4  and  C5_5 
REMARK    4  A    between atoms: C4_4  and  N1_7 
REMARK    5  A    between atoms: N1_7  and  C7_9 
REMARK    6  A    between atoms: C8_12  and  S1_13 
REMARK    7  A    between atoms: S1_13  and  N3_15 
ROOT
HETATM    1  C7  UNL     1      25.655  75.265  11.026  1.00  0.00     0.695 A 
HETATM    2  N2  UNL     1      25.254  74.929  12.269  1.00  0.00    -0.165 N 
ATOM      3  H2  UNL     1      25.440  74.041  12.735  1.00  0.00     0.186 HD
HETATM    4  C8  UNL     1      24.561  75.966  12.793  1.00  0.00     0.210 A 
HETATM    5  N4  UNL     1      24.552  76.923  11.853  1.00  0.00    -0.263 N 
ATOM      6  H4  UNL     1      24.107  77.837  11.941  1.00  0.00     0.189 HD
HETATM    7  N5  UNL     1      25.216  76.488  10.789  1.00  0.00    -0.130 N 
ATOM      8  H5  UNL     1      25.364  77.014   9.927  1.00  0.00     0.205 HD
ENDROOT
BRANCH   1   9
HETATM    9  N1  UNL     1      26.330  74.506  10.266  1.00  0.00    -0.220 N 
ATOM     10  H1  UNL     1      25.817  74.141   9.463  1.00  0.00     0.178 HD
BRANCH   9  11
HETATM   11  C4  UNL     1      27.671  74.083  10.347  1.00  0.00     0.099 C 
BRANCH  11  12
HETATM   12  C3  UNL     1      28.281  74.027  11.711  1.00  0.00     0.025 C 
BRANCH  12  13
HETATM   13  C2  UNL     1      29.028  75.288  12.077  1.00  0.00    -0.002 C 
HETATM   14  C1  UNL     1      28.500  75.735  13.429  1.00  0.00     0.005 C 
ENDBRANCH  12  13
ENDBRANCH  11  12
BRANCH  11  15
HETATM   15  C5  UNL     1      27.978  72.776   9.635  1.00  0.00     0.021 C 
HETATM   16  C6  UNL     1      29.499  72.608   9.521  1.00  0.00     0.007 C 
ENDBRANCH  11  15
ENDBRANCH   9  11
ENDBRANCH   1   9
BRANCH   4  17
HETATM   17  S1  UNL     1      23.812  76.080  14.367  1.00  0.00     0.080 S 
HETATM   18  C9  UNL     1      25.013  76.295  15.650  1.00  0.00     0.145 C 
HETATM   19  O1  UNL     1      22.851  77.240  14.309  1.00  0.00    -0.242 OA
BRANCH  17  20
HETATM   20  N3  UNL     1      22.951  74.806  14.578  1.00  0.00    -0.354 N 
ATOM     21  H32 UNL     1      23.311  73.854  14.632  1.00  0.00     0.166 HD
ATOM     22  H31 UNL     1      21.976  75.095  14.650  1.00  0.00     0.166 HD
ENDBRANCH  17  20
ENDBRANCH   4  17
TORSDOF 7
ENDMDL
MODEL 4
REMARK VINA RESULT: -6.229112388      4.270      6.843
REMARK  7 active torsions:
REMARK  status: ('A' for Active; 'I' for Inactive)
REMARK    1  A    between atoms: C2_2  and  C3_3 
REMARK    2  A    between atoms: C3_3  and  C4_4 
REMARK    3  A    between atoms: C4_4  and  C5_5 
REMARK    4  A    between atoms: C4_4  and  N1_7 
REMARK    5  A    between atoms: N1_7  and  C7_9 
REMARK    6  A    between atoms: C8_12  and  S1_13 
REMARK    7  A    between atoms: S1_13  and  N3_15 
ROOT
HETATM    1  C7  UNL     1      25.697  75.297  11.083  1.00  0.00     0.695 A 
HETATM    2  N2  UNL     1      25.291  74.954  12.322  1.00  0.00    -0.165 N 
ATOM      3  H2  UNL     1      25.504  74.078  12.798  1.00  0.00     0.186 HD
HETATM    4  C8  UNL     1      24.553  75.969  12.829  1.00  0.00     0.210 A 
HETATM    5  N4  UNL     1      24.521  76.918  11.882  1.00  0.00    -0.263 N 
ATOM      6  H4  UNL     1      24.040  77.815  11.957  1.00  0.00     0.189 HD
HETATM    7  N5  UNL     1      25.215  76.501  10.830  1.00  0.00    -0.130 N 
ATOM      8  H5  UNL     1      25.355  77.025   9.966  1.00  0.00     0.205 HD
ENDROOT
BRANCH   1   9
HETATM    9  N1  UNL     1      26.410  74.557  10.337  1.00  0.00    -0.220 N 
ATOM     10  H1  UNL     1      26.136  74.554   9.355  1.00  0.00     0.178 HD
BRANCH   9  11
HETATM   11  C4  UNL     1      27.516  73.742  10.643  1.00  0.00     0.099 C 
BRANCH  11  12
HETATM   12  C3  UNL     1      28.092  72.934   9.524  1.00  0.00     0.025 C 
BRANCH  12  13
HETATM   13  C2  UNL     1      29.602  72.937   9.511  1.00  0.00    -0.002 C 
HETATM   14  C1  UNL     1      30.040  71.595   8.949  1.00  0.00     0.005 C 
ENDBRANCH  12  13
ENDBRANCH  11  12
BRANCH  11  15
HETATM   15  C5  UNL     1      28.657  74.449  11.356  1.00  0.00     0.021 C 
HETATM   16  C6  UNL     1      28.530  74.215  12.868  1.00  0.00     0.007 C 
ENDBRANCH  11  15
ENDBRANCH   9  11
ENDBRANCH   1   9
BRANCH   4  17
HETATM   17  S1  UNL     1      23.778  76.066  14.393  1.00  0.00     0.080 S 
HETATM   18  C9  UNL     1      24.954  76.325  15.691  1.00  0.00     0.145 C 
HETATM   19  O1  UNL     1      22.783  77.195  14.316  1.00  0.00    -0.242 OA
BRANCH  17  20
HETATM   20  N3  UNL     1      22.956  74.766  14.597  1.00  0.00    -0.354 N 
ATOM     21  H32 UNL     1      22.495  74.238  13.857  1.00  0.00     0.166 HD
ATOM     22  H31 UNL     1      22.963  74.544  15.593  1.00  0.00     0.166 HD
ENDBRANCH  17  20
ENDBRANCH   4  17
TORSDOF 7
ENDMDL
MODEL 5
REMARK VINA RESULT: -6.166927982      1.499      1.798
REMARK  7 active torsions:
REMARK  status: ('A' for Active; 'I' for Inactive)
REMARK    1  A    between atoms: C2_2  and  C3_3 
REMARK    2  A    between atoms: C3_3  and  C4_4 
REMARK    3  A    between atoms: C4_4  and  C5_5 
REMARK    4  A    between atoms: C4_4  and  N1_7 
REMARK    5  A    between atoms: N1_7  and  C7_9 
REMARK    6  A    between atoms: C8_12  and  S1_13 
REMARK    7  A    between atoms: S1_13  and  N3_15 
ROOT
HETATM    1  C7  UNL     1      27.923  74.327  10.556  1.00  0.00     0.695 A 
HETATM    2  N2  UNL     1      28.628  73.947   9.471  1.00  0.00    -0.165 N 
ATOM      3  H2  UNL     1      28.855  74.538   8.672  1.00  0.00     0.186 HD
HETATM    4  C8  UNL     1      28.984  72.651   9.620  1.00  0.00     0.210 A 
HETATM    5  N4  UNL     1      28.484  72.259  10.802  1.00  0.00    -0.263 N 
ATOM      6  H4  UNL     1      28.580  71.328  11.207  1.00  0.00     0.189 HD
HETATM    7  N5  UNL     1      27.845  73.281  11.359  1.00  0.00    -0.130 N 
ATOM      8  H5  UNL     1      27.370  73.262  12.262  1.00  0.00     0.205 HD
ENDROOT
BRANCH   1   9
HETATM    9  N1  UNL     1      27.445  75.490  10.723  1.00  0.00    -0.220 N 
ATOM     10  H1  UNL     1      27.153  75.958   9.865  1.00  0.00     0.178 HD
BRANCH   9  11
HETATM   11  C4  UNL     1      27.252  76.242  11.898  1.00  0.00     0.099 C 
BRANCH  11  12
HETATM   12  C3  UNL     1      28.381  76.271  12.877  1.00  0.00     0.025 C 
BRANCH  12  13
HETATM   13  C2  UNL     1      27.918  76.231  14.314  1.00  0.00    -0.002 C 
HETATM   14  C1  UNL     1      27.243  74.887  14.522  1.00  0.00     0.005 C 
ENDBRANCH  12  13
ENDBRANCH  11  12
BRANCH  11  15
HETATM   15  C5  UNL     1      26.777  77.669  11.677  1.00  0.00     0.021 C 
HETATM   16  C6  UNL     1      26.410  77.856  10.199  1.00  0.00     0.007 C 
ENDBRANCH  11  15
ENDBRANCH   9  11
ENDBRANCH   1   9
BRANCH   4  17
HETATM   17  S1  UNL     1      29.903  71.648   8.522  1.00  0.00     0.080 S 
HETATM   18  C9  UNL     1      28.855  70.819   7.361  1.00  0.00     0.145 C 
HETATM   19  O1  UNL     1      30.888  72.554   7.829  1.00  0.00    -0.242 OA
BRANCH  17  20
HETATM   20  N3  UNL     1      30.739  70.655   9.372  1.00  0.00    -0.354 N 
ATOM     21  H32 UNL     1      31.088  69.753   9.049  1.00  0.00     0.166 HD
ATOM     22  H31 UNL     1      30.871  71.067  10.295  1.00  0.00     0.166 HD
ENDBRANCH  17  20
ENDBRANCH   4  17
TORSDOF 7
ENDMDL
