MODEL 1
REMARK VINA RESULT: -6.842990937      0.000      0.000
REMARK  8 active torsions:
REMARK  status: ('A' for Active; 'I' for Inactive)
REMARK    1  A    between atoms: C2_2  and  C3_3 
REMARK    2  A    between atoms: C3_3  and  C4_4 
REMARK    3  A    between atoms: C4_4  and  N1_5 
REMARK    4  A    between atoms: N1_5  and  C5_7 
REMARK    5  A    between atoms: C6_10  and  N3_11 
REMARK    6  A    between atoms: N3_11  and  C7_13 
REMARK    7  A    between atoms: C9_17  and  N5_18 
REMARK    8  A    between atoms: N5_18  and  C10_20 
ROOT
HETATM    1  C10 UNL     1      29.695  72.941   9.467  1.00  0.00     0.262 C 
HETATM    2  C11 UNL     1      30.134  71.608   9.051  1.00  0.00     0.079 C 
HETATM    3  N6  UNL     1      30.476  70.559   8.707  1.00  0.00    -0.196 NA
ENDROOT
BRANCH   1   4
HETATM    4  N5  UNL     1      28.286  73.018   9.669  1.00  0.00    -0.213 N 
ATOM      5  H5  UNL     1      27.696  72.456   9.055  1.00  0.00     0.178 HD
BRANCH   4   6
HETATM    6  C9  UNL     1      27.694  73.734  10.559  1.00  0.00     0.708 A 
HETATM    7  N4  UNL     1      28.045  73.756  11.857  1.00  0.00    -0.021 N 
HETATM    8  C6  UNL     1      27.413  74.512  12.773  1.00  0.00     0.707 A 
ATOM      9  H4  UNL     1      28.825  73.173  12.161  1.00  0.00     0.203 HD
HETATM   10  N2  UNL     1      26.388  75.266  12.339  1.00  0.00    -0.022 N 
HETATM   11  C5  UNL     1      25.985  75.287  11.034  1.00  0.00     0.707 A 
ATOM     12  H2  UNL     1      25.890  75.848  13.012  1.00  0.00     0.203 HD
HETATM   13  N7  UNL     1      26.664  74.503  10.163  1.00  0.00    -0.021 N 
ATOM     14  H7  UNL     1      26.386  74.496   9.182  1.00  0.00     0.203 HD
BRANCH   8  15
HETATM   15  N3  UNL     1      27.786  74.502  14.017  1.00  0.00    -0.225 N 
ATOM     16  H3  UNL     1      28.787  74.476  14.208  1.00  0.00     0.177 HD
BRANCH  15  17
HETATM   17  C7  UNL     1      26.906  74.526  15.135  1.00  0.00     0.133 C 
HETATM   18  C8  UNL     1      27.300  75.722  16.009  1.00  0.00     0.027 C 
ENDBRANCH  15  17
ENDBRANCH   8  15
BRANCH  11  19
HETATM   19  N1  UNL     1      24.998  76.026  10.663  1.00  0.00    -0.225 N 
ATOM     20  H1  UNL     1      24.258  75.663  10.061  1.00  0.00     0.177 HD
BRANCH  19  21
HETATM   21  C4  UNL     1      24.981  77.394  11.135  1.00  0.00     0.138 C 
BRANCH  21  22
HETATM   22  C3  UNL     1      25.420  78.271   9.981  1.00  0.00     0.020 C 
BRANCH  22  23
HETATM   23  C2  UNL     1      24.576  77.897   8.784  1.00  0.00    -0.003 C 
HETATM   24  C1  UNL     1      23.838  79.087   8.230  1.00  0.00     0.005 C 
ENDBRANCH  22  23
ENDBRANCH  21  22
ENDBRANCH  19  21
ENDBRANCH  11  19
ENDBRANCH   4   6
ENDBRANCH   1   4
TORSDOF 8
ENDMDL
MODEL 2
REMARK VINA RESULT: -6.769241285      2.326      6.559
REMARK  8 active torsions:
REMARK  status: ('A' for Active; 'I' for Inactive)
REMARK    1  A    between atoms: C2_2  and  C3_3 
REMARK    2  A    between atoms: C3_3  and  C4_4 
REMARK    3  A    between atoms: C4_4  and  N1_5 
REMARK    4  A    between atoms: N1_5  and  C5_7 
REMARK    5  A    between atoms: C6_10  and  N3_11 
REMARK    6  A    between atoms: N3_11  and  C7_13 
REMARK    7  A    between atoms: C9_17  and  N5_18 
REMARK    8  A    between atoms: N5_18  and  C10_20 
ROOT
HETATM    1  C10 UNL     1      23.717  74.677  14.235  1.00  0.00     0.262 C 
HETATM    2  C11 UNL     1      23.758  75.930  14.991  1.00  0.00     0.079 C 
HETATM    3  N6  UNL     1      23.774  76.920  15.585  1.00  0.00    -0.196 NA
ENDROOT
BRANCH   1   4
HETATM    4  N5  UNL     1      23.706  74.885  12.825  1.00  0.00    -0.213 N 
ATOM      5  H5  UNL     1      22.925  74.487  12.301  1.00  0.00     0.178 HD
BRANCH   4   6
HETATM    6  C9  UNL     1      24.593  75.531  12.155  1.00  0.00     0.708 A 
HETATM    7  N4  UNL     1      24.314  76.569  11.348  1.00  0.00    -0.021 N 
HETATM    8  C6  UNL     1      25.257  77.233  10.655  1.00  0.00     0.707 A 
ATOM      9  H4  UNL     1      23.342  76.868  11.256  1.00  0.00     0.203 HD
HETATM   10  N2  UNL     1      26.526  76.812  10.796  1.00  0.00    -0.022 N 
HETATM   11  C5  UNL     1      26.873  75.764  11.601  1.00  0.00     0.707 A 
ATOM     12  H2  UNL     1      27.262  77.296  10.281  1.00  0.00     0.203 HD
HETATM   13  N7  UNL     1      25.876  75.140  12.270  1.00  0.00    -0.021 N 
ATOM     14  H7  UNL     1      26.102  74.353  12.878  1.00  0.00     0.203 HD
BRANCH   8  15
HETATM   15  N3  UNL     1      24.941  78.232   9.887  1.00  0.00    -0.225 N 
ATOM     16  H3  UNL     1      24.988  79.168  10.289  1.00  0.00     0.177 HD
BRANCH  15  17
HETATM   17  C7  UNL     1      24.535  78.122   8.528  1.00  0.00     0.133 C 
HETATM   18  C8  UNL     1      23.582  79.286   8.234  1.00  0.00     0.027 C 
ENDBRANCH  15  17
ENDBRANCH   8  15
BRANCH  11  19
HETATM   19  N1  UNL     1      28.103  75.396  11.706  1.00  0.00    -0.225 N 
ATOM     20  H1  UNL     1      28.829  76.047  12.005  1.00  0.00     0.177 HD
BRANCH  19  21
HETATM   21  C4  UNL     1      28.412  74.019  11.381  1.00  0.00     0.138 C 
BRANCH  21  22
HETATM   22  C3  UNL     1      28.580  73.942   9.879  1.00  0.00     0.020 C 
BRANCH  22  23
HETATM   23  C2  UNL     1      28.567  72.478   9.498  1.00  0.00    -0.003 C 
HETATM   24  C1  UNL     1      29.939  71.991   9.114  1.00  0.00     0.005 C 
ENDBRANCH  22  23
ENDBRANCH  21  22
ENDBRANCH  19  21
ENDBRANCH  11  19
ENDBRANCH   4   6
ENDBRANCH   1   4
TORSDOF 8
ENDMDL
MODEL 3
REMARK VINA RESULT: -6.654140229      0.955      1.558
REMARK  8 active torsions:
REMARK  status: ('A' for Active; 'I' for Inactive)
REMARK    1  A    between atoms: C2_2  and  C3_3 
REMARK    2  A    between atoms: C3_3  and  C4_4 
REMARK    3  A    between atoms: C4_4  and  N1_5 
REMARK    4  A    between atoms: N1_5  and  C5_7 
REMARK    5  A    between atoms: C6_10  and  N3_11 
REMARK    6  A    between atoms: N3_11  and  C7_13 
REMARK    7  A    between atoms: C9_17  and  N5_18 
REMARK    8  A    between atoms: N5_18  and  C10_20 
ROOT
HETATM    1  C10 UNL     1      29.694  72.888   9.476  1.00  0.00     0.262 C 
HETATM    2  C11 UNL     1      30.148  71.560   9.059  1.00  0.00     0.079 C 
HETATM    3  N6  UNL     1      30.501  70.516   8.714  1.00  0.00    -0.196 NA
ENDROOT
BRANCH   1   4
HETATM    4  N5  UNL     1      28.290  72.938   9.718  1.00  0.00    -0.213 N 
ATOM      5  H5  UNL     1      27.695  72.345   9.138  1.00  0.00     0.178 HD
BRANCH   4   6
HETATM    6  C9  UNL     1      27.707  73.665  10.605  1.00  0.00     0.708 A 
HETATM    7  N4  UNL     1      28.055  73.685  11.903  1.00  0.00    -0.021 N 
HETATM    8  C6  UNL     1      27.433  74.453  12.816  1.00  0.00     0.707 A 
ATOM      9  H4  UNL     1      28.826  73.091  12.210  1.00  0.00     0.203 HD
HETATM   10  N2  UNL     1      26.420  75.222  12.378  1.00  0.00    -0.022 N 
HETATM   11  C5  UNL     1      26.021  75.244  11.072  1.00  0.00     0.707 A 
ATOM     12  H2  UNL     1      25.930  75.813  13.049  1.00  0.00     0.203 HD
HETATM   13  N7  UNL     1      26.689  74.448  10.205  1.00  0.00    -0.021 N 
ATOM     14  H7  UNL     1      26.413  74.442   9.223  1.00  0.00     0.203 HD
BRANCH   8  15
HETATM   15  N3  UNL     1      27.804  74.441  14.061  1.00  0.00    -0.225 N 
ATOM     16  H3  UNL     1      28.803  74.375  14.253  1.00  0.00     0.177 HD
BRANCH  15  17
HETATM   17  C7  UNL     1      26.924  74.514  15.177  1.00  0.00     0.133 C 
HETATM   18  C8  UNL     1      27.304  75.760  15.985  1.00  0.00     0.027 C 
ENDBRANCH  15  17
ENDBRANCH   8  15
BRANCH  11  19
HETATM   19  N1  UNL     1      25.045  75.997  10.697  1.00  0.00    -0.225 N 
ATOM     20  H1  UNL     1      24.291  75.638  10.112  1.00  0.00     0.177 HD
BRANCH  19  21
HETATM   21  C4  UNL     1      25.063  77.375  11.142  1.00  0.00     0.138 C 
BRANCH  21  22
HETATM   22  C3  UNL     1      26.135  78.087  10.345  1.00  0.00     0.020 C 
BRANCH  22  23
HETATM   23  C2  UNL     1      26.703  79.177  11.226  1.00  0.00    -0.003 C 
HETATM   24  C1  UNL     1      27.528  78.610  12.350  1.00  0.00     0.005 C 
ENDBRANCH  22  23
ENDBRANCH  21  22
ENDBRANCH  19  21
ENDBRANCH  11  19
ENDBRANCH   4   6
ENDBRANCH   1   4
TORSDOF 8
ENDMDL
MODEL 4
REMARK VINA RESULT: -6.634248175      0.620      4.778
REMARK  8 active torsions:
REMARK  status: ('A' for Active; 'I' for Inactive)
REMARK    1  A    between atoms: C2_2  and  C3_3 
REMARK    2  A    between atoms: C3_3  and  C4_4 
REMARK    3  A    between atoms: C4_4  and  N1_5 
REMARK    4  A    between atoms: N1_5  and  C5_7 
REMARK    5  A    between atoms: C6_10  and  N3_11 
REMARK    6  A    between atoms: N3_11  and  C7_13 
REMARK    7  A    between atoms: C9_17  and  N5_18 
REMARK    8  A    between atoms: N5_18  and  C10_20 
ROOT
HETATM    1  C10 UNL     1      29.666  72.910   9.375  1.00  0.00     0.262 C 
HETATM    2  C11 UNL     1      30.115  71.582   8.955  1.00  0.00     0.079 C 
HETATM    3  N6  UNL     1      30.466  70.538   8.607  1.00  0.00    -0.196 NA
ENDROOT
BRANCH   1   4
HETATM    4  N5  UNL     1      28.256  72.976   9.577  1.00  0.00    -0.213 N 
ATOM      5  H5  UNL     1      27.671  72.401   8.970  1.00  0.00     0.178 HD
BRANCH   4   6
HETATM    6  C9  UNL     1      27.656  73.695  10.459  1.00  0.00     0.708 A 
HETATM    7  N4  UNL     1      26.595  74.477  10.191  1.00  0.00    -0.021 N 
HETATM    8  C6  UNL     1      25.981  75.223  11.128  1.00  0.00     0.707 A 
ATOM      9  H4  UNL     1      26.240  74.506   9.235  1.00  0.00     0.203 HD
HETATM   10  N2  UNL     1      26.477  75.163  12.376  1.00  0.00    -0.022 N 
HETATM   11  C5  UNL     1      27.551  74.388  12.709  1.00  0.00     0.707 A 
ATOM     12  H2  UNL     1      26.032  75.720  13.106  1.00  0.00     0.203 HD
HETATM   13  N7  UNL     1      28.123  73.662  11.720  1.00  0.00    -0.021 N 
ATOM     14  H7  UNL     1      28.927  73.074  11.937  1.00  0.00     0.203 HD
BRANCH   8  15
HETATM   15  N3  UNL     1      24.958  75.964  10.824  1.00  0.00    -0.225 N 
ATOM     16  H3  UNL     1      24.083  75.489  10.602  1.00  0.00     0.177 HD
BRANCH  15  17
HETATM   17  C7  UNL     1      24.963  77.385  10.778  1.00  0.00     0.133 C 
HETATM   18  C8  UNL     1      24.819  77.801   9.309  1.00  0.00     0.027 C 
ENDBRANCH  15  17
ENDBRANCH   8  15
BRANCH  11  19
HETATM   19  N1  UNL     1      27.992  74.362  13.920  1.00  0.00    -0.225 N 
ATOM     20  H1  UNL     1      28.961  74.122  14.128  1.00  0.00     0.177 HD
BRANCH  19  21
HETATM   21  C4  UNL     1      27.053  74.687  14.973  1.00  0.00     0.138 C 
BRANCH  21  22
HETATM   22  C3  UNL     1      27.515  75.987  15.597  1.00  0.00     0.020 C 
BRANCH  22  23
HETATM   23  C2  UNL     1      26.693  76.205  16.847  1.00  0.00    -0.003 C 
HETATM   24  C1  UNL     1      27.527  76.071  18.093  1.00  0.00     0.005 C 
ENDBRANCH  22  23
ENDBRANCH  21  22
ENDBRANCH  19  21
ENDBRANCH  11  19
ENDBRANCH   4   6
ENDBRANCH   1   4
TORSDOF 8
ENDMDL
MODEL 5
REMARK VINA RESULT: -6.601302399      2.840      5.599
REMARK  8 active torsions:
REMARK  status: ('A' for Active; 'I' for Inactive)
REMARK    1  A    between atoms: C2_2  and  C3_3 
REMARK    2  A    between atoms: C3_3  and  C4_4 
REMARK    3  A    between atoms: C4_4  and  N1_5 
REMARK    4  A    between atoms: N1_5  and  C5_7 
REMARK    5  A    between atoms: C6_10  and  N3_11 
REMARK    6  A    between atoms: N3_11  and  C7_13 
REMARK    7  A    between atoms: C9_17  and  N5_18 
REMARK    8  A    between atoms: N5_18  and  C10_20 
ROOT
HETATM    1  C10 UNL     1      24.363  74.933  14.381  1.00  0.00     0.262 C 
HETATM    2  C11 UNL     1      24.079  75.302  12.994  1.00  0.00     0.079 C 
HETATM    3  N6  UNL     1      23.852  75.577  11.895  1.00  0.00    -0.196 NA
ENDROOT
BRANCH   1   4
HETATM    4  N5  UNL     1      25.695  74.459  14.563  1.00  0.00    -0.213 N 
ATOM      5  H5  UNL     1      25.822  73.645  15.166  1.00  0.00     0.178 HD
BRANCH   4   6
HETATM    6  C9  UNL     1      26.751  74.968  14.034  1.00  0.00     0.708 A 
HETATM    7  N4  UNL     1      27.393  76.041  14.528  1.00  0.00    -0.021 N 
HETATM    8  C6  UNL     1      28.498  76.559  13.960  1.00  0.00     0.707 A 
ATOM      9  H4  UNL     1      27.026  76.484  15.371  1.00  0.00     0.203 HD
HETATM   10  N2  UNL     1      28.953  75.953  12.849  1.00  0.00    -0.022 N 
HETATM   11  C5  UNL     1      28.345  74.860  12.300  1.00  0.00     0.707 A 
ATOM     12  H2  UNL     1      29.787  76.325  12.396  1.00  0.00     0.203 HD
HETATM   13  N7  UNL     1      27.238  74.389  12.921  1.00  0.00    -0.021 N 
ATOM     14  H7  UNL     1      26.761  73.575  12.535  1.00  0.00     0.203 HD
BRANCH   8  15
HETATM   15  N3  UNL     1      29.086  77.598  14.471  1.00  0.00    -0.225 N 
ATOM     16  H3  UNL     1      29.746  78.103  13.881  1.00  0.00     0.177 HD
BRANCH  15  17
HETATM   17  C7  UNL     1      28.879  78.087  15.791  1.00  0.00     0.133 C 
HETATM   18  C8  UNL     1      30.084  77.659  16.637  1.00  0.00     0.027 C 
ENDBRANCH  15  17
ENDBRANCH   8  15
BRANCH  11  19
HETATM   19  N1  UNL     1      28.817  74.312  11.234  1.00  0.00    -0.225 N 
ATOM     20  H1  UNL     1      29.810  74.098  11.142  1.00  0.00     0.177 HD
BRANCH  19  21
HETATM   21  C4  UNL     1      27.879  74.011  10.173  1.00  0.00     0.138 C 
BRANCH  21  22
HETATM   22  C3  UNL     1      28.223  72.632   9.651  1.00  0.00     0.020 C 
BRANCH  22  23
HETATM   23  C2  UNL     1      29.717  72.595   9.424  1.00  0.00    -0.003 C 
HETATM   24  C1  UNL     1      30.135  71.359   8.674  1.00  0.00     0.005 C 
ENDBRANCH  22  23
ENDBRANCH  21  22
ENDBRANCH  19  21
ENDBRANCH  11  19
ENDBRANCH   4   6
ENDBRANCH   1   4
TORSDOF 8
ENDMDL
