MODEL 1
REMARK VINA RESULT: -4.839692360      0.000      0.000
REMARK  2 active torsions:
REMARK  status: ('A' for Active; 'I' for Inactive)
REMARK    1  A    between atoms: C2_2  and  C3_3 
REMARK    2  A    between atoms: C6_8  and  C7_9 
ROOT
HETATM    1  C1  UNL     1       8.973  -2.007  48.054  1.00  0.00     0.038 C 
HETATM    2  C2  UNL     1       8.021  -1.625  46.979  1.00  0.00     0.095 C 
HETATM    3  S1  UNL     1       6.606  -2.801  46.854  1.00  0.00    -0.121 SA
HETATM    4  C4  UNL     1       6.576  -2.794  45.026  1.00  0.00     0.094 A 
HETATM    5  C5  UNL     1       5.747  -1.679  44.415  1.00  0.00     0.047 C 
HETATM    6  C6  UNL     1       7.190  -3.741  44.182  1.00  0.00     0.201 A 
HETATM    7  N1  UNL     1       8.023  -2.746  44.853  1.00  0.00    -0.214 NA
HETATM    8  C8  UNL     1       8.588  -1.701  45.611  1.00  0.00     0.221 C 
HETATM    9  O3  UNL     1       9.465  -0.915  45.205  1.00  0.00    -0.278 OA
ENDROOT
BRANCH   2  10
HETATM   10  C3  UNL     1       7.468  -0.216  47.177  1.00  0.00     0.144 C 
HETATM   11 CL1  UNL     1       5.790  -0.306  47.761  1.00  0.00    -0.128 Cl
ENDBRANCH   2  10
BRANCH   6  12
HETATM   12  C7  UNL     1       7.340  -5.159  44.612  1.00  0.00     0.194 C 
HETATM   13  O1  UNL     1       6.339  -5.699  45.146  1.00  0.00    -0.647 OA
HETATM   14  O2  UNL     1       8.525  -5.864  44.439  1.00  0.00    -0.647 OA
ENDBRANCH   6  12
TORSDOF 2
ENDMDL
MODEL 2
REMARK VINA RESULT: -4.391196797      3.443      4.468
REMARK  2 active torsions:
REMARK  status: ('A' for Active; 'I' for Inactive)
REMARK    1  A    between atoms: C2_2  and  C3_3 
REMARK    2  A    between atoms: C6_8  and  C7_9 
ROOT
HETATM    1  C1  UNL     1       6.856  -3.440  45.363  1.00  0.00     0.038 C 
HETATM    2  C2  UNL     1       6.839  -2.071  45.938  1.00  0.00     0.095 C 
HETATM    3  S1  UNL     1       6.980  -2.088  47.776  1.00  0.00    -0.121 SA
HETATM    4  C4  UNL     1       5.759  -0.752  48.026  1.00  0.00     0.094 A 
HETATM    5  C5  UNL     1       6.338   0.650  47.961  1.00  0.00     0.047 C 
HETATM    6  C6  UNL     1       4.391  -0.921  48.321  1.00  0.00     0.201 A 
HETATM    7  N1  UNL     1       4.858  -1.170  46.959  1.00  0.00    -0.214 NA
HETATM    8  C8  UNL     1       5.558  -1.349  45.749  1.00  0.00     0.221 C 
HETATM    9  O3  UNL     1       5.168  -0.957  44.632  1.00  0.00    -0.278 OA
ENDROOT
BRANCH   2  10
HETATM   10  C3  UNL     1       7.955  -1.196  45.371  1.00  0.00     0.144 C 
HETATM   11 CL1  UNL     1       9.274  -1.062  46.558  1.00  0.00    -0.128 Cl
ENDBRANCH   2  10
BRANCH   6  12
HETATM   12  C7  UNL     1       3.922  -2.095  49.107  1.00  0.00     0.194 C 
HETATM   13  O1  UNL     1       2.685  -2.188  49.305  1.00  0.00    -0.647 OA
HETATM   14  O2  UNL     1       4.799  -3.051  49.605  1.00  0.00    -0.647 OA
ENDBRANCH   6  12
TORSDOF 2
ENDMDL
MODEL 3
REMARK VINA RESULT: -4.108519878      2.112      2.668
REMARK  2 active torsions:
REMARK  status: ('A' for Active; 'I' for Inactive)
REMARK    1  A    between atoms: C2_2  and  C3_3 
REMARK    2  A    between atoms: C6_8  and  C7_9 
ROOT
HETATM    1  C1  UNL     1       4.739  -1.298  48.153  1.00  0.00     0.038 C 
HETATM    2  C2  UNL     1       6.080  -0.921  47.638  1.00  0.00     0.095 C 
HETATM    3  S1  UNL     1       6.129  -0.875  45.795  1.00  0.00    -0.121 SA
HETATM    4  C4  UNL     1       7.785  -1.640  45.677  1.00  0.00     0.094 A 
HETATM    5  C5  UNL     1       8.939  -0.658  45.765  1.00  0.00     0.047 C 
HETATM    6  C6  UNL     1       8.055  -3.006  45.458  1.00  0.00     0.201 A 
HETATM    7  N1  UNL     1       7.596  -2.576  46.777  1.00  0.00    -0.214 NA
HETATM    8  C8  UNL     1       7.143  -1.911  47.934  1.00  0.00     0.221 C 
HETATM    9  O3  UNL     1       7.569  -2.112  49.088  1.00  0.00    -0.278 OA
ENDROOT
BRANCH   2  10
HETATM   10  C3  UNL     1       6.540   0.432  48.172  1.00  0.00     0.144 C 
HETATM   11 CL1  UNL     1       5.255   1.154  49.168  1.00  0.00    -0.128 Cl
ENDBRANCH   2  10
BRANCH   6  12
HETATM   12  C7  UNL     1       7.126  -3.845  44.653  1.00  0.00     0.194 C 
HETATM   13  O1  UNL     1       6.708  -3.354  43.574  1.00  0.00    -0.647 OA
HETATM   14  O2  UNL     1       6.732  -5.113  45.061  1.00  0.00    -0.647 OA
ENDBRANCH   6  12
TORSDOF 2
ENDMDL
MODEL 4
REMARK VINA RESULT: -3.891727904      2.718      3.424
REMARK  2 active torsions:
REMARK  status: ('A' for Active; 'I' for Inactive)
REMARK    1  A    between atoms: C2_2  and  C3_3 
REMARK    2  A    between atoms: C6_8  and  C7_9 
ROOT
HETATM    1  C1  UNL     1       7.205  -0.075  47.605  1.00  0.00     0.038 C 
HETATM    2  C2  UNL     1       7.547  -1.410  47.052  1.00  0.00     0.095 C 
HETATM    3  S1  UNL     1       7.946  -1.335  45.253  1.00  0.00    -0.121 SA
HETATM    4  C4  UNL     1       7.067  -2.885  44.847  1.00  0.00     0.094 A 
HETATM    5  C5  UNL     1       7.900  -4.143  45.013  1.00  0.00     0.047 C 
HETATM    6  C6  UNL     1       5.750  -2.990  44.355  1.00  0.00     0.201 A 
HETATM    7  N1  UNL     1       5.956  -2.674  45.766  1.00  0.00    -0.214 NA
HETATM    8  C8  UNL     1       6.423  -2.378  47.062  1.00  0.00     0.221 C 
HETATM    9  O3  UNL     1       5.963  -2.859  48.116  1.00  0.00    -0.278 OA
ENDROOT
BRANCH   2  10
HETATM   10  C3  UNL     1       8.722  -2.052  47.785  1.00  0.00     0.144 C 
HETATM   11 CL1  UNL     1       8.465  -1.943  49.542  1.00  0.00    -0.128 Cl
ENDBRANCH   2  10
BRANCH   6  12
HETATM   12  C7  UNL     1       5.173  -1.921  43.493  1.00  0.00     0.194 C 
HETATM   13  O1  UNL     1       5.362  -2.026  42.255  1.00  0.00    -0.647 OA
HETATM   14  O2  UNL     1       4.458  -0.852  44.018  1.00  0.00    -0.647 OA
ENDBRANCH   6  12
TORSDOF 2
ENDMDL
MODEL 5
REMARK VINA RESULT: -3.475739670      2.856      3.684
REMARK  2 active torsions:
REMARK  status: ('A' for Active; 'I' for Inactive)
REMARK    1  A    between atoms: C2_2  and  C3_3 
REMARK    2  A    between atoms: C6_8  and  C7_9 
ROOT
HETATM    1  C1  UNL     1       4.801  -0.583  49.037  1.00  0.00     0.038 C 
HETATM    2  C2  UNL     1       6.127  -1.051  48.559  1.00  0.00     0.095 C 
HETATM    3  S1  UNL     1       6.640  -0.209  47.000  1.00  0.00    -0.121 SA
HETATM    4  C4  UNL     1       7.338  -1.720  46.245  1.00  0.00     0.094 A 
HETATM    5  C5  UNL     1       8.785  -1.996  46.612  1.00  0.00     0.047 C 
HETATM    6  C6  UNL     1       6.680  -2.577  45.339  1.00  0.00     0.201 A 
HETATM    7  N1  UNL     1       6.318  -2.628  46.754  1.00  0.00    -0.214 NA
HETATM    8  C8  UNL     1       6.155  -2.475  48.145  1.00  0.00     0.221 C 
HETATM    9  O3  UNL     1       6.044  -3.411  48.960  1.00  0.00    -0.278 OA
ENDROOT
BRANCH   2  10
HETATM   10  C3  UNL     1       7.219  -0.848  49.605  1.00  0.00     0.144 C 
HETATM   11 CL1  UNL     1       8.326  -2.240  49.597  1.00  0.00    -0.128 Cl
ENDBRANCH   2  10
BRANCH   6  12
HETATM   12  C7  UNL     1       5.661  -2.044  44.393  1.00  0.00     0.194 C 
HETATM   13  O1  UNL     1       5.797  -2.350  43.182  1.00  0.00    -0.647 OA
HETATM   14  O2  UNL     1       4.605  -1.246  44.814  1.00  0.00    -0.647 OA
ENDBRANCH   6  12
TORSDOF 2
ENDMDL
