MODEL 1
REMARK VINA RESULT: -6.917332925      0.000      0.000
REMARK  6 active torsions:
REMARK  status: ('A' for Active; 'I' for Inactive)
REMARK    1  A    between atoms: C2_2  and  C5_5 
REMARK    2  A    between atoms: C5_5  and  N1_6 
REMARK    3  A    between atoms: C5_5  and  C6_10 
REMARK    4  A    between atoms: N1_6  and  N2_7 
REMARK       I    between atoms: C6_10  and  N3_12 
REMARK    5  A    between atoms: N3_12  and  C7_14 
REMARK    6  A    between atoms: N4_19  and  O3_20 
ROOT
HETATM    1  C6  UNL     1       4.134  -3.947  41.405  1.00  0.00     0.286 C 
HETATM    2  O1  UNL     1       5.247  -3.766  40.858  1.00  0.00    -0.265 OA
HETATM    3  N3  UNL     1       3.894  -3.427  42.680  1.00  0.00    -0.303 N 
ATOM      4  H3  UNL     1       2.971  -3.604  43.077  1.00  0.00     0.171 HD
ENDROOT
BRANCH   1   5
HETATM    5  C5  UNL     1       3.162  -4.706  40.636  1.00  0.00     0.183 C 
BRANCH   5   6
HETATM    6  C2  UNL     1       1.987  -4.024  40.031  1.00  0.00     0.012 C 
HETATM    7  C1  UNL     1       0.905  -5.015  39.676  1.00  0.00     0.022 C 
HETATM    8  C3  UNL     1       1.371  -3.035  41.025  1.00  0.00     0.022 C 
HETATM    9  C4  UNL     1       2.420  -3.316  38.778  1.00  0.00     0.022 C 
ENDBRANCH   5   6
BRANCH   5  10
HETATM   10  N1  UNL     1       3.299  -5.938  40.473  1.00  0.00    -0.331 NA
BRANCH  10  11
HETATM   11  N2  UNL     1       3.497  -7.161  40.316  1.00  0.00    -0.280 N 
ATOM     12  H22 UNL     1       3.698  -6.897  41.281  1.00  0.00     0.191 HD
ATOM     13  H21 UNL     1       3.646  -8.154  40.139  1.00  0.00     0.191 HD
ENDBRANCH  10  11
ENDBRANCH   5  10
ENDBRANCH   1   5
BRANCH   3  14
HETATM   14  C7  UNL     1       4.788  -2.686  43.476  1.00  0.00     0.165 A 
HETATM   15  C8  UNL     1       5.860  -3.104  44.229  1.00  0.00     0.105 A 
HETATM   16  C9  UNL     1       6.428  -1.977  44.837  1.00  0.00     0.174 A 
HETATM   17 CL1  UNL     1       7.832  -1.994  45.904  1.00  0.00    -0.054 Cl
HETATM   18  O2  UNL     1       5.709  -0.980  44.444  1.00  0.00    -0.196 OA
HETATM   19  N4  UNL     1       4.751  -1.336  43.659  1.00  0.00    -0.103 N 
BRANCH  19  20
HETATM   20  O3  UNL     1       3.840  -0.487  43.097  1.00  0.00    -0.261 OA
ATOM     21  H3  UNL     1       4.035   0.173  42.443  1.00  0.00     0.247 HD
ENDBRANCH  19  20
ENDBRANCH   3  14
TORSDOF 6
ENDMDL
MODEL 2
REMARK VINA RESULT: -6.849818005      3.300      7.018
REMARK  6 active torsions:
REMARK  status: ('A' for Active; 'I' for Inactive)
REMARK    1  A    between atoms: C2_2  and  C5_5 
REMARK    2  A    between atoms: C5_5  and  N1_6 
REMARK    3  A    between atoms: C5_5  and  C6_10 
REMARK    4  A    between atoms: N1_6  and  N2_7 
REMARK       I    between atoms: C6_10  and  N3_12 
REMARK    5  A    between atoms: N3_12  and  C7_14 
REMARK    6  A    between atoms: N4_19  and  O3_20 
ROOT
HETATM    1  C6  UNL     1       5.814  -1.325  45.462  1.00  0.00     0.286 C 
HETATM    2  O1  UNL     1       4.677  -1.483  45.966  1.00  0.00    -0.265 OA
HETATM    3  N3  UNL     1       6.023  -1.623  44.113  1.00  0.00    -0.303 N 
ATOM      4  H3  UNL     1       6.967  -1.475  43.756  1.00  0.00     0.171 HD
ENDROOT
BRANCH   1   5
HETATM    5  C5  UNL     1       6.845  -0.827  46.358  1.00  0.00     0.183 C 
BRANCH   5   6
HETATM    6  C2  UNL     1       8.180  -1.480  46.400  1.00  0.00     0.012 C 
HETATM    7  C1  UNL     1       8.569  -1.833  47.817  1.00  0.00     0.022 C 
HETATM    8  C3  UNL     1       8.162  -2.789  45.607  1.00  0.00     0.022 C 
HETATM    9  C4  UNL     1       9.208  -0.535  45.842  1.00  0.00     0.022 C 
ENDBRANCH   5   6
BRANCH   5  10
HETATM   10  N1  UNL     1       6.624   0.153  47.102  1.00  0.00    -0.331 NA
BRANCH  10  11
HETATM   11  N2  UNL     1       6.348   1.108  47.859  1.00  0.00    -0.280 N 
ATOM     12  H22 UNL     1       5.524   0.842  47.320  1.00  0.00     0.191 HD
ATOM     13  H21 UNL     1       6.170   1.886  48.494  1.00  0.00     0.191 HD
ENDBRANCH  10  11
ENDBRANCH   5  10
ENDBRANCH   1   5
BRANCH   3  14
HETATM   14  C7  UNL     1       5.072  -2.106  43.193  1.00  0.00     0.165 A 
HETATM   15  C8  UNL     1       5.008  -3.313  42.537  1.00  0.00     0.105 A 
HETATM   16  C9  UNL     1       3.865  -3.305  41.728  1.00  0.00     0.174 A 
HETATM   17 CL1  UNL     1       3.343  -4.630  40.687  1.00  0.00    -0.054 Cl
HETATM   18  O2  UNL     1       3.319  -2.152  41.922  1.00  0.00    -0.196 OA
HETATM   19  N4  UNL     1       3.977  -1.424  42.758  1.00  0.00    -0.103 N 
BRANCH  19  20
HETATM   20  O3  UNL     1       3.626  -0.162  43.145  1.00  0.00    -0.261 OA
ATOM     21  H3  UNL     1       2.746   0.120  43.366  1.00  0.00     0.247 HD
ENDBRANCH  19  20
ENDBRANCH   3  14
TORSDOF 6
ENDMDL
MODEL 3
REMARK VINA RESULT: -6.804337655      3.469      6.169
REMARK  6 active torsions:
REMARK  status: ('A' for Active; 'I' for Inactive)
REMARK    1  A    between atoms: C2_2  and  C5_5 
REMARK    2  A    between atoms: C5_5  and  N1_6 
REMARK    3  A    between atoms: C5_5  and  C6_10 
REMARK    4  A    between atoms: N1_6  and  N2_7 
REMARK       I    between atoms: C6_10  and  N3_12 
REMARK    5  A    between atoms: N3_12  and  C7_14 
REMARK    6  A    between atoms: N4_19  and  O3_20 
ROOT
HETATM    1  C6  UNL     1       4.262  -1.787  43.842  1.00  0.00     0.286 C 
HETATM    2  O1  UNL     1       4.257  -0.699  43.222  1.00  0.00    -0.265 OA
HETATM    3  N3  UNL     1       3.292  -2.753  43.560  1.00  0.00    -0.303 N 
ATOM      4  H3  UNL     1       3.344  -3.620  44.095  1.00  0.00     0.171 HD
ENDROOT
BRANCH   1   5
HETATM    5  C5  UNL     1       5.313  -1.952  44.832  1.00  0.00     0.183 C 
BRANCH   5   6
HETATM    6  C2  UNL     1       6.535  -2.734  44.505  1.00  0.00     0.012 C 
HETATM    7  C1  UNL     1       6.524  -4.077  45.195  1.00  0.00     0.022 C 
HETATM    8  C3  UNL     1       6.608  -3.010  43.001  1.00  0.00     0.022 C 
HETATM    9  C4  UNL     1       7.746  -1.969  44.962  1.00  0.00     0.022 C 
ENDBRANCH   5   6
BRANCH   5  10
HETATM   10  N1  UNL     1       5.206  -1.441  45.968  1.00  0.00    -0.331 NA
BRANCH  10  11
HETATM   11  N2  UNL     1       5.038  -0.948  47.103  1.00  0.00    -0.280 N 
ATOM     12  H22 UNL     1       4.731  -1.921  47.098  1.00  0.00     0.191 HD
ATOM     13  H21 UNL     1       4.920  -0.502  48.013  1.00  0.00     0.191 HD
ENDBRANCH  10  11
ENDBRANCH   5  10
ENDBRANCH   1   5
BRANCH   3  14
HETATM   14  C7  UNL     1       2.250  -2.659  42.617  1.00  0.00     0.165 A 
HETATM   15  C8  UNL     1       2.173  -3.139  41.331  1.00  0.00     0.105 A 
HETATM   16  C9  UNL     1       0.923  -2.781  40.810  1.00  0.00     0.174 A 
HETATM   17 CL1  UNL     1       0.345  -3.168  39.189  1.00  0.00    -0.054 Cl
HETATM   18  O2  UNL     1       0.332  -2.133  41.757  1.00  0.00    -0.196 OA
HETATM   19  N4  UNL     1       1.056  -2.035  42.819  1.00  0.00    -0.103 N 
BRANCH  19  20
HETATM   20  O3  UNL     1       0.679  -1.402  43.969  1.00  0.00    -0.261 OA
ATOM     21  H3  UNL     1      -0.131  -0.922  44.092  1.00  0.00     0.247 HD
ENDBRANCH  19  20
ENDBRANCH   3  14
TORSDOF 6
ENDMDL
MODEL 4
REMARK VINA RESULT: -6.731515352      0.379      1.111
REMARK  6 active torsions:
REMARK  status: ('A' for Active; 'I' for Inactive)
REMARK    1  A    between atoms: C2_2  and  C5_5 
REMARK    2  A    between atoms: C5_5  and  N1_6 
REMARK    3  A    between atoms: C5_5  and  C6_10 
REMARK    4  A    between atoms: N1_6  and  N2_7 
REMARK       I    between atoms: C6_10  and  N3_12 
REMARK    5  A    between atoms: N3_12  and  C7_14 
REMARK    6  A    between atoms: N4_19  and  O3_20 
ROOT
HETATM    1  C6  UNL     1       3.900  -3.990  41.269  1.00  0.00     0.286 C 
HETATM    2  O1  UNL     1       5.027  -3.794  40.758  1.00  0.00    -0.265 OA
HETATM    3  N3  UNL     1       3.594  -3.431  42.513  1.00  0.00    -0.303 N 
ATOM      4  H3  UNL     1       2.663  -3.623  42.882  1.00  0.00     0.171 HD
ENDROOT
BRANCH   1   5
HETATM    5  C5  UNL     1       2.981  -4.807  40.494  1.00  0.00     0.183 C 
BRANCH   5   6
HETATM    6  C2  UNL     1       1.774  -4.198  39.875  1.00  0.00     0.012 C 
HETATM    7  C1  UNL     1       1.162  -3.157  40.784  1.00  0.00     0.022 C 
HETATM    8  C3  UNL     1       2.143  -3.485  38.571  1.00  0.00     0.022 C 
HETATM    9  C4  UNL     1       0.755  -5.273  39.622  1.00  0.00     0.022 C 
ENDBRANCH   5   6
BRANCH   5  10
HETATM   10  N1  UNL     1       3.192  -6.030  40.338  1.00  0.00    -0.331 NA
BRANCH  10  11
HETATM   11  N2  UNL     1       3.457  -7.243  40.210  1.00  0.00    -0.280 N 
ATOM     12  H22 UNL     1       4.293  -6.733  40.494  1.00  0.00     0.191 HD
ATOM     13  H21 UNL     1       3.626  -8.243  40.094  1.00  0.00     0.191 HD
ENDBRANCH  10  11
ENDBRANCH   5  10
ENDBRANCH   1   5
BRANCH   3  14
HETATM   14  C7  UNL     1       4.434  -2.632  43.314  1.00  0.00     0.165 A 
HETATM   15  C8  UNL     1       5.558  -2.970  44.029  1.00  0.00     0.105 A 
HETATM   16  C9  UNL     1       6.033  -1.812  44.661  1.00  0.00     0.174 A 
HETATM   17 CL1  UNL     1       7.458  -1.728  45.697  1.00  0.00    -0.054 Cl
HETATM   18  O2  UNL     1       5.214  -0.876  44.315  1.00  0.00    -0.196 OA
HETATM   19  N4  UNL     1       4.275  -1.298  43.540  1.00  0.00    -0.103 N 
BRANCH  19  20
HETATM   20  O3  UNL     1       3.275  -0.523  43.025  1.00  0.00    -0.261 OA
ATOM     21  H3  UNL     1       2.419  -0.837  42.757  1.00  0.00     0.247 HD
ENDBRANCH  19  20
ENDBRANCH   3  14
TORSDOF 6
ENDMDL
MODEL 5
REMARK VINA RESULT: -6.508075668      2.953      6.423
REMARK  6 active torsions:
REMARK  status: ('A' for Active; 'I' for Inactive)
REMARK    1  A    between atoms: C2_2  and  C5_5 
REMARK    2  A    between atoms: C5_5  and  N1_6 
REMARK    3  A    between atoms: C5_5  and  C6_10 
REMARK    4  A    between atoms: N1_6  and  N2_7 
REMARK       I    between atoms: C6_10  and  N3_12 
REMARK    5  A    between atoms: N3_12  and  C7_14 
REMARK    6  A    between atoms: N4_19  and  O3_20 
ROOT
HETATM    1  C6  UNL     1       4.639  -1.733  44.100  1.00  0.00     0.286 C 
HETATM    2  O1  UNL     1       4.584  -0.680  43.422  1.00  0.00    -0.265 OA
HETATM    3  N3  UNL     1       3.989  -2.885  43.648  1.00  0.00    -0.303 N 
ATOM      4  H3  UNL     1       4.068  -3.713  44.239  1.00  0.00     0.171 HD
ENDROOT
BRANCH   1   5
HETATM    5  C5  UNL     1       5.402  -1.657  45.334  1.00  0.00     0.183 C 
BRANCH   5   6
HETATM    6  C2  UNL     1       6.814  -2.123  45.373  1.00  0.00     0.012 C 
HETATM    7  C1  UNL     1       7.022  -3.140  46.471  1.00  0.00     0.022 C 
HETATM    8  C3  UNL     1       7.188  -2.810  44.057  1.00  0.00     0.022 C 
HETATM    9  C4  UNL     1       7.713  -0.947  45.633  1.00  0.00     0.022 C 
ENDBRANCH   5   6
BRANCH   5  10
HETATM   10  N1  UNL     1       4.885  -1.201  46.377  1.00  0.00    -0.331 NA
BRANCH  10  11
HETATM   11  N2  UNL     1       4.365  -0.805  47.441  1.00  0.00    -0.280 N 
ATOM     12  H22 UNL     1       3.793  -0.517  46.647  1.00  0.00     0.191 HD
ATOM     13  H21 UNL     1       3.979  -0.503  48.336  1.00  0.00     0.191 HD
ENDBRANCH  10  11
ENDBRANCH   5  10
ENDBRANCH   1   5
BRANCH   3  14
HETATM   14  C7  UNL     1       3.237  -3.026  42.466  1.00  0.00     0.165 A 
HETATM   15  C8  UNL     1       1.899  -2.807  42.236  1.00  0.00     0.105 A 
HETATM   16  C9  UNL     1       1.639  -3.093  40.889  1.00  0.00     0.174 A 
HETATM   17 CL1  UNL     1       0.064  -2.963  40.105  1.00  0.00    -0.054 Cl
HETATM   18  O2  UNL     1       2.775  -3.454  40.393  1.00  0.00    -0.196 OA
HETATM   19  N4  UNL     1       3.726  -3.432  41.261  1.00  0.00    -0.103 N 
BRANCH  19  20
HETATM   20  O3  UNL     1       5.026  -3.767  41.009  1.00  0.00    -0.261 OA
ATOM     21  H3  UNL     1       5.409  -4.626  41.144  1.00  0.00     0.247 HD
ENDBRANCH  19  20
ENDBRANCH   3  14
TORSDOF 6
ENDMDL
