MODEL 1
REMARK VINA RESULT: -7.067520090      0.000      0.000
REMARK  9 active torsions:
REMARK  status: ('A' for Active; 'I' for Inactive)
REMARK    1  A    between atoms: C2_2  and  C3_3 
REMARK    2  A    between atoms: C3_3  and  C4_4 
REMARK    3  A    between atoms: C4_4  and  C5_5 
REMARK    4  A    between atoms: C6_8  and  N2_9 
REMARK    5  A    between atoms: N3_11  and  C7_13 
REMARK    6  A    between atoms: C7_13  and  C8_14 
REMARK    7  A    between atoms: C10_16  and  O1_17 
REMARK    8  A    between atoms: C11_19  and  N4_20 
REMARK    9  A    between atoms: C17_32  and  C18_33 
ROOT
HETATM    1  N2  UNL     1     -30.416  -8.567  73.783  1.00  0.00    -0.290 N 
ATOM      2  H2  UNL     1     -31.002  -9.393  73.911  1.00  0.00     0.188 HD
HETATM    3  N3  UNL     1     -30.946  -7.484  73.931  1.00  0.00    -0.332 N 
ATOM      4  H3  UNL     1     -31.938  -7.486  74.170  1.00  0.00     0.180 HD
ENDROOT
BRANCH   3   5
HETATM    5  C7  UNL     1     -30.318  -6.208  73.805  1.00  0.00     0.171 C 
BRANCH   5   6
HETATM    6  C8  UNL     1     -30.265  -5.635  75.228  1.00  0.00     0.146 C 
HETATM    7  C9  UNL     1     -30.091  -4.143  75.253  1.00  0.00     0.070 C 
HETATM    8  C10 UNL     1     -29.113  -4.035  76.451  1.00  0.00     0.170 C 
HETATM    9  C11 UNL     1     -28.258  -5.235  76.111  1.00  0.00     0.261 C 
HETATM   10  O4  UNL     1     -29.218  -6.212  75.881  1.00  0.00    -0.356 OA
BRANCH   8  11
HETATM   11  O1  UNL     1     -28.444  -2.845  76.483  1.00  0.00    -0.391 OA
ATOM     12  H1  UNL     1     -27.554  -2.913  76.159  1.00  0.00     0.210 HD
ENDBRANCH   8  11
BRANCH   9  13
HETATM   13  N4  UNL     1     -27.328  -5.615  77.129  1.00  0.00    -0.277 N 
HETATM   14  C12 UNL     1     -27.601  -6.417  78.155  1.00  0.00     0.146 A 
HETATM   15  C13 UNL     1     -26.643  -6.757  79.103  1.00  0.00     0.199 A 
HETATM   16  F1  UNL     1     -26.992  -7.574  80.116  1.00  0.00    -0.199 F 
HETATM   17  C14 UNL     1     -25.362  -6.259  78.996  1.00  0.00     0.289 A 
HETATM   18  O2  UNL     1     -24.467  -6.544  79.831  1.00  0.00    -0.265 OA
HETATM   19  N5  UNL     1     -25.117  -5.444  77.938  1.00  0.00    -0.273 N 
HETATM   20  C15 UNL     1     -26.074  -5.133  77.032  1.00  0.00     0.331 A 
ATOM     21  H5  UNL     1     -24.181  -5.054  77.821  1.00  0.00     0.173 HD
HETATM   22  O3  UNL     1     -25.768  -4.364  76.072  1.00  0.00    -0.246 OA
ENDBRANCH   9  13
ENDBRANCH   5   6
ENDBRANCH   3   5
BRANCH   1  23
HETATM   23  C6  UNL     1     -29.057  -8.786  73.447  1.00  0.00     0.122 A 
HETATM   24  N1  UNL     1     -28.149  -9.029  74.392  1.00  0.00    -0.331 N 
HETATM   25  C5  UNL     1     -26.826  -9.239  74.087  1.00  0.00     0.083 A 
ATOM     26  H1  UNL     1     -28.445  -9.062  75.368  1.00  0.00     0.168 HD
HETATM   27  N6  UNL     1     -26.490  -9.190  72.802  1.00  0.00    -0.342 N 
HETATM   28  C17 UNL     1     -27.339  -8.952  71.794  1.00  0.00     0.121 A 
ATOM     29  H6  UNL     1     -25.510  -9.347  72.566  1.00  0.00     0.167 HD
HETATM   30  C16 UNL     1     -28.642  -8.747  72.114  1.00  0.00     0.084 A 
BRANCH  25  31
HETATM   31  C4  UNL     1     -25.967  -9.550  75.225  1.00  0.00     0.076 C 
BRANCH  31  32
HETATM   32  C3  UNL     1     -25.202  -8.516  75.912  1.00  0.00     0.007 C 
BRANCH  32  33
HETATM   33  C2  UNL     1     -24.300  -8.892  77.016  1.00  0.00    -0.004 C 
HETATM   34  C1  UNL     1     -22.894  -8.479  77.062  1.00  0.00     0.005 C 
ENDBRANCH  32  33
ENDBRANCH  31  32
ENDBRANCH  25  31
BRANCH  28  35
HETATM   35  C18 UNL     1     -26.790  -8.917  70.419  1.00  0.00     0.432 C 
HETATM   36  F2  UNL     1     -27.392  -9.825  69.589  1.00  0.00    -0.165 F 
HETATM   37  F3  UNL     1     -25.443  -9.282  70.529  1.00  0.00    -0.165 F 
HETATM   38  F4  UNL     1     -26.802  -7.679  69.846  1.00  0.00    -0.165 F 
ENDBRANCH  28  35
ENDBRANCH   1  23
TORSDOF 9
ENDMDL
MODEL 2
REMARK VINA RESULT: -7.063766027      2.404      2.881
REMARK  9 active torsions:
REMARK  status: ('A' for Active; 'I' for Inactive)
REMARK    1  A    between atoms: C2_2  and  C3_3 
REMARK    2  A    between atoms: C3_3  and  C4_4 
REMARK    3  A    between atoms: C4_4  and  C5_5 
REMARK    4  A    between atoms: C6_8  and  N2_9 
REMARK    5  A    between atoms: N3_11  and  C7_13 
REMARK    6  A    between atoms: C7_13  and  C8_14 
REMARK    7  A    between atoms: C10_16  and  O1_17 
REMARK    8  A    between atoms: C11_19  and  N4_20 
REMARK    9  A    between atoms: C17_32  and  C18_33 
ROOT
HETATM    1  N2  UNL     1     -30.390  -8.493  73.822  1.00  0.00    -0.290 N 
ATOM      2  H2  UNL     1     -30.966  -9.313  74.015  1.00  0.00     0.188 HD
HETATM    3  N3  UNL     1     -30.922  -7.405  73.924  1.00  0.00    -0.332 N 
ATOM      4  H3  UNL     1     -31.906  -7.398  74.192  1.00  0.00     0.180 HD
ENDROOT
BRANCH   3   5
HETATM    5  C7  UNL     1     -30.306  -6.136  73.706  1.00  0.00     0.171 C 
BRANCH   5   6
HETATM    6  C8  UNL     1     -30.129  -5.522  75.102  1.00  0.00     0.146 C 
HETATM    7  C9  UNL     1     -28.702  -5.164  75.408  1.00  0.00     0.070 C 
HETATM    8  C10 UNL     1     -28.658  -5.597  76.896  1.00  0.00     0.170 C 
HETATM    9  C11 UNL     1     -29.465  -6.868  76.750  1.00  0.00     0.261 C 
HETATM   10  O4  UNL     1     -30.562  -6.427  76.023  1.00  0.00    -0.356 OA
BRANCH   8  11
HETATM   11  O1  UNL     1     -27.386  -5.774  77.359  1.00  0.00    -0.391 OA
ATOM     12  H1  UNL     1     -27.217  -6.665  77.640  1.00  0.00     0.210 HD
ENDBRANCH   8  11
BRANCH   9  13
HETATM   13  N4  UNL     1     -29.841  -7.483  77.986  1.00  0.00    -0.277 N 
HETATM   14  C12 UNL     1     -30.855  -7.097  78.754  1.00  0.00     0.146 A 
HETATM   15  C13 UNL     1     -31.175  -7.750  79.939  1.00  0.00     0.199 A 
HETATM   16  F1  UNL     1     -32.216  -7.304  80.668  1.00  0.00    -0.199 F 
HETATM   17  C14 UNL     1     -30.430  -8.836  80.349  1.00  0.00     0.289 A 
HETATM   18  O2  UNL     1     -30.687  -9.454  81.413  1.00  0.00    -0.265 OA
HETATM   19  N5  UNL     1     -29.402  -9.203  79.542  1.00  0.00    -0.273 N 
HETATM   20  C15 UNL     1     -29.118  -8.543  78.393  1.00  0.00     0.331 A 
ATOM     21  H5  UNL     1     -28.825 -10.001  79.808  1.00  0.00     0.173 HD
HETATM   22  O3  UNL     1     -28.140  -8.946  77.693  1.00  0.00    -0.246 OA
ENDBRANCH   9  13
ENDBRANCH   5   6
ENDBRANCH   3   5
BRANCH   1  23
HETATM   23  C6  UNL     1     -29.040  -8.724  73.457  1.00  0.00     0.122 A 
HETATM   24  N1  UNL     1     -28.114  -8.970  74.385  1.00  0.00    -0.331 N 
HETATM   25  C5  UNL     1     -26.799  -9.191  74.052  1.00  0.00     0.083 A 
ATOM     26  H1  UNL     1     -28.388  -8.994  75.367  1.00  0.00     0.168 HD
HETATM   27  N6  UNL     1     -26.491  -9.153  72.760  1.00  0.00    -0.342 N 
HETATM   28  C17 UNL     1     -27.360  -8.914  71.769  1.00  0.00     0.121 A 
ATOM     29  H6  UNL     1     -25.518  -9.319  72.503  1.00  0.00     0.167 HD
HETATM   30  C16 UNL     1     -28.654  -8.697  72.116  1.00  0.00     0.084 A 
BRANCH  25  31
HETATM   31  C4  UNL     1     -25.918  -9.503  75.173  1.00  0.00     0.076 C 
BRANCH  31  32
HETATM   32  C3  UNL     1     -25.182  -8.461  75.880  1.00  0.00     0.007 C 
BRANCH  32  33
HETATM   33  C2  UNL     1     -24.352  -8.821  77.044  1.00  0.00    -0.004 C 
HETATM   34  C1  UNL     1     -22.938  -8.448  77.151  1.00  0.00     0.005 C 
ENDBRANCH  32  33
ENDBRANCH  31  32
ENDBRANCH  25  31
BRANCH  28  35
HETATM   35  C18 UNL     1     -26.840  -8.891  70.382  1.00  0.00     0.432 C 
HETATM   36  F2  UNL     1     -27.480  -9.786  69.567  1.00  0.00    -0.165 F 
HETATM   37  F3  UNL     1     -25.500  -9.285  70.462  1.00  0.00    -0.165 F 
HETATM   38  F4  UNL     1     -26.838  -7.654  69.808  1.00  0.00    -0.165 F 
ENDBRANCH  28  35
ENDBRANCH   1  23
TORSDOF 9
ENDMDL
MODEL 3
REMARK VINA RESULT: -6.971937962      1.755      1.878
REMARK  9 active torsions:
REMARK  status: ('A' for Active; 'I' for Inactive)
REMARK    1  A    between atoms: C2_2  and  C3_3 
REMARK    2  A    between atoms: C3_3  and  C4_4 
REMARK    3  A    between atoms: C4_4  and  C5_5 
REMARK    4  A    between atoms: C6_8  and  N2_9 
REMARK    5  A    between atoms: N3_11  and  C7_13 
REMARK    6  A    between atoms: C7_13  and  C8_14 
REMARK    7  A    between atoms: C10_16  and  O1_17 
REMARK    8  A    between atoms: C11_19  and  N4_20 
REMARK    9  A    between atoms: C17_32  and  C18_33 
ROOT
HETATM    1  N2  UNL     1     -30.675  -8.577  73.554  1.00  0.00    -0.290 N 
ATOM      2  H2  UNL     1     -31.279  -9.382  73.388  1.00  0.00     0.188 HD
HETATM    3  N3  UNL     1     -31.210  -7.549  73.919  1.00  0.00    -0.332 N 
ATOM      4  H3  UNL     1     -32.224  -7.571  74.027  1.00  0.00     0.180 HD
ENDROOT
BRANCH   3   5
HETATM    5  C7  UNL     1     -30.559  -6.312  74.211  1.00  0.00     0.171 C 
BRANCH   5   6
HETATM    6  C8  UNL     1     -30.750  -6.096  75.719  1.00  0.00     0.146 C 
HETATM    7  C9  UNL     1     -30.191  -4.786  76.198  1.00  0.00     0.070 C 
HETATM    8  C10 UNL     1     -29.593  -5.259  77.548  1.00  0.00     0.170 C 
HETATM    9  C11 UNL     1     -29.037  -6.578  77.060  1.00  0.00     0.261 C 
HETATM   10  O4  UNL     1     -30.122  -7.110  76.377  1.00  0.00    -0.356 OA
BRANCH   8  11
HETATM   11  O1  UNL     1     -28.662  -4.393  78.047  1.00  0.00    -0.391 OA
ATOM     12  H1  UNL     1     -27.847  -4.408  77.561  1.00  0.00     0.210 HD
ENDBRANCH   8  11
BRANCH   9  13
HETATM   13  N4  UNL     1     -28.565  -7.447  78.094  1.00  0.00    -0.277 N 
HETATM   14  C12 UNL     1     -29.287  -8.394  78.686  1.00  0.00     0.146 A 
HETATM   15  C13 UNL     1     -28.760  -9.215  79.676  1.00  0.00     0.199 A 
HETATM   16  F1  UNL     1     -29.550 -10.153  80.232  1.00  0.00    -0.199 F 
HETATM   17  C14 UNL     1     -27.449  -9.060  80.073  1.00  0.00     0.289 A 
HETATM   18  O2  UNL     1     -26.934  -9.782  80.964  1.00  0.00    -0.265 OA
HETATM   19  N5  UNL     1     -26.740  -8.084  79.449  1.00  0.00    -0.273 N 
HETATM   20  C15 UNL     1     -27.286  -7.302  78.488  1.00  0.00     0.331 A 
ATOM     21  H5  UNL     1     -25.766  -7.935  79.713  1.00  0.00     0.173 HD
HETATM   22  O3  UNL     1     -26.560  -6.410  77.952  1.00  0.00    -0.246 OA
ENDBRANCH   9  13
ENDBRANCH   5   6
ENDBRANCH   3   5
BRANCH   1  23
HETATM   23  C6  UNL     1     -29.286  -8.757  73.339  1.00  0.00     0.122 A 
HETATM   24  N1  UNL     1     -28.453  -8.938  74.365  1.00  0.00    -0.331 N 
HETATM   25  C5  UNL     1     -27.103  -9.109  74.178  1.00  0.00     0.083 A 
ATOM     26  H1  UNL     1     -28.828  -8.949  75.313  1.00  0.00     0.168 HD
HETATM   27  N6  UNL     1     -26.661  -9.090  72.924  1.00  0.00    -0.342 N 
HETATM   28  C17 UNL     1     -27.430  -8.915  71.841  1.00  0.00     0.121 A 
ATOM     29  H6  UNL     1     -25.661  -9.219  72.775  1.00  0.00     0.167 HD
HETATM   30  C16 UNL     1     -28.762  -8.746  72.045  1.00  0.00     0.084 A 
BRANCH  25  31
HETATM   31  C4  UNL     1     -26.332  -9.353  75.392  1.00  0.00     0.076 C 
BRANCH  31  32
HETATM   32  C3  UNL     1     -25.117  -8.604  75.690  1.00  0.00     0.007 C 
BRANCH  32  33
HETATM   33  C2  UNL     1     -24.336  -8.936  76.897  1.00  0.00    -0.004 C 
HETATM   34  C1  UNL     1     -22.965  -8.461  77.106  1.00  0.00     0.005 C 
ENDBRANCH  32  33
ENDBRANCH  31  32
ENDBRANCH  25  31
BRANCH  28  35
HETATM   35  C18 UNL     1     -26.769  -8.904  70.515  1.00  0.00     0.432 C 
HETATM   36  F2  UNL     1     -27.272  -9.857  69.670  1.00  0.00    -0.165 F 
HETATM   37  F3  UNL     1     -25.426  -9.220  70.748  1.00  0.00    -0.165 F 
HETATM   38  F4  UNL     1     -26.772  -7.686  69.902  1.00  0.00    -0.165 F 
ENDBRANCH  28  35
ENDBRANCH   1  23
TORSDOF 9
ENDMDL
MODEL 4
REMARK VINA RESULT: -6.869592819      3.890      6.107
REMARK  9 active torsions:
REMARK  status: ('A' for Active; 'I' for Inactive)
REMARK    1  A    between atoms: C2_2  and  C3_3 
REMARK    2  A    between atoms: C3_3  and  C4_4 
REMARK    3  A    between atoms: C4_4  and  C5_5 
REMARK    4  A    between atoms: C6_8  and  N2_9 
REMARK    5  A    between atoms: N3_11  and  C7_13 
REMARK    6  A    between atoms: C7_13  and  C8_14 
REMARK    7  A    between atoms: C10_16  and  O1_17 
REMARK    8  A    between atoms: C11_19  and  N4_20 
REMARK    9  A    between atoms: C17_32  and  C18_33 
ROOT
HETATM    1  N2  UNL     1     -30.392  -8.571  73.767  1.00  0.00    -0.290 N 
ATOM      2  H2  UNL     1     -31.036  -9.361  73.726  1.00  0.00     0.188 HD
HETATM    3  N3  UNL     1     -30.849  -7.502  74.121  1.00  0.00    -0.332 N 
ATOM      4  H3  UNL     1     -31.843  -7.478  74.346  1.00  0.00     0.180 HD
ENDROOT
BRANCH   3   5
HETATM    5  C7  UNL     1     -30.130  -6.275  74.253  1.00  0.00     0.171 C 
BRANCH   5   6
HETATM    6  C8  UNL     1     -31.111  -5.296  74.914  1.00  0.00     0.146 C 
HETATM    7  C9  UNL     1     -32.456  -5.909  75.187  1.00  0.00     0.070 C 
HETATM    8  C10 UNL     1     -33.352  -4.698  74.817  1.00  0.00     0.170 C 
HETATM    9  C11 UNL     1     -32.576  -4.250  73.598  1.00  0.00     0.261 C 
HETATM   10  O4  UNL     1     -31.274  -4.230  74.081  1.00  0.00    -0.356 OA
BRANCH   8  11
HETATM   11  O1  UNL     1     -34.648  -5.053  74.574  1.00  0.00    -0.391 OA
ATOM     12  H1  UNL     1     -35.044  -4.546  73.876  1.00  0.00     0.210 HD
ENDBRANCH   8  11
BRANCH   9  13
HETATM   13  N4  UNL     1     -32.979  -2.986  73.065  1.00  0.00    -0.277 N 
HETATM   14  C12 UNL     1     -32.558  -1.802  73.501  1.00  0.00     0.146 A 
HETATM   15  C13 UNL     1     -32.980  -0.609  72.926  1.00  0.00     0.199 A 
HETATM   16  F1  UNL     1     -32.513   0.553  73.421  1.00  0.00    -0.199 F 
HETATM   17  C14 UNL     1     -33.863  -0.631  71.867  1.00  0.00     0.289 A 
HETATM   18  O2  UNL     1     -34.267   0.425  71.318  1.00  0.00    -0.265 OA
HETATM   19  N5  UNL     1     -34.273  -1.855  71.447  1.00  0.00    -0.273 N 
HETATM   20  C15 UNL     1     -33.841  -2.998  72.031  1.00  0.00     0.331 A 
ATOM     21  H5  UNL     1     -34.926  -1.916  70.665  1.00  0.00     0.173 HD
HETATM   22  O3  UNL     1     -34.270  -4.103  71.582  1.00  0.00    -0.246 OA
ENDBRANCH   9  13
ENDBRANCH   5   6
ENDBRANCH   3   5
BRANCH   1  23
HETATM   23  C6  UNL     1     -29.044  -8.817  73.406  1.00  0.00     0.122 A 
HETATM   24  N1  UNL     1     -28.135  -9.128  74.330  1.00  0.00    -0.331 N 
HETATM   25  C5  UNL     1     -26.822  -9.366  74.002  1.00  0.00     0.083 A 
ATOM     26  H1  UNL     1     -28.421  -9.191  75.307  1.00  0.00     0.168 HD
HETATM   27  N6  UNL     1     -26.498  -9.275  72.716  1.00  0.00    -0.342 N 
HETATM   28  C17 UNL     1     -27.349  -8.969  71.728  1.00  0.00     0.121 A 
ATOM     29  H6  UNL     1     -25.526  -9.452  72.461  1.00  0.00     0.167 HD
HETATM   30  C16 UNL     1     -28.642  -8.737  72.071  1.00  0.00     0.084 A 
BRANCH  25  31
HETATM   31  C4  UNL     1     -25.961  -9.750  75.115  1.00  0.00     0.076 C 
BRANCH  31  32
HETATM   32  C3  UNL     1     -26.289  -9.399  76.492  1.00  0.00     0.007 C 
BRANCH  32  33
HETATM   33  C2  UNL     1     -25.238  -8.854  77.371  1.00  0.00    -0.004 C 
HETATM   34  C1  UNL     1     -23.859  -8.644  76.918  1.00  0.00     0.005 C 
ENDBRANCH  32  33
ENDBRANCH  31  32
ENDBRANCH  25  31
BRANCH  28  35
HETATM   35  C18 UNL     1     -26.814  -8.894  70.349  1.00  0.00     0.432 C 
HETATM   36  F2  UNL     1     -27.441  -9.761  69.494  1.00  0.00    -0.165 F 
HETATM   37  F3  UNL     1     -25.473  -9.287  70.431  1.00  0.00    -0.165 F 
HETATM   38  F4  UNL     1     -26.810  -7.637  69.820  1.00  0.00    -0.165 F 
ENDBRANCH  28  35
ENDBRANCH   1  23
TORSDOF 9
ENDMDL
MODEL 5
REMARK VINA RESULT: -6.795605868      3.934      5.748
REMARK  9 active torsions:
REMARK  status: ('A' for Active; 'I' for Inactive)
REMARK    1  A    between atoms: C2_2  and  C3_3 
REMARK    2  A    between atoms: C3_3  and  C4_4 
REMARK    3  A    between atoms: C4_4  and  C5_5 
REMARK    4  A    between atoms: C6_8  and  N2_9 
REMARK    5  A    between atoms: N3_11  and  C7_13 
REMARK    6  A    between atoms: C7_13  and  C8_14 
REMARK    7  A    between atoms: C10_16  and  O1_17 
REMARK    8  A    between atoms: C11_19  and  N4_20 
REMARK    9  A    between atoms: C17_32  and  C18_33 
ROOT
HETATM    1  N2  UNL     1     -30.341  -8.938  73.583  1.00  0.00    -0.290 N 
ATOM      2  H2  UNL     1     -30.881  -9.802  73.622  1.00  0.00     0.188 HD
HETATM    3  N3  UNL     1     -30.931  -7.904  73.825  1.00  0.00    -0.332 N 
ATOM      4  H3  UNL     1     -31.924  -7.981  74.045  1.00  0.00     0.180 HD
ENDROOT
BRANCH   3   5
HETATM    5  C7  UNL     1     -30.372  -6.590  73.833  1.00  0.00     0.171 C 
BRANCH   5   6
HETATM    6  C8  UNL     1     -31.544  -5.649  74.147  1.00  0.00     0.146 C 
HETATM    7  C9  UNL     1     -31.281  -4.760  75.330  1.00  0.00     0.070 C 
HETATM    8  C10 UNL     1     -32.690  -4.797  75.976  1.00  0.00     0.170 C 
HETATM    9  C11 UNL     1     -32.970  -6.266  75.745  1.00  0.00     0.261 C 
HETATM   10  O4  UNL     1     -32.644  -6.410  74.403  1.00  0.00    -0.356 OA
BRANCH   8  11
HETATM   11  O1  UNL     1     -32.682  -4.414  77.287  1.00  0.00    -0.391 OA
ATOM     12  H1  UNL     1     -33.312  -3.729  77.474  1.00  0.00     0.210 HD
ENDBRANCH   8  11
BRANCH   9  13
HETATM   13  N4  UNL     1     -34.312  -6.670  76.027  1.00  0.00    -0.277 N 
HETATM   14  C12 UNL     1     -35.330  -6.592  75.174  1.00  0.00     0.146 A 
HETATM   15  C13 UNL     1     -36.610  -7.017  75.509  1.00  0.00     0.199 A 
HETATM   16  F1  UNL     1     -37.592  -6.907  74.595  1.00  0.00    -0.199 F 
HETATM   17  C14 UNL     1     -36.855  -7.542  76.761  1.00  0.00     0.289 A 
HETATM   18  O2  UNL     1     -37.997  -7.940  77.102  1.00  0.00    -0.265 OA
HETATM   19  N5  UNL     1     -35.795  -7.607  77.606  1.00  0.00    -0.273 N 
HETATM   20  C15 UNL     1     -34.560  -7.183  77.247  1.00  0.00     0.331 A 
ATOM     21  H5  UNL     1     -35.932  -7.989  78.543  1.00  0.00     0.173 HD
HETATM   22  O3  UNL     1     -33.621  -7.276  78.093  1.00  0.00    -0.246 OA
ENDBRANCH   9  13
ENDBRANCH   5   6
ENDBRANCH   3   5
BRANCH   1  23
HETATM   23  C6  UNL     1     -28.968  -9.050  73.252  1.00  0.00     0.122 A 
HETATM   24  N1  UNL     1     -28.054  -9.288  74.194  1.00  0.00    -0.331 N 
HETATM   25  C5  UNL     1     -26.718  -9.395  73.894  1.00  0.00     0.083 A 
ATOM     26  H1  UNL     1     -28.355  -9.394  75.163  1.00  0.00     0.168 HD
HETATM   27  N6  UNL     1     -26.374  -9.253  72.618  1.00  0.00    -0.342 N 
HETATM   28  C17 UNL     1     -27.228  -9.013  71.614  1.00  0.00     0.121 A 
ATOM     29  H6  UNL     1     -25.384  -9.333  72.385  1.00  0.00     0.167 HD
HETATM   30  C16 UNL     1     -28.544  -8.910  71.929  1.00  0.00     0.084 A 
BRANCH  25  31
HETATM   31  C4  UNL     1     -25.850  -9.715  75.023  1.00  0.00     0.076 C 
BRANCH  31  32
HETATM   32  C3  UNL     1     -26.202  -9.343  76.388  1.00  0.00     0.007 C 
BRANCH  32  33
HETATM   33  C2  UNL     1     -25.163  -8.804  77.285  1.00  0.00    -0.004 C 
HETATM   34  C1  UNL     1     -23.776  -8.603  76.855  1.00  0.00     0.005 C 
ENDBRANCH  32  33
ENDBRANCH  31  32
ENDBRANCH  25  31
BRANCH  28  35
HETATM   35  C18 UNL     1     -26.670  -8.865  70.250  1.00  0.00     0.432 C 
HETATM   36  F2  UNL     1     -27.236  -9.733  69.354  1.00  0.00    -0.165 F 
HETATM   37  F3  UNL     1     -25.313  -9.193  70.347  1.00  0.00    -0.165 F 
HETATM   38  F4  UNL     1     -26.719  -7.592  69.763  1.00  0.00    -0.165 F 
ENDBRANCH  28  35
ENDBRANCH   1  23
TORSDOF 9
ENDMDL
