MODEL 1
REMARK VINA RESULT: -7.737752870      0.000      0.000
REMARK  10 active torsions:
REMARK  status: ('A' for Active; 'I' for Inactive)
REMARK    1  A    between atoms: O1_1  and  C1_3 
REMARK    2  A    between atoms: C1_3  and  C2_4 
REMARK    3  A    between atoms: C2_4  and  C3_5 
REMARK    4  A    between atoms: C5_7  and  C6_8 
REMARK    5  A    between atoms: C8_10  and  N1_11 
REMARK    6  A    between atoms: N1_11  and  C9_13 
REMARK    7  A    between atoms: C9_13  and  C10_14 
REMARK    8  A    between atoms: C10_14  and  C11_15 
REMARK    9  A    between atoms: C12_18  and  C13_19 
REMARK   10  A    between atoms: C17_29  and  C18_30 
ROOT
HETATM    1  C6  UNL     1     -25.104  -8.908  76.986  1.00  0.00     0.073 A 
HETATM    2  C7  UNL     1     -25.336  -9.507  75.774  1.00  0.00     0.081 A 
HETATM    3  C8  UNL     1     -26.626  -9.731  75.251  1.00  0.00     0.108 A 
HETATM    4  N4  UNL     1     -27.635  -9.311  76.033  1.00  0.00    -0.325 N 
ATOM      5  H4  UNL     1     -28.591  -9.448  75.707  1.00  0.00     0.169 HD
HETATM    6  C17 UNL     1     -27.443  -8.724  77.219  1.00  0.00     0.192 A 
HETATM    7  N5  UNL     1     -26.189  -8.528  77.680  1.00  0.00    -0.336 N 
ATOM      8  H5  UNL     1     -26.060  -8.076  78.585  1.00  0.00     0.167 HD
ENDROOT
BRANCH   3   9
HETATM    9  N1  UNL     1     -26.765 -10.271  74.143  1.00  0.00    -0.355 N 
ATOM     10  H1  UNL     1     -27.660 -10.760  74.109  1.00  0.00     0.166 HD
BRANCH   9  11
HETATM   11  C9  UNL     1     -26.102 -10.426  72.935  1.00  0.00     0.070 C 
BRANCH  11  12
HETATM   12  C10 UNL     1     -26.847  -9.729  71.809  1.00  0.00     0.131 C 
BRANCH  12  13
HETATM   13  C11 UNL     1     -28.068  -9.080  72.388  1.00  0.00     0.153 A 
HETATM   14  N2  UNL     1     -28.220  -7.773  72.750  1.00  0.00    -0.321 N 
HETATM   15  C12 UNL     1     -29.443  -7.553  73.230  1.00  0.00     0.162 A 
ATOM     16  H2  UNL     1     -27.494  -7.061  72.665  1.00  0.00     0.169 HD
HETATM   17  N3  UNL     1     -30.064  -8.760  73.164  1.00  0.00    -0.241 N 
HETATM   18  O3  UNL     1     -29.228  -9.641  72.661  1.00  0.00    -0.222 OA
ATOM     19  H3  UNL     1     -31.023  -8.951  73.456  1.00  0.00     0.196 HD
BRANCH  15  20
HETATM   20  C13 UNL     1     -30.057  -6.316  73.744  1.00  0.00     0.120 A 
HETATM   21  C14 UNL     1     -31.180  -6.210  74.527  1.00  0.00     0.043 A 
HETATM   22  C15 UNL     1     -31.396  -4.878  74.778  1.00  0.00     0.027 A 
HETATM   23  C16 UNL     1     -30.368  -4.215  74.119  1.00  0.00     0.142 A 
HETATM   24  O2  UNL     1     -29.626  -5.111  73.535  1.00  0.00    -0.319 OA
ENDBRANCH  15  20
ENDBRANCH  12  13
ENDBRANCH  11  12
ENDBRANCH   9  11
ENDBRANCH   3   9
BRANCH   1  25
HETATM   25  C5  UNL     1     -23.723  -8.713  77.455  1.00  0.00     0.127 A 
HETATM   26  C4  UNL     1     -22.623  -8.572  76.656  1.00  0.00     0.068 A 
HETATM   27  C3  UNL     1     -21.532  -8.425  77.478  1.00  0.00     0.037 A 
HETATM   28  N6  UNL     1     -22.030  -8.482  78.728  1.00  0.00    -0.265 N 
HETATM   29  O4  UNL     1     -23.326  -8.653  78.711  1.00  0.00    -0.236 OA
ATOM     30  H6  UNL     1     -21.469  -8.402  79.577  1.00  0.00     0.194 HD
BRANCH  27  31
HETATM   31  C2  UNL     1     -20.111  -8.270  77.083  1.00  0.00     0.085 C 
BRANCH  31  32
HETATM   32  C1  UNL     1     -19.448  -9.625  76.871  1.00  0.00     0.170 C 
BRANCH  32  33
HETATM   33  O1  UNL     1     -19.779 -10.485  77.934  1.00  0.00    -0.400 OA
ATOM     34  H1  UNL     1     -19.508 -11.371  77.725  1.00  0.00     0.209 HD
ENDBRANCH  32  33
ENDBRANCH  31  32
ENDBRANCH  27  31
ENDBRANCH   1  25
BRANCH   6  35
HETATM   35  C18 UNL     1     -28.608  -8.311  78.024  1.00  0.00     0.449 C 
HETATM   36  F1  UNL     1     -28.258  -7.257  78.886  1.00  0.00    -0.163 F 
HETATM   37  F2  UNL     1     -29.595  -7.814  77.200  1.00  0.00    -0.163 F 
HETATM   38  F3  UNL     1     -29.099  -9.324  78.828  1.00  0.00    -0.163 F 
ENDBRANCH   6  35
TORSDOF 10
ENDMDL
MODEL 2
REMARK VINA RESULT: -7.581508387      2.808      8.329
REMARK  10 active torsions:
REMARK  status: ('A' for Active; 'I' for Inactive)
REMARK    1  A    between atoms: O1_1  and  C1_3 
REMARK    2  A    between atoms: C1_3  and  C2_4 
REMARK    3  A    between atoms: C2_4  and  C3_5 
REMARK    4  A    between atoms: C5_7  and  C6_8 
REMARK    5  A    between atoms: C8_10  and  N1_11 
REMARK    6  A    between atoms: N1_11  and  C9_13 
REMARK    7  A    between atoms: C9_13  and  C10_14 
REMARK    8  A    between atoms: C10_14  and  C11_15 
REMARK    9  A    between atoms: C12_18  and  C13_19 
REMARK   10  A    between atoms: C17_29  and  C18_30 
ROOT
HETATM    1  C6  UNL     1     -28.027  -7.693  74.669  1.00  0.00     0.073 A 
HETATM    2  C7  UNL     1     -27.764  -8.138  75.939  1.00  0.00     0.081 A 
HETATM    3  C8  UNL     1     -27.049  -9.320  76.217  1.00  0.00     0.108 A 
HETATM    4  N4  UNL     1     -26.633  -9.999  75.134  1.00  0.00    -0.325 N 
ATOM      5  H4  UNL     1     -26.111 -10.863  75.273  1.00  0.00     0.169 HD
HETATM    6  C17 UNL     1     -26.873  -9.593  73.882  1.00  0.00     0.192 A 
HETATM    7  N5  UNL     1     -27.561  -8.451  73.664  1.00  0.00    -0.336 N 
ATOM      8  H5  UNL     1     -27.733  -8.155  72.703  1.00  0.00     0.167 HD
ENDROOT
BRANCH   3   9
HETATM    9  N1  UNL     1     -26.838  -9.662  77.391  1.00  0.00    -0.355 N 
ATOM     10  H1  UNL     1     -26.108 -10.375  77.415  1.00  0.00     0.166 HD
BRANCH   9  11
HETATM   11  C9  UNL     1     -27.270  -9.390  78.680  1.00  0.00     0.070 C 
BRANCH  11  12
HETATM   12  C10 UNL     1     -26.093  -9.233  79.629  1.00  0.00     0.131 C 
BRANCH  12  13
HETATM   13  C11 UNL     1     -25.027  -8.449  78.926  1.00  0.00     0.153 A 
HETATM   14  N2  UNL     1     -23.735  -8.825  78.699  1.00  0.00    -0.321 N 
HETATM   15  C12 UNL     1     -23.071  -7.873  78.045  1.00  0.00     0.162 A 
ATOM     16  H2  UNL     1     -23.331  -9.715  78.991  1.00  0.00     0.169 HD
HETATM   17  N3  UNL     1     -23.979  -6.879  77.864  1.00  0.00    -0.241 N 
HETATM   18  O3  UNL     1     -25.125  -7.248  78.393  1.00  0.00    -0.222 OA
ATOM     19  H3  UNL     1     -23.802  -5.991  77.394  1.00  0.00     0.196 HD
BRANCH  15  20
HETATM   20  C13 UNL     1     -21.670  -7.826  77.592  1.00  0.00     0.120 A 
HETATM   21  C14 UNL     1     -20.999  -8.779  76.865  1.00  0.00     0.043 A 
HETATM   22  C15 UNL     1     -19.719  -8.329  76.658  1.00  0.00     0.027 A 
HETATM   23  C16 UNL     1     -19.665  -7.092  77.286  1.00  0.00     0.142 A 
HETATM   24  O2  UNL     1     -20.833  -6.860  77.812  1.00  0.00    -0.319 OA
ENDBRANCH  15  20
ENDBRANCH  12  13
ENDBRANCH  11  12
ENDBRANCH   9  11
ENDBRANCH   3   9
BRANCH   1  25
HETATM   25  C5  UNL     1     -28.782  -6.445  74.471  1.00  0.00     0.127 A 
HETATM   26  C4  UNL     1     -29.939  -6.319  73.756  1.00  0.00     0.068 A 
HETATM   27  C3  UNL     1     -30.313  -4.997  73.805  1.00  0.00     0.037 A 
HETATM   28  N6  UNL     1     -29.364  -4.396  74.548  1.00  0.00    -0.265 N 
HETATM   29  O4  UNL     1     -28.460  -5.255  74.940  1.00  0.00    -0.236 OA
ATOM     30  H6  UNL     1     -29.352  -3.402  74.774  1.00  0.00     0.194 HD
BRANCH  27  31
HETATM   31  C2  UNL     1     -31.484  -4.360  73.156  1.00  0.00     0.085 C 
BRANCH  31  32
HETATM   32  C1  UNL     1     -31.326  -2.846  73.100  1.00  0.00     0.170 C 
BRANCH  32  33
HETATM   33  O1  UNL     1     -30.192  -2.516  72.336  1.00  0.00    -0.400 OA
ATOM     34  H1  UNL     1     -29.793  -1.726  72.680  1.00  0.00     0.209 HD
ENDBRANCH  32  33
ENDBRANCH  31  32
ENDBRANCH  27  31
ENDBRANCH   1  25
BRANCH   6  35
HETATM   35  C18 UNL     1     -26.398 -10.408  72.748  1.00  0.00     0.449 C 
HETATM   36  F1  UNL     1     -27.397 -11.312  72.343  1.00  0.00    -0.163 F 
HETATM   37  F2  UNL     1     -26.157  -9.598  71.659  1.00  0.00    -0.163 F 
HETATM   38  F3  UNL     1     -25.285 -11.169  73.055  1.00  0.00    -0.163 F 
ENDBRANCH   6  35
TORSDOF 10
ENDMDL
MODEL 3
REMARK VINA RESULT: -7.454665850      2.739      9.043
REMARK  10 active torsions:
REMARK  status: ('A' for Active; 'I' for Inactive)
REMARK    1  A    between atoms: O1_1  and  C1_3 
REMARK    2  A    between atoms: C1_3  and  C2_4 
REMARK    3  A    between atoms: C2_4  and  C3_5 
REMARK    4  A    between atoms: C5_7  and  C6_8 
REMARK    5  A    between atoms: C8_10  and  N1_11 
REMARK    6  A    between atoms: N1_11  and  C9_13 
REMARK    7  A    between atoms: C9_13  and  C10_14 
REMARK    8  A    between atoms: C10_14  and  C11_15 
REMARK    9  A    between atoms: C12_18  and  C13_19 
REMARK   10  A    between atoms: C17_29  and  C18_30 
ROOT
HETATM    1  C6  UNL     1     -28.629  -7.746  74.183  1.00  0.00     0.073 A 
HETATM    2  C7  UNL     1     -28.291  -8.122  75.457  1.00  0.00     0.081 A 
HETATM    3  C8  UNL     1     -27.302  -9.083  75.749  1.00  0.00     0.108 A 
HETATM    4  N4  UNL     1     -26.700  -9.620  74.674  1.00  0.00    -0.325 N 
ATOM      5  H4  UNL     1     -25.977 -10.323  74.822  1.00  0.00     0.169 HD
HETATM    6  C17 UNL     1     -27.006  -9.276  73.418  1.00  0.00     0.192 A 
HETATM    7  N5  UNL     1     -27.960  -8.347  73.187  1.00  0.00    -0.336 N 
ATOM      8  H5  UNL     1     -28.179  -8.094  72.223  1.00  0.00     0.167 HD
ENDROOT
BRANCH   3   9
HETATM    9  N1  UNL     1     -27.039  -9.372  76.926  1.00  0.00    -0.355 N 
ATOM     10  H1  UNL     1     -27.638 -10.138  77.234  1.00  0.00     0.166 HD
BRANCH   9  11
HETATM   11  C9  UNL     1     -26.196  -8.993  77.959  1.00  0.00     0.070 C 
BRANCH  11  12
HETATM   12  C10 UNL     1     -25.693  -7.573  77.760  1.00  0.00     0.131 C 
BRANCH  12  13
HETATM   13  C11 UNL     1     -24.199  -7.584  77.880  1.00  0.00     0.153 A 
HETATM   14  N2  UNL     1     -23.336  -8.522  77.391  1.00  0.00    -0.321 N 
HETATM   15  C12 UNL     1     -22.076  -8.208  77.689  1.00  0.00     0.162 A 
ATOM     16  H2  UNL     1     -23.617  -9.351  76.869  1.00  0.00     0.169 HD
HETATM   17  N3  UNL     1     -22.164  -7.043  78.384  1.00  0.00    -0.241 N 
HETATM   18  O3  UNL     1     -23.429  -6.699  78.479  1.00  0.00    -0.222 OA
ATOM     19  H3  UNL     1     -21.376  -6.520  78.768  1.00  0.00     0.196 HD
BRANCH  15  20
HETATM   20  C13 UNL     1     -20.819  -8.912  77.381  1.00  0.00     0.120 A 
HETATM   21  C14 UNL     1     -20.028  -8.752  76.270  1.00  0.00     0.043 A 
HETATM   22  C15 UNL     1     -18.954  -9.598  76.390  1.00  0.00     0.027 A 
HETATM   23  C16 UNL     1     -19.143 -10.253  77.601  1.00  0.00     0.142 A 
HETATM   24  O2  UNL     1     -20.249  -9.808  78.125  1.00  0.00    -0.319 OA
ENDBRANCH  15  20
ENDBRANCH  12  13
ENDBRANCH  11  12
ENDBRANCH   9  11
ENDBRANCH   3   9
BRANCH   1  25
HETATM   25  C5  UNL     1     -29.674  -6.731  73.971  1.00  0.00     0.127 A 
HETATM   26  C4  UNL     1     -31.011  -6.906  74.193  1.00  0.00     0.068 A 
HETATM   27  C3  UNL     1     -31.642  -5.731  73.863  1.00  0.00     0.037 A 
HETATM   28  N6  UNL     1     -30.654  -4.908  73.463  1.00  0.00    -0.265 N 
HETATM   29  O4  UNL     1     -29.491  -5.502  73.527  1.00  0.00    -0.236 OA
ATOM     30  H6  UNL     1     -30.794  -3.947  73.150  1.00  0.00     0.194 HD
BRANCH  27  31
HETATM   31  C2  UNL     1     -33.095  -5.436  73.905  1.00  0.00     0.085 C 
BRANCH  31  32
HETATM   32  C1  UNL     1     -33.902  -6.692  74.208  1.00  0.00     0.170 C 
BRANCH  32  33
HETATM   33  O1  UNL     1     -34.665  -7.048  73.081  1.00  0.00    -0.400 OA
ATOM     34  H1  UNL     1     -34.838  -6.276  72.556  1.00  0.00     0.209 HD
ENDBRANCH  32  33
ENDBRANCH  31  32
ENDBRANCH  27  31
ENDBRANCH   1  25
BRANCH   6  35
HETATM   35  C18 UNL     1     -26.311  -9.929  72.293  1.00  0.00     0.449 C 
HETATM   36  F1  UNL     1     -25.650 -11.090  72.734  1.00  0.00    -0.163 F 
HETATM   37  F2  UNL     1     -27.230 -10.350  71.356  1.00  0.00    -0.163 F 
HETATM   38  F3  UNL     1     -25.345  -9.127  71.713  1.00  0.00    -0.163 F 
ENDBRANCH   6  35
TORSDOF 10
ENDMDL
MODEL 4
REMARK VINA RESULT: -7.440358629      2.850      8.684
REMARK  10 active torsions:
REMARK  status: ('A' for Active; 'I' for Inactive)
REMARK    1  A    between atoms: O1_1  and  C1_3 
REMARK    2  A    between atoms: C1_3  and  C2_4 
REMARK    3  A    between atoms: C2_4  and  C3_5 
REMARK    4  A    between atoms: C5_7  and  C6_8 
REMARK    5  A    between atoms: C8_10  and  N1_11 
REMARK    6  A    between atoms: N1_11  and  C9_13 
REMARK    7  A    between atoms: C9_13  and  C10_14 
REMARK    8  A    between atoms: C10_14  and  C11_15 
REMARK    9  A    between atoms: C12_18  and  C13_19 
REMARK   10  A    between atoms: C17_29  and  C18_30 
ROOT
HETATM    1  C6  UNL     1     -28.614  -7.803  74.202  1.00  0.00     0.073 A 
HETATM    2  C7  UNL     1     -28.298  -8.199  75.476  1.00  0.00     0.081 A 
HETATM    3  C8  UNL     1     -27.320  -9.171  75.769  1.00  0.00     0.108 A 
HETATM    4  N4  UNL     1     -26.705  -9.697  74.695  1.00  0.00    -0.325 N 
ATOM      5  H4  UNL     1     -25.989 -10.407  74.845  1.00  0.00     0.169 HD
HETATM    6  C17 UNL     1     -26.989  -9.333  73.441  1.00  0.00     0.192 A 
HETATM    7  N5  UNL     1     -27.933  -8.394  73.208  1.00  0.00    -0.336 N 
ATOM      8  H5  UNL     1     -28.136  -8.127  72.245  1.00  0.00     0.167 HD
ENDROOT
BRANCH   3   9
HETATM    9  N1  UNL     1     -27.077  -9.479  76.946  1.00  0.00    -0.355 N 
ATOM     10  H1  UNL     1     -26.299 -10.139  76.975  1.00  0.00     0.166 HD
BRANCH   9  11
HETATM   11  C9  UNL     1     -27.517  -9.217  78.234  1.00  0.00     0.070 C 
BRANCH  11  12
HETATM   12  C10 UNL     1     -26.356  -9.201  79.215  1.00  0.00     0.131 C 
BRANCH  12  13
HETATM   13  C11 UNL     1     -25.225  -8.442  78.589  1.00  0.00     0.153 A 
HETATM   14  N2  UNL     1     -23.919  -8.827  78.498  1.00  0.00    -0.321 N 
HETATM   15  C12 UNL     1     -23.193  -7.899  77.877  1.00  0.00     0.162 A 
ATOM     16  H2  UNL     1     -23.549  -9.707  78.857  1.00  0.00     0.169 HD
HETATM   17  N3  UNL     1     -24.076  -6.911  77.577  1.00  0.00    -0.241 N 
HETATM   18  O3  UNL     1     -25.268  -7.261  78.009  1.00  0.00    -0.222 OA
ATOM     19  H3  UNL     1     -23.851  -6.040  77.096  1.00  0.00     0.196 HD
BRANCH  15  20
HETATM   20  C13 UNL     1     -21.755  -7.869  77.557  1.00  0.00     0.120 A 
HETATM   21  C14 UNL     1     -21.051  -8.782  76.810  1.00  0.00     0.043 A 
HETATM   22  C15 UNL     1     -19.743  -8.367  76.759  1.00  0.00     0.027 A 
HETATM   23  C16 UNL     1     -19.709  -7.191  77.496  1.00  0.00     0.142 A 
HETATM   24  O2  UNL     1     -20.912  -6.959  77.935  1.00  0.00    -0.319 OA
ENDBRANCH  15  20
ENDBRANCH  12  13
ENDBRANCH  11  12
ENDBRANCH   9  11
ENDBRANCH   3   9
BRANCH   1  25
HETATM   25  C5  UNL     1     -29.649  -6.779  73.988  1.00  0.00     0.127 A 
HETATM   26  C4  UNL     1     -30.986  -6.938  74.221  1.00  0.00     0.068 A 
HETATM   27  C3  UNL     1     -31.606  -5.758  73.886  1.00  0.00     0.037 A 
HETATM   28  N6  UNL     1     -30.612  -4.949  73.472  1.00  0.00    -0.265 N 
HETATM   29  O4  UNL     1     -29.456  -5.556  73.534  1.00  0.00    -0.236 OA
ATOM     30  H6  UNL     1     -30.744  -3.989  73.152  1.00  0.00     0.194 HD
BRANCH  27  31
HETATM   31  C2  UNL     1     -33.056  -5.447  73.935  1.00  0.00     0.085 C 
BRANCH  31  32
HETATM   32  C1  UNL     1     -33.874  -6.690  74.260  1.00  0.00     0.170 C 
BRANCH  32  33
HETATM   33  O1  UNL     1     -34.654  -7.048  73.145  1.00  0.00    -0.400 OA
ATOM     34  H1  UNL     1     -34.095  -7.405  72.465  1.00  0.00     0.209 HD
ENDBRANCH  32  33
ENDBRANCH  31  32
ENDBRANCH  27  31
ENDBRANCH   1  25
BRANCH   6  35
HETATM   35  C18 UNL     1     -26.281  -9.974  72.317  1.00  0.00     0.449 C 
HETATM   36  F1  UNL     1     -25.602 -11.124  72.759  1.00  0.00    -0.163 F 
HETATM   37  F2  UNL     1     -27.190 -10.410  71.377  1.00  0.00    -0.163 F 
HETATM   38  F3  UNL     1     -25.326  -9.156  71.739  1.00  0.00    -0.163 F 
ENDBRANCH   6  35
TORSDOF 10
ENDMDL
MODEL 5
REMARK VINA RESULT: -7.406414999      1.226      1.495
REMARK  10 active torsions:
REMARK  status: ('A' for Active; 'I' for Inactive)
REMARK    1  A    between atoms: O1_1  and  C1_3 
REMARK    2  A    between atoms: C1_3  and  C2_4 
REMARK    3  A    between atoms: C2_4  and  C3_5 
REMARK    4  A    between atoms: C5_7  and  C6_8 
REMARK    5  A    between atoms: C8_10  and  N1_11 
REMARK    6  A    between atoms: N1_11  and  C9_13 
REMARK    7  A    between atoms: C9_13  and  C10_14 
REMARK    8  A    between atoms: C10_14  and  C11_15 
REMARK    9  A    between atoms: C12_18  and  C13_19 
REMARK   10  A    between atoms: C17_29  and  C18_30 
ROOT
HETATM    1  C6  UNL     1     -25.074  -8.859  76.912  1.00  0.00     0.073 A 
HETATM    2  C7  UNL     1     -25.308  -9.386  75.668  1.00  0.00     0.081 A 
HETATM    3  C8  UNL     1     -26.598  -9.556  75.125  1.00  0.00     0.108 A 
HETATM    4  N4  UNL     1     -27.605  -9.162  75.923  1.00  0.00    -0.325 N 
ATOM      5  H4  UNL     1     -28.561  -9.263  75.585  1.00  0.00     0.169 HD
HETATM    6  C17 UNL     1     -27.411  -8.645  77.141  1.00  0.00     0.192 A 
HETATM    7  N5  UNL     1     -26.156  -8.497  77.620  1.00  0.00    -0.336 N 
ATOM      8  H5  UNL     1     -26.026  -8.099  78.549  1.00  0.00     0.167 HD
ENDROOT
BRANCH   3   9
HETATM    9  N1  UNL     1     -26.740 -10.032  73.988  1.00  0.00    -0.355 N 
ATOM     10  H1  UNL     1     -25.994  -9.696  73.379  1.00  0.00     0.166 HD
BRANCH   9  11
HETATM   11  C9  UNL     1     -27.582 -10.872  73.276  1.00  0.00     0.070 C 
BRANCH  11  12
HETATM   12  C10 UNL     1     -28.301 -10.116  72.172  1.00  0.00     0.131 C 
BRANCH  12  13
HETATM   13  C11 UNL     1     -28.996  -8.939  72.787  1.00  0.00     0.153 A 
HETATM   14  N2  UNL     1     -30.275  -8.885  73.259  1.00  0.00    -0.321 N 
HETATM   15  C12 UNL     1     -30.555  -7.673  73.735  1.00  0.00     0.162 A 
ATOM     16  H2  UNL     1     -30.929  -9.667  73.249  1.00  0.00     0.169 HD
HETATM   17  N3  UNL     1     -29.415  -6.956  73.550  1.00  0.00    -0.241 N 
HETATM   18  O3  UNL     1     -28.512  -7.731  72.989  1.00  0.00    -0.222 OA
ATOM     19  H3  UNL     1     -29.281  -5.977  73.804  1.00  0.00     0.196 HD
BRANCH  15  20
HETATM   20  C13 UNL     1     -31.793  -7.145  74.334  1.00  0.00     0.120 A 
HETATM   21  C14 UNL     1     -31.901  -6.176  75.302  1.00  0.00     0.043 A 
HETATM   22  C15 UNL     1     -33.235  -5.987  75.564  1.00  0.00     0.027 A 
HETATM   23  C16 UNL     1     -33.897  -6.872  74.723  1.00  0.00     0.142 A 
HETATM   24  O2  UNL     1     -32.999  -7.518  74.036  1.00  0.00    -0.319 OA
ENDBRANCH  15  20
ENDBRANCH  12  13
ENDBRANCH  11  12
ENDBRANCH   9  11
ENDBRANCH   3   9
BRANCH   1  25
HETATM   25  C5  UNL     1     -23.692  -8.715  77.399  1.00  0.00     0.127 A 
HETATM   26  C4  UNL     1     -22.577  -8.624  76.615  1.00  0.00     0.068 A 
HETATM   27  C3  UNL     1     -21.492  -8.514  77.452  1.00  0.00     0.037 A 
HETATM   28  N6  UNL     1     -22.009  -8.542  78.695  1.00  0.00    -0.265 N 
HETATM   29  O4  UNL     1     -23.311  -8.661  78.660  1.00  0.00    -0.236 OA
ATOM     30  H6  UNL     1     -21.458  -8.478  79.550  1.00  0.00     0.194 HD
BRANCH  27  31
HETATM   31  C2  UNL     1     -20.061  -8.419  77.075  1.00  0.00     0.085 C 
BRANCH  31  32
HETATM   32  C1  UNL     1     -19.471  -9.797  76.802  1.00  0.00     0.170 C 
BRANCH  32  33
HETATM   33  O1  UNL     1     -19.690 -10.634  77.911  1.00  0.00    -0.400 OA
ATOM     34  H1  UNL     1     -20.412 -11.224  77.729  1.00  0.00     0.209 HD
ENDBRANCH  32  33
ENDBRANCH  31  32
ENDBRANCH  27  31
ENDBRANCH   1  25
BRANCH   6  35
HETATM   35  C18 UNL     1     -28.574  -8.255  77.961  1.00  0.00     0.449 C 
HETATM   36  F1  UNL     1     -28.231  -7.202  78.828  1.00  0.00    -0.163 F 
HETATM   37  F2  UNL     1     -29.576  -7.766  77.150  1.00  0.00    -0.163 F 
HETATM   38  F3  UNL     1     -29.042  -9.282  78.761  1.00  0.00    -0.163 F 
ENDBRANCH   6  35
TORSDOF 10
ENDMDL
