MODEL 1
REMARK VINA RESULT: -4.478673485      0.000      0.000
REMARK  0 active torsions:
REMARK  status: ('A' for Active; 'I' for Inactive)
ROOT
HETATM    1  C1  UNL     1     -20.796 -30.285   1.287  1.00  0.00     0.054 C 
HETATM    2  C2  UNL     1     -20.213 -29.052   1.936  1.00  0.00     0.234 C 
HETATM    3  N1  UNL     1     -21.272 -28.186   2.416  1.00  0.00    -0.073 N 
ATOM      4  H11 UNL     1     -22.189 -28.599   2.246  1.00  0.00     0.277 HD
ATOM      5  H12 UNL     1     -21.356 -27.352   1.835  1.00  0.00     0.277 HD
HETATM    6  C3  UNL     1     -21.113 -27.835   3.810  1.00  0.00     0.258 C 
HETATM    7  C4  UNL     1     -21.813 -28.826   4.731  1.00  0.00     0.195 C 
HETATM    8  O1  UNL     1     -20.905 -29.224   5.676  1.00  0.00    -0.387 OA
HETATM    9  C5  UNL     1     -21.444 -29.946   6.723  1.00  0.00     0.193 C 
HETATM   10  C6  UNL     1     -21.606 -31.426   6.369  1.00  0.00     0.193 C 
HETATM   11  O2  UNL     1     -21.095 -31.593   5.104  1.00  0.00    -0.387 OA
HETATM   12  C7  UNL     1     -20.640 -32.861   4.830  1.00  0.00     0.193 C 
HETATM   13  C8  UNL     1     -19.776 -32.754   3.567  1.00  0.00     0.193 C 
HETATM   14  O3  UNL     1     -20.648 -32.306   2.559  1.00  0.00    -0.389 OA
HETATM   15  C9  UNL     1     -19.996 -31.535   1.615  1.00  0.00     0.169 C 
ENDROOT
TORSDOF 0
ENDMDL
MODEL 2
REMARK VINA RESULT: -4.328775763      1.900      3.612
REMARK  0 active torsions:
REMARK  status: ('A' for Active; 'I' for Inactive)
ROOT
HETATM    1  C1  UNL     1     -19.835 -32.899   4.200  1.00  0.00     0.054 C 
HETATM    2  C2  UNL     1     -21.207 -32.674   4.790  1.00  0.00     0.234 C 
HETATM    3  N1  UNL     1     -21.105 -31.949   6.042  1.00  0.00    -0.073 N 
ATOM      4  H11 UNL     1     -20.135 -31.714   6.252  1.00  0.00     0.277 HD
ATOM      5  H12 UNL     1     -21.303 -32.558   6.835  1.00  0.00     0.277 HD
HETATM    6  C3  UNL     1     -21.942 -30.770   6.070  1.00  0.00     0.258 C 
HETATM    7  C4  UNL     1     -21.207 -29.537   5.558  1.00  0.00     0.195 C 
HETATM    8  O1  UNL     1     -21.996 -28.954   4.603  1.00  0.00    -0.387 OA
HETATM    9  C5  UNL     1     -21.581 -27.700   4.201  1.00  0.00     0.193 C 
HETATM   10  C6  UNL     1     -20.485 -27.778   3.135  1.00  0.00     0.193 C 
HETATM   11  O2  UNL     1     -20.292 -29.110   2.857  1.00  0.00    -0.387 OA
HETATM   12  C7  UNL     1     -19.799 -29.371   1.600  1.00  0.00     0.193 C 
HETATM   13  C8  UNL     1     -20.022 -30.866   1.342  1.00  0.00     0.193 C 
HETATM   14  O3  UNL     1     -19.264 -31.528   2.325  1.00  0.00    -0.389 OA
HETATM   15  C9  UNL     1     -19.829 -32.735   2.690  1.00  0.00     0.169 C 
ENDROOT
TORSDOF 0
ENDMDL
MODEL 3
REMARK VINA RESULT: -4.158379743      1.829      4.459
REMARK  0 active torsions:
REMARK  status: ('A' for Active; 'I' for Inactive)
ROOT
HETATM    1  C1  UNL     1     -22.265 -28.921   5.247  1.00  0.00     0.054 C 
HETATM    2  C2  UNL     1     -21.322 -29.756   6.079  1.00  0.00     0.234 C 
HETATM    3  N1  UNL     1     -21.854 -31.093   6.256  1.00  0.00    -0.073 N 
ATOM      4  H11 UNL     1     -22.738 -31.205   5.759  1.00  0.00     0.277 HD
ATOM      5  H12 UNL     1     -22.182 -31.233   7.211  1.00  0.00     0.277 HD
HETATM    6  C3  UNL     1     -20.911 -32.121   5.875  1.00  0.00     0.258 C 
HETATM    7  C4  UNL     1     -21.049 -32.504   4.406  1.00  0.00     0.195 C 
HETATM    8  O1  UNL     1     -19.803 -32.437   3.843  1.00  0.00    -0.387 OA
HETATM    9  C5  UNL     1     -19.716 -32.975   2.574  1.00  0.00     0.193 C 
HETATM   10  C6  UNL     1     -20.167 -31.981   1.502  1.00  0.00     0.193 C 
HETATM   11  O2  UNL     1     -20.471 -30.806   2.149  1.00  0.00    -0.387 OA
HETATM   12  C7  UNL     1     -20.353 -29.676   1.376  1.00  0.00     0.193 C 
HETATM   13  C8  UNL     1     -20.342 -28.483   2.340  1.00  0.00     0.193 C 
HETATM   14  O3  UNL     1     -21.591 -28.519   2.987  1.00  0.00    -0.389 OA
HETATM   15  C9  UNL     1     -21.523 -28.020   4.273  1.00  0.00     0.169 C 
ENDROOT
TORSDOF 0
ENDMDL
MODEL 4
REMARK VINA RESULT: -4.002285030      1.899      4.478
REMARK  0 active torsions:
REMARK  status: ('A' for Active; 'I' for Inactive)
ROOT
HETATM    1  C1  UNL     1     -21.150 -32.670   4.676  1.00  0.00     0.054 C 
HETATM    2  C2  UNL     1     -19.894 -32.702   3.837  1.00  0.00     0.234 C 
HETATM    3  N1  UNL     1     -20.223 -32.943   2.446  1.00  0.00    -0.073 N 
ATOM      4  H11 UNL     1     -21.232 -33.011   2.314  1.00  0.00     0.277 HD
ATOM      5  H12 UNL     1     -19.955 -33.885   2.164  1.00  0.00     0.277 HD
HETATM    6  C3  UNL     1     -19.650 -31.953   1.561  1.00  0.00     0.258 C 
HETATM    7  C4  UNL     1     -20.588 -30.772   1.343  1.00  0.00     0.195 C 
HETATM    8  O1  UNL     1     -19.876 -29.629   1.590  1.00  0.00    -0.387 OA
HETATM    9  C5  UNL     1     -20.514 -28.462   1.217  1.00  0.00     0.193 C 
HETATM   10  C6  UNL     1     -21.499 -27.985   2.286  1.00  0.00     0.193 C 
HETATM   11  O2  UNL     1     -21.396 -28.859   3.343  1.00  0.00    -0.387 OA
HETATM   12  C7  UNL     1     -21.743 -28.329   4.563  1.00  0.00     0.193 C 
HETATM   13  C8  UNL     1     -21.202 -29.290   5.629  1.00  0.00     0.193 C 
HETATM   14  O3  UNL     1     -21.869 -30.508   5.402  1.00  0.00    -0.389 OA
HETATM   15  C9  UNL     1     -21.092 -31.597   5.749  1.00  0.00     0.169 C 
ENDROOT
TORSDOF 0
ENDMDL
MODEL 5
REMARK VINA RESULT: -3.927843664      1.196      3.658
REMARK  0 active torsions:
REMARK  status: ('A' for Active; 'I' for Inactive)
ROOT
HETATM    1  C1  UNL     1     -21.367 -29.331   5.809  1.00  0.00     0.054 C 
HETATM    2  C2  UNL     1     -22.028 -28.665   4.625  1.00  0.00     0.234 C 
HETATM    3  N1  UNL     1     -21.118 -27.723   4.003  1.00  0.00    -0.073 N 
ATOM      4  H11 UNL     1     -20.212 -27.724   4.471  1.00  0.00     0.277 HD
ATOM      5  H12 UNL     1     -21.400 -26.762   4.192  1.00  0.00     0.277 HD
HETATM    6  C3  UNL     1     -20.968 -27.951   2.583  1.00  0.00     0.258 C 
HETATM    7  C4  UNL     1     -19.824 -28.911   2.278  1.00  0.00     0.195 C 
HETATM    8  O1  UNL     1     -20.314 -29.888   1.452  1.00  0.00    -0.387 OA
HETATM    9  C5  UNL     1     -19.352 -30.708   0.897  1.00  0.00     0.193 C 
HETATM   10  C6  UNL     1     -18.941 -31.831   1.853  1.00  0.00     0.193 C 
HETATM   11  O2  UNL     1     -19.725 -31.706   2.976  1.00  0.00    -0.387 OA
HETATM   12  C7  UNL     1     -19.919 -32.875   3.675  1.00  0.00     0.193 C 
HETATM   13  C8  UNL     1     -21.096 -32.627   4.626  1.00  0.00     0.193 C 
HETATM   14  O3  UNL     1     -20.669 -31.595   5.482  1.00  0.00    -0.389 OA
HETATM   15  C9  UNL     1     -21.720 -30.805   5.906  1.00  0.00     0.169 C 
ENDROOT
TORSDOF 0
ENDMDL
