MODEL 1
REMARK VINA RESULT: -3.613998471      0.000      0.000
REMARK  1 active torsions:
REMARK  status: ('A' for Active; 'I' for Inactive)
REMARK    1  A    between atoms: O1_1  and  C1_3 
ROOT
HETATM    1  C1  UNL     1     -20.432 -31.674   2.212  1.00  0.00     0.141 C 
HETATM    2  C2  UNL     1     -20.889 -31.071   3.460  1.00  0.00     0.057 C 
HETATM    3  C3  UNL     1     -20.528 -32.143   4.503  1.00  0.00     0.006 C 
HETATM    4  C4  UNL     1     -19.581 -33.116   3.776  1.00  0.00     0.021 C 
HETATM    5  C5  UNL     1     -19.085 -32.259   2.709  1.00  0.00     0.115 C 
HETATM    6  S1  UNL     1     -18.639 -32.993   1.137  1.00  0.00    -0.057 SA
HETATM    7  N1  UNL     1     -19.373 -31.652   0.193  1.00  0.00    -0.186 NA
HETATM    8  C6  UNL     1     -20.330 -32.110  -0.746  1.00  0.00     0.123 C 
HETATM    9  C7  UNL     1     -21.554 -31.253  -0.551  1.00  0.00     0.033 C 
HETATM   10  C8  UNL     1     -21.053 -30.201   0.415  1.00  0.00     0.114 C 
HETATM   11  N2  UNL     1     -20.021 -30.856   1.149  1.00  0.00    -0.204 NA
ENDROOT
BRANCH   1  12
HETATM   12  O1  UNL     1     -21.271 -32.724   1.856  1.00  0.00    -0.373 OA
ATOM     13  H1  UNL     1     -20.785 -33.540   1.848  1.00  0.00     0.212 HD
ENDBRANCH   1  12
TORSDOF 1
ENDMDL
MODEL 2
REMARK VINA RESULT: -3.537662179      2.565      3.507
REMARK  1 active torsions:
REMARK  status: ('A' for Active; 'I' for Inactive)
REMARK    1  A    between atoms: O1_1  and  C1_3 
ROOT
HETATM    1  C1  UNL     1     -18.677 -32.551   1.121  1.00  0.00     0.141 C 
HETATM    2  C2  UNL     1     -19.074 -32.799   2.503  1.00  0.00     0.057 C 
HETATM    3  C3  UNL     1     -20.389 -32.009   2.622  1.00  0.00     0.006 C 
HETATM    4  C4  UNL     1     -20.790 -31.665   1.175  1.00  0.00     0.021 C 
HETATM    5  C5  UNL     1     -20.066 -32.696   0.445  1.00  0.00     0.115 C 
HETATM    6  S1  UNL     1     -19.477 -32.342  -1.209  1.00  0.00    -0.057 SA
HETATM    7  N1  UNL     1     -17.909 -33.175  -0.933  1.00  0.00    -0.186 NA
HETATM    8  C6  UNL     1     -16.796 -32.338  -1.196  1.00  0.00     0.123 C 
HETATM    9  C7  UNL     1     -15.884 -32.464  -0.003  1.00  0.00     0.033 C 
HETATM   10  C8  UNL     1     -16.535 -33.588   0.776  1.00  0.00     0.114 C 
HETATM   11  N2  UNL     1     -17.916 -33.506   0.430  1.00  0.00    -0.204 NA
ENDROOT
BRANCH   1  12
HETATM   12  O1  UNL     1     -18.244 -31.238   0.977  1.00  0.00    -0.373 OA
ATOM     13  H1  UNL     1     -18.966 -30.686   0.699  1.00  0.00     0.212 HD
ENDBRANCH   1  12
TORSDOF 1
ENDMDL
MODEL 3
REMARK VINA RESULT: -3.425841286      1.292      1.494
REMARK  1 active torsions:
REMARK  status: ('A' for Active; 'I' for Inactive)
REMARK    1  A    between atoms: O1_1  and  C1_3 
ROOT
HETATM    1  C1  UNL     1     -20.083 -32.274   1.286  1.00  0.00     0.141 C 
HETATM    2  C2  UNL     1     -20.714 -32.319   2.601  1.00  0.00     0.057 C 
HETATM    3  C3  UNL     1     -19.571 -32.814   3.506  1.00  0.00     0.006 C 
HETATM    4  C4  UNL     1     -18.292 -32.674   2.660  1.00  0.00     0.021 C 
HETATM    5  C5  UNL     1     -18.716 -31.666   1.698  1.00  0.00     0.115 C 
HETATM    6  S1  UNL     1     -18.025 -31.692   0.046  1.00  0.00    -0.057 SA
HETATM    7  N1  UNL     1     -19.603 -31.313  -0.724  1.00  0.00    -0.186 NA
HETATM    8  C6  UNL     1     -19.972 -32.269  -1.703  1.00  0.00     0.123 C 
HETATM    9  C7  UNL     1     -21.396 -32.656  -1.397  1.00  0.00     0.033 C 
HETATM   10  C8  UNL     1     -21.768 -31.663  -0.316  1.00  0.00     0.114 C 
HETATM   11  N2  UNL     1     -20.532 -31.357   0.325  1.00  0.00    -0.204 NA
ENDROOT
BRANCH   1  12
HETATM   12  O1  UNL     1     -19.874 -33.566   0.815  1.00  0.00    -0.373 OA
ATOM     13  H1  UNL     1     -19.721 -33.548  -0.123  1.00  0.00     0.212 HD
ENDBRANCH   1  12
TORSDOF 1
ENDMDL
MODEL 4
REMARK VINA RESULT: -3.406703123      4.594      5.322
REMARK  1 active torsions:
REMARK  status: ('A' for Active; 'I' for Inactive)
REMARK    1  A    between atoms: O1_1  and  C1_3 
ROOT
HETATM    1  C1  UNL     1     -21.460 -27.707   2.986  1.00  0.00     0.141 C 
HETATM    2  C2  UNL     1     -21.955 -28.415   4.162  1.00  0.00     0.057 C 
HETATM    3  C3  UNL     1     -23.396 -27.891   4.288  1.00  0.00     0.006 C 
HETATM    4  C4  UNL     1     -23.691 -27.185   2.951  1.00  0.00     0.021 C 
HETATM    5  C5  UNL     1     -22.716 -27.833   2.085  1.00  0.00     0.115 C 
HETATM    6  S1  UNL     1     -22.023 -26.915   0.713  1.00  0.00    -0.057 SA
HETATM    7  N1  UNL     1     -20.370 -27.565   0.988  1.00  0.00    -0.186 NA
HETATM    8  C6  UNL     1     -19.405 -26.540   1.151  1.00  0.00     0.123 C 
HETATM    9  C7  UNL     1     -18.622 -26.893   2.389  1.00  0.00     0.033 C 
HETATM   10  C8  UNL     1     -19.141 -28.280   2.707  1.00  0.00     0.114 C 
HETATM   11  N2  UNL     1     -20.467 -28.290   2.184  1.00  0.00    -0.204 NA
ENDROOT
BRANCH   1  12
HETATM   12  O1  UNL     1     -21.259 -26.365   3.288  1.00  0.00    -0.373 OA
ATOM     13  H1  UNL     1     -20.346 -26.136   3.158  1.00  0.00     0.212 HD
ENDBRANCH   1  12
TORSDOF 1
ENDMDL
MODEL 5
REMARK VINA RESULT: -3.370591554      4.466      5.722
REMARK  1 active torsions:
REMARK  status: ('A' for Active; 'I' for Inactive)
REMARK    1  A    between atoms: O1_1  and  C1_3 
ROOT
HETATM    1  C1  UNL     1     -22.454 -27.890   3.701  1.00  0.00     0.141 C 
HETATM    2  C2  UNL     1     -23.854 -27.959   4.106  1.00  0.00     0.057 C 
HETATM    3  C3  UNL     1     -24.568 -27.183   2.985  1.00  0.00     0.006 C 
HETATM    4  C4  UNL     1     -23.525 -27.041   1.861  1.00  0.00     0.021 C 
HETATM    5  C5  UNL     1     -22.633 -28.146   2.181  1.00  0.00     0.115 C 
HETATM    6  S1  UNL     1     -20.892 -28.003   1.788  1.00  0.00    -0.057 SA
HETATM    7  N1  UNL     1     -20.382 -28.766   3.334  1.00  0.00    -0.186 NA
HETATM    8  C6  UNL     1     -19.486 -27.953   4.071  1.00  0.00     0.123 C 
HETATM    9  C7  UNL     1     -20.023 -27.904   5.478  1.00  0.00     0.033 C 
HETATM   10  C8  UNL     1     -21.139 -28.927   5.426  1.00  0.00     0.114 C 
HETATM   11  N2  UNL     1     -21.568 -28.914   4.067  1.00  0.00    -0.204 NA
ENDROOT
BRANCH   1  12
HETATM   12  O1  UNL     1     -21.969 -26.600   3.882  1.00  0.00    -0.373 OA
ATOM     13  H1  UNL     1     -21.021 -26.597   3.820  1.00  0.00     0.212 HD
ENDBRANCH   1  12
TORSDOF 1
ENDMDL
