MODEL 1
REMARK VINA RESULT: -4.850016791      0.000      0.000
REMARK  0 active torsions:
REMARK  status: ('A' for Active; 'I' for Inactive)
ROOT
HETATM    1  N1  UNL     1     -32.017 -23.457   8.805  1.00  0.00    -0.195 NA
HETATM    2  C1  UNL     1     -32.003 -23.677   7.661  1.00  0.00     0.091 C 
HETATM    3  C2  UNL     1     -31.986 -23.976   6.220  1.00  0.00     0.228 C 
HETATM    4  C3  UNL     1     -33.172 -23.298   5.610  1.00  0.00     0.049 C 
HETATM    5  C4  UNL     1     -34.266 -24.316   5.294  1.00  0.00     0.039 C 
HETATM    6  C5  UNL     1     -33.676 -25.320   4.352  1.00  0.00     0.215 C 
HETATM    7  N2  UNL     1     -34.282 -26.622   4.439  1.00  0.00    -0.062 N 
ATOM      8  H21 UNL     1     -35.255 -26.672   4.134  1.00  0.00     0.278 HD
ATOM      9  H22 UNL     1     -34.468 -26.955   5.385  1.00  0.00     0.278 HD
HETATM   10  C6  UNL     1     -33.335 -27.431   3.660  1.00  0.00     0.218 C 
HETATM   11  C7  UNL     1     -33.426 -28.877   3.996  1.00  0.00     0.201 C 
HETATM   12  O1  UNL     1     -32.621 -29.154   5.063  1.00  0.00    -0.389 OA
HETATM   13  C8  UNL     1     -31.953 -28.022   5.449  1.00  0.00     0.177 C 
HETATM   14  C9  UNL     1     -31.996 -27.043   4.300  1.00  0.00     0.073 C 
HETATM   15  C10 UNL     1     -32.225 -25.637   4.707  1.00  0.00     0.162 C 
HETATM   16  O2  UNL     1     -32.006 -25.369   6.032  1.00  0.00    -0.364 OA
ENDROOT
TORSDOF 0
ENDMDL
MODEL 2
REMARK VINA RESULT: -4.631699318     13.306     14.655
REMARK  0 active torsions:
REMARK  status: ('A' for Active; 'I' for Inactive)
ROOT
HETATM    1  N1  UNL     1     -19.868 -33.746   5.401  1.00  0.00    -0.195 NA
HETATM    2  C1  UNL     1     -20.126 -33.173   4.421  1.00  0.00     0.091 C 
HETATM    3  C2  UNL     1     -20.450 -32.429   3.192  1.00  0.00     0.228 C 
HETATM    4  C3  UNL     1     -19.450 -32.828   2.154  1.00  0.00     0.049 C 
HETATM    5  C4  UNL     1     -18.419 -31.720   1.949  1.00  0.00     0.039 C 
HETATM    6  C5  UNL     1     -19.168 -30.491   1.533  1.00  0.00     0.215 C 
HETATM    7  N2  UNL     1     -18.515 -29.263   1.898  1.00  0.00    -0.062 N 
ATOM      8  H21 UNL     1     -17.632 -29.079   1.420  1.00  0.00     0.278 HD
ATOM      9  H22 UNL     1     -18.115 -29.243   2.836  1.00  0.00     0.278 HD
HETATM   10  C6  UNL     1     -19.583 -28.286   1.647  1.00  0.00     0.218 C 
HETATM   11  C7  UNL     1     -19.372 -27.020   2.400  1.00  0.00     0.201 C 
HETATM   12  O1  UNL     1     -19.913 -27.132   3.648  1.00  0.00    -0.389 OA
HETATM   13  C8  UNL     1     -20.517 -28.354   3.787  1.00  0.00     0.177 C 
HETATM   14  C9  UNL     1     -20.760 -28.911   2.404  1.00  0.00     0.073 C 
HETATM   15  C10 UNL     1     -20.494 -30.363   2.279  1.00  0.00     0.162 C 
HETATM   16  O2  UNL     1     -20.426 -31.050   3.462  1.00  0.00    -0.364 OA
ENDROOT
TORSDOF 0
ENDMDL
MODEL 3
REMARK VINA RESULT: -4.360133796     13.318     13.824
REMARK  0 active torsions:
REMARK  status: ('A' for Active; 'I' for Inactive)
ROOT
HETATM    1  N1  UNL     1     -21.071 -32.409   4.947  1.00  0.00    -0.195 NA
HETATM    2  C1  UNL     1     -20.645 -32.286   3.869  1.00  0.00     0.091 C 
HETATM    3  C2  UNL     1     -20.125 -32.136   2.500  1.00  0.00     0.228 C 
HETATM    4  C3  UNL     1     -19.673 -30.718   2.348  1.00  0.00     0.049 C 
HETATM    5  C4  UNL     1     -20.675 -29.924   1.513  1.00  0.00     0.039 C 
HETATM    6  C5  UNL     1     -20.777 -30.603   0.182  1.00  0.00     0.215 C 
HETATM    7  N2  UNL     1     -22.048 -30.419  -0.466  1.00  0.00    -0.062 N 
ATOM      8  H21 UNL     1     -22.255 -29.464  -0.760  1.00  0.00     0.278 HD
ATOM      9  H22 UNL     1     -22.864 -30.505   0.141  1.00  0.00     0.278 HD
HETATM   10  C6  UNL     1     -21.961 -31.408  -1.550  1.00  0.00     0.218 C 
HETATM   11  C7  UNL     1     -23.303 -31.795  -2.064  1.00  0.00     0.201 C 
HETATM   12  O1  UNL     1     -23.805 -32.818  -1.314  1.00  0.00    -0.389 OA
HETATM   13  C8  UNL     1     -22.892 -33.191  -0.362  1.00  0.00     0.177 C 
HETATM   14  C9  UNL     1     -21.540 -32.669  -0.787  1.00  0.00     0.073 C 
HETATM   15  C10 UNL     1     -20.724 -32.122   0.322  1.00  0.00     0.162 C 
HETATM   16  O2  UNL     1     -21.128 -32.483   1.580  1.00  0.00    -0.364 OA
ENDROOT
TORSDOF 0
ENDMDL
MODEL 4
REMARK VINA RESULT: -4.351745986     13.087     14.129
REMARK  0 active torsions:
REMARK  status: ('A' for Active; 'I' for Inactive)
ROOT
HETATM    1  N1  UNL     1     -20.080 -27.858   6.173  1.00  0.00    -0.195 NA
HETATM    2  C1  UNL     1     -20.587 -28.630   5.463  1.00  0.00     0.091 C 
HETATM    3  C2  UNL     1     -21.208 -29.608   4.554  1.00  0.00     0.228 C 
HETATM    4  C3  UNL     1     -21.698 -30.746   5.393  1.00  0.00     0.049 C 
HETATM    5  C4  UNL     1     -20.777 -31.955   5.247  1.00  0.00     0.039 C 
HETATM    6  C5  UNL     1     -20.758 -32.323   3.796  1.00  0.00     0.215 C 
HETATM    7  N2  UNL     1     -19.542 -32.967   3.377  1.00  0.00    -0.062 N 
ATOM      8  H21 UNL     1     -19.377 -33.892   3.777  1.00  0.00     0.278 HD
ATOM      9  H22 UNL     1     -18.682 -32.556   3.743  1.00  0.00     0.278 HD
HETATM   10  C6  UNL     1     -19.687 -32.929   1.915  1.00  0.00     0.218 C 
HETATM   11  C7  UNL     1     -18.379 -33.060   1.219  1.00  0.00     0.201 C 
HETATM   12  O1  UNL     1     -17.802 -31.830   1.088  1.00  0.00    -0.389 OA
HETATM   13  C8  UNL     1     -18.635 -30.868   1.595  1.00  0.00     0.177 C 
HETATM   14  C9  UNL     1     -20.025 -31.453   1.675  1.00  0.00     0.073 C 
HETATM   15  C10 UNL     1     -20.770 -31.085   2.903  1.00  0.00     0.162 C 
HETATM   16  O2  UNL     1     -20.267 -30.014   3.593  1.00  0.00    -0.364 OA
ENDROOT
TORSDOF 0
ENDMDL
MODEL 5
REMARK VINA RESULT: -4.128158674     12.787     13.793
REMARK  0 active torsions:
REMARK  status: ('A' for Active; 'I' for Inactive)
ROOT
HETATM    1  N1  UNL     1     -20.980 -31.972   7.928  1.00  0.00    -0.195 NA
HETATM    2  C1  UNL     1     -21.283 -31.721   6.831  1.00  0.00     0.091 C 
HETATM    3  C2  UNL     1     -21.654 -31.387   5.446  1.00  0.00     0.228 C 
HETATM    4  C3  UNL     1     -21.289 -32.560   4.593  1.00  0.00     0.049 C 
HETATM    5  C4  UNL     1     -20.024 -32.267   3.790  1.00  0.00     0.039 C 
HETATM    6  C5  UNL     1     -20.303 -31.056   2.953  1.00  0.00     0.215 C 
HETATM    7  N2  UNL     1     -19.131 -30.284   2.642  1.00  0.00    -0.062 N 
ATOM      8  H21 UNL     1     -18.452 -30.743   2.034  1.00  0.00     0.278 HD
ATOM      9  H22 UNL     1     -18.480 -30.148   3.416  1.00  0.00     0.278 HD
HETATM   10  C6  UNL     1     -19.732 -29.056   2.102  1.00  0.00     0.218 C 
HETATM   11  C7  UNL     1     -18.799 -27.899   2.170  1.00  0.00     0.201 C 
HETATM   12  O1  UNL     1     -18.909 -27.290   3.386  1.00  0.00    -0.389 OA
HETATM   13  C8  UNL     1     -19.875 -27.912   4.133  1.00  0.00     0.177 C 
HETATM   14  C9  UNL     1     -20.751 -28.704   3.192  1.00  0.00     0.073 C 
HETATM   15  C10 UNL     1     -21.150 -30.035   3.708  1.00  0.00     0.162 C 
HETATM   16  O2  UNL     1     -20.990 -30.211   5.057  1.00  0.00    -0.364 OA
ENDROOT
TORSDOF 0
ENDMDL
