MODEL 1
REMARK VINA RESULT: -3.882583801      0.000      0.000
REMARK  1 active torsions:
REMARK  status: ('A' for Active; 'I' for Inactive)
REMARK    1  A    between atoms: N1_1  and  C1_5 
ROOT
HETATM    1  C1  UNL     1     -21.888 -32.368  -0.304  1.00  0.00     0.192 C 
HETATM    2  C2  UNL     1     -20.838 -32.639  -1.387  1.00  0.00     0.065 C 
HETATM    3  C3  UNL     1     -20.024 -31.541  -0.682  1.00  0.00     0.136 C 
HETATM    4  O1  UNL     1     -18.707 -31.853  -0.534  1.00  0.00    -0.327 OA
HETATM    5  C4  UNL     1     -18.517 -32.600   0.593  1.00  0.00     0.282 C 
HETATM    6  C5  UNL     1     -19.869 -33.058   1.091  1.00  0.00     0.111 C 
HETATM    7  C6  UNL     1     -20.758 -31.953   0.578  1.00  0.00     0.053 C 
HETATM    8  O2  UNL     1     -17.663 -33.655   0.335  1.00  0.00    -0.333 OA
HETATM    9  C7  UNL     1     -16.374 -33.156   0.161  1.00  0.00     0.176 C 
HETATM   10  C8  UNL     1     -15.877 -32.777   1.564  1.00  0.00     0.053 C 
HETATM   11  C9  UNL     1     -17.159 -32.553   2.378  1.00  0.00     0.176 C 
HETATM   12  O3  UNL     1     -17.968 -31.738   1.572  1.00  0.00    -0.333 OA
ENDROOT
BRANCH   1  13
HETATM   13  N1  UNL     1     -22.653 -33.502   0.097  1.00  0.00    -0.074 N 
ATOM     14  H13 UNL     1     -22.435 -34.301  -0.497  1.00  0.00     0.274 HD
ATOM     15  H12 UNL     1     -22.319 -33.850   0.996  1.00  0.00     0.274 HD
ATOM     16  H11 UNL     1     -23.663 -33.355   0.131  1.00  0.00     0.274 HD
ENDBRANCH   1  13
TORSDOF 1
ENDMDL
MODEL 2
REMARK VINA RESULT: -3.822146096      1.917      2.483
REMARK  1 active torsions:
REMARK  status: ('A' for Active; 'I' for Inactive)
REMARK    1  A    between atoms: N1_1  and  C1_5 
ROOT
HETATM    1  C1  UNL     1     -22.778 -32.647  -2.392  1.00  0.00     0.192 C 
HETATM    2  C2  UNL     1     -21.288 -32.955  -2.571  1.00  0.00     0.065 C 
HETATM    3  C3  UNL     1     -21.065 -31.761  -1.628  1.00  0.00     0.136 C 
HETATM    4  O1  UNL     1     -20.121 -31.992  -0.674  1.00  0.00    -0.327 OA
HETATM    5  C4  UNL     1     -20.674 -32.629   0.400  1.00  0.00     0.282 C 
HETATM    6  C5  UNL     1     -22.052 -33.110   0.007  1.00  0.00     0.111 C 
HETATM    7  C6  UNL     1     -22.424 -32.100  -1.049  1.00  0.00     0.053 C 
HETATM    8  O2  UNL     1     -19.855 -33.657   0.826  1.00  0.00    -0.333 OA
HETATM    9  C7  UNL     1     -18.725 -33.110   1.429  1.00  0.00     0.176 C 
HETATM   10  C8  UNL     1     -19.191 -32.588   2.796  1.00  0.00     0.053 C 
HETATM   11  C9  UNL     1     -20.700 -32.360   2.627  1.00  0.00     0.176 C 
HETATM   12  O3  UNL     1     -20.832 -31.659   1.419  1.00  0.00    -0.333 OA
ENDROOT
BRANCH   1  13
HETATM   13  N1  UNL     1     -23.643 -33.779  -2.434  1.00  0.00    -0.074 N 
ATOM     14  H13 UNL     1     -24.555 -33.509  -2.802  1.00  0.00     0.274 HD
ATOM     15  H12 UNL     1     -23.339 -34.425  -3.163  1.00  0.00     0.274 HD
ATOM     16  H11 UNL     1     -23.754 -34.274  -1.549  1.00  0.00     0.274 HD
ENDBRANCH   1  13
TORSDOF 1
ENDMDL
MODEL 3
REMARK VINA RESULT: -3.659768974     12.400     14.128
REMARK  1 active torsions:
REMARK  status: ('A' for Active; 'I' for Inactive)
REMARK    1  A    between atoms: N1_1  and  C1_5 
ROOT
HETATM    1  C1  UNL     1     -34.955 -28.375   3.707  1.00  0.00     0.192 C 
HETATM    2  C2  UNL     1     -34.092 -28.999   4.809  1.00  0.00     0.065 C 
HETATM    3  C3  UNL     1     -33.319 -29.649   3.648  1.00  0.00     0.136 C 
HETATM    4  O1  UNL     1     -31.967 -29.600   3.803  1.00  0.00    -0.327 OA
HETATM    5  C4  UNL     1     -31.478 -28.408   3.351  1.00  0.00     0.282 C 
HETATM    6  C5  UNL     1     -32.643 -27.471   3.129  1.00  0.00     0.111 C 
HETATM    7  C6  UNL     1     -33.751 -28.449   2.829  1.00  0.00     0.053 C 
HETATM    8  O2  UNL     1     -30.549 -27.899   4.238  1.00  0.00    -0.333 OA
HETATM    9  C7  UNL     1     -29.393 -28.673   4.170  1.00  0.00     0.176 C 
HETATM   10  C8  UNL     1     -28.707 -28.286   2.852  1.00  0.00     0.053 C 
HETATM   11  C9  UNL     1     -29.838 -27.727   1.978  1.00  0.00     0.176 C 
HETATM   12  O3  UNL     1     -30.882 -28.658   2.090  1.00  0.00    -0.333 OA
ENDROOT
BRANCH   1  13
HETATM   13  N1  UNL     1     -35.475 -27.081   4.002  1.00  0.00    -0.074 N 
ATOM     14  H13 UNL     1     -34.768 -26.518   4.476  1.00  0.00     0.274 HD
ATOM     15  H12 UNL     1     -35.585 -26.543   3.143  1.00  0.00     0.274 HD
ATOM     16  H11 UNL     1     -36.345 -27.073   4.536  1.00  0.00     0.274 HD
ENDBRANCH   1  13
TORSDOF 1
ENDMDL
MODEL 4
REMARK VINA RESULT: -3.639966294      5.918      7.468
REMARK  1 active torsions:
REMARK  status: ('A' for Active; 'I' for Inactive)
REMARK    1  A    between atoms: N1_1  and  C1_5 
ROOT
HETATM    1  C1  UNL     1     -20.946 -29.119   4.292  1.00  0.00     0.192 C 
HETATM    2  C2  UNL     1     -22.377 -28.653   4.580  1.00  0.00     0.065 C 
HETATM    3  C3  UNL     1     -21.929 -27.326   3.945  1.00  0.00     0.136 C 
HETATM    4  O1  UNL     1     -22.844 -26.800   3.084  1.00  0.00    -0.327 OA
HETATM    5  C4  UNL     1     -22.700 -27.347   1.841  1.00  0.00     0.282 C 
HETATM    6  C5  UNL     1     -21.786 -28.546   1.954  1.00  0.00     0.111 C 
HETATM    7  C6  UNL     1     -20.947 -28.161   3.148  1.00  0.00     0.053 C 
HETATM    8  O2  UNL     1     -23.934 -27.670   1.310  1.00  0.00    -0.333 OA
HETATM    9  C7  UNL     1     -24.601 -26.493   0.976  1.00  0.00     0.176 C 
HETATM   10  C8  UNL     1     -23.917 -25.971  -0.296  1.00  0.00     0.053 C 
HETATM   11  C9  UNL     1     -22.516 -26.598  -0.266  1.00  0.00     0.176 C 
HETATM   12  O3  UNL     1     -22.045 -26.382   1.039  1.00  0.00    -0.333 OA
ENDROOT
BRANCH   1  13
HETATM   13  N1  UNL     1     -20.808 -30.505   3.989  1.00  0.00    -0.074 N 
ATOM     14  H13 UNL     1     -21.226 -30.709   3.081  1.00  0.00     0.274 HD
ATOM     15  H12 UNL     1     -19.832 -30.725   3.791  1.00  0.00     0.274 HD
ATOM     16  H11 UNL     1     -21.176 -31.143   4.696  1.00  0.00     0.274 HD
ENDBRANCH   1  13
TORSDOF 1
ENDMDL
MODEL 5
REMARK VINA RESULT: -3.637420232      2.622      4.356
REMARK  1 active torsions:
REMARK  status: ('A' for Active; 'I' for Inactive)
REMARK    1  A    between atoms: N1_1  and  C1_5 
ROOT
HETATM    1  C1  UNL     1     -20.154 -32.263   3.587  1.00  0.00     0.192 C 
HETATM    2  C2  UNL     1     -20.465 -30.830   3.141  1.00  0.00     0.065 C 
HETATM    3  C3  UNL     1     -19.552 -31.148   1.945  1.00  0.00     0.136 C 
HETATM    4  O1  UNL     1     -20.049 -30.715   0.754  1.00  0.00    -0.327 OA
HETATM    5  C4  UNL     1     -20.912 -31.636   0.233  1.00  0.00     0.282 C 
HETATM    6  C5  UNL     1     -21.227 -32.650   1.308  1.00  0.00     0.111 C 
HETATM    7  C6  UNL     1     -19.972 -32.591   2.143  1.00  0.00     0.053 C 
HETATM    8  O2  UNL     1     -22.044 -31.015  -0.258  1.00  0.00    -0.333 OA
HETATM    9  C7  UNL     1     -21.707 -30.321  -1.419  1.00  0.00     0.176 C 
HETATM   10  C8  UNL     1     -21.524 -31.389  -2.507  1.00  0.00     0.053 C 
HETATM   11  C9  UNL     1     -21.204 -32.676  -1.734  1.00  0.00     0.176 C 
HETATM   12  O3  UNL     1     -20.220 -32.310  -0.803  1.00  0.00    -0.333 OA
ENDROOT
BRANCH   1  13
HETATM   13  N1  UNL     1     -21.206 -32.924   4.285  1.00  0.00    -0.074 N 
ATOM     14  H13 UNL     1     -21.274 -33.895   3.979  1.00  0.00     0.274 HD
ATOM     15  H12 UNL     1     -20.947 -33.062   5.262  1.00  0.00     0.274 HD
ATOM     16  H11 UNL     1     -22.119 -32.473   4.224  1.00  0.00     0.274 HD
ENDBRANCH   1  13
TORSDOF 1
ENDMDL
