MODEL 1
REMARK VINA RESULT: -4.026127101      0.000      0.000
REMARK  2 active torsions:
REMARK  status: ('A' for Active; 'I' for Inactive)
REMARK    1  A    between atoms: C5_5  and  N1_6 
REMARK    2  A    between atoms: C8_12  and  O1_13 
ROOT
HETATM    1  C1  UNL     1      24.283  33.065  -7.352  1.00  0.00     0.016 C 
HETATM    2  C2  UNL     1      24.852  32.951  -6.004  1.00  0.00    -0.029 C 
HETATM    3  C3  UNL     1      26.166  32.194  -5.876  1.00  0.00     0.012 C 
HETATM    4  C4  UNL     1      26.983  32.945  -4.816  1.00  0.00     0.040 C 
HETATM    5  C5  UNL     1      25.873  33.683  -4.101  1.00  0.00     0.131 C 
HETATM    6  C6  UNL     1      24.871  32.593  -3.673  1.00  0.00     0.047 C 
HETATM    7  C7  UNL     1      23.910  32.723  -4.852  1.00  0.00     0.026 C 
HETATM    8  C8  UNL     1      23.696  34.220  -4.824  1.00  0.00     0.130 C 
HETATM    9  C9  UNL     1      25.126  34.270  -5.263  1.00  0.00     0.059 C 
ENDROOT
BRANCH   5  10
HETATM   10  N1  UNL     1      26.257  34.551  -3.084  1.00  0.00    -0.070 N 
ATOM     11  H13 UNL     1      26.834  34.052  -2.407  1.00  0.00     0.275 HD
ATOM     12  H12 UNL     1      26.934  35.225  -3.445  1.00  0.00     0.275 HD
ATOM     13  H11 UNL     1      25.508  35.045  -2.598  1.00  0.00     0.275 HD
ENDBRANCH   5  10
BRANCH   8  14
HETATM   14  O1  UNL     1      22.750  34.725  -5.660  1.00  0.00    -0.395 OA
ATOM     15  H1  UNL     1      22.966  34.765  -6.584  1.00  0.00     0.210 HD
ENDBRANCH   8  14
TORSDOF 2
ENDMDL
MODEL 2
REMARK VINA RESULT: -3.959815664      3.611      4.887
REMARK  2 active torsions:
REMARK  status: ('A' for Active; 'I' for Inactive)
REMARK    1  A    between atoms: C5_5  and  N1_6 
REMARK    2  A    between atoms: C8_12  and  O1_13 
ROOT
HETATM    1  C1  UNL     1      29.142  29.373  -4.359  1.00  0.00     0.016 C 
HETATM    2  C2  UNL     1      28.783  30.728  -4.794  1.00  0.00    -0.029 C 
HETATM    3  C3  UNL     1      28.141  30.859  -6.168  1.00  0.00     0.012 C 
HETATM    4  C4  UNL     1      27.075  31.956  -6.031  1.00  0.00     0.040 C 
HETATM    5  C5  UNL     1      27.588  32.669  -4.800  1.00  0.00     0.131 C 
HETATM    6  C6  UNL     1      29.046  33.047  -5.129  1.00  0.00     0.047 C 
HETATM    7  C7  UNL     1      29.723  31.854  -4.458  1.00  0.00     0.026 C 
HETATM    8  C8  UNL     1      29.045  31.921  -3.108  1.00  0.00     0.130 C 
HETATM    9  C9  UNL     1      27.829  31.511  -3.877  1.00  0.00     0.059 C 
ENDROOT
BRANCH   5  10
HETATM   10  N1  UNL     1      26.810  33.718  -4.320  1.00  0.00    -0.070 N 
ATOM     11  H13 UNL     1      26.769  34.462  -5.017  1.00  0.00     0.275 HD
ATOM     12  H12 UNL     1      25.830  33.434  -4.293  1.00  0.00     0.275 HD
ATOM     13  H11 UNL     1      27.078  34.109  -3.417  1.00  0.00     0.275 HD
ENDBRANCH   5  10
BRANCH   8  14
HETATM   14  O1  UNL     1      29.507  31.082  -2.142  1.00  0.00    -0.395 OA
ATOM     15  H1  UNL     1      28.932  30.377  -1.871  1.00  0.00     0.210 HD
ENDBRANCH   8  14
TORSDOF 2
ENDMDL
MODEL 3
REMARK VINA RESULT: -3.784064538     14.560     15.557
REMARK  2 active torsions:
REMARK  status: ('A' for Active; 'I' for Inactive)
REMARK    1  A    between atoms: C5_5  and  N1_6 
REMARK    2  A    between atoms: C8_12  and  O1_13 
ROOT
HETATM    1  C1  UNL     1      33.331  20.260  -3.734  1.00  0.00     0.016 C 
HETATM    2  C2  UNL     1      32.308  20.548  -2.722  1.00  0.00    -0.029 C 
HETATM    3  C3  UNL     1      30.997  21.141  -3.220  1.00  0.00     0.012 C 
HETATM    4  C4  UNL     1      29.894  20.501  -2.368  1.00  0.00     0.040 C 
HETATM    5  C5  UNL     1      30.709  20.056  -1.173  1.00  0.00     0.131 C 
HETATM    6  C6  UNL     1      31.427  21.325  -0.677  1.00  0.00     0.047 C 
HETATM    7  C7  UNL     1      32.755  21.104  -1.397  1.00  0.00     0.026 C 
HETATM    8  C8  UNL     1      33.024  19.677  -0.971  1.00  0.00     0.130 C 
HETATM    9  C9  UNL     1      31.855  19.365  -1.851  1.00  0.00     0.059 C 
ENDROOT
BRANCH   5  10
HETATM   10  N1  UNL     1      30.029  19.348  -0.186  1.00  0.00    -0.070 N 
ATOM     11  H13 UNL     1      30.228  19.758   0.727  1.00  0.00     0.275 HD
ATOM     12  H12 UNL     1      29.028  19.532  -0.259  1.00  0.00     0.275 HD
ATOM     13  H11 UNL     1      30.191  18.342  -0.153  1.00  0.00     0.275 HD
ENDBRANCH   5  10
BRANCH   8  14
HETATM   14  O1  UNL     1      34.235  19.152  -1.300  1.00  0.00    -0.395 OA
ATOM     15  H1  UNL     1      34.245  18.468  -1.959  1.00  0.00     0.210 HD
ENDBRANCH   8  14
TORSDOF 2
ENDMDL
MODEL 4
REMARK VINA RESULT: -3.759168859     11.509     12.351
REMARK  2 active torsions:
REMARK  status: ('A' for Active; 'I' for Inactive)
REMARK    1  A    between atoms: C5_5  and  N1_6 
REMARK    2  A    between atoms: C8_12  and  O1_13 
ROOT
HETATM    1  C1  UNL     1      27.964  24.182  -3.828  1.00  0.00     0.016 C 
HETATM    2  C2  UNL     1      28.365  22.774  -3.729  1.00  0.00    -0.029 C 
HETATM    3  C3  UNL     1      29.389  22.280  -4.741  1.00  0.00     0.012 C 
HETATM    4  C4  UNL     1      30.301  21.309  -3.978  1.00  0.00     0.040 C 
HETATM    5  C5  UNL     1      29.399  20.958  -2.816  1.00  0.00     0.131 C 
HETATM    6  C6  UNL     1      28.093  20.447  -3.457  1.00  0.00     0.047 C 
HETATM    7  C7  UNL     1      27.309  21.755  -3.394  1.00  0.00     0.026 C 
HETATM    8  C8  UNL     1      27.536  22.103  -1.940  1.00  0.00     0.130 C 
HETATM    9  C9  UNL     1      28.949  22.322  -2.381  1.00  0.00     0.059 C 
ENDROOT
BRANCH   5  10
HETATM   10  N1  UNL     1      29.936  20.121  -1.843  1.00  0.00    -0.070 N 
ATOM     11  H13 UNL     1      30.123  19.202  -2.246  1.00  0.00     0.275 HD
ATOM     12  H12 UNL     1      30.884  20.422  -1.616  1.00  0.00     0.275 HD
ATOM     13  H11 UNL     1      29.395  20.014  -0.985  1.00  0.00     0.275 HD
ENDBRANCH   5  10
BRANCH   8  14
HETATM   14  O1  UNL     1      26.847  23.165  -1.443  1.00  0.00    -0.395 OA
ATOM     15  H1  UNL     1      27.275  24.012  -1.475  1.00  0.00     0.210 HD
ENDBRANCH   8  14
TORSDOF 2
ENDMDL
MODEL 5
REMARK VINA RESULT: -3.751404958      1.933      2.873
REMARK  2 active torsions:
REMARK  status: ('A' for Active; 'I' for Inactive)
REMARK    1  A    between atoms: C5_5  and  N1_6 
REMARK    2  A    between atoms: C8_12  and  O1_13 
ROOT
HETATM    1  C1  UNL     1      24.565  35.876  -6.058  1.00  0.00     0.016 C 
HETATM    2  C2  UNL     1      24.502  34.720  -5.157  1.00  0.00    -0.029 C 
HETATM    3  C3  UNL     1      24.454  35.015  -3.664  1.00  0.00     0.012 C 
HETATM    4  C4  UNL     1      23.501  33.974  -3.060  1.00  0.00     0.040 C 
HETATM    5  C5  UNL     1      23.547  32.916  -4.140  1.00  0.00     0.131 C 
HETATM    6  C6  UNL     1      25.041  32.583  -4.318  1.00  0.00     0.047 C 
HETATM    7  C7  UNL     1      25.317  33.503  -5.504  1.00  0.00     0.026 C 
HETATM    8  C8  UNL     1      24.175  33.084  -6.404  1.00  0.00     0.130 C 
HETATM    9  C9  UNL     1      23.327  33.751  -5.367  1.00  0.00     0.059 C 
ENDROOT
BRANCH   5  10
HETATM   10  N1  UNL     1      22.721  31.810  -3.963  1.00  0.00    -0.070 N 
ATOM     11  H13 UNL     1      22.461  31.731  -2.979  1.00  0.00     0.275 HD
ATOM     12  H12 UNL     1      21.809  31.992  -4.382  1.00  0.00     0.275 HD
ATOM     13  H11 UNL     1      23.079  30.916  -4.296  1.00  0.00     0.275 HD
ENDBRANCH   5  10
BRANCH   8  14
HETATM   14  O1  UNL     1      24.165  33.590  -7.666  1.00  0.00    -0.395 OA
ATOM     15  H1  UNL     1      23.431  34.145  -7.903  1.00  0.00     0.210 HD
ENDBRANCH   8  14
TORSDOF 2
ENDMDL
