MODEL 1
REMARK VINA RESULT: -3.912476005      0.000      0.000
REMARK  2 active torsions:
REMARK  status: ('A' for Active; 'I' for Inactive)
REMARK    1  A    between atoms: C5_5  and  O1_6 
REMARK    2  A    between atoms: C6_8  and  O2_9 
ROOT
HETATM    1  C1  UNL     1      27.092  31.967  -2.933  1.00  0.00     0.016 C 
HETATM    2  C2  UNL     1      27.412  32.405  -4.345  1.00  0.00    -0.036 C 
HETATM    3  C3  UNL     1      26.107  32.613  -5.041  1.00  0.00     0.016 C 
HETATM    4  C4  UNL     1      28.104  33.768  -4.220  1.00  0.00     0.044 C 
HETATM    5  C5  UNL     1      29.196  33.731  -5.289  1.00  0.00     0.148 C 
HETATM    6  C6  UNL     1      29.695  32.320  -5.158  1.00  0.00     0.155 C 
HETATM    7  C7  UNL     1      28.382  31.540  -5.047  1.00  0.00    -0.012 C 
HETATM    8  C8  UNL     1      28.593  30.190  -4.412  1.00  0.00     0.018 C 
HETATM    9  C9  UNL     1      27.984  31.263  -6.504  1.00  0.00     0.018 C 
ENDROOT
BRANCH   5  10
HETATM   10  O1  UNL     1      30.192  34.647  -5.053  1.00  0.00    -0.393 OA
ATOM     11  H1  UNL     1      31.025  34.234  -4.857  1.00  0.00     0.210 HD
ENDBRANCH   5  10
BRANCH   6  12
HETATM   12  O2  UNL     1      30.541  32.105  -4.118  1.00  0.00    -0.392 OA
ATOM     13  H2  UNL     1      30.484  31.241  -3.726  1.00  0.00     0.210 HD
ENDBRANCH   6  12
TORSDOF 2
ENDMDL
MODEL 2
REMARK VINA RESULT: -3.853844911     12.237     13.256
REMARK  2 active torsions:
REMARK  status: ('A' for Active; 'I' for Inactive)
REMARK    1  A    between atoms: C5_5  and  O1_6 
REMARK    2  A    between atoms: C6_8  and  O2_9 
ROOT
HETATM    1  C1  UNL     1      31.225  19.262   1.068  1.00  0.00     0.016 C 
HETATM    2  C2  UNL     1      31.433  20.438   0.139  1.00  0.00    -0.036 C 
HETATM    3  C3  UNL     1      30.230  21.313   0.272  1.00  0.00     0.016 C 
HETATM    4  C4  UNL     1      32.641  21.205   0.690  1.00  0.00     0.044 C 
HETATM    5  C5  UNL     1      33.401  21.651  -0.559  1.00  0.00     0.148 C 
HETATM    6  C6  UNL     1      33.279  20.436  -1.433  1.00  0.00     0.155 C 
HETATM    7  C7  UNL     1      31.806  20.066  -1.241  1.00  0.00    -0.012 C 
HETATM    8  C8  UNL     1      31.546  18.625  -1.595  1.00  0.00     0.018 C 
HETATM    9  C9  UNL     1      31.067  20.899  -2.299  1.00  0.00     0.018 C 
ENDROOT
BRANCH   5  10
HETATM   10  O1  UNL     1      34.713  21.957  -0.293  1.00  0.00    -0.393 OA
ATOM     11  H1  UNL     1      34.848  22.889  -0.162  1.00  0.00     0.210 HD
ENDBRANCH   5  10
BRANCH   6  12
HETATM   12  O2  UNL     1      34.133  19.424  -1.131  1.00  0.00    -0.392 OA
ATOM     13  H2  UNL     1      33.781  18.761  -0.548  1.00  0.00     0.210 HD
ENDBRANCH   6  12
TORSDOF 2
ENDMDL
MODEL 3
REMARK VINA RESULT: -3.833494513      1.112      2.166
REMARK  2 active torsions:
REMARK  status: ('A' for Active; 'I' for Inactive)
REMARK    1  A    between atoms: C5_5  and  O1_6 
REMARK    2  A    between atoms: C6_8  and  O2_9 
ROOT
HETATM    1  C1  UNL     1      29.161  29.955  -4.480  1.00  0.00     0.016 C 
HETATM    2  C2  UNL     1      28.615  31.319  -4.120  1.00  0.00    -0.036 C 
HETATM    3  C3  UNL     1      27.700  31.128  -2.955  1.00  0.00     0.016 C 
HETATM    4  C4  UNL     1      29.817  32.146  -3.647  1.00  0.00     0.044 C 
HETATM    5  C5  UNL     1      29.556  33.541  -4.214  1.00  0.00     0.148 C 
HETATM    6  C6  UNL     1      29.019  33.214  -5.578  1.00  0.00     0.155 C 
HETATM    7  C7  UNL     1      28.052  32.071  -5.260  1.00  0.00    -0.012 C 
HETATM    8  C8  UNL     1      27.763  31.236  -6.481  1.00  0.00     0.018 C 
HETATM    9  C9  UNL     1      26.734  32.777  -4.912  1.00  0.00     0.018 C 
ENDROOT
BRANCH   5  10
HETATM   10  O1  UNL     1      30.699  34.300  -4.285  1.00  0.00    -0.393 OA
ATOM     11  H1  UNL     1      31.488  33.773  -4.232  1.00  0.00     0.210 HD
ENDBRANCH   5  10
BRANCH   6  12
HETATM   12  O2  UNL     1      29.959  32.886  -6.501  1.00  0.00    -0.392 OA
ATOM     13  H2  UNL     1      29.695  33.012  -7.405  1.00  0.00     0.210 HD
ENDBRANCH   6  12
TORSDOF 2
ENDMDL
MODEL 4
REMARK VINA RESULT: -3.816480819      3.914      5.264
REMARK  2 active torsions:
REMARK  status: ('A' for Active; 'I' for Inactive)
REMARK    1  A    between atoms: C5_5  and  O1_6 
REMARK    2  A    between atoms: C6_8  and  O2_9 
ROOT
HETATM    1  C1  UNL     1      24.063  32.383  -3.231  1.00  0.00     0.016 C 
HETATM    2  C2  UNL     1      24.956  33.016  -4.275  1.00  0.00    -0.036 C 
HETATM    3  C3  UNL     1      26.350  32.565  -3.986  1.00  0.00     0.016 C 
HETATM    4  C4  UNL     1      24.532  32.412  -5.620  1.00  0.00     0.044 C 
HETATM    5  C5  UNL     1      24.620  33.584  -6.598  1.00  0.00     0.148 C 
HETATM    6  C6  UNL     1      24.070  34.708  -5.769  1.00  0.00     0.155 C 
HETATM    7  C7  UNL     1      24.773  34.474  -4.430  1.00  0.00    -0.012 C 
HETATM    8  C8  UNL     1      24.037  35.138  -3.295  1.00  0.00     0.018 C 
HETATM    9  C9  UNL     1      26.105  35.227  -4.566  1.00  0.00     0.018 C 
ENDROOT
BRANCH   5  10
HETATM   10  O1  UNL     1      23.874  33.375  -7.732  1.00  0.00    -0.393 OA
ATOM     11  H1  UNL     1      24.260  33.782  -8.500  1.00  0.00     0.210 HD
ENDBRANCH   5  10
BRANCH   6  12
HETATM   12  O2  UNL     1      22.716  34.739  -5.670  1.00  0.00    -0.392 OA
ATOM     13  H2  UNL     1      22.357  35.549  -5.326  1.00  0.00     0.210 HD
ENDBRANCH   6  12
TORSDOF 2
ENDMDL
MODEL 5
REMARK VINA RESULT: -3.806950183      9.517     11.222
REMARK  2 active torsions:
REMARK  status: ('A' for Active; 'I' for Inactive)
REMARK    1  A    between atoms: C5_5  and  O1_6 
REMARK    2  A    between atoms: C6_8  and  O2_9 
ROOT
HETATM    1  C1  UNL     1      28.653  20.811  -5.692  1.00  0.00     0.016 C 
HETATM    2  C2  UNL     1      29.128  21.454  -4.408  1.00  0.00    -0.036 C 
HETATM    3  C3  UNL     1      30.615  21.561  -4.500  1.00  0.00     0.016 C 
HETATM    4  C4  UNL     1      28.550  22.874  -4.405  1.00  0.00     0.044 C 
HETATM    5  C5  UNL     1      28.159  23.114  -2.946  1.00  0.00     0.148 C 
HETATM    6  C6  UNL     1      27.584  21.780  -2.567  1.00  0.00     0.155 C 
HETATM    7  C7  UNL     1      28.606  20.820  -3.179  1.00  0.00    -0.012 C 
HETATM    8  C8  UNL     1      28.023  19.445  -3.382  1.00  0.00     0.018 C 
HETATM    9  C9  UNL     1      29.678  20.666  -2.091  1.00  0.00     0.018 C 
ENDROOT
BRANCH   5  10
HETATM   10  O1  UNL     1      27.238  24.124  -2.811  1.00  0.00    -0.393 OA
ATOM     11  H1  UNL     1      26.343  23.807  -2.862  1.00  0.00     0.210 HD
ENDBRANCH   5  10
BRANCH   6  12
HETATM   12  O2  UNL     1      26.314  21.561  -2.994  1.00  0.00    -0.392 OA
ATOM     13  H2  UNL     1      25.957  20.708  -2.774  1.00  0.00     0.210 HD
ENDBRANCH   6  12
TORSDOF 2
ENDMDL
