MODEL 1
REMARK VINA RESULT: -6.076985339      0.000      0.000
REMARK  8 active torsions:
REMARK  status: ('A' for Active; 'I' for Inactive)
REMARK    1  A    between atoms: C3_3  and  O1_4 
REMARK    2  A    between atoms: C4_7  and  C6_9 
REMARK    3  A    between atoms: C6_9  and  O4_11 
REMARK    4  A    between atoms: O4_11  and  C7_12 
REMARK    5  A    between atoms: C9_14  and  O5_15 
REMARK    6  A    between atoms: C10_17  and  N1_18 
REMARK    7  A    between atoms: N1_18  and  C11_20 
REMARK    8  A    between atoms: C11_20  and  S2_22 
ROOT
HETATM    1  C1  UNL     1     -16.720  34.107  -1.712  1.00  0.00     0.017 C 
HETATM    2  C2  UNL     1     -17.333  34.610  -2.633  1.00  0.00    -0.047 C 
HETATM    3  C3  UNL     1     -18.108  35.234  -3.743  1.00  0.00     0.254 C 
HETATM    4  O2  UNL     1     -17.598  34.811  -4.948  1.00  0.00    -0.319 OA
HETATM    5  C4  UNL     1     -16.968  35.869  -5.561  1.00  0.00     0.177 C 
HETATM    6  C5  UNL     1     -17.251  35.869  -7.070  1.00  0.00     0.060 C 
HETATM    7  C9  UNL     1     -17.481  37.139  -4.984  1.00  0.00     0.191 C 
HETATM    8  C10 UNL     1     -18.077  36.710  -3.664  1.00  0.00     0.191 C 
ENDROOT
BRANCH   3   9
HETATM    9  O1  UNL     1     -19.403  34.760  -3.563  1.00  0.00    -0.354 OA
ATOM     10  H1  UNL     1     -19.937  35.335  -4.099  1.00  0.00     0.214 HD
ENDBRANCH   3   9
BRANCH   8  11
HETATM   11  N1  UNL     1     -19.302  37.371  -3.337  1.00  0.00    -0.362 N 
ATOM     12  H1  UNL     1     -19.950  37.510  -4.112  1.00  0.00     0.161 HD
BRANCH  11  13
HETATM   13  C11 UNL     1     -19.731  37.856  -2.089  1.00  0.00     0.134 C 
HETATM   14  S1  UNL     1     -19.305  37.242  -0.644  1.00  0.00    -0.053 SA
BRANCH  13  15
HETATM   15  S2  UNL     1     -20.859  39.269  -2.014  1.00  0.00    -0.105 SA
HETATM   16  C12 UNL     1     -21.666  39.404  -0.420  1.00  0.00     0.098 C 
ENDBRANCH  13  15
ENDBRANCH  11  13
ENDBRANCH   8  11
BRANCH   5  17
HETATM   17  C6  UNL     1     -15.500  35.696  -5.420  1.00  0.00     0.296 C 
HETATM   18  O3  UNL     1     -14.925  35.654  -4.307  1.00  0.00    -0.262 OA
BRANCH  17  19
HETATM   19  O4  UNL     1     -14.723  35.575  -6.558  1.00  0.00    -0.319 OA
BRANCH  19  20
HETATM   20  C7  UNL     1     -13.837  34.479  -6.683  1.00  0.00     0.174 C 
HETATM   21  C8  UNL     1     -14.207  33.737  -7.947  1.00  0.00     0.034 C 
ENDBRANCH  19  20
ENDBRANCH  17  19
ENDBRANCH   5  17
BRANCH   7  22
HETATM   22  O5  UNL     1     -16.433  38.071  -4.797  1.00  0.00    -0.390 OA
ATOM     23  H5  UNL     1     -16.767  38.961  -4.790  1.00  0.00     0.210 HD
ENDBRANCH   7  22
TORSDOF 8
ENDMDL
MODEL 2
REMARK VINA RESULT: -5.956749382      3.369      6.013
REMARK  8 active torsions:
REMARK  status: ('A' for Active; 'I' for Inactive)
REMARK    1  A    between atoms: C3_3  and  O1_4 
REMARK    2  A    between atoms: C4_7  and  C6_9 
REMARK    3  A    between atoms: C6_9  and  O4_11 
REMARK    4  A    between atoms: O4_11  and  C7_12 
REMARK    5  A    between atoms: C9_14  and  O5_15 
REMARK    6  A    between atoms: C10_17  and  N1_18 
REMARK    7  A    between atoms: N1_18  and  C11_20 
REMARK    8  A    between atoms: C11_20  and  S2_22 
ROOT
HETATM    1  C1  UNL     1     -14.441  34.781  -4.380  1.00  0.00     0.017 C 
HETATM    2  C2  UNL     1     -15.406  35.468  -4.652  1.00  0.00    -0.047 C 
HETATM    3  C3  UNL     1     -16.583  36.309  -5.014  1.00  0.00     0.254 C 
HETATM    4  O2  UNL     1     -17.052  36.943  -3.889  1.00  0.00    -0.319 OA
HETATM    5  C4  UNL     1     -18.270  36.402  -3.547  1.00  0.00     0.177 C 
HETATM    6  C5  UNL     1     -19.240  37.497  -3.083  1.00  0.00     0.060 C 
HETATM    7  C9  UNL     1     -18.852  35.729  -4.737  1.00  0.00     0.191 C 
HETATM    8  C10 UNL     1     -17.657  35.503  -5.633  1.00  0.00     0.191 C 
ENDROOT
BRANCH   3   9
HETATM    9  O1  UNL     1     -16.075  37.231  -5.924  1.00  0.00    -0.354 OA
ATOM     10  H1  UNL     1     -16.491  38.050  -5.681  1.00  0.00     0.214 HD
ENDBRANCH   3   9
BRANCH   8  11
HETATM   11  N1  UNL     1     -17.920  35.723  -7.021  1.00  0.00    -0.362 N 
ATOM     12  H1  UNL     1     -18.243  36.658  -7.266  1.00  0.00     0.161 HD
BRANCH  11  13
HETATM   13  C11 UNL     1     -17.794  34.821  -8.091  1.00  0.00     0.134 C 
HETATM   14  S1  UNL     1     -18.836  34.681  -9.333  1.00  0.00    -0.053 SA
BRANCH  13  15
HETATM   15  S2  UNL     1     -16.385  33.686  -8.148  1.00  0.00    -0.105 SA
HETATM   16  C12 UNL     1     -14.818  34.554  -8.134  1.00  0.00     0.098 C 
ENDBRANCH  13  15
ENDBRANCH  11  13
ENDBRANCH   8  11
BRANCH   5  17
HETATM   17  C6  UNL     1     -18.080  35.502  -2.381  1.00  0.00     0.296 C 
HETATM   18  O3  UNL     1     -17.502  34.394  -2.466  1.00  0.00    -0.262 OA
BRANCH  17  19
HETATM   19  O4  UNL     1     -18.559  35.892  -1.143  1.00  0.00    -0.319 OA
BRANCH  19  20
HETATM   20  C7  UNL     1     -17.856  35.516   0.025  1.00  0.00     0.174 C 
HETATM   21  C8  UNL     1     -18.221  36.502   1.112  1.00  0.00     0.034 C 
ENDBRANCH  19  20
ENDBRANCH  17  19
ENDBRANCH   5  17
BRANCH   7  22
HETATM   22  O5  UNL     1     -19.465  34.505  -4.379  1.00  0.00    -0.390 OA
ATOM     23  H5  UNL     1     -20.067  34.215  -5.054  1.00  0.00     0.210 HD
ENDBRANCH   7  22
TORSDOF 8
ENDMDL
MODEL 3
REMARK VINA RESULT: -5.937363012      3.465      6.123
REMARK  8 active torsions:
REMARK  status: ('A' for Active; 'I' for Inactive)
REMARK    1  A    between atoms: C3_3  and  O1_4 
REMARK    2  A    between atoms: C4_7  and  C6_9 
REMARK    3  A    between atoms: C6_9  and  O4_11 
REMARK    4  A    between atoms: O4_11  and  C7_12 
REMARK    5  A    between atoms: C9_14  and  O5_15 
REMARK    6  A    between atoms: C10_17  and  N1_18 
REMARK    7  A    between atoms: N1_18  and  C11_20 
REMARK    8  A    between atoms: C11_20  and  S2_22 
ROOT
HETATM    1  C1  UNL     1     -14.789  34.781  -3.611  1.00  0.00     0.017 C 
HETATM    2  C2  UNL     1     -15.570  35.498  -4.205  1.00  0.00    -0.047 C 
HETATM    3  C3  UNL     1     -16.515  36.370  -4.960  1.00  0.00     0.254 C 
HETATM    4  O2  UNL     1     -17.103  37.261  -4.094  1.00  0.00    -0.319 OA
HETATM    5  C4  UNL     1     -18.430  36.930  -3.946  1.00  0.00     0.177 C 
HETATM    6  C5  UNL     1     -19.303  38.191  -3.905  1.00  0.00     0.060 C 
HETATM    7  C9  UNL     1     -18.853  36.099  -5.103  1.00  0.00     0.191 C 
HETATM    8  C10 UNL     1     -17.549  35.575  -5.656  1.00  0.00     0.191 C 
ENDROOT
BRANCH   3   9
HETATM    9  O1  UNL     1     -15.707  37.034  -5.877  1.00  0.00    -0.354 OA
ATOM     10  H1  UNL     1     -15.912  36.622  -6.708  1.00  0.00     0.214 HD
ENDBRANCH   3   9
BRANCH   8  11
HETATM   11  N1  UNL     1     -17.495  35.542  -7.084  1.00  0.00    -0.362 N 
ATOM     12  H1  UNL     1     -17.948  36.321  -7.562  1.00  0.00     0.161 HD
BRANCH  11  13
HETATM   13  C11 UNL     1     -16.901  34.578  -7.917  1.00  0.00     0.134 C 
HETATM   14  S1  UNL     1     -17.619  33.216  -8.442  1.00  0.00    -0.053 SA
BRANCH  13  15
HETATM   15  S2  UNL     1     -15.195  34.805  -8.479  1.00  0.00    -0.105 SA
HETATM   16  C12 UNL     1     -14.006  34.195  -7.287  1.00  0.00     0.098 C 
ENDBRANCH  13  15
ENDBRANCH  11  13
ENDBRANCH   8  11
BRANCH   5  17
HETATM   17  C6  UNL     1     -18.610  36.264  -2.630  1.00  0.00     0.296 C 
HETATM   18  O3  UNL     1     -18.258  35.081  -2.415  1.00  0.00    -0.262 OA
BRANCH  17  19
HETATM   19  O4  UNL     1     -19.190  36.969  -1.592  1.00  0.00    -0.319 OA
BRANCH  19  20
HETATM   20  C7  UNL     1     -18.859  36.641  -0.256  1.00  0.00     0.174 C 
HETATM   21  C8  UNL     1     -19.201  37.836   0.604  1.00  0.00     0.034 C 
ENDBRANCH  19  20
ENDBRANCH  17  19
ENDBRANCH   5  17
BRANCH   7  22
HETATM   22  O5  UNL     1     -19.697  35.042  -4.686  1.00  0.00    -0.390 OA
ATOM     23  H5  UNL     1     -19.259  34.203  -4.771  1.00  0.00     0.210 HD
ENDBRANCH   7  22
TORSDOF 8
ENDMDL
MODEL 4
REMARK VINA RESULT: -5.927685381      1.009      1.364
REMARK  8 active torsions:
REMARK  status: ('A' for Active; 'I' for Inactive)
REMARK    1  A    between atoms: C3_3  and  O1_4 
REMARK    2  A    between atoms: C4_7  and  C6_9 
REMARK    3  A    between atoms: C6_9  and  O4_11 
REMARK    4  A    between atoms: O4_11  and  C7_12 
REMARK    5  A    between atoms: C9_14  and  O5_15 
REMARK    6  A    between atoms: C10_17  and  N1_18 
REMARK    7  A    between atoms: N1_18  and  C11_20 
REMARK    8  A    between atoms: C11_20  and  S2_22 
ROOT
HETATM    1  C1  UNL     1     -17.484  34.884  -1.009  1.00  0.00     0.017 C 
HETATM    2  C2  UNL     1     -17.828  35.100  -2.155  1.00  0.00    -0.047 C 
HETATM    3  C3  UNL     1     -18.276  35.376  -3.550  1.00  0.00     0.254 C 
HETATM    4  O2  UNL     1     -17.506  34.651  -4.427  1.00  0.00    -0.319 OA
HETATM    5  C4  UNL     1     -16.696  35.514  -5.128  1.00  0.00     0.177 C 
HETATM    6  C5  UNL     1     -16.598  35.092  -6.601  1.00  0.00     0.060 C 
HETATM    7  C9  UNL     1     -17.275  36.881  -5.065  1.00  0.00     0.191 C 
HETATM    8  C10 UNL     1     -18.197  36.818  -3.870  1.00  0.00     0.191 C 
ENDROOT
BRANCH   3   9
HETATM    9  O1  UNL     1     -19.597  34.940  -3.576  1.00  0.00    -0.354 OA
ATOM     10  H1  UNL     1     -20.106  35.732  -3.449  1.00  0.00     0.214 HD
ENDBRANCH   3   9
BRANCH   8  11
HETATM   11  N1  UNL     1     -19.432  37.515  -4.051  1.00  0.00    -0.362 N 
ATOM     12  H1  UNL     1     -19.886  37.382  -4.954  1.00  0.00     0.161 HD
BRANCH  11  13
HETATM   13  C11 UNL     1     -20.103  38.359  -3.149  1.00  0.00     0.134 C 
HETATM   14  S1  UNL     1     -20.998  39.654  -3.560  1.00  0.00    -0.053 SA
BRANCH  13  15
HETATM   15  S2  UNL     1     -19.993  38.042  -1.370  1.00  0.00    -0.105 SA
HETATM   16  C12 UNL     1     -21.272  38.897  -0.453  1.00  0.00     0.098 C 
ENDBRANCH  13  15
ENDBRANCH  11  13
ENDBRANCH   8  11
BRANCH   5  17
HETATM   17  C6  UNL     1     -15.317  35.420  -4.584  1.00  0.00     0.296 C 
HETATM   18  O3  UNL     1     -15.075  35.366  -3.356  1.00  0.00    -0.262 OA
BRANCH  17  19
HETATM   19  O4  UNL     1     -14.247  35.391  -5.460  1.00  0.00    -0.319 OA
BRANCH  19  20
HETATM   20  C7  UNL     1     -13.151  34.538  -5.192  1.00  0.00     0.174 C 
HETATM   21  C8  UNL     1     -12.807  33.822  -6.478  1.00  0.00     0.034 C 
ENDBRANCH  19  20
ENDBRANCH  17  19
ENDBRANCH   5  17
BRANCH   7  22
HETATM   22  O5  UNL     1     -16.263  37.853  -4.883  1.00  0.00    -0.390 OA
ATOM     23  H5  UNL     1     -16.485  38.448  -4.177  1.00  0.00     0.210 HD
ENDBRANCH   7  22
TORSDOF 8
ENDMDL
MODEL 5
REMARK VINA RESULT: -5.889008808      1.332      1.485
REMARK  8 active torsions:
REMARK  status: ('A' for Active; 'I' for Inactive)
REMARK    1  A    between atoms: C3_3  and  O1_4 
REMARK    2  A    between atoms: C4_7  and  C6_9 
REMARK    3  A    between atoms: C6_9  and  O4_11 
REMARK    4  A    between atoms: O4_11  and  C7_12 
REMARK    5  A    between atoms: C9_14  and  O5_15 
REMARK    6  A    between atoms: C10_17  and  N1_18 
REMARK    7  A    between atoms: N1_18  and  C11_20 
REMARK    8  A    between atoms: C11_20  and  S2_22 
ROOT
HETATM    1  C1  UNL     1     -17.419  34.934  -1.057  1.00  0.00     0.017 C 
HETATM    2  C2  UNL     1     -17.791  35.145  -2.195  1.00  0.00    -0.047 C 
HETATM    3  C3  UNL     1     -18.272  35.417  -3.579  1.00  0.00     0.254 C 
HETATM    4  O2  UNL     1     -17.552  34.656  -4.469  1.00  0.00    -0.319 OA
HETATM    5  C4  UNL     1     -16.738  35.484  -5.206  1.00  0.00     0.177 C 
HETATM    6  C5  UNL     1     -16.699  35.039  -6.675  1.00  0.00     0.060 C 
HETATM    7  C9  UNL     1     -17.273  36.868  -5.145  1.00  0.00     0.191 C 
HETATM    8  C10 UNL     1     -18.158  36.850  -3.922  1.00  0.00     0.191 C 
ENDROOT
BRANCH   3   9
HETATM    9  O1  UNL     1     -19.606  35.021  -3.559  1.00  0.00    -0.354 OA
ATOM     10  H1  UNL     1     -19.870  35.049  -4.472  1.00  0.00     0.214 HD
ENDBRANCH   3   9
BRANCH   8  11
HETATM   11  N1  UNL     1     -19.377  37.583  -4.076  1.00  0.00    -0.362 N 
ATOM     12  H1  UNL     1     -19.834  37.495  -4.983  1.00  0.00     0.161 HD
BRANCH  11  13
HETATM   13  C11 UNL     1     -20.027  38.409  -3.143  1.00  0.00     0.134 C 
HETATM   14  S1  UNL     1     -19.911  38.275  -1.525  1.00  0.00    -0.053 SA
BRANCH  13  15
HETATM   15  S2  UNL     1     -21.107  39.742  -3.721  1.00  0.00    -0.105 SA
HETATM   16  C12 UNL     1     -21.956  39.312  -5.238  1.00  0.00     0.098 C 
ENDBRANCH  13  15
ENDBRANCH  11  13
ENDBRANCH   8  11
BRANCH   5  17
HETATM   17  C6  UNL     1     -15.346  35.354  -4.703  1.00  0.00     0.296 C 
HETATM   18  O3  UNL     1     -15.072  35.264  -3.484  1.00  0.00    -0.262 OA
BRANCH  17  19
HETATM   19  O4  UNL     1     -14.301  35.332  -5.608  1.00  0.00    -0.319 OA
BRANCH  19  20
HETATM   20  C7  UNL     1     -13.157  34.548  -5.331  1.00  0.00     0.174 C 
HETATM   21  C8  UNL     1     -12.823  33.772  -6.585  1.00  0.00     0.034 C 
ENDBRANCH  19  20
ENDBRANCH  17  19
ENDBRANCH   5  17
BRANCH   7  22
HETATM   22  O5  UNL     1     -16.226  37.811  -5.008  1.00  0.00    -0.390 OA
ATOM     23  H5  UNL     1     -16.159  38.361  -5.781  1.00  0.00     0.210 HD
ENDBRANCH   7  22
TORSDOF 8
ENDMDL
