MODEL 1
REMARK VINA RESULT: -7.019953395      0.000      0.000
REMARK  6 active torsions:
REMARK  status: ('A' for Active; 'I' for Inactive)
REMARK    1  A    between atoms: C9_11  and  C10_12 
REMARK    2  A    between atoms: C10_12  and  C11_13 
REMARK    3  A    between atoms: C10_12  and  C12_16 
REMARK    4  A    between atoms: C11_13  and  O3_14 
REMARK    5  A    between atoms: C12_16  and  O4_17 
REMARK    6  A    between atoms: C16_23  and  O6_24 
ROOT
HETATM    1  C1  UNL     1     -16.090  34.017  -7.806  1.00  0.00     0.017 C 
HETATM    2  C2  UNL     1     -16.672  35.220  -7.021  1.00  0.00    -0.019 C 
HETATM    3  C3  UNL     1     -17.195  36.144  -8.134  1.00  0.00     0.017 C 
HETATM    4  C4  UNL     1     -17.848  34.656  -6.314  1.00  0.00     0.046 C 
HETATM    5  C5  UNL     1     -18.506  35.389  -5.244  1.00  0.00     0.153 C 
HETATM    6  O1  UNL     1     -18.426  34.650  -4.040  1.00  0.00    -0.370 OA
HETATM    7  C6  UNL     1     -17.528  35.258  -3.210  1.00  0.00     0.085 C 
HETATM    8  C7  UNL     1     -16.525  34.315  -2.578  1.00  0.00     0.049 C 
HETATM    9  C8  UNL     1     -18.306  35.861  -2.046  1.00  0.00     0.209 C 
HETATM   10  O2  UNL     1     -19.533  36.261  -2.575  1.00  0.00    -0.358 OA
HETATM   11  C9  UNL     1     -19.340  37.514  -3.115  1.00  0.00     0.268 C 
HETATM   12  O5  UNL     1     -18.890  37.601  -4.356  1.00  0.00    -0.352 OA
HETATM   13  C13 UNL     1     -18.005  36.759  -4.895  1.00  0.00     0.160 C 
HETATM   14  C14 UNL     1     -16.830  36.362  -4.024  1.00  0.00     0.056 C 
HETATM   15  C15 UNL     1     -15.720  35.713  -4.733  1.00  0.00     0.042 C 
HETATM   16  C16 UNL     1     -15.617  35.857  -6.215  1.00  0.00     0.126 C 
ENDROOT
BRANCH  11  17
HETATM   17  C10 UNL     1     -20.654  38.263  -2.994  1.00  0.00     0.088 C 
BRANCH  17  18
HETATM   18  C11 UNL     1     -20.796  39.304  -4.081  1.00  0.00     0.175 C 
BRANCH  18  19
HETATM   19  O3  UNL     1     -21.567  38.729  -5.099  1.00  0.00    -0.400 OA
ATOM     20  H3  UNL     1     -22.293  38.285  -4.677  1.00  0.00     0.209 HD
ENDBRANCH  18  19
ENDBRANCH  17  18
BRANCH  17  21
HETATM   21  C12 UNL     1     -20.756  38.951  -1.639  1.00  0.00     0.175 C 
BRANCH  21  22
HETATM   22  O4  UNL     1     -20.907  38.010  -0.624  1.00  0.00    -0.400 OA
ATOM     23  H4  UNL     1     -20.450  38.291   0.161  1.00  0.00     0.209 HD
ENDBRANCH  21  22
ENDBRANCH  17  21
ENDBRANCH  11  17
BRANCH  16  24
HETATM   24  O6  UNL     1     -15.287  37.176  -6.623  1.00  0.00    -0.395 OA
ATOM     25  H6  UNL     1     -16.039  37.732  -6.791  1.00  0.00     0.210 HD
ENDBRANCH  16  24
TORSDOF 6
ENDMDL
MODEL 2
REMARK VINA RESULT: -6.915162994      0.951      1.000
REMARK  6 active torsions:
REMARK  status: ('A' for Active; 'I' for Inactive)
REMARK    1  A    between atoms: C9_11  and  C10_12 
REMARK    2  A    between atoms: C10_12  and  C11_13 
REMARK    3  A    between atoms: C10_12  and  C12_16 
REMARK    4  A    between atoms: C11_13  and  O3_14 
REMARK    5  A    between atoms: C12_16  and  O4_17 
REMARK    6  A    between atoms: C16_23  and  O6_24 
ROOT
HETATM    1  C1  UNL     1     -16.457  34.139  -7.543  1.00  0.00     0.017 C 
HETATM    2  C2  UNL     1     -16.951  35.256  -6.589  1.00  0.00    -0.019 C 
HETATM    3  C3  UNL     1     -17.679  36.227  -7.533  1.00  0.00     0.017 C 
HETATM    4  C4  UNL     1     -17.977  34.588  -5.751  1.00  0.00     0.046 C 
HETATM    5  C5  UNL     1     -18.483  35.213  -4.539  1.00  0.00     0.153 C 
HETATM    6  O1  UNL     1     -18.185  34.397  -3.421  1.00  0.00    -0.370 OA
HETATM    7  C6  UNL     1     -17.189  34.990  -2.699  1.00  0.00     0.085 C 
HETATM    8  C7  UNL     1     -16.064  34.056  -2.305  1.00  0.00     0.049 C 
HETATM    9  C8  UNL     1     -17.793  35.473  -1.385  1.00  0.00     0.209 C 
HETATM   10  O2  UNL     1     -19.103  35.848  -1.684  1.00  0.00    -0.358 OA
HETATM   11  C9  UNL     1     -19.045  37.144  -2.152  1.00  0.00     0.268 C 
HETATM   12  O5  UNL     1     -18.802  37.338  -3.438  1.00  0.00    -0.352 OA
HETATM   13  C13 UNL     1     -17.984  36.579  -4.170  1.00  0.00     0.160 C 
HETATM   14  C14 UNL     1     -16.672  36.179  -3.527  1.00  0.00     0.056 C 
HETATM   15  C15 UNL     1     -15.665  35.635  -4.447  1.00  0.00     0.042 C 
HETATM   16  C16 UNL     1     -15.805  35.886  -5.912  1.00  0.00     0.126 C 
ENDROOT
BRANCH  11  17
HETATM   17  C10 UNL     1     -20.349  37.817  -1.771  1.00  0.00     0.088 C 
BRANCH  17  18
HETATM   18  C11 UNL     1     -20.519  39.137  -2.491  1.00  0.00     0.175 C 
BRANCH  18  19
HETATM   19  O3  UNL     1     -21.226  38.871  -3.669  1.00  0.00    -0.400 OA
ATOM     20  H3  UNL     1     -22.002  39.419  -3.656  1.00  0.00     0.209 HD
ENDBRANCH  18  19
ENDBRANCH  17  18
BRANCH  17  21
HETATM   21  C12 UNL     1     -20.405  38.067  -0.269  1.00  0.00     0.175 C 
BRANCH  21  22
HETATM   22  O4  UNL     1     -19.121  38.099   0.268  1.00  0.00    -0.400 OA
ATOM     23  H4  UNL     1     -18.685  37.264   0.140  1.00  0.00     0.209 HD
ENDBRANCH  21  22
ENDBRANCH  17  21
ENDBRANCH  11  17
BRANCH  16  24
HETATM   24  O6  UNL     1     -15.594  37.244  -6.266  1.00  0.00    -0.395 OA
ATOM     25  H6  UNL     1     -15.326  37.799  -5.543  1.00  0.00     0.210 HD
ENDBRANCH  16  24
TORSDOF 6
ENDMDL
MODEL 3
REMARK VINA RESULT: -6.738544357      1.988      5.613
REMARK  6 active torsions:
REMARK  status: ('A' for Active; 'I' for Inactive)
REMARK    1  A    between atoms: C9_11  and  C10_12 
REMARK    2  A    between atoms: C10_12  and  C11_13 
REMARK    3  A    between atoms: C10_12  and  C12_16 
REMARK    4  A    between atoms: C11_13  and  O3_14 
REMARK    5  A    between atoms: C12_16  and  O4_17 
REMARK    6  A    between atoms: C16_23  and  O6_24 
ROOT
HETATM    1  C1  UNL     1     -19.406  37.409  -1.824  1.00  0.00     0.017 C 
HETATM    2  C2  UNL     1     -19.187  36.915  -3.276  1.00  0.00    -0.019 C 
HETATM    3  C3  UNL     1     -20.434  37.432  -4.013  1.00  0.00     0.017 C 
HETATM    4  C4  UNL     1     -18.023  37.702  -3.753  1.00  0.00     0.046 C 
HETATM    5  C5  UNL     1     -17.317  37.337  -4.972  1.00  0.00     0.153 C 
HETATM    6  O1  UNL     1     -15.971  37.023  -4.668  1.00  0.00    -0.370 OA
HETATM    7  C6  UNL     1     -15.801  35.672  -4.775  1.00  0.00     0.085 C 
HETATM    8  C7  UNL     1     -15.068  35.042  -3.609  1.00  0.00     0.049 C 
HETATM    9  C8  UNL     1     -14.922  35.410  -5.994  1.00  0.00     0.209 C 
HETATM   10  O2  UNL     1     -15.248  36.403  -6.917  1.00  0.00    -0.358 OA
HETATM   11  C9  UNL     1     -16.358  35.956  -7.602  1.00  0.00     0.268 C 
HETATM   12  O5  UNL     1     -17.552  36.188  -7.082  1.00  0.00    -0.352 OA
HETATM   13  C13 UNL     1     -17.818  36.173  -5.774  1.00  0.00     0.160 C 
HETATM   14  C14 UNL     1     -17.195  35.051  -4.969  1.00  0.00     0.056 C 
HETATM   15  C15 UNL     1     -17.754  34.863  -3.624  1.00  0.00     0.042 C 
HETATM   16  C16 UNL     1     -19.090  35.446  -3.301  1.00  0.00     0.126 C 
ENDROOT
BRANCH  11  17
HETATM   17  C10 UNL     1     -16.287  36.538  -9.001  1.00  0.00     0.088 C 
BRANCH  17  18
HETATM   18  C11 UNL     1     -17.662  36.904  -9.515  1.00  0.00     0.175 C 
BRANCH  18  19
HETATM   19  O3  UNL     1     -17.782  38.294  -9.404  1.00  0.00    -0.400 OA
ATOM     20  H3  UNL     1     -18.259  38.467  -8.601  1.00  0.00     0.209 HD
ENDBRANCH  18  19
ENDBRANCH  17  18
BRANCH  17  21
HETATM   21  C12 UNL     1     -15.651  35.543  -9.964  1.00  0.00     0.175 C 
BRANCH  21  22
HETATM   22  O4  UNL     1     -14.892  34.607  -9.267  1.00  0.00    -0.400 OA
ATOM     23  H4  UNL     1     -14.269  35.041  -8.696  1.00  0.00     0.209 HD
ENDBRANCH  21  22
ENDBRANCH  17  21
ENDBRANCH  11  17
BRANCH  16  24
HETATM   24  O6  UNL     1     -20.156  34.803  -3.984  1.00  0.00    -0.395 OA
ATOM     25  H6  UNL     1     -20.768  34.352  -3.415  1.00  0.00     0.210 HD
ENDBRANCH  16  24
TORSDOF 6
ENDMDL
MODEL 4
REMARK VINA RESULT: -6.733830569      0.825      1.771
REMARK  6 active torsions:
REMARK  status: ('A' for Active; 'I' for Inactive)
REMARK    1  A    between atoms: C9_11  and  C10_12 
REMARK    2  A    between atoms: C10_12  and  C11_13 
REMARK    3  A    between atoms: C10_12  and  C12_16 
REMARK    4  A    between atoms: C11_13  and  O3_14 
REMARK    5  A    between atoms: C12_16  and  O4_17 
REMARK    6  A    between atoms: C16_23  and  O6_24 
ROOT
HETATM    1  C1  UNL     1     -16.862  33.999  -7.464  1.00  0.00     0.017 C 
HETATM    2  C2  UNL     1     -17.155  35.240  -6.584  1.00  0.00    -0.019 C 
HETATM    3  C3  UNL     1     -17.648  36.283  -7.600  1.00  0.00     0.017 C 
HETATM    4  C4  UNL     1     -18.318  34.830  -5.759  1.00  0.00     0.046 C 
HETATM    5  C5  UNL     1     -18.728  35.606  -4.598  1.00  0.00     0.153 C 
HETATM    6  O1  UNL     1     -18.631  34.808  -3.432  1.00  0.00    -0.370 OA
HETATM    7  C6  UNL     1     -17.561  35.233  -2.699  1.00  0.00     0.085 C 
HETATM    8  C7  UNL     1     -16.655  34.120  -2.216  1.00  0.00     0.049 C 
HETATM    9  C8  UNL     1     -18.099  35.894  -1.434  1.00  0.00     0.209 C 
HETATM   10  O2  UNL     1     -19.299  36.501  -1.803  1.00  0.00    -0.358 OA
HETATM   11  C9  UNL     1     -18.973  37.733  -2.327  1.00  0.00     0.268 C 
HETATM   12  O5  UNL     1     -18.657  37.808  -3.610  1.00  0.00    -0.352 OA
HETATM   13  C13 UNL     1     -17.982  36.866  -4.273  1.00  0.00     0.160 C 
HETATM   14  C14 UNL     1     -16.795  36.253  -3.558  1.00  0.00     0.056 C 
HETATM   15  C15 UNL     1     -15.887  35.475  -4.411  1.00  0.00     0.042 C 
HETATM   16  C16 UNL     1     -15.929  35.670  -5.891  1.00  0.00     0.126 C 
ENDROOT
BRANCH  11  17
HETATM   17  C10 UNL     1     -20.130  38.668  -2.031  1.00  0.00     0.088 C 
BRANCH  17  18
HETATM   18  C11 UNL     1     -21.007  38.125  -0.925  1.00  0.00     0.175 C 
BRANCH  18  19
HETATM   19  O3  UNL     1     -20.291  38.267   0.270  1.00  0.00    -0.400 OA
ATOM     20  H3  UNL     1     -19.454  37.836   0.144  1.00  0.00     0.209 HD
ENDBRANCH  18  19
ENDBRANCH  17  18
BRANCH  17  21
HETATM   21  C12 UNL     1     -20.984  38.876  -3.276  1.00  0.00     0.175 C 
BRANCH  21  22
HETATM   22  O4  UNL     1     -20.542  39.986  -3.991  1.00  0.00    -0.400 OA
ATOM     23  H4  UNL     1     -20.754  39.895  -4.912  1.00  0.00     0.209 HD
ENDBRANCH  21  22
ENDBRANCH  17  21
ENDBRANCH  11  17
BRANCH  16  24
HETATM   24  O6  UNL     1     -15.444  36.940  -6.298  1.00  0.00    -0.395 OA
ATOM     25  H6  UNL     1     -14.568  36.925  -6.663  1.00  0.00     0.210 HD
ENDBRANCH  16  24
TORSDOF 6
ENDMDL
MODEL 5
REMARK VINA RESULT: -6.703661124      2.009      5.673
REMARK  6 active torsions:
REMARK  status: ('A' for Active; 'I' for Inactive)
REMARK    1  A    between atoms: C9_11  and  C10_12 
REMARK    2  A    between atoms: C10_12  and  C11_13 
REMARK    3  A    between atoms: C10_12  and  C12_16 
REMARK    4  A    between atoms: C11_13  and  O3_14 
REMARK    5  A    between atoms: C12_16  and  O4_17 
REMARK    6  A    between atoms: C16_23  and  O6_24 
ROOT
HETATM    1  C1  UNL     1     -19.638  37.870  -2.467  1.00  0.00     0.017 C 
HETATM    2  C2  UNL     1     -19.133  37.006  -3.649  1.00  0.00    -0.019 C 
HETATM    3  C3  UNL     1     -20.117  37.349  -4.780  1.00  0.00     0.017 C 
HETATM    4  C4  UNL     1     -17.820  37.604  -3.999  1.00  0.00     0.046 C 
HETATM    5  C5  UNL     1     -16.886  36.911  -4.872  1.00  0.00     0.153 C 
HETATM    6  O1  UNL     1     -15.685  36.646  -4.173  1.00  0.00    -0.370 OA
HETATM    7  C6  UNL     1     -15.623  35.310  -3.897  1.00  0.00     0.085 C 
HETATM    8  C7  UNL     1     -15.246  34.986  -2.467  1.00  0.00     0.049 C 
HETATM    9  C8  UNL     1     -14.512  34.711  -4.753  1.00  0.00     0.209 C 
HETATM   10  O2  UNL     1     -14.517  35.436  -5.945  1.00  0.00    -0.358 OA
HETATM   11  C9  UNL     1     -15.473  34.859  -6.753  1.00  0.00     0.268 C 
HETATM   12  O5  UNL     1     -16.728  35.256  -6.624  1.00  0.00    -0.352 OA
HETATM   13  C13 UNL     1     -17.293  35.592  -5.462  1.00  0.00     0.160 C 
HETATM   14  C14 UNL     1     -16.985  34.703  -4.275  1.00  0.00     0.056 C 
HETATM   15  C15 UNL     1     -17.859  34.892  -3.110  1.00  0.00     0.042 C 
HETATM   16  C16 UNL     1     -19.172  35.580  -3.286  1.00  0.00     0.126 C 
ENDROOT
BRANCH  11  17
HETATM   17  C10 UNL     1     -15.022  35.051  -8.189  1.00  0.00     0.088 C 
BRANCH  17  18
HETATM   18  C11 UNL     1     -15.671  36.267  -8.812  1.00  0.00     0.175 C 
BRANCH  18  19
HETATM   19  O3  UNL     1     -15.349  37.362  -8.001  1.00  0.00    -0.400 OA
ATOM     20  H3  UNL     1     -14.953  38.016  -8.563  1.00  0.00     0.209 HD
ENDBRANCH  18  19
ENDBRANCH  17  18
BRANCH  17  21
HETATM   21  C12 UNL     1     -15.367  33.827  -9.028  1.00  0.00     0.175 C 
BRANCH  21  22
HETATM   22  O4  UNL     1     -16.163  32.946  -8.300  1.00  0.00    -0.400 OA
ATOM     23  H4  UNL     1     -15.694  32.625  -7.539  1.00  0.00     0.209 HD
ENDBRANCH  21  22
ENDBRANCH  17  21
ENDBRANCH  11  17
BRANCH  16  24
HETATM   24  O6  UNL     1     -20.104  34.813  -4.034  1.00  0.00    -0.395 OA
ATOM     25  H6  UNL     1     -20.334  33.982  -3.636  1.00  0.00     0.210 HD
ENDBRANCH  16  24
TORSDOF 6
ENDMDL
