MODEL 1
REMARK VINA RESULT: -6.396260542      0.000      0.000
REMARK  8 active torsions:
REMARK  status: ('A' for Active; 'I' for Inactive)
REMARK    1  A    between atoms: N1_1  and  N2_4 
REMARK    2  A    between atoms: N2_4  and  N3_5 
REMARK    3  A    between atoms: N3_5  and  C1_7 
REMARK    4  A    between atoms: C2_11  and  C3_12 
REMARK    5  A    between atoms: C3_12  and  O1_13 
REMARK    6  A    between atoms: C4_16  and  C5_17 
REMARK    7  A    between atoms: C13_25  and  O3_26 
REMARK    8  A    between atoms: C15_29  and  O4_30 
ROOT
HETATM    1  C1  UNL     1     -15.109  35.651  -8.018  1.00  0.00     0.346 C 
HETATM    2  N4  UNL     1     -14.090  34.812  -7.482  1.00  0.00    -0.021 N 
ATOM      3  H41 UNL     1     -13.202  34.925  -7.973  1.00  0.00     0.283 HD
ATOM      4  H42 UNL     1     -14.252  33.827  -7.696  1.00  0.00     0.283 HD
HETATM    5  C2  UNL     1     -13.960  35.046  -6.057  1.00  0.00     0.347 C 
HETATM    6  O2  UNL     1     -15.147  34.784  -5.378  1.00  0.00    -0.348 OA
HETATM    7  C4  UNL     1     -16.063  35.770  -5.811  1.00  0.00     0.168 C 
HETATM    8  C15 UNL     1     -16.403  35.393  -7.224  1.00  0.00     0.200 C 
ENDROOT
BRANCH   7   9
HETATM    9  C5  UNL     1     -17.215  35.910  -4.878  1.00  0.00     0.015 C 
HETATM   10  C6  UNL     1     -18.472  36.144  -5.674  1.00  0.00     0.019 C 
HETATM   11  C7  UNL     1     -19.677  36.406  -4.792  1.00  0.00    -0.013 C 
HETATM   12  C8  UNL     1     -19.852  35.185  -3.920  1.00  0.00     0.009 C 
HETATM   13  C12 UNL     1     -19.450  37.663  -4.025  1.00  0.00     0.012 C 
HETATM   14  C9  UNL     1     -18.613  35.055  -3.062  1.00  0.00    -0.013 C 
HETATM   15  C10 UNL     1     -18.472  36.305  -2.245  1.00  0.00     0.012 C 
HETATM   16  C14 UNL     1     -17.404  34.782  -3.929  1.00  0.00     0.019 C 
HETATM   17  C11 UNL     1     -18.207  37.468  -3.182  1.00  0.00     0.016 C 
HETATM   18  C13 UNL     1     -17.005  37.169  -4.020  1.00  0.00     0.133 C 
BRANCH  18  19
HETATM   19  O3  UNL     1     -16.708  38.271  -4.800  1.00  0.00    -0.394 OA
ATOM     20  H3  UNL     1     -15.781  38.311  -5.009  1.00  0.00     0.210 HD
ENDBRANCH  18  19
ENDBRANCH   7   9
BRANCH   8  21
HETATM   21  O4  UNL     1     -16.691  34.023  -7.240  1.00  0.00    -0.389 OA
ATOM     22  H4  UNL     1     -17.559  33.880  -6.880  1.00  0.00     0.210 HD
ENDBRANCH   8  21
BRANCH   5  23
HETATM   23  C3  UNL     1     -12.818  34.200  -5.536  1.00  0.00     0.225 C 
BRANCH  23  24
HETATM   24  O1  UNL     1     -12.080  33.724  -6.640  1.00  0.00    -0.397 OA
ATOM     25  H1  UNL     1     -11.187  34.040  -6.561  1.00  0.00     0.209 HD
ENDBRANCH  23  24
ENDBRANCH   5  23
BRANCH   1  26
HETATM   26  N3  UNL     1     -15.302  35.578  -9.412  1.00  0.00    -0.218 N 
ATOM     27  H3  UNL     1     -14.961  36.365  -9.963  1.00  0.00     0.199 HD
BRANCH  26  28
HETATM   28  N2  UNL     1     -15.833  34.673 -10.025  1.00  0.00    -0.246 NA
BRANCH  28  29
HETATM   29  N1  UNL     1     -16.399  33.689 -10.440  1.00  0.00    -0.261 N 
ATOM     30  H12 UNL     1     -15.601  33.129 -10.142  1.00  0.00     0.193 HD
ATOM     31  H11 UNL     1     -17.009  32.974 -10.836  1.00  0.00     0.193 HD
ENDBRANCH  28  29
ENDBRANCH  26  28
ENDBRANCH   1  26
TORSDOF 8
ENDMDL
MODEL 2
REMARK VINA RESULT: -6.354341488      1.949      3.263
REMARK  8 active torsions:
REMARK  status: ('A' for Active; 'I' for Inactive)
REMARK    1  A    between atoms: N1_1  and  N2_4 
REMARK    2  A    between atoms: N2_4  and  N3_5 
REMARK    3  A    between atoms: N3_5  and  C1_7 
REMARK    4  A    between atoms: C2_11  and  C3_12 
REMARK    5  A    between atoms: C3_12  and  O1_13 
REMARK    6  A    between atoms: C4_16  and  C5_17 
REMARK    7  A    between atoms: C13_25  and  O3_26 
REMARK    8  A    between atoms: C15_29  and  O4_30 
ROOT
HETATM    1  C1  UNL     1     -15.209  34.284  -8.649  1.00  0.00     0.346 C 
HETATM    2  N4  UNL     1     -15.228  35.493  -9.404  1.00  0.00    -0.021 N 
ATOM      3  H41 UNL     1     -15.094  35.325 -10.401  1.00  0.00     0.283 HD
ATOM      4  H42 UNL     1     -14.398  36.063  -9.237  1.00  0.00     0.283 HD
HETATM    5  C2  UNL     1     -16.454  36.220  -9.133  1.00  0.00     0.347 C 
HETATM    6  O2  UNL     1     -16.578  36.542  -7.784  1.00  0.00    -0.348 OA
HETATM    7  C4  UNL     1     -16.748  35.311  -7.109  1.00  0.00     0.168 C 
HETATM    8  C15 UNL     1     -15.401  34.647  -7.165  1.00  0.00     0.200 C 
ENDROOT
BRANCH   7   9
HETATM    9  C5  UNL     1     -17.328  35.494  -5.750  1.00  0.00     0.015 C 
HETATM   10  C6  UNL     1     -18.174  34.297  -5.407  1.00  0.00     0.019 C 
HETATM   11  C7  UNL     1     -18.892  34.454  -4.080  1.00  0.00    -0.013 C 
HETATM   12  C8  UNL     1     -17.824  34.635  -3.028  1.00  0.00     0.009 C 
HETATM   13  C12 UNL     1     -19.840  35.600  -4.176  1.00  0.00     0.012 C 
HETATM   14  C9  UNL     1     -17.072  35.907  -3.353  1.00  0.00    -0.013 C 
HETATM   15  C10 UNL     1     -18.050  37.045  -3.355  1.00  0.00     0.012 C 
HETATM   16  C14 UNL     1     -16.343  35.760  -4.670  1.00  0.00     0.019 C 
HETATM   17  C11 UNL     1     -19.031  36.840  -4.493  1.00  0.00     0.016 C 
HETATM   18  C13 UNL     1     -18.279  36.703  -5.779  1.00  0.00     0.133 C 
BRANCH  18  19
HETATM   19  O3  UNL     1     -19.177  36.617  -6.825  1.00  0.00    -0.394 OA
ATOM     20  H3  UNL     1     -19.989  37.070  -6.627  1.00  0.00     0.210 HD
ENDBRANCH  18  19
ENDBRANCH   7   9
BRANCH   8  21
HETATM   21  O4  UNL     1     -14.444  35.597  -6.792  1.00  0.00    -0.389 OA
ATOM     22  H4  UNL     1     -13.979  35.289  -6.023  1.00  0.00     0.210 HD
ENDBRANCH   8  21
BRANCH   5  23
HETATM   23  C3  UNL     1     -16.479  37.454 -10.008  1.00  0.00     0.225 C 
BRANCH  23  24
HETATM   24  O1  UNL     1     -17.589  38.241  -9.634  1.00  0.00    -0.397 OA
ATOM     25  H1  UNL     1     -18.348  37.936 -10.118  1.00  0.00     0.209 HD
ENDBRANCH  23  24
ENDBRANCH   5  23
BRANCH   1  26
HETATM   26  N3  UNL     1     -14.101  33.440  -8.863  1.00  0.00    -0.218 N 
ATOM     27  H3  UNL     1     -14.035  32.993  -9.778  1.00  0.00     0.199 HD
BRANCH  26  28
HETATM   28  N2  UNL     1     -13.215  33.188  -8.069  1.00  0.00    -0.246 NA
BRANCH  28  29
HETATM   29  N1  UNL     1     -12.270  33.139  -7.318  1.00  0.00    -0.261 N 
ATOM     30  H12 UNL     1     -12.491  34.086  -7.012  1.00  0.00     0.193 HD
ATOM     31  H11 UNL     1     -11.448  32.930  -6.751  1.00  0.00     0.193 HD
ENDBRANCH  28  29
ENDBRANCH  26  28
ENDBRANCH   1  26
TORSDOF 8
ENDMDL
MODEL 3
REMARK VINA RESULT: -6.285524240      1.307      1.450
REMARK  8 active torsions:
REMARK  status: ('A' for Active; 'I' for Inactive)
REMARK    1  A    between atoms: N1_1  and  N2_4 
REMARK    2  A    between atoms: N2_4  and  N3_5 
REMARK    3  A    between atoms: N3_5  and  C1_7 
REMARK    4  A    between atoms: C2_11  and  C3_12 
REMARK    5  A    between atoms: C3_12  and  O1_13 
REMARK    6  A    between atoms: C4_16  and  C5_17 
REMARK    7  A    between atoms: C13_25  and  O3_26 
REMARK    8  A    between atoms: C15_29  and  O4_30 
ROOT
HETATM    1  C1  UNL     1     -15.698  36.474  -8.605  1.00  0.00     0.346 C 
HETATM    2  N4  UNL     1     -14.863  35.321  -8.601  1.00  0.00    -0.021 N 
ATOM      3  H41 UNL     1     -14.034  35.445  -9.183  1.00  0.00     0.283 HD
ATOM      4  H42 UNL     1     -15.283  34.540  -9.106  1.00  0.00     0.283 HD
HETATM    5  C2  UNL     1     -14.522  34.968  -7.236  1.00  0.00     0.347 C 
HETATM    6  O2  UNL     1     -15.654  34.693  -6.473  1.00  0.00    -0.348 OA
HETATM    7  C4  UNL     1     -16.344  35.921  -6.353  1.00  0.00     0.168 C 
HETATM    8  C15 UNL     1     -16.921  36.179  -7.716  1.00  0.00     0.200 C 
ENDROOT
BRANCH   7   9
HETATM    9  C5  UNL     1     -17.317  35.908  -5.225  1.00  0.00     0.015 C 
HETATM   10  C6  UNL     1     -18.660  36.370  -5.724  1.00  0.00     0.019 C 
HETATM   11  C7  UNL     1     -19.683  36.489  -4.611  1.00  0.00    -0.013 C 
HETATM   12  C8  UNL     1     -19.818  35.116  -3.996  1.00  0.00     0.009 C 
HETATM   13  C12 UNL     1     -19.232  37.535  -3.650  1.00  0.00     0.012 C 
HETATM   14  C9  UNL     1     -18.473  34.742  -3.413  1.00  0.00    -0.013 C 
HETATM   15  C10 UNL     1     -18.099  35.775  -2.391  1.00  0.00     0.012 C 
HETATM   16  C14 UNL     1     -17.446  34.609  -4.515  1.00  0.00     0.019 C 
HETATM   17  C11 UNL     1     -17.891  37.101  -3.096  1.00  0.00     0.016 C 
HETATM   18  C13 UNL     1     -16.867  36.936  -4.175  1.00  0.00     0.133 C 
BRANCH  18  19
HETATM   19  O3  UNL     1     -16.607  38.167  -4.747  1.00  0.00    -0.394 OA
ATOM     20  H3  UNL     1     -15.886  38.119  -5.365  1.00  0.00     0.210 HD
ENDBRANCH  18  19
ENDBRANCH   7   9
BRANCH   8  21
HETATM   21  O4  UNL     1     -17.534  34.998  -8.148  1.00  0.00    -0.389 OA
ATOM     22  H4  UNL     1     -16.883  34.433  -8.547  1.00  0.00     0.210 HD
ENDBRANCH   8  21
BRANCH   5  23
HETATM   23  C3  UNL     1     -13.571  33.791  -7.270  1.00  0.00     0.225 C 
BRANCH  23  24
HETATM   24  O1  UNL     1     -12.405  34.141  -6.558  1.00  0.00    -0.397 OA
ATOM     25  H1  UNL     1     -12.616  34.159  -5.631  1.00  0.00     0.209 HD
ENDBRANCH  23  24
ENDBRANCH   5  23
BRANCH   1  26
HETATM   26  N3  UNL     1     -16.057  36.973  -9.873  1.00  0.00    -0.218 N 
ATOM     27  H3  UNL     1     -15.306  37.070 -10.557  1.00  0.00     0.199 HD
BRANCH  26  28
HETATM   28  N2  UNL     1     -17.170  37.301 -10.238  1.00  0.00    -0.246 NA
BRANCH  28  29
HETATM   29  N1  UNL     1     -18.185  37.817 -10.641  1.00  0.00    -0.261 N 
ATOM     30  H12 UNL     1     -18.261  37.075 -11.336  1.00  0.00     0.193 HD
ATOM     31  H11 UNL     1     -19.012  38.376 -10.851  1.00  0.00     0.193 HD
ENDBRANCH  28  29
ENDBRANCH  26  28
ENDBRANCH   1  26
TORSDOF 8
ENDMDL
MODEL 4
REMARK VINA RESULT: -6.202405874      1.938      3.013
REMARK  8 active torsions:
REMARK  status: ('A' for Active; 'I' for Inactive)
REMARK    1  A    between atoms: N1_1  and  N2_4 
REMARK    2  A    between atoms: N2_4  and  N3_5 
REMARK    3  A    between atoms: N3_5  and  C1_7 
REMARK    4  A    between atoms: C2_11  and  C3_12 
REMARK    5  A    between atoms: C3_12  and  O1_13 
REMARK    6  A    between atoms: C4_16  and  C5_17 
REMARK    7  A    between atoms: C13_25  and  O3_26 
REMARK    8  A    between atoms: C15_29  and  O4_30 
ROOT
HETATM    1  C1  UNL     1     -15.451  33.953  -8.979  1.00  0.00     0.346 C 
HETATM    2  N4  UNL     1     -15.198  35.128  -9.745  1.00  0.00    -0.021 N 
ATOM      3  H41 UNL     1     -15.057  34.918 -10.733  1.00  0.00     0.283 HD
ATOM      4  H42 UNL     1     -14.279  35.525  -9.546  1.00  0.00     0.283 HD
HETATM    5  C2  UNL     1     -16.265  36.088  -9.537  1.00  0.00     0.347 C 
HETATM    6  O2  UNL     1     -16.381  36.453  -8.199  1.00  0.00    -0.348 OA
HETATM    7  C4  UNL     1     -16.820  35.293  -7.521  1.00  0.00     0.168 C 
HETATM    8  C15 UNL     1     -15.632  34.375  -7.508  1.00  0.00     0.200 C 
ENDROOT
BRANCH   7   9
HETATM    9  C5  UNL     1     -17.411  35.613  -6.191  1.00  0.00     0.015 C 
HETATM   10  C6  UNL     1     -18.508  36.629  -6.368  1.00  0.00     0.019 C 
HETATM   11  C7  UNL     1     -19.089  37.092  -5.046  1.00  0.00    -0.013 C 
HETATM   12  C8  UNL     1     -19.644  35.864  -4.362  1.00  0.00     0.009 C 
HETATM   13  C12 UNL     1     -18.025  37.784  -4.266  1.00  0.00     0.012 C 
HETATM   14  C9  UNL     1     -18.489  34.921  -4.108  1.00  0.00    -0.013 C 
HETATM   15  C10 UNL     1     -17.483  35.629  -3.249  1.00  0.00     0.012 C 
HETATM   16  C14 UNL     1     -17.906  34.444  -5.419  1.00  0.00     0.019 C 
HETATM   17  C11 UNL     1     -16.905  36.790  -4.036  1.00  0.00     0.016 C 
HETATM   18  C13 UNL     1     -16.334  36.284  -5.323  1.00  0.00     0.133 C 
BRANCH  18  19
HETATM   19  O3  UNL     1     -15.720  37.327  -5.990  1.00  0.00    -0.394 OA
ATOM     20  H3  UNL     1     -15.800  38.143  -5.510  1.00  0.00     0.210 HD
ENDBRANCH  18  19
ENDBRANCH   7   9
BRANCH   8  21
HETATM   21  O4  UNL     1     -14.521  35.123  -7.101  1.00  0.00    -0.389 OA
ATOM     22  H4  UNL     1     -14.390  35.008  -6.167  1.00  0.00     0.210 HD
ENDBRANCH   8  21
BRANCH   5  23
HETATM   23  C3  UNL     1     -16.007  37.287 -10.425  1.00  0.00     0.225 C 
BRANCH  23  24
HETATM   24  O1  UNL     1     -16.363  38.451  -9.712  1.00  0.00    -0.397 OA
ATOM     25  H1  UNL     1     -15.633  38.695  -9.155  1.00  0.00     0.209 HD
ENDBRANCH  23  24
ENDBRANCH   5  23
BRANCH   1  26
HETATM   26  N3  UNL     1     -14.525  32.902  -9.133  1.00  0.00    -0.218 N 
ATOM     27  H3  UNL     1     -14.844  32.084  -9.652  1.00  0.00     0.199 HD
BRANCH  26  28
HETATM   28  N2  UNL     1     -13.385  32.870  -8.712  1.00  0.00    -0.246 NA
BRANCH  28  29
HETATM   29  N1  UNL     1     -12.289  33.042  -8.234  1.00  0.00    -0.261 N 
ATOM     30  H12 UNL     1     -12.204  32.032  -8.120  1.00  0.00     0.193 HD
ATOM     31  H11 UNL     1     -11.396  33.363  -7.859  1.00  0.00     0.193 HD
ENDBRANCH  28  29
ENDBRANCH  26  28
ENDBRANCH   1  26
TORSDOF 8
ENDMDL
MODEL 5
REMARK VINA RESULT: -6.167405089      3.348      5.221
REMARK  8 active torsions:
REMARK  status: ('A' for Active; 'I' for Inactive)
REMARK    1  A    between atoms: N1_1  and  N2_4 
REMARK    2  A    between atoms: N2_4  and  N3_5 
REMARK    3  A    between atoms: N3_5  and  C1_7 
REMARK    4  A    between atoms: C2_11  and  C3_12 
REMARK    5  A    between atoms: C3_12  and  O1_13 
REMARK    6  A    between atoms: C4_16  and  C5_17 
REMARK    7  A    between atoms: C13_25  and  O3_26 
REMARK    8  A    between atoms: C15_29  and  O4_30 
ROOT
HETATM    1  C1  UNL     1     -18.107  35.749  -5.528  1.00  0.00     0.346 C 
HETATM    2  N4  UNL     1     -17.594  35.938  -6.844  1.00  0.00    -0.021 N 
ATOM      3  H41 UNL     1     -17.300  35.059  -7.271  1.00  0.00     0.283 HD
ATOM      4  H42 UNL     1     -16.690  36.410  -6.839  1.00  0.00     0.283 HD
HETATM    5  C2  UNL     1     -18.572  36.639  -7.655  1.00  0.00     0.347 C 
HETATM    6  O2  UNL     1     -18.888  37.886  -7.124  1.00  0.00    -0.348 OA
HETATM    7  C4  UNL     1     -19.565  37.626  -5.910  1.00  0.00     0.168 C 
HETATM    8  C15 UNL     1     -18.504  37.129  -4.970  1.00  0.00     0.200 C 
ENDROOT
BRANCH   7   9
HETATM    9  C5  UNL     1     -20.349  38.804  -5.444  1.00  0.00     0.015 C 
HETATM   10  C6  UNL     1     -21.792  38.625  -5.836  1.00  0.00     0.019 C 
HETATM   11  C7  UNL     1     -22.640  39.835  -5.494  1.00  0.00    -0.013 C 
HETATM   12  C8  UNL     1     -22.543  40.024  -3.998  1.00  0.00     0.009 C 
HETATM   13  C12 UNL     1     -22.154  41.005  -6.280  1.00  0.00     0.012 C 
HETATM   14  C9  UNL     1     -21.095  40.309  -3.666  1.00  0.00    -0.013 C 
HETATM   15  C10 UNL     1     -20.673  41.541  -4.411  1.00  0.00     0.012 C 
HETATM   16  C14 UNL     1     -20.239  39.105  -3.993  1.00  0.00     0.019 C 
HETATM   17  C11 UNL     1     -20.708  41.244  -5.898  1.00  0.00     0.016 C 
HETATM   18  C13 UNL     1     -19.849  40.053  -6.188  1.00  0.00     0.133 C 
BRANCH  18  19
HETATM   19  O3  UNL     1     -19.802  39.847  -7.553  1.00  0.00    -0.394 OA
ATOM     20  H3  UNL     1     -19.593  40.648  -8.021  1.00  0.00     0.210 HD
ENDBRANCH  18  19
ENDBRANCH   7   9
BRANCH   8  21
HETATM   21  O4  UNL     1     -17.412  37.999  -5.064  1.00  0.00    -0.389 OA
ATOM     22  H4  UNL     1     -16.944  38.006  -4.237  1.00  0.00     0.210 HD
ENDBRANCH   8  21
BRANCH   5  23
HETATM   23  C3  UNL     1     -18.030  36.751  -9.064  1.00  0.00     0.225 C 
BRANCH  23  24
HETATM   24  O1  UNL     1     -18.032  38.112  -9.433  1.00  0.00    -0.397 OA
ATOM     25  H1  UNL     1     -17.195  38.489  -9.189  1.00  0.00     0.209 HD
ENDBRANCH  23  24
ENDBRANCH   5  23
BRANCH   1  26
HETATM   26  N3  UNL     1     -17.287  35.021  -4.643  1.00  0.00    -0.218 N 
ATOM     27  H3  UNL     1     -17.652  34.129  -4.310  1.00  0.00     0.199 HD
BRANCH  26  28
HETATM   28  N2  UNL     1     -16.189  35.347  -4.235  1.00  0.00    -0.246 NA
BRANCH  28  29
HETATM   29  N1  UNL     1     -15.122  35.842  -3.957  1.00  0.00    -0.261 N 
ATOM     30  H12 UNL     1     -15.368  36.645  -4.537  1.00  0.00     0.193 HD
ATOM     31  H11 UNL     1     -14.196  36.110  -3.625  1.00  0.00     0.193 HD
ENDBRANCH  28  29
ENDBRANCH  26  28
ENDBRANCH   1  26
TORSDOF 8
ENDMDL
