MODEL 1
REMARK VINA RESULT: -6.484087255      0.000      0.000
REMARK  5 active torsions:
REMARK  status: ('A' for Active; 'I' for Inactive)
REMARK    1  A    between atoms: C10_11  and  O2_12 
REMARK    2  A    between atoms: O2_12  and  C11_13 
REMARK    3  A    between atoms: C14_17  and  O4_18 
REMARK    4  A    between atoms: C15_20  and  O5_21 
REMARK    5  A    between atoms: C16_23  and  O6_24 
ROOT
HETATM    1  C1  UNL     1     -19.382  34.721  -4.030  1.00  0.00     0.017 C 
HETATM    2  C2  UNL     1     -18.475  34.855  -4.801  1.00  0.00    -0.080 C 
HETATM    3  C3  UNL     1     -17.379  35.016  -5.731  1.00  0.00     0.025 C 
HETATM    4  C4  UNL     1     -16.132  35.172  -5.230  1.00  0.00     0.023 C 
HETATM    5  C5  UNL     1     -15.018  35.331  -6.197  1.00  0.00     0.142 C 
HETATM    6  C6  UNL     1     -13.743  35.003  -5.402  1.00  0.00     0.044 C 
HETATM    7  O1  UNL     1     -15.142  34.257  -7.103  1.00  0.00    -0.369 OA
HETATM    8  C7  UNL     1     -16.299  34.397  -7.863  1.00  0.00     0.085 C 
HETATM    9  C8  UNL     1     -15.870  35.031  -9.191  1.00  0.00     0.049 C 
HETATM   10  C9  UNL     1     -16.730  32.974  -8.254  1.00  0.00     0.049 C 
HETATM   11  C10 UNL     1     -17.443  35.060  -7.211  1.00  0.00     0.200 C 
ENDROOT
BRANCH  11  12
HETATM   12  O2  UNL     1     -17.595  36.403  -7.557  1.00  0.00    -0.345 OA
BRANCH  12  13
HETATM   13  C11 UNL     1     -18.896  36.689  -8.042  1.00  0.00     0.292 C 
HETATM   14  O3  UNL     1     -19.370  37.669  -7.206  1.00  0.00    -0.351 OA
HETATM   15  C12 UNL     1     -20.168  38.636  -7.696  1.00  0.00     0.152 C 
HETATM   16  C13 UNL     1     -21.109  39.132  -6.618  1.00  0.00     0.042 C 
HETATM   17  C14 UNL     1     -20.969  38.305  -8.926  1.00  0.00     0.178 C 
HETATM   18  C15 UNL     1     -20.134  37.624  -9.977  1.00  0.00     0.183 C 
HETATM   19  C16 UNL     1     -18.771  37.230  -9.431  1.00  0.00     0.204 C 
BRANCH  17  20
HETATM   20  O4  UNL     1     -22.038  37.512  -8.572  1.00  0.00    -0.390 OA
ATOM     21  H4  UNL     1     -21.848  36.609  -8.801  1.00  0.00     0.210 HD
ENDBRANCH  17  20
BRANCH  18  22
HETATM   22  O5  UNL     1     -19.934  38.392 -11.116  1.00  0.00    -0.390 OA
ATOM     23  H5  UNL     1     -20.738  38.719 -11.503  1.00  0.00     0.210 HD
ENDBRANCH  18  22
BRANCH  19  24
HETATM   24  O6  UNL     1     -17.923  38.336  -9.410  1.00  0.00    -0.388 OA
ATOM     25  H6  UNL     1     -17.059  38.066  -9.699  1.00  0.00     0.210 HD
ENDBRANCH  19  24
ENDBRANCH  12  13
ENDBRANCH  11  12
TORSDOF 5
ENDMDL
MODEL 2
REMARK VINA RESULT: -6.345016874      2.540      4.616
REMARK  5 active torsions:
REMARK  status: ('A' for Active; 'I' for Inactive)
REMARK    1  A    between atoms: C10_11  and  O2_12 
REMARK    2  A    between atoms: O2_12  and  C11_13 
REMARK    3  A    between atoms: C14_17  and  O4_18 
REMARK    4  A    between atoms: C15_20  and  O5_21 
REMARK    5  A    between atoms: C16_23  and  O6_24 
ROOT
HETATM    1  C1  UNL     1     -13.340  34.947  -5.547  1.00  0.00     0.017 C 
HETATM    2  C2  UNL     1     -14.457  35.074  -5.135  1.00  0.00    -0.080 C 
HETATM    3  C3  UNL     1     -15.807  35.227  -4.637  1.00  0.00     0.025 C 
HETATM    4  C4  UNL     1     -16.101  34.716  -3.419  1.00  0.00     0.023 C 
HETATM    5  C5  UNL     1     -17.488  34.886  -2.921  1.00  0.00     0.142 C 
HETATM    6  C6  UNL     1     -17.400  34.664  -1.402  1.00  0.00     0.044 C 
HETATM    7  O1  UNL     1     -17.776  36.260  -3.050  1.00  0.00    -0.369 OA
HETATM    8  C7  UNL     1     -17.832  36.618  -4.393  1.00  0.00     0.085 C 
HETATM    9  C8  UNL     1     -19.315  36.612  -4.780  1.00  0.00     0.049 C 
HETATM   10  C9  UNL     1     -17.437  38.102  -4.459  1.00  0.00     0.049 C 
HETATM   11  C10 UNL     1     -16.958  35.869  -5.315  1.00  0.00     0.200 C 
ENDROOT
BRANCH  11  12
HETATM   12  O2  UNL     1     -17.609  34.860  -6.023  1.00  0.00    -0.345 OA
BRANCH  12  13
HETATM   13  C11 UNL     1     -17.744  35.169  -7.399  1.00  0.00     0.292 C 
HETATM   14  O3  UNL     1     -16.685  35.997  -7.675  1.00  0.00    -0.351 OA
HETATM   15  C12 UNL     1     -16.082  35.932  -8.877  1.00  0.00     0.152 C 
HETATM   16  C13 UNL     1     -15.502  37.283  -9.243  1.00  0.00     0.042 C 
HETATM   17  C14 UNL     1     -16.907  35.428 -10.030  1.00  0.00     0.178 C 
HETATM   18  C15 UNL     1     -17.674  34.184  -9.674  1.00  0.00     0.183 C 
HETATM   19  C16 UNL     1     -17.609  33.902  -8.182  1.00  0.00     0.204 C 
BRANCH  17  20
HETATM   20  O4  UNL     1     -17.766  36.423 -10.442  1.00  0.00    -0.390 OA
ATOM     21  H4  UNL     1     -17.265  37.198 -10.666  1.00  0.00     0.210 HD
ENDBRANCH  17  20
BRANCH  18  22
HETATM   22  O5  UNL     1     -17.240  33.049 -10.344  1.00  0.00    -0.390 OA
ATOM     23  H5  UNL     1     -16.855  32.392  -9.775  1.00  0.00     0.210 HD
ENDBRANCH  18  22
BRANCH  19  24
HETATM   24  O6  UNL     1     -16.394  33.299  -7.858  1.00  0.00    -0.388 OA
ATOM     25  H6  UNL     1     -16.313  33.261  -6.912  1.00  0.00     0.210 HD
ENDBRANCH  19  24
ENDBRANCH  12  13
ENDBRANCH  11  12
TORSDOF 5
ENDMDL
MODEL 3
REMARK VINA RESULT: -6.316137363      2.261      4.623
REMARK  5 active torsions:
REMARK  status: ('A' for Active; 'I' for Inactive)
REMARK    1  A    between atoms: C10_11  and  O2_12 
REMARK    2  A    between atoms: O2_12  and  C11_13 
REMARK    3  A    between atoms: C14_17  and  O4_18 
REMARK    4  A    between atoms: C15_20  and  O5_21 
REMARK    5  A    between atoms: C16_23  and  O6_24 
ROOT
HETATM    1  C1  UNL     1     -13.377  34.978  -5.368  1.00  0.00     0.017 C 
HETATM    2  C2  UNL     1     -14.496  35.108  -4.962  1.00  0.00    -0.080 C 
HETATM    3  C3  UNL     1     -15.847  35.266  -4.470  1.00  0.00     0.025 C 
HETATM    4  C4  UNL     1     -16.160  34.723  -3.271  1.00  0.00     0.023 C 
HETATM    5  C5  UNL     1     -17.548  34.898  -2.778  1.00  0.00     0.142 C 
HETATM    6  C6  UNL     1     -17.477  34.632  -1.266  1.00  0.00     0.044 C 
HETATM    7  O1  UNL     1     -17.816  36.280  -2.871  1.00  0.00    -0.369 OA
HETATM    8  C7  UNL     1     -17.856  36.676  -4.203  1.00  0.00     0.085 C 
HETATM    9  C8  UNL     1     -19.335  36.702  -4.603  1.00  0.00     0.049 C 
HETATM   10  C9  UNL     1     -17.441  38.156  -4.223  1.00  0.00     0.049 C 
HETATM   11  C10 UNL     1     -16.984  35.943  -5.139  1.00  0.00     0.200 C 
ENDROOT
BRANCH  11  12
HETATM   12  O2  UNL     1     -17.643  34.963  -5.881  1.00  0.00    -0.345 OA
BRANCH  12  13
HETATM   13  C11 UNL     1     -17.183  34.902  -7.220  1.00  0.00     0.292 C 
HETATM   14  O3  UNL     1     -17.848  33.833  -7.768  1.00  0.00    -0.351 OA
HETATM   15  C12 UNL     1     -18.227  33.873  -9.059  1.00  0.00     0.152 C 
HETATM   16  C13 UNL     1     -18.258  32.473  -9.636  1.00  0.00     0.042 C 
HETATM   17  C14 UNL     1     -17.433  34.761  -9.979  1.00  0.00     0.178 C 
HETATM   18  C15 UNL     1     -17.191  36.120  -9.381  1.00  0.00     0.183 C 
HETATM   19  C16 UNL     1     -17.596  36.161  -7.917  1.00  0.00     0.204 C 
BRANCH  17  20
HETATM   20  O4  UNL     1     -16.237  34.148 -10.281  1.00  0.00    -0.390 OA
ATOM     21  H4  UNL     1     -16.240  33.888 -11.195  1.00  0.00     0.210 HD
ENDBRANCH  17  20
BRANCH  18  22
HETATM   22  O5  UNL     1     -17.856  37.146 -10.038  1.00  0.00    -0.390 OA
ATOM     23  H5  UNL     1     -17.498  37.348 -10.895  1.00  0.00     0.210 HD
ENDBRANCH  18  22
BRANCH  19  24
HETATM   24  O6  UNL     1     -18.977  36.307  -7.802  1.00  0.00    -0.388 OA
ATOM     25  H6  UNL     1     -19.187  36.547  -6.907  1.00  0.00     0.210 HD
ENDBRANCH  19  24
ENDBRANCH  12  13
ENDBRANCH  11  12
TORSDOF 5
ENDMDL
MODEL 4
REMARK VINA RESULT: -5.993793892      2.637      5.265
REMARK  5 active torsions:
REMARK  status: ('A' for Active; 'I' for Inactive)
REMARK    1  A    between atoms: C10_11  and  O2_12 
REMARK    2  A    between atoms: O2_12  and  C11_13 
REMARK    3  A    between atoms: C14_17  and  O4_18 
REMARK    4  A    between atoms: C15_20  and  O5_21 
REMARK    5  A    between atoms: C16_23  and  O6_24 
ROOT
HETATM    1  C1  UNL     1     -15.079  34.242  -2.619  1.00  0.00     0.017 C 
HETATM    2  C2  UNL     1     -16.059  34.857  -2.929  1.00  0.00    -0.080 C 
HETATM    3  C3  UNL     1     -17.242  35.600  -3.302  1.00  0.00     0.025 C 
HETATM    4  C4  UNL     1     -18.307  35.570  -2.468  1.00  0.00     0.023 C 
HETATM    5  C5  UNL     1     -19.511  36.341  -2.863  1.00  0.00     0.142 C 
HETATM    6  C6  UNL     1     -20.320  36.518  -1.568  1.00  0.00     0.044 C 
HETATM    7  O1  UNL     1     -19.053  37.641  -3.160  1.00  0.00    -0.369 OA
HETATM    8  C7  UNL     1     -18.250  37.623  -4.296  1.00  0.00     0.085 C 
HETATM    9  C8  UNL     1     -19.150  38.034  -5.467  1.00  0.00     0.049 C 
HETATM   10  C9  UNL     1     -17.272  38.800  -4.149  1.00  0.00     0.049 C 
HETATM   11  C10 UNL     1     -17.463  36.399  -4.531  1.00  0.00     0.200 C 
ENDROOT
BRANCH  11  12
HETATM   12  O2  UNL     1     -18.026  35.531  -5.467  1.00  0.00    -0.345 OA
BRANCH  12  13
HETATM   13  C11 UNL     1     -17.054  34.959  -6.324  1.00  0.00     0.292 C 
HETATM   14  O3  UNL     1     -17.769  34.143  -7.165  1.00  0.00    -0.351 OA
HETATM   15  C12 UNL     1     -17.384  34.006  -8.448  1.00  0.00     0.152 C 
HETATM   16  C13 UNL     1     -17.779  32.638  -8.966  1.00  0.00     0.042 C 
HETATM   17  C14 UNL     1     -15.931  34.243  -8.757  1.00  0.00     0.178 C 
HETATM   18  C15 UNL     1     -15.412  35.496  -8.105  1.00  0.00     0.183 C 
HETATM   19  C16 UNL     1     -16.417  36.059  -7.113  1.00  0.00     0.204 C 
BRANCH  17  20
HETATM   20  O4  UNL     1     -15.197  33.150  -8.351  1.00  0.00    -0.390 OA
ATOM     21  H4  UNL     1     -15.781  32.412  -8.216  1.00  0.00     0.210 HD
ENDBRANCH  17  20
BRANCH  18  22
HETATM   22  O5  UNL     1     -15.089  36.501  -9.005  1.00  0.00    -0.390 OA
ATOM     23  H5  UNL     1     -14.311  36.319  -9.519  1.00  0.00     0.210 HD
ENDBRANCH  18  22
BRANCH  19  24
HETATM   24  O6  UNL     1     -17.412  36.767  -7.784  1.00  0.00    -0.388 OA
ATOM     25  H6  UNL     1     -17.194  37.692  -7.769  1.00  0.00     0.210 HD
ENDBRANCH  19  24
ENDBRANCH  12  13
ENDBRANCH  11  12
TORSDOF 5
ENDMDL
MODEL 5
REMARK VINA RESULT: -5.989839177      4.687      6.772
REMARK  5 active torsions:
REMARK  status: ('A' for Active; 'I' for Inactive)
REMARK    1  A    between atoms: C10_11  and  O2_12 
REMARK    2  A    between atoms: O2_12  and  C11_13 
REMARK    3  A    between atoms: C14_17  and  O4_18 
REMARK    4  A    between atoms: C15_20  and  O5_21 
REMARK    5  A    between atoms: C16_23  and  O6_24 
ROOT
HETATM    1  C1  UNL     1     -15.932  33.150  -0.503  1.00  0.00     0.017 C 
HETATM    2  C2  UNL     1     -16.223  33.833  -1.442  1.00  0.00    -0.080 C 
HETATM    3  C3  UNL     1     -16.574  34.658  -2.578  1.00  0.00     0.025 C 
HETATM    4  C4  UNL     1     -15.591  35.022  -3.433  1.00  0.00     0.023 C 
HETATM    5  C5  UNL     1     -15.968  35.864  -4.595  1.00  0.00     0.142 C 
HETATM    6  C6  UNL     1     -14.813  35.707  -5.599  1.00  0.00     0.044 C 
HETATM    7  O1  UNL     1     -17.050  35.202  -5.212  1.00  0.00    -0.369 OA
HETATM    8  C7  UNL     1     -18.164  35.219  -4.380  1.00  0.00     0.085 C 
HETATM    9  C8  UNL     1     -19.040  36.384  -4.855  1.00  0.00     0.049 C 
HETATM   10  C9  UNL     1     -18.985  33.969  -4.737  1.00  0.00     0.049 C 
HETATM   11  C10 UNL     1     -17.908  35.200  -2.929  1.00  0.00     0.200 C 
ENDROOT
BRANCH  11  12
HETATM   12  O2  UNL     1     -17.996  36.451  -2.319  1.00  0.00    -0.345 OA
BRANCH  12  13
HETATM   13  C11 UNL     1     -18.890  36.452  -1.219  1.00  0.00     0.292 C 
HETATM   14  O3  UNL     1     -18.095  36.697  -0.126  1.00  0.00    -0.351 OA
HETATM   15  C12 UNL     1     -18.574  37.432   0.895  1.00  0.00     0.152 C 
HETATM   16  C13 UNL     1     -17.920  37.007   2.193  1.00  0.00     0.042 C 
HETATM   17  C14 UNL     1     -20.067  37.449   1.086  1.00  0.00     0.178 C 
HETATM   18  C15 UNL     1     -20.798  37.673  -0.210  1.00  0.00     0.183 C 
HETATM   19  C16 UNL     1     -19.858  37.578  -1.400  1.00  0.00     0.204 C 
BRANCH  17  20
HETATM   20  O4  UNL     1     -20.464  36.264   1.665  1.00  0.00    -0.390 OA
ATOM     21  H4  UNL     1     -19.699  35.729   1.842  1.00  0.00     0.210 HD
ENDBRANCH  17  20
BRANCH  18  22
HETATM   22  O5  UNL     1     -21.454  38.894  -0.278  1.00  0.00    -0.390 OA
ATOM     23  H5  UNL     1     -22.281  38.859  -0.743  1.00  0.00     0.210 HD
ENDBRANCH  18  22
BRANCH  19  24
HETATM   24  O6  UNL     1     -19.144  38.767  -1.546  1.00  0.00    -0.388 OA
ATOM     25  H6  UNL     1     -18.263  38.639  -1.215  1.00  0.00     0.210 HD
ENDBRANCH  19  24
ENDBRANCH  12  13
ENDBRANCH  11  12
TORSDOF 5
ENDMDL
