MODEL 1
REMARK VINA RESULT: -6.422663393      0.000      0.000
REMARK  8 active torsions:
REMARK  status: ('A' for Active; 'I' for Inactive)
REMARK    1  A    between atoms: C2_2  and  C3_3 
REMARK    2  A    between atoms: C4_4  and  O1_5 
REMARK    3  A    between atoms: C6_9  and  C7_10 
REMARK    4  A    between atoms: C7_10  and  N2_11 
REMARK    5  A    between atoms: N2_11  and  N3_13 
REMARK    6  A    between atoms: N3_13  and  N4_14 
REMARK    7  A    between atoms: C13_23  and  O2_24 
REMARK    8  A    between atoms: C14_26  and  O3_27 
ROOT
HETATM    1  C3  UNL     1     -16.756  35.071  -3.254  1.00  0.00     0.047 C 
HETATM    2  C4  UNL     1     -18.230  34.747  -3.300  1.00  0.00     0.153 C 
HETATM    3  C5  UNL     1     -19.029  35.762  -2.462  1.00  0.00     0.308 C 
HETATM    4  N1  UNL     1     -18.145  36.216  -1.448  1.00  0.00     0.136 N 
HETATM    5  C6  UNL     1     -18.579  37.257  -0.594  1.00  0.00     0.477 C 
HETATM    6  N5  UNL     1     -18.999  36.627   0.647  1.00  0.00     0.131 N 
HETATM    7  C8  UNL     1     -18.944  37.528   1.760  1.00  0.00     0.314 C 
HETATM    8  C9  UNL     1     -18.130  35.471   0.794  1.00  0.00     0.188 C 
HETATM    9  C10 UNL     1     -19.004  34.354   1.348  1.00  0.00     0.051 C 
HETATM   10  C11 UNL     1     -16.999  35.671   1.735  1.00  0.00     0.051 C 
HETATM   11  C12 UNL     1     -17.740  35.104  -0.600  1.00  0.00     0.294 C 
HETATM   12  C13 UNL     1     -16.281  34.847  -0.802  1.00  0.00     0.183 C 
HETATM   13  C14 UNL     1     -16.023  34.302  -2.188  1.00  0.00     0.155 C 
ENDROOT
BRANCH   5  14
HETATM   14  C7  UNL     1     -19.657  38.151  -1.086  1.00  0.00     0.224 C 
BRANCH  14  15
HETATM   15  N2  UNL     1     -20.906  38.059  -0.372  1.00  0.00    -0.249 N 
ATOM     16  H2  UNL     1     -21.234  37.169   0.001  1.00  0.00     0.197 HD
BRANCH  15  17
HETATM   17  N3  UNL     1     -21.560  39.080  -0.227  1.00  0.00    -0.248 NA
BRANCH  17  18
HETATM   18  N4  UNL     1     -21.967  40.259  -0.225  1.00  0.00    -0.261 N 
ATOM     19  H42 UNL     1     -21.129  40.610   0.239  1.00  0.00     0.193 HD
ATOM     20  H41 UNL     1     -22.512  41.113  -0.345  1.00  0.00     0.193 HD
ENDBRANCH  17  18
ENDBRANCH  15  17
ENDBRANCH  14  15
ENDBRANCH   5  14
BRANCH   2  21
HETATM   21  O1  UNL     1     -18.625  34.916  -4.643  1.00  0.00    -0.393 OA
ATOM     22  H1  UNL     1     -19.278  34.245  -4.811  1.00  0.00     0.210 HD
ENDBRANCH   2  21
BRANCH  12  23
HETATM   23  O2  UNL     1     -15.863  33.834   0.091  1.00  0.00    -0.391 OA
ATOM     24  H2  UNL     1     -16.408  33.066  -0.034  1.00  0.00     0.210 HD
ENDBRANCH  12  23
BRANCH   1  25
HETATM   25  C2  UNL     1     -16.110  34.890  -4.620  1.00  0.00     0.005 C 
HETATM   26  C1  UNL     1     -15.757  36.214  -5.249  1.00  0.00     0.005 C 
ENDBRANCH   1  25
BRANCH  13  27
HETATM   27  O3  UNL     1     -14.652  34.484  -2.432  1.00  0.00    -0.392 OA
ATOM     28  H3  UNL     1     -14.200  34.253  -1.629  1.00  0.00     0.210 HD
ENDBRANCH  13  27
TORSDOF 8
ENDMDL
MODEL 2
REMARK VINA RESULT: -6.049132711      4.871      7.404
REMARK  8 active torsions:
REMARK  status: ('A' for Active; 'I' for Inactive)
REMARK    1  A    between atoms: C2_2  and  C3_3 
REMARK    2  A    between atoms: C4_4  and  O1_5 
REMARK    3  A    between atoms: C6_9  and  C7_10 
REMARK    4  A    between atoms: C7_10  and  N2_11 
REMARK    5  A    between atoms: N2_11  and  N3_13 
REMARK    6  A    between atoms: N3_13  and  N4_14 
REMARK    7  A    between atoms: C13_23  and  O2_24 
REMARK    8  A    between atoms: C14_26  and  O3_27 
ROOT
HETATM    1  C3  UNL     1     -16.838  35.386  -8.859  1.00  0.00     0.047 C 
HETATM    2  C4  UNL     1     -15.995  36.618  -8.632  1.00  0.00     0.153 C 
HETATM    3  C5  UNL     1     -15.027  36.397  -7.456  1.00  0.00     0.308 C 
HETATM    4  N1  UNL     1     -15.658  35.456  -6.599  1.00  0.00     0.136 N 
HETATM    5  C6  UNL     1     -14.935  34.971  -5.485  1.00  0.00     0.477 C 
HETATM    6  N5  UNL     1     -15.414  35.707  -4.327  1.00  0.00     0.131 N 
HETATM    7  C8  UNL     1     -15.202  34.993  -3.102  1.00  0.00     0.314 C 
HETATM    8  C9  UNL     1     -16.815  35.977  -4.607  1.00  0.00     0.188 C 
HETATM    9  C10 UNL     1     -17.084  37.386  -4.096  1.00  0.00     0.051 C 
HETATM   10  C11 UNL     1     -17.762  35.059  -3.925  1.00  0.00     0.051 C 
HETATM   11  C12 UNL     1     -16.912  35.999  -6.097  1.00  0.00     0.294 C 
HETATM   12  C13 UNL     1     -18.046  35.210  -6.669  1.00  0.00     0.183 C 
HETATM   13  C14 UNL     1     -18.167  35.452  -8.155  1.00  0.00     0.155 C 
ENDROOT
BRANCH   5  14
HETATM   14  C7  UNL     1     -13.454  35.039  -5.539  1.00  0.00     0.224 C 
BRANCH  14  15
HETATM   15  N2  UNL     1     -12.782  33.767  -5.650  1.00  0.00    -0.249 N 
ATOM     16  H2  UNL     1     -12.989  33.130  -6.419  1.00  0.00     0.197 HD
BRANCH  15  17
HETATM   17  N3  UNL     1     -11.959  33.477  -4.797  1.00  0.00    -0.248 NA
BRANCH  17  18
HETATM   18  N4  UNL     1     -11.355  33.286  -3.723  1.00  0.00    -0.261 N 
ATOM     19  H42 UNL     1     -10.996  34.240  -3.687  1.00  0.00     0.193 HD
ATOM     20  H41 UNL     1     -10.965  32.883  -2.870  1.00  0.00     0.193 HD
ENDBRANCH  17  18
ENDBRANCH  15  17
ENDBRANCH  14  15
ENDBRANCH   5  14
BRANCH   2  21
HETATM   21  O1  UNL     1     -15.209  36.772  -9.793  1.00  0.00    -0.393 OA
ATOM     22  H1  UNL     1     -15.546  37.540 -10.239  1.00  0.00     0.210 HD
ENDBRANCH   2  21
BRANCH  12  23
HETATM   23  O2  UNL     1     -19.258  35.670  -6.106  1.00  0.00    -0.391 OA
ATOM     24  H2  UNL     1     -19.889  35.813  -6.802  1.00  0.00     0.210 HD
ENDBRANCH  12  23
BRANCH   1  25
HETATM   25  C2  UNL     1     -17.004  35.099 -10.344  1.00  0.00     0.005 C 
HETATM   26  C1  UNL     1     -16.348  33.798 -10.736  1.00  0.00     0.005 C 
ENDBRANCH   1  25
BRANCH  13  27
HETATM   27  O3  UNL     1     -18.943  34.397  -8.663  1.00  0.00    -0.392 OA
ATOM     28  H3  UNL     1     -19.039  33.767  -7.959  1.00  0.00     0.210 HD
ENDBRANCH  13  27
TORSDOF 8
ENDMDL
MODEL 3
REMARK VINA RESULT: -5.944362886      1.373      2.084
REMARK  8 active torsions:
REMARK  status: ('A' for Active; 'I' for Inactive)
REMARK    1  A    between atoms: C2_2  and  C3_3 
REMARK    2  A    between atoms: C4_4  and  O1_5 
REMARK    3  A    between atoms: C6_9  and  C7_10 
REMARK    4  A    between atoms: C7_10  and  N2_11 
REMARK    5  A    between atoms: N2_11  and  N3_13 
REMARK    6  A    between atoms: N3_13  and  N4_14 
REMARK    7  A    between atoms: C13_23  and  O2_24 
REMARK    8  A    between atoms: C14_26  and  O3_27 
ROOT
HETATM    1  C3  UNL     1     -16.570  35.681  -5.137  1.00  0.00     0.047 C 
HETATM    2  C4  UNL     1     -17.802  34.813  -5.039  1.00  0.00     0.153 C 
HETATM    3  C5  UNL     1     -18.656  35.228  -3.828  1.00  0.00     0.308 C 
HETATM    4  N1  UNL     1     -17.753  35.778  -2.879  1.00  0.00     0.136 N 
HETATM    5  C6  UNL     1     -18.283  36.358  -1.703  1.00  0.00     0.477 C 
HETATM    6  N5  UNL     1     -18.126  35.372  -0.647  1.00  0.00     0.131 N 
HETATM    7  C8  UNL     1     -18.100  35.969   0.655  1.00  0.00     0.314 C 
HETATM    8  C9  UNL     1     -16.907  34.654  -0.981  1.00  0.00     0.188 C 
HETATM    9  C10 UNL     1     -17.170  33.194  -0.642  1.00  0.00     0.051 C 
HETATM   10  C11 UNL     1     -15.712  35.090  -0.215  1.00  0.00     0.051 C 
HETATM   11  C12 UNL     1     -16.787  34.770  -2.466  1.00  0.00     0.294 C 
HETATM   12  C13 UNL     1     -15.433  35.163  -2.963  1.00  0.00     0.183 C 
HETATM   13  C14 UNL     1     -15.370  35.065  -4.469  1.00  0.00     0.155 C 
ENDROOT
BRANCH   5  14
HETATM   14  C7  UNL     1     -19.690  36.829  -1.738  1.00  0.00     0.224 C 
BRANCH  14  15
HETATM   15  N2  UNL     1     -19.874  38.237  -1.486  1.00  0.00    -0.249 N 
ATOM     16  H2  UNL     1     -19.254  38.930  -1.903  1.00  0.00     0.197 HD
BRANCH  15  17
HETATM   17  N3  UNL     1     -20.794  38.573  -0.757  1.00  0.00    -0.248 NA
BRANCH  17  18
HETATM   18  N4  UNL     1     -21.671  39.212  -0.143  1.00  0.00    -0.261 N 
ATOM     19  H42 UNL     1     -21.083  39.342   0.681  1.00  0.00     0.193 HD
ATOM     20  H41 UNL     1     -22.528  39.691   0.135  1.00  0.00     0.193 HD
ENDBRANCH  17  18
ENDBRANCH  15  17
ENDBRANCH  14  15
ENDBRANCH   5  14
BRANCH   2  21
HETATM   21  O1  UNL     1     -18.563  35.084  -6.195  1.00  0.00    -0.393 OA
ATOM     22  H1  UNL     1     -19.339  35.544  -5.897  1.00  0.00     0.210 HD
ENDBRANCH   2  21
BRANCH  12  23
HETATM   23  O2  UNL     1     -14.478  34.240  -2.479  1.00  0.00    -0.391 OA
ATOM     24  H2  UNL     1     -13.609  34.538  -2.720  1.00  0.00     0.210 HD
ENDBRANCH  12  23
BRANCH   1  25
HETATM   25  C2  UNL     1     -16.276  36.058  -6.581  1.00  0.00     0.005 C 
HETATM   26  C1  UNL     1     -15.686  34.902  -7.350  1.00  0.00     0.005 C 
ENDBRANCH   1  25
BRANCH  13  27
HETATM   27  O3  UNL     1     -14.256  35.825  -4.865  1.00  0.00    -0.392 OA
ATOM     28  H3  UNL     1     -13.519  35.227  -4.902  1.00  0.00     0.210 HD
ENDBRANCH  13  27
TORSDOF 8
ENDMDL
MODEL 4
REMARK VINA RESULT: -5.937436905      3.442      5.602
REMARK  8 active torsions:
REMARK  status: ('A' for Active; 'I' for Inactive)
REMARK    1  A    between atoms: C2_2  and  C3_3 
REMARK    2  A    between atoms: C4_4  and  O1_5 
REMARK    3  A    between atoms: C6_9  and  C7_10 
REMARK    4  A    between atoms: C7_10  and  N2_11 
REMARK    5  A    between atoms: N2_11  and  N3_13 
REMARK    6  A    between atoms: N3_13  and  N4_14 
REMARK    7  A    between atoms: C13_23  and  O2_24 
REMARK    8  A    between atoms: C14_26  and  O3_27 
ROOT
HETATM    1  C3  UNL     1     -16.052  34.391  -7.072  1.00  0.00     0.047 C 
HETATM    2  C4  UNL     1     -15.053  35.355  -6.480  1.00  0.00     0.153 C 
HETATM    3  C5  UNL     1     -15.194  35.400  -4.948  1.00  0.00     0.308 C 
HETATM    4  N1  UNL     1     -16.549  35.081  -4.669  1.00  0.00     0.136 N 
HETATM    5  C6  UNL     1     -16.939  34.930  -3.317  1.00  0.00     0.477 C 
HETATM    6  N5  UNL     1     -17.595  36.168  -2.934  1.00  0.00     0.131 N 
HETATM    7  C8  UNL     1     -18.498  35.989  -1.835  1.00  0.00     0.314 C 
HETATM    8  C9  UNL     1     -18.245  36.641  -4.146  1.00  0.00     0.188 C 
HETATM    9  C10 UNL     1     -18.073  38.153  -4.156  1.00  0.00     0.051 C 
HETATM   10  C11 UNL     1     -19.699  36.349  -4.214  1.00  0.00     0.051 C 
HETATM   11  C12 UNL     1     -17.430  36.076  -5.263  1.00  0.00     0.294 C 
HETATM   12  C13 UNL     1     -18.219  35.432  -6.358  1.00  0.00     0.183 C 
HETATM   13  C14 UNL     1     -17.321  35.068  -7.518  1.00  0.00     0.155 C 
ENDROOT
BRANCH   5  14
HETATM   14  C7  UNL     1     -15.886  34.598  -2.326  1.00  0.00     0.224 C 
BRANCH  14  15
HETATM   15  N2  UNL     1     -16.236  33.571  -1.376  1.00  0.00    -0.249 N 
ATOM     16  H2  UNL     1     -16.493  32.635  -1.686  1.00  0.00     0.197 HD
BRANCH  15  17
HETATM   17  N3  UNL     1     -16.214  33.857  -0.189  1.00  0.00    -0.248 NA
BRANCH  17  18
HETATM   18  N4  UNL     1     -16.308  34.435   0.911  1.00  0.00    -0.261 N 
ATOM     19  H42 UNL     1     -16.931  33.726   1.298  1.00  0.00     0.193 HD
ATOM     20  H41 UNL     1     -16.219  35.085   1.693  1.00  0.00     0.193 HD
ENDBRANCH  17  18
ENDBRANCH  15  17
ENDBRANCH  14  15
ENDBRANCH   5  14
BRANCH   2  21
HETATM   21  O1  UNL     1     -13.779  34.820  -6.764  1.00  0.00    -0.393 OA
ATOM     22  H1  UNL     1     -13.434  35.332  -7.486  1.00  0.00     0.210 HD
ENDBRANCH   2  21
BRANCH  12  23
HETATM   23  O2  UNL     1     -19.146  36.368  -6.871  1.00  0.00    -0.391 OA
ATOM     24  H2  UNL     1     -19.651  35.957  -7.562  1.00  0.00     0.210 HD
ENDBRANCH  12  23
BRANCH   1  25
HETATM   25  C2  UNL     1     -15.430  33.574  -8.195  1.00  0.00     0.005 C 
HETATM   26  C1  UNL     1     -15.298  34.379  -9.463  1.00  0.00     0.005 C 
ENDBRANCH   1  25
BRANCH  13  27
HETATM   27  O3  UNL     1     -18.030  34.128  -8.284  1.00  0.00    -0.392 OA
ATOM     28  H3  UNL     1     -18.952  34.269  -8.102  1.00  0.00     0.210 HD
ENDBRANCH  13  27
TORSDOF 8
ENDMDL
MODEL 5
REMARK VINA RESULT: -5.908139868      4.184      7.454
REMARK  8 active torsions:
REMARK  status: ('A' for Active; 'I' for Inactive)
REMARK    1  A    between atoms: C2_2  and  C3_3 
REMARK    2  A    between atoms: C4_4  and  O1_5 
REMARK    3  A    between atoms: C6_9  and  C7_10 
REMARK    4  A    between atoms: C7_10  and  N2_11 
REMARK    5  A    between atoms: N2_11  and  N3_13 
REMARK    6  A    between atoms: N3_13  and  N4_14 
REMARK    7  A    between atoms: C13_23  and  O2_24 
REMARK    8  A    between atoms: C14_26  and  O3_27 
ROOT
HETATM    1  C3  UNL     1     -18.310  37.213  -3.688  1.00  0.00     0.047 C 
HETATM    2  C4  UNL     1     -18.382  35.743  -3.354  1.00  0.00     0.153 C 
HETATM    3  C5  UNL     1     -17.075  35.037  -3.758  1.00  0.00     0.308 C 
HETATM    4  N1  UNL     1     -16.546  35.782  -4.845  1.00  0.00     0.136 N 
HETATM    5  C6  UNL     1     -15.271  35.426  -5.346  1.00  0.00     0.477 C 
HETATM    6  N5  UNL     1     -15.503  34.643  -6.549  1.00  0.00     0.131 N 
HETATM    7  C8  UNL     1     -14.383  34.673  -7.442  1.00  0.00     0.314 C 
HETATM    8  C9  UNL     1     -16.720  35.191  -7.126  1.00  0.00     0.188 C 
HETATM    9  C10 UNL     1     -17.506  34.003  -7.662  1.00  0.00     0.051 C 
HETATM   10  C11 UNL     1     -16.493  36.131  -8.253  1.00  0.00     0.051 C 
HETATM   11  C12 UNL     1     -17.473  35.758  -5.967  1.00  0.00     0.294 C 
HETATM   12  C13 UNL     1     -18.014  37.136  -6.177  1.00  0.00     0.183 C 
HETATM   13  C14 UNL     1     -18.913  37.535  -5.030  1.00  0.00     0.155 C 
ENDROOT
BRANCH   5  14
HETATM   14  C7  UNL     1     -14.354  34.688  -4.443  1.00  0.00     0.224 C 
BRANCH  14  15
HETATM   15  N2  UNL     1     -12.954  34.788  -4.772  1.00  0.00    -0.249 N 
ATOM     16  H2  UNL     1     -12.596  35.576  -5.312  1.00  0.00     0.197 HD
BRANCH  15  17
HETATM   17  N3  UNL     1     -12.209  33.901  -4.386  1.00  0.00    -0.248 NA
BRANCH  17  18
HETATM   18  N4  UNL     1     -11.366  33.222  -3.767  1.00  0.00    -0.261 N 
ATOM     19  H42 UNL     1     -11.376  33.840  -2.955  1.00  0.00     0.193 HD
ATOM     20  H41 UNL     1     -10.687  32.515  -3.483  1.00  0.00     0.193 HD
ENDBRANCH  17  18
ENDBRANCH  15  17
ENDBRANCH  14  15
ENDBRANCH   5  14
BRANCH   2  21
HETATM   21  O1  UNL     1     -18.478  35.666  -1.949  1.00  0.00    -0.393 OA
ATOM     22  H1  UNL     1     -17.697  35.210  -1.657  1.00  0.00     0.210 HD
ENDBRANCH   2  21
BRANCH  12  23
HETATM   23  O2  UNL     1     -18.838  37.138  -7.326  1.00  0.00    -0.391 OA
ATOM     24  H2  UNL     1     -19.192  36.266  -7.456  1.00  0.00     0.210 HD
ENDBRANCH  12  23
BRANCH   1  25
HETATM   25  C2  UNL     1     -18.922  38.060  -2.582  1.00  0.00     0.005 C 
HETATM   26  C1  UNL     1     -20.429  37.987  -2.594  1.00  0.00     0.005 C 
ENDBRANCH   1  25
BRANCH  13  27
HETATM   27  O3  UNL     1     -19.030  38.934  -5.092  1.00  0.00    -0.392 OA
ATOM     28  H3  UNL     1     -18.155  39.274  -5.239  1.00  0.00     0.210 HD
ENDBRANCH  13  27
TORSDOF 8
ENDMDL
