MODEL 1
REMARK VINA RESULT: -5.739129864      0.000      0.000
REMARK  9 active torsions:
REMARK  status: ('A' for Active; 'I' for Inactive)
REMARK    1  A    between atoms: C1_4  and  C2_6 
REMARK       I    between atoms: C2_6  and  N3_8 
REMARK    2  A    between atoms: N3_8  and  C3_9 
REMARK    3  A    between atoms: C3_9  and  C4_10 
REMARK    4  A    between atoms: C4_10  and  N4_11 
REMARK    5  A    between atoms: N4_11  and  C5_13 
REMARK    6  A    between atoms: C9_17  and  C10_18 
REMARK    7  A    between atoms: C11_20  and  N5_21 
REMARK    8  A    between atoms: N5_21  and  N6_22 
REMARK    9  A    between atoms: N5_21  and  O3_25 
ROOT
HETATM    1  C5  UNL     1      22.742   0.996 151.527  1.00  0.00     0.060 A 
HETATM    2  C6  UNL     1      23.594   1.494 152.526  1.00  0.00     0.031 A 
HETATM    3  C7  UNL     1      23.045   2.471 153.328  1.00  0.00     0.003 A 
HETATM    4  C8  UNL     1      21.787   2.930 153.197  1.00  0.00     0.017 A 
HETATM    5  C9  UNL     1      20.937   2.416 152.198  1.00  0.00     0.035 A 
HETATM    6  C11 UNL     1      21.426   1.441 151.348  1.00  0.00     0.120 A 
ENDROOT
BRANCH   1   7
HETATM    7  N4  UNL     1      23.353   0.029 150.666  1.00  0.00    -0.382 N 
ATOM      8  H4  UNL     1      23.371  -0.958 150.926  1.00  0.00     0.160 HD
BRANCH   7   9
HETATM    9  C4  UNL     1      23.942   0.468 149.429  1.00  0.00     0.179 C 
BRANCH   9  10
HETATM   10  C3  UNL     1      23.786  -0.425 148.222  1.00  0.00     0.179 C 
BRANCH  10  11
HETATM   11  N3  UNL     1      23.137   0.268 147.201  1.00  0.00    -0.380 NA
HETATM   12  C2  UNL     1      22.498   0.963 146.184  1.00  0.00     0.356 C 
HETATM   13  O1  UNL     1      23.056   2.015 145.727  1.00  0.00    -0.248 OA
BRANCH  12  14
HETATM   14  C1  UNL     1      21.175   0.572 145.604  1.00  0.00     0.193 C 
HETATM   15  N1  UNL     1      20.249   0.109 146.257  1.00  0.00    -0.382 N 
ATOM     16  H12 UNL     1      19.348  -0.157 145.862  1.00  0.00     0.157 HD
ATOM     17  H11 UNL     1      20.327  -0.137 147.244  1.00  0.00     0.157 HD
HETATM   18  N2  UNL     1      21.065   0.920 144.210  1.00  0.00    -0.076 NA
ENDBRANCH  12  14
ENDBRANCH  10  11
ENDBRANCH   9  10
ENDBRANCH   7   9
ENDBRANCH   1   7
BRANCH   6  19
HETATM   19  N5  UNL     1      20.653   0.883 150.314  1.00  0.00    -0.167 N 
BRANCH  19  20
HETATM   20  N6  UNL     1      19.861  -0.237 150.441  1.00  0.00    -0.319 N 
ATOM     21  H62 UNL     1      18.925  -0.036 150.793  1.00  0.00     0.179 HD
ATOM     22  H61 UNL     1      20.152  -1.187 150.205  1.00  0.00     0.179 HD
ENDBRANCH  19  20
BRANCH  19  23
HETATM   23  O3  UNL     1      20.638   1.423 149.051  1.00  0.00    -0.268 OA
ATOM     24  H3  UNL     1      20.154   2.216 148.853  1.00  0.00     0.247 HD
ENDBRANCH  19  23
ENDBRANCH   6  19
BRANCH   5  25
HETATM   25  C10 UNL     1      19.522   2.785 152.296  1.00  0.00     0.272 C 
HETATM   26  O2  UNL     1      18.802   3.511 151.670  1.00  0.00    -0.301 OA
ENDBRANCH   5  25
TORSDOF 9
ENDMDL
MODEL 2
REMARK VINA RESULT: -5.697186594      1.245      1.298
REMARK  9 active torsions:
REMARK  status: ('A' for Active; 'I' for Inactive)
REMARK    1  A    between atoms: C1_4  and  C2_6 
REMARK       I    between atoms: C2_6  and  N3_8 
REMARK    2  A    between atoms: N3_8  and  C3_9 
REMARK    3  A    between atoms: C3_9  and  C4_10 
REMARK    4  A    between atoms: C4_10  and  N4_11 
REMARK    5  A    between atoms: N4_11  and  C5_13 
REMARK    6  A    between atoms: C9_17  and  C10_18 
REMARK    7  A    between atoms: C11_20  and  N5_21 
REMARK    8  A    between atoms: N5_21  and  N6_22 
REMARK    9  A    between atoms: N5_21  and  O3_25 
ROOT
HETATM    1  C5  UNL     1      22.490   0.668 151.815  1.00  0.00     0.060 A 
HETATM    2  C6  UNL     1      23.455   1.204 152.683  1.00  0.00     0.031 A 
HETATM    3  C7  UNL     1      23.073   2.353 153.342  1.00  0.00     0.003 A 
HETATM    4  C8  UNL     1      21.870   2.939 153.194  1.00  0.00     0.017 A 
HETATM    5  C9  UNL     1      20.906   2.387 152.328  1.00  0.00     0.035 A 
HETATM    6  C11 UNL     1      21.226   1.240 151.624  1.00  0.00     0.120 A 
ENDROOT
BRANCH   1   7
HETATM    7  N4  UNL     1      22.931  -0.488 151.094  1.00  0.00    -0.382 N 
ATOM      8  H4  UNL     1      22.999  -1.393 151.560  1.00  0.00     0.160 HD
BRANCH   7   9
HETATM    9  C4  UNL     1      23.276  -0.354 149.704  1.00  0.00     0.179 C 
BRANCH   9  10
HETATM   10  C3  UNL     1      22.660  -1.331 148.732  1.00  0.00     0.179 C 
BRANCH  10  11
HETATM   11  N3  UNL     1      22.087  -0.640 147.665  1.00  0.00    -0.380 NA
HETATM   12  C2  UNL     1      21.517   0.054 146.607  1.00  0.00     0.356 C 
HETATM   13  O1  UNL     1      21.079   1.232 146.824  1.00  0.00    -0.248 OA
BRANCH  12  14
HETATM   14  C1  UNL     1      21.356  -0.503 145.228  1.00  0.00     0.193 C 
HETATM   15  N1  UNL     1      21.176  -1.689 144.983  1.00  0.00    -0.382 N 
ATOM     16  H12 UNL     1      21.066  -2.068 144.043  1.00  0.00     0.157 HD
ATOM     17  H11 UNL     1      21.209  -2.420 145.694  1.00  0.00     0.157 HD
HETATM   18  N2  UNL     1      21.310   0.529 144.223  1.00  0.00    -0.076 NA
ENDBRANCH  12  14
ENDBRANCH  10  11
ENDBRANCH   9  10
ENDBRANCH   7   9
ENDBRANCH   1   7
BRANCH   6  19
HETATM   19  N5  UNL     1      20.331   0.629 150.728  1.00  0.00    -0.167 N 
BRANCH  19  20
HETATM   20  N6  UNL     1      19.958   1.152 149.509  1.00  0.00    -0.319 N 
ATOM     21  H62 UNL     1      20.443   0.727 148.719  1.00  0.00     0.179 HD
ATOM     22  H61 UNL     1      19.261   1.886 149.378  1.00  0.00     0.179 HD
ENDBRANCH  19  20
BRANCH  19  23
HETATM   23  O3  UNL     1      19.729  -0.572 151.015  1.00  0.00    -0.268 OA
ATOM     24  H3  UNL     1      19.039  -0.642 151.664  1.00  0.00     0.247 HD
ENDBRANCH  19  23
ENDBRANCH   6  19
BRANCH   5  25
HETATM   25  C10 UNL     1      19.552   2.938 152.427  1.00  0.00     0.272 C 
HETATM   26  O2  UNL     1      18.809   3.473 151.653  1.00  0.00    -0.301 OA
ENDBRANCH   5  25
TORSDOF 9
ENDMDL
MODEL 3
REMARK VINA RESULT: -5.566537539      1.638      2.077
REMARK  9 active torsions:
REMARK  status: ('A' for Active; 'I' for Inactive)
REMARK    1  A    between atoms: C1_4  and  C2_6 
REMARK       I    between atoms: C2_6  and  N3_8 
REMARK    2  A    between atoms: N3_8  and  C3_9 
REMARK    3  A    between atoms: C3_9  and  C4_10 
REMARK    4  A    between atoms: C4_10  and  N4_11 
REMARK    5  A    between atoms: N4_11  and  C5_13 
REMARK    6  A    between atoms: C9_17  and  C10_18 
REMARK    7  A    between atoms: C11_20  and  N5_21 
REMARK    8  A    between atoms: N5_21  and  N6_22 
REMARK    9  A    between atoms: N5_21  and  O3_25 
ROOT
HETATM    1  C5  UNL     1      22.586   0.634 150.953  1.00  0.00     0.060 A 
HETATM    2  C6  UNL     1      23.853   0.842 151.521  1.00  0.00     0.031 A 
HETATM    3  C7  UNL     1      23.892   1.773 152.536  1.00  0.00     0.003 A 
HETATM    4  C8  UNL     1      22.814   2.445 152.981  1.00  0.00     0.017 A 
HETATM    5  C9  UNL     1      21.545   2.221 152.411  1.00  0.00     0.035 A 
HETATM    6  C11 UNL     1      21.434   1.308 151.378  1.00  0.00     0.120 A 
ENDROOT
BRANCH   1   7
HETATM    7  N4  UNL     1      22.580  -0.290 149.859  1.00  0.00    -0.382 N 
ATOM      8  H4  UNL     1      22.204  -1.231 149.978  1.00  0.00     0.160 HD
BRANCH   7   9
HETATM    9  C4  UNL     1      23.112   0.128 148.589  1.00  0.00     0.179 C 
BRANCH   9  10
HETATM   10  C3  UNL     1      22.357   1.192 147.829  1.00  0.00     0.179 C 
BRANCH  10  11
HETATM   11  N3  UNL     1      21.188   0.651 147.293  1.00  0.00    -0.380 NA
HETATM   12  C2  UNL     1      20.026   0.118 146.754  1.00  0.00     0.356 C 
HETATM   13  O1  UNL     1      19.578   0.618 145.670  1.00  0.00    -0.248 OA
BRANCH  12  14
HETATM   14  C1  UNL     1      19.245  -0.995 147.379  1.00  0.00     0.193 C 
HETATM   15  N1  UNL     1      18.167  -1.396 146.961  1.00  0.00    -0.382 N 
ATOM     16  H12 UNL     1      17.635  -2.154 147.387  1.00  0.00     0.157 HD
ATOM     17  H11 UNL     1      17.659  -0.946 146.200  1.00  0.00     0.157 HD
HETATM   18  N2  UNL     1      19.963  -1.630 148.456  1.00  0.00    -0.076 NA
ENDBRANCH  12  14
ENDBRANCH  10  11
ENDBRANCH   9  10
ENDBRANCH   7   9
ENDBRANCH   1   7
BRANCH   6  19
HETATM   19  N5  UNL     1      20.210   1.033 150.741  1.00  0.00    -0.167 N 
BRANCH  19  20
HETATM   20  N6  UNL     1      19.451  -0.098 150.950  1.00  0.00    -0.319 N 
ATOM     21  H62 UNL     1      19.973  -0.865 151.374  1.00  0.00     0.179 HD
ATOM     22  H61 UNL     1      18.460  -0.185 150.723  1.00  0.00     0.179 HD
ENDBRANCH  19  20
BRANCH  19  23
HETATM   23  O3  UNL     1      19.666   1.895 149.820  1.00  0.00    -0.268 OA
ATOM     24  H3  UNL     1      19.209   2.684 150.085  1.00  0.00     0.247 HD
ENDBRANCH  19  23
ENDBRANCH   6  19
BRANCH   5  25
HETATM   25  C10 UNL     1      20.402   2.797 153.123  1.00  0.00     0.272 C 
HETATM   26  O2  UNL     1      19.345   3.249 152.781  1.00  0.00    -0.301 OA
ENDBRANCH   5  25
TORSDOF 9
ENDMDL
MODEL 4
REMARK VINA RESULT: -5.521489612      2.488      3.074
REMARK  9 active torsions:
REMARK  status: ('A' for Active; 'I' for Inactive)
REMARK    1  A    between atoms: C1_4  and  C2_6 
REMARK       I    between atoms: C2_6  and  N3_8 
REMARK    2  A    between atoms: N3_8  and  C3_9 
REMARK    3  A    between atoms: C3_9  and  C4_10 
REMARK    4  A    between atoms: C4_10  and  N4_11 
REMARK    5  A    between atoms: N4_11  and  C5_13 
REMARK    6  A    between atoms: C9_17  and  C10_18 
REMARK    7  A    between atoms: C11_20  and  N5_21 
REMARK    8  A    between atoms: N5_21  and  N6_22 
REMARK    9  A    between atoms: N5_21  and  O3_25 
ROOT
HETATM    1  C5  UNL     1      20.391   1.011 151.020  1.00  0.00     0.060 A 
HETATM    2  C6  UNL     1      19.978   2.304 150.661  1.00  0.00     0.031 A 
HETATM    3  C7  UNL     1      19.599   3.109 151.715  1.00  0.00     0.003 A 
HETATM    4  C8  UNL     1      19.620   2.720 153.003  1.00  0.00     0.017 A 
HETATM    5  C9  UNL     1      20.045   1.423 153.352  1.00  0.00     0.035 A 
HETATM    6  C11 UNL     1      20.428   0.556 152.344  1.00  0.00     0.120 A 
ENDROOT
BRANCH   1   7
HETATM    7  N4  UNL     1      20.719   0.173 149.907  1.00  0.00    -0.382 N 
ATOM      8  H4  UNL     1      20.007  -0.420 149.478  1.00  0.00     0.160 HD
BRANCH   7   9
HETATM    9  C4  UNL     1      22.066   0.178 149.401  1.00  0.00     0.179 C 
BRANCH   9  10
HETATM   10  C3  UNL     1      22.318   0.872 148.085  1.00  0.00     0.179 C 
BRANCH  10  11
HETATM   11  N3  UNL     1      21.245   0.652 147.221  1.00  0.00    -0.380 NA
HETATM   12  C2  UNL     1      20.181   0.438 146.357  1.00  0.00     0.356 C 
HETATM   13  O1  UNL     1      20.147   1.096 145.265  1.00  0.00    -0.248 OA
BRANCH  12  14
HETATM   14  C1  UNL     1      19.049  -0.501 146.636  1.00  0.00     0.193 C 
HETATM   15  N1  UNL     1      19.185  -1.612 147.132  1.00  0.00    -0.382 N 
ATOM     16  H12 UNL     1      18.414  -2.251 147.322  1.00  0.00     0.157 HD
ATOM     17  H11 UNL     1      20.094  -2.036 147.317  1.00  0.00     0.157 HD
HETATM   18  N2  UNL     1      17.765   0.098 146.373  1.00  0.00    -0.076 NA
ENDBRANCH  12  14
ENDBRANCH  10  11
ENDBRANCH   9  10
ENDBRANCH   7   9
ENDBRANCH   1   7
BRANCH   6  19
HETATM   19  N5  UNL     1      20.853  -0.760 152.600  1.00  0.00    -0.167 N 
BRANCH  19  20
HETATM   20  N6  UNL     1      22.091  -1.105 153.097  1.00  0.00    -0.319 N 
ATOM     21  H62 UNL     1      22.596  -1.766 152.508  1.00  0.00     0.179 HD
ATOM     22  H61 UNL     1      22.493  -0.742 153.962  1.00  0.00     0.179 HD
ENDBRANCH  19  20
BRANCH  19  23
HETATM   23  O3  UNL     1      20.042  -1.841 152.354  1.00  0.00    -0.268 OA
ATOM     24  H3  UNL     1      20.393  -2.669 152.048  1.00  0.00     0.247 HD
ENDBRANCH  19  23
ENDBRANCH   6  19
BRANCH   5  25
HETATM   25  C10 UNL     1      20.278   1.177 154.777  1.00  0.00     0.272 C 
HETATM   26  O2  UNL     1      21.255   0.973 155.442  1.00  0.00    -0.301 OA
ENDBRANCH   5  25
TORSDOF 9
ENDMDL
MODEL 5
REMARK VINA RESULT: -5.471178397      1.417      1.680
REMARK  9 active torsions:
REMARK  status: ('A' for Active; 'I' for Inactive)
REMARK    1  A    between atoms: C1_4  and  C2_6 
REMARK       I    between atoms: C2_6  and  N3_8 
REMARK    2  A    between atoms: N3_8  and  C3_9 
REMARK    3  A    between atoms: C3_9  and  C4_10 
REMARK    4  A    between atoms: C4_10  and  N4_11 
REMARK    5  A    between atoms: N4_11  and  C5_13 
REMARK    6  A    between atoms: C9_17  and  C10_18 
REMARK    7  A    between atoms: C11_20  and  N5_21 
REMARK    8  A    between atoms: N5_21  and  N6_22 
REMARK    9  A    between atoms: N5_21  and  O3_25 
ROOT
HETATM    1  C5  UNL     1      22.637   0.842 151.741  1.00  0.00     0.060 A 
HETATM    2  C6  UNL     1      23.557   1.320 152.688  1.00  0.00     0.031 A 
HETATM    3  C7  UNL     1      23.109   2.372 153.458  1.00  0.00     0.003 A 
HETATM    4  C8  UNL     1      21.884   2.917 153.345  1.00  0.00     0.017 A 
HETATM    5  C9  UNL     1      20.965   2.423 152.398  1.00  0.00     0.035 A 
HETATM    6  C11 UNL     1      21.352   1.376 151.582  1.00  0.00     0.120 A 
ENDROOT
BRANCH   1   7
HETATM    7  N4  UNL     1      23.145  -0.207 150.910  1.00  0.00    -0.382 N 
ATOM      8  H4  UNL     1      23.172  -1.169 151.249  1.00  0.00     0.160 HD
BRANCH   7   9
HETATM    9  C4  UNL     1      23.617   0.116 149.590  1.00  0.00     0.179 C 
BRANCH   9  10
HETATM   10  C3  UNL     1      23.370  -0.891 148.492  1.00  0.00     0.179 C 
BRANCH  10  11
HETATM   11  N3  UNL     1      22.220  -0.545 147.783  1.00  0.00    -0.380 NA
HETATM   12  C2  UNL     1      21.078  -0.194 147.077  1.00  0.00     0.356 C 
HETATM   13  O1  UNL     1      20.986   0.997 146.630  1.00  0.00    -0.248 OA
BRANCH  12  14
HETATM   14  C1  UNL     1      19.929  -1.119 146.827  1.00  0.00     0.193 C 
HETATM   15  N1  UNL     1      19.844  -1.861 145.857  1.00  0.00    -0.382 N 
ATOM     16  H12 UNL     1      19.061  -2.492 145.686  1.00  0.00     0.157 HD
ATOM     17  H11 UNL     1      20.508  -1.851 145.083  1.00  0.00     0.157 HD
HETATM   18  N2  UNL     1      18.990  -1.134 147.920  1.00  0.00    -0.076 NA
ENDBRANCH  12  14
ENDBRANCH  10  11
ENDBRANCH   9  10
ENDBRANCH   7   9
ENDBRANCH   1   7
BRANCH   6  19
HETATM   19  N5  UNL     1      20.504   0.830 150.600  1.00  0.00    -0.167 N 
BRANCH  19  20
HETATM   20  N6  UNL     1      20.059   1.501 149.483  1.00  0.00    -0.319 N 
ATOM     21  H62 UNL     1      20.631   2.309 149.239  1.00  0.00     0.179 HD
ATOM     22  H61 UNL     1      19.245   1.234 148.929  1.00  0.00     0.179 HD
ENDBRANCH  19  20
BRANCH  19  23
HETATM   23  O3  UNL     1      20.030  -0.456 150.692  1.00  0.00    -0.268 OA
ATOM     24  H3  UNL     1      20.602  -1.185 150.902  1.00  0.00     0.247 HD
ENDBRANCH  19  23
ENDBRANCH   6  19
BRANCH   5  25
HETATM   25  C10 UNL     1      19.585   2.901 152.522  1.00  0.00     0.272 C 
HETATM   26  O2  UNL     1      18.831   3.476 151.789  1.00  0.00    -0.301 OA
ENDBRANCH   5  25
TORSDOF 9
ENDMDL
