MODEL 1
REMARK VINA RESULT: -5.298993444      0.000      0.000
REMARK  9 active torsions:
REMARK  status: ('A' for Active; 'I' for Inactive)
REMARK    1  A    between atoms: N2_4  and  O1_5 
REMARK    2  A    between atoms: N2_4  and  C1_7 
REMARK    3  A    between atoms: C4_10  and  N3_11 
REMARK    4  A    between atoms: N3_11  and  N4_13 
REMARK       I    between atoms: N4_13  and  C5_15 
REMARK    5  A    between atoms: C6_20  and  O2_21 
REMARK    6  A    between atoms: O2_21  and  C7_22 
REMARK    7  A    between atoms: C7_22  and  C8_23 
REMARK    8  A    between atoms: C8_23  and  C9_27 
REMARK    9  A    between atoms: C9_27  and  N8_28 
ROOT
HETATM    1  C1  UNL     1      19.870   1.426 151.462  1.00  0.00     0.083 A 
HETATM    2  C2  UNL     1      20.299   2.048 150.314  1.00  0.00     0.036 A 
HETATM    3  C3  UNL     1      20.674   1.343 149.188  1.00  0.00     0.036 A 
HETATM    4  C4  UNL     1      20.628  -0.053 149.182  1.00  0.00     0.081 A 
HETATM    5  C6  UNL     1      20.202  -0.686 150.325  1.00  0.00     0.099 A 
HETATM    6  C10 UNL     1      19.830   0.027 151.438  1.00  0.00     0.073 A 
ENDROOT
BRANCH   5   7
HETATM    7  O2  UNL     1      20.157  -2.083 150.324  1.00  0.00    -0.343 OA
BRANCH   7   8
HETATM    8  C7  UNL     1      20.884  -2.764 151.345  1.00  0.00     0.229 C 
BRANCH   8   9
HETATM    9  C8  UNL     1      20.230  -4.046 151.685  1.00  0.00     0.030 C 
HETATM   10  N7  UNL     1      19.536  -4.133 152.768  1.00  0.00    -0.403 N 
ATOM     11  H72 UNL     1      19.457  -3.330 153.392  1.00  0.00     0.155 HD
ATOM     12  H71 UNL     1      19.086  -5.017 153.002  1.00  0.00     0.155 HD
BRANCH   9  13
HETATM   13  C9  UNL     1      20.346  -5.212 150.779  1.00  0.00     0.283 C 
BRANCH  13  14
HETATM   14  N8  UNL     1      20.891  -4.737 149.488  1.00  0.00    -0.074 N 
ATOM     15  H83 UNL     1      20.777  -5.418 148.737  1.00  0.00     0.274 HD
ATOM     16  H82 UNL     1      20.335  -3.986 149.078  1.00  0.00     0.274 HD
ATOM     17  H81 UNL     1      21.864  -4.471 149.635  1.00  0.00     0.274 HD
ENDBRANCH  13  14
ENDBRANCH   9  13
ENDBRANCH   8   9
ENDBRANCH   7   8
ENDBRANCH   5   7
BRANCH   4  18
HETATM   18  N3  UNL     1      21.007  -0.763 148.019  1.00  0.00    -0.296 N 
ATOM     19  H3  UNL     1      21.749  -1.461 148.071  1.00  0.00     0.187 HD
BRANCH  18  20
HETATM   20  N4  UNL     1      20.371  -0.517 146.794  1.00  0.00    -0.273 N 
HETATM   21  C5  UNL     1      19.005  -0.846 146.613  1.00  0.00     0.200 C 
HETATM   22  N5  UNL     1      18.702  -2.090 146.483  1.00  0.00    -0.372 N 
HETATM   23  N6  UNL     1      17.991   0.138 146.574  1.00  0.00    -0.062 NA
ATOM     24  H52 UNL     1      19.434  -2.800 146.511  1.00  0.00     0.158 HD
ATOM     25  H51 UNL     1      17.718  -2.326 146.353  1.00  0.00     0.158 HD
ATOM     26  H4  UNL     1      20.897  -0.098 146.026  1.00  0.00     0.189 HD
ENDBRANCH  18  20
ENDBRANCH   4  18
BRANCH   1  27
HETATM   27  N2  UNL     1      19.481   2.171 152.607  1.00  0.00    -0.170 N 
HETATM   28  N1  UNL     1      19.358   1.532 153.708  1.00  0.00    -0.319 N 
ATOM     29  H12 UNL     1      19.079   2.067 154.530  1.00  0.00     0.179 HD
ATOM     30  H11 UNL     1      19.528   0.527 153.760  1.00  0.00     0.179 HD
BRANCH  27  31
HETATM   31  O1  UNL     1      19.255   3.508 152.537  1.00  0.00    -0.268 OA
ATOM     32  H1  UNL     1      19.857   4.133 152.922  1.00  0.00     0.247 HD
ENDBRANCH  27  31
ENDBRANCH   1  27
TORSDOF 9
ENDMDL
MODEL 2
REMARK VINA RESULT: -5.264869683      1.192      1.219
REMARK  9 active torsions:
REMARK  status: ('A' for Active; 'I' for Inactive)
REMARK    1  A    between atoms: N2_4  and  O1_5 
REMARK    2  A    between atoms: N2_4  and  C1_7 
REMARK    3  A    between atoms: C4_10  and  N3_11 
REMARK    4  A    between atoms: N3_11  and  N4_13 
REMARK       I    between atoms: N4_13  and  C5_15 
REMARK    5  A    between atoms: C6_20  and  O2_21 
REMARK    6  A    between atoms: O2_21  and  C7_22 
REMARK    7  A    between atoms: C7_22  and  C8_23 
REMARK    8  A    between atoms: C8_23  and  C9_27 
REMARK    9  A    between atoms: C9_27  and  N8_28 
ROOT
HETATM    1  C1  UNL     1      19.889   1.282 151.796  1.00  0.00     0.083 A 
HETATM    2  C2  UNL     1      20.202   2.037 150.690  1.00  0.00     0.036 A 
HETATM    3  C3  UNL     1      20.505   1.468 149.469  1.00  0.00     0.036 A 
HETATM    4  C4  UNL     1      20.504   0.080 149.318  1.00  0.00     0.081 A 
HETATM    5  C6  UNL     1      20.193  -0.685 150.417  1.00  0.00     0.099 A 
HETATM    6  C10 UNL     1      19.892  -0.108 151.625  1.00  0.00     0.073 A 
ENDROOT
BRANCH   5   7
HETATM    7  O2  UNL     1      20.193  -2.075 150.270  1.00  0.00    -0.343 OA
BRANCH   7   8
HETATM    8  C7  UNL     1      20.986  -2.832 151.183  1.00  0.00     0.229 C 
BRANCH   8   9
HETATM    9  C8  UNL     1      20.266  -4.050 151.613  1.00  0.00     0.030 C 
HETATM   10  N7  UNL     1      19.599  -4.032 152.717  1.00  0.00    -0.403 N 
ATOM     11  H72 UNL     1      19.585  -3.191 153.294  1.00  0.00     0.155 HD
ATOM     12  H71 UNL     1      19.103  -4.872 153.014  1.00  0.00     0.155 HD
BRANCH   9  13
HETATM   13  C9  UNL     1      20.286  -5.271 150.775  1.00  0.00     0.283 C 
BRANCH  13  14
HETATM   14  N8  UNL     1      20.902  -4.924 149.475  1.00  0.00    -0.074 N 
ATOM     15  H83 UNL     1      21.040  -5.736 148.874  1.00  0.00     0.274 HD
ATOM     16  H82 UNL     1      20.269  -4.407 148.864  1.00  0.00     0.274 HD
ATOM     17  H81 UNL     1      21.769  -4.420 149.661  1.00  0.00     0.274 HD
ENDBRANCH  13  14
ENDBRANCH   9  13
ENDBRANCH   8   9
ENDBRANCH   7   8
ENDBRANCH   5   7
BRANCH   4  18
HETATM   18  N3  UNL     1      20.808  -0.489 148.059  1.00  0.00    -0.296 N 
ATOM     19  H3  UNL     1      20.539  -1.453 147.862  1.00  0.00     0.187 HD
BRANCH  18  20
HETATM   20  N4  UNL     1      21.476   0.259 147.080  1.00  0.00    -0.273 N 
HETATM   21  C5  UNL     1      21.077   0.187 145.722  1.00  0.00     0.200 C 
HETATM   22  N5  UNL     1      21.377  -0.878 145.066  1.00  0.00    -0.372 N 
HETATM   23  N6  UNL     1      20.371   1.235 145.087  1.00  0.00    -0.062 NA
ATOM     24  H52 UNL     1      21.886  -1.634 145.524  1.00  0.00     0.158 HD
ATOM     25  H51 UNL     1      21.089  -0.930 144.089  1.00  0.00     0.158 HD
ATOM     26  H4  UNL     1      22.256   0.859 147.347  1.00  0.00     0.189 HD
ENDBRANCH  18  20
ENDBRANCH   4  18
BRANCH   1  27
HETATM   27  N2  UNL     1      19.572   1.887 153.041  1.00  0.00    -0.170 N 
HETATM   28  N1  UNL     1      19.755   1.188 154.095  1.00  0.00    -0.319 N 
ATOM     29  H12 UNL     1      19.527   1.623 154.990  1.00  0.00     0.179 HD
ATOM     30  H11 UNL     1      20.110   0.232 154.044  1.00  0.00     0.179 HD
BRANCH  27  31
HETATM   31  O1  UNL     1      19.100   3.158 153.108  1.00  0.00    -0.268 OA
ATOM     32  H1  UNL     1      18.235   3.348 153.454  1.00  0.00     0.247 HD
ENDBRANCH  27  31
ENDBRANCH   1  27
TORSDOF 9
ENDMDL
MODEL 3
REMARK VINA RESULT: -5.262387703      2.188      2.656
REMARK  9 active torsions:
REMARK  status: ('A' for Active; 'I' for Inactive)
REMARK    1  A    between atoms: N2_4  and  O1_5 
REMARK    2  A    between atoms: N2_4  and  C1_7 
REMARK    3  A    between atoms: C4_10  and  N3_11 
REMARK    4  A    between atoms: N3_11  and  N4_13 
REMARK       I    between atoms: N4_13  and  C5_15 
REMARK    5  A    between atoms: C6_20  and  O2_21 
REMARK    6  A    between atoms: O2_21  and  C7_22 
REMARK    7  A    between atoms: C7_22  and  C8_23 
REMARK    8  A    between atoms: C8_23  and  C9_27 
REMARK    9  A    between atoms: C9_27  and  N8_28 
ROOT
HETATM    1  C1  UNL     1      20.047   0.865 151.806  1.00  0.00     0.083 A 
HETATM    2  C2  UNL     1      20.212   1.880 150.893  1.00  0.00     0.036 A 
HETATM    3  C3  UNL     1      20.307   1.645 149.536  1.00  0.00     0.036 A 
HETATM    4  C4  UNL     1      20.238   0.341 149.040  1.00  0.00     0.081 A 
HETATM    5  C6  UNL     1      20.074  -0.681 149.943  1.00  0.00     0.099 A 
HETATM    6  C10 UNL     1      19.979  -0.435 151.290  1.00  0.00     0.073 A 
ENDROOT
BRANCH   5   7
HETATM    7  O2  UNL     1      20.007  -1.988 149.450  1.00  0.00    -0.343 OA
BRANCH   7   8
HETATM    8  C7  UNL     1      21.155  -2.816 149.624  1.00  0.00     0.229 C 
BRANCH   8   9
HETATM    9  C8  UNL     1      21.888  -2.967 148.348  1.00  0.00     0.030 C 
HETATM   10  N7  UNL     1      22.976  -2.302 148.163  1.00  0.00    -0.403 N 
ATOM     11  H72 UNL     1      23.317  -1.665 148.882  1.00  0.00     0.155 HD
ATOM     12  H71 UNL     1      23.481  -2.407 147.283  1.00  0.00     0.155 HD
BRANCH   9  13
HETATM   13  C9  UNL     1      21.393  -3.893 147.303  1.00  0.00     0.283 C 
BRANCH  13  14
HETATM   14  N8  UNL     1      20.171  -3.304 146.711  1.00  0.00    -0.074 N 
ATOM     15  H83 UNL     1      19.438  -3.139 147.402  1.00  0.00     0.274 HD
ATOM     16  H82 UNL     1      20.302  -2.337 146.417  1.00  0.00     0.274 HD
ATOM     17  H81 UNL     1      19.865  -3.910 145.950  1.00  0.00     0.274 HD
ENDBRANCH  13  14
ENDBRANCH   9  13
ENDBRANCH   8   9
ENDBRANCH   7   8
ENDBRANCH   5   7
BRANCH   4  18
HETATM   18  N3  UNL     1      20.328   0.115 147.647  1.00  0.00    -0.296 N 
ATOM     19  H3  UNL     1      19.651  -0.494 147.188  1.00  0.00     0.187 HD
BRANCH  18  20
HETATM   20  N4  UNL     1      21.341   0.720 146.889  1.00  0.00    -0.273 N 
HETATM   21  C5  UNL     1      21.451   0.464 145.500  1.00  0.00     0.200 C 
HETATM   22  N5  UNL     1      21.911  -0.682 145.138  1.00  0.00    -0.372 N 
HETATM   23  N6  UNL     1      21.075   1.415 144.524  1.00  0.00    -0.062 NA
ATOM     24  H52 UNL     1      22.183  -1.369 145.842  1.00  0.00     0.158 HD
ATOM     25  H51 UNL     1      21.991  -0.867 144.138  1.00  0.00     0.158 HD
ATOM     26  H4  UNL     1      22.003   1.351 147.341  1.00  0.00     0.189 HD
ENDBRANCH  18  20
ENDBRANCH   4  18
BRANCH   1  27
HETATM   27  N2  UNL     1      19.943   1.130 153.197  1.00  0.00    -0.170 N 
HETATM   28  N1  UNL     1      19.318   2.189 153.547  1.00  0.00    -0.319 N 
ATOM     29  H12 UNL     1      19.242   2.379 154.546  1.00  0.00     0.179 HD
ATOM     30  H11 UNL     1      18.914   2.820 152.854  1.00  0.00     0.179 HD
BRANCH  27  31
HETATM   31  O1  UNL     1      20.480   0.289 154.118  1.00  0.00    -0.268 OA
ATOM     32  H1  UNL     1      19.978  -0.011 154.867  1.00  0.00     0.247 HD
ENDBRANCH  27  31
ENDBRANCH   1  27
TORSDOF 9
ENDMDL
MODEL 4
REMARK VINA RESULT: -5.244034778      1.559      2.144
REMARK  9 active torsions:
REMARK  status: ('A' for Active; 'I' for Inactive)
REMARK    1  A    between atoms: N2_4  and  O1_5 
REMARK    2  A    between atoms: N2_4  and  C1_7 
REMARK    3  A    between atoms: C4_10  and  N3_11 
REMARK    4  A    between atoms: N3_11  and  N4_13 
REMARK       I    between atoms: N4_13  and  C5_15 
REMARK    5  A    between atoms: C6_20  and  O2_21 
REMARK    6  A    between atoms: O2_21  and  C7_22 
REMARK    7  A    between atoms: C7_22  and  C8_23 
REMARK    8  A    between atoms: C8_23  and  C9_27 
REMARK    9  A    between atoms: C9_27  and  N8_28 
ROOT
HETATM    1  C1  UNL     1      20.023   0.942 151.819  1.00  0.00     0.083 A 
HETATM    2  C2  UNL     1      20.219   1.912 150.865  1.00  0.00     0.036 A 
HETATM    3  C3  UNL     1      20.382   1.611 149.528  1.00  0.00     0.036 A 
HETATM    4  C4  UNL     1      20.354   0.283 149.095  1.00  0.00     0.081 A 
HETATM    5  C6  UNL     1      20.159  -0.696 150.040  1.00  0.00     0.099 A 
HETATM    6  C10 UNL     1      19.996  -0.384 151.366  1.00  0.00     0.073 A 
ENDROOT
BRANCH   5   7
HETATM    7  O2  UNL     1      20.132  -2.026 149.611  1.00  0.00    -0.343 OA
BRANCH   7   8
HETATM    8  C7  UNL     1      21.199  -2.874 150.034  1.00  0.00     0.229 C 
BRANCH   8   9
HETATM    9  C8  UNL     1      20.788  -4.294 149.983  1.00  0.00     0.030 C 
HETATM   10  N7  UNL     1      20.945  -4.958 148.889  1.00  0.00    -0.403 N 
ATOM     11  H72 UNL     1      21.332  -4.502 148.063  1.00  0.00     0.155 HD
ATOM     12  H71 UNL     1      20.661  -5.937 148.855  1.00  0.00     0.155 HD
BRANCH   9  13
HETATM   13  C9  UNL     1      20.226  -4.956 151.183  1.00  0.00     0.283 C 
BRANCH  13  14
HETATM   14  N8  UNL     1      19.905  -3.908 152.177  1.00  0.00    -0.074 N 
ATOM     15  H83 UNL     1      20.564  -3.888 152.956  1.00  0.00     0.274 HD
ATOM     16  H82 UNL     1      20.079  -2.966 151.826  1.00  0.00     0.274 HD
ATOM     17  H81 UNL     1      18.941  -4.045 152.480  1.00  0.00     0.274 HD
ENDBRANCH  13  14
ENDBRANCH   9  13
ENDBRANCH   8   9
ENDBRANCH   7   8
ENDBRANCH   5   7
BRANCH   4  18
HETATM   18  N3  UNL     1      20.514  -0.011 147.721  1.00  0.00    -0.296 N 
ATOM     19  H3  UNL     1      19.956  -0.750 147.293  1.00  0.00     0.187 HD
BRANCH  18  20
HETATM   20  N4  UNL     1      21.433   0.703 146.940  1.00  0.00    -0.273 N 
HETATM   21  C5  UNL     1      21.533   0.465 145.547  1.00  0.00     0.200 C 
HETATM   22  N5  UNL     1      22.104  -0.622 145.165  1.00  0.00    -0.372 N 
HETATM   23  N6  UNL     1      21.028   1.373 144.588  1.00  0.00    -0.062 NA
ATOM     24  H52 UNL     1      22.469  -1.278 145.857  1.00  0.00     0.158 HD
ATOM     25  H51 UNL     1      22.176  -0.794 144.162  1.00  0.00     0.158 HD
ATOM     26  H4  UNL     1      22.035   1.401 147.378  1.00  0.00     0.189 HD
ENDBRANCH  18  20
ENDBRANCH   4  18
BRANCH   1  27
HETATM   27  N2  UNL     1      19.848   1.274 153.188  1.00  0.00    -0.170 N 
HETATM   28  N1  UNL     1      19.223   2.357 153.453  1.00  0.00    -0.319 N 
ATOM     29  H12 UNL     1      19.097   2.596 154.437  1.00  0.00     0.179 HD
ATOM     30  H11 UNL     1      18.868   2.961 152.710  1.00  0.00     0.179 HD
BRANCH  27  31
HETATM   31  O1  UNL     1      20.321   0.471 154.176  1.00  0.00    -0.268 OA
ATOM     32  H1  UNL     1      20.770  -0.343 153.980  1.00  0.00     0.247 HD
ENDBRANCH  27  31
ENDBRANCH   1  27
TORSDOF 9
ENDMDL
MODEL 5
REMARK VINA RESULT: -5.216550684      3.094      4.450
REMARK  9 active torsions:
REMARK  status: ('A' for Active; 'I' for Inactive)
REMARK    1  A    between atoms: N2_4  and  O1_5 
REMARK    2  A    between atoms: N2_4  and  C1_7 
REMARK    3  A    between atoms: C4_10  and  N3_11 
REMARK    4  A    between atoms: N3_11  and  N4_13 
REMARK       I    between atoms: N4_13  and  C5_15 
REMARK    5  A    between atoms: C6_20  and  O2_21 
REMARK    6  A    between atoms: O2_21  and  C7_22 
REMARK    7  A    between atoms: C7_22  and  C8_23 
REMARK    8  A    between atoms: C8_23  and  C9_27 
REMARK    9  A    between atoms: C9_27  and  N8_28 
ROOT
HETATM    1  C1  UNL     1      20.461   1.778 151.292  1.00  0.00     0.083 A 
HETATM    2  C2  UNL     1      21.672   1.320 151.753  1.00  0.00     0.036 A 
HETATM    3  C3  UNL     1      22.636   0.804 150.910  1.00  0.00     0.036 A 
HETATM    4  C4  UNL     1      22.404   0.730 149.535  1.00  0.00     0.081 A 
HETATM    5  C6  UNL     1      21.197   1.185 149.062  1.00  0.00     0.099 A 
HETATM    6  C10 UNL     1      20.247   1.697 149.910  1.00  0.00     0.073 A 
ENDROOT
BRANCH   5   7
HETATM    7  O2  UNL     1      20.960   1.110 147.687  1.00  0.00    -0.343 OA
BRANCH   7   8
HETATM    8  C7  UNL     1      20.146   0.037 147.217  1.00  0.00     0.229 C 
BRANCH   8   9
HETATM    9  C8  UNL     1      20.943  -0.902 146.397  1.00  0.00     0.030 C 
HETATM   10  N7  UNL     1      21.292  -2.038 146.899  1.00  0.00    -0.403 N 
ATOM     11  H72 UNL     1      21.037  -2.276 147.857  1.00  0.00     0.155 HD
ATOM     12  H71 UNL     1      21.841  -2.685 146.333  1.00  0.00     0.155 HD
BRANCH   9  13
HETATM   13  C9  UNL     1      21.313  -0.556 145.006  1.00  0.00     0.283 C 
BRANCH  13  14
HETATM   14  N8  UNL     1      21.071   0.891 144.814  1.00  0.00    -0.074 N 
ATOM     15  H83 UNL     1      20.152   1.185 145.147  1.00  0.00     0.274 HD
ATOM     16  H82 UNL     1      21.634   1.471 145.437  1.00  0.00     0.274 HD
ATOM     17  H81 UNL     1      21.221   1.109 143.829  1.00  0.00     0.274 HD
ENDBRANCH  13  14
ENDBRANCH   9  13
ENDBRANCH   8   9
ENDBRANCH   7   8
ENDBRANCH   5   7
BRANCH   4  18
HETATM   18  N3  UNL     1      23.404   0.207 148.682  1.00  0.00    -0.296 N 
ATOM     19  H3  UNL     1      23.505  -0.802 148.579  1.00  0.00     0.187 HD
BRANCH  18  20
HETATM   20  N4  UNL     1      24.260   1.065 147.975  1.00  0.00    -0.273 N 
HETATM   21  C5  UNL     1      24.192   1.145 146.562  1.00  0.00     0.200 C 
HETATM   22  N5  UNL     1      24.670   0.162 145.884  1.00  0.00    -0.372 N 
HETATM   23  N6  UNL     1      23.622   2.255 145.896  1.00  0.00    -0.062 NA
ATOM     24  H52 UNL     1      25.081  -0.638 146.364  1.00  0.00     0.158 HD
ATOM     25  H51 UNL     1      24.620   0.220 144.866  1.00  0.00     0.158 HD
ATOM     26  H4  UNL     1      24.937   1.635 148.482  1.00  0.00     0.189 HD
ENDBRANCH  18  20
ENDBRANCH   4  18
BRANCH   1  27
HETATM   27  N2  UNL     1      19.486   2.313 152.175  1.00  0.00    -0.170 N 
HETATM   28  N1  UNL     1      19.203   1.630 153.218  1.00  0.00    -0.319 N 
ATOM     29  H12 UNL     1      18.503   2.014 153.853  1.00  0.00     0.179 HD
ATOM     30  H11 UNL     1      19.656   0.734 153.406  1.00  0.00     0.179 HD
BRANCH  27  31
HETATM   31  O1  UNL     1      18.884   3.504 151.925  1.00  0.00    -0.268 OA
ATOM     32  H1  UNL     1      18.721   3.800 151.038  1.00  0.00     0.247 HD
ENDBRANCH  27  31
ENDBRANCH   1  27
TORSDOF 9
ENDMDL
