MODEL 1
REMARK VINA RESULT: -5.602500071      0.000      0.000
REMARK  9 active torsions:
REMARK  status: ('A' for Active; 'I' for Inactive)
REMARK    1  A    between atoms: N1_1  and  N2_4 
REMARK    2  A    between atoms: N2_4  and  C1_6 
REMARK    3  A    between atoms: C3_13  and  N5_14 
REMARK    4  A    between atoms: N5_14  and  C4_16 
REMARK    5  A    between atoms: C8_20  and  O2_21 
REMARK    6  A    between atoms: O2_21  and  C9_22 
REMARK    7  A    between atoms: C9_22  and  C10_23 
REMARK    8  A    between atoms: C10_23  and  O3_24 
REMARK    9  A    between atoms: O3_24  and  N6_25 
ROOT
HETATM    1  N5  UNL     1      21.383   1.223 151.009  1.00  0.00    -0.352 N 
ATOM      2  H5  UNL     1      22.379   1.432 151.080  1.00  0.00     0.166 HD
ENDROOT
BRANCH   1   3
HETATM    3  C3  UNL     1      20.549   1.482 152.155  1.00  0.00     0.149 A 
HETATM    4  C1  UNL     1      20.719   0.751 153.340  1.00  0.00     0.167 A 
HETATM    5  N3  UNL     1      19.815   1.346 154.265  1.00  0.00    -0.280 N 
HETATM    6  N4  UNL     1      19.219   2.278 153.692  1.00  0.00    -0.263 N 
ATOM      7  H3  UNL     1      19.678   1.058 155.234  1.00  0.00     0.189 HD
HETATM    8  C2  UNL     1      19.555   2.455 152.370  1.00  0.00     0.290 A 
ATOM      9  H4  UNL     1      18.533   2.865 154.167  1.00  0.00     0.190 HD
HETATM   10  O1  UNL     1      19.028   3.317 151.656  1.00  0.00    -0.264 OA
BRANCH   4  11
HETATM   11  N2  UNL     1      21.334  -0.483 153.562  1.00  0.00    -0.289 N 
ATOM     12  H2  UNL     1      22.065  -0.504 154.273  1.00  0.00     0.188 HD
BRANCH  11  13
HETATM   13  N1  UNL     1      21.068  -1.647 152.940  1.00  0.00    -0.344 N 
ATOM     14  H12 UNL     1      21.874  -2.255 152.790  1.00  0.00     0.176 HD
ATOM     15  H11 UNL     1      20.161  -1.977 152.610  1.00  0.00     0.176 HD
ENDBRANCH  11  13
ENDBRANCH   4  11
ENDBRANCH   1   3
BRANCH   1  16
HETATM   16  C4  UNL     1      20.902   0.702 149.812  1.00  0.00     0.016 A 
HETATM   17  C5  UNL     1      20.174  -0.364 149.620  1.00  0.00     0.025 A 
HETATM   18  C6  UNL     1      19.839  -1.101 148.473  1.00  0.00     0.004 A 
HETATM   19  C7  UNL     1      20.408  -0.511 147.299  1.00  0.00     0.033 A 
HETATM   20  C8  UNL     1      21.100   0.652 147.296  1.00  0.00     0.052 A 
HETATM   21  C11 UNL     1      21.384   1.274 148.584  1.00  0.00     0.121 A 
BRANCH  20  22
HETATM   22  O2  UNL     1      21.517   1.320 146.198  1.00  0.00    -0.353 OA
BRANCH  22  23
HETATM   23  C9  UNL     1      22.634   0.882 145.667  1.00  0.00     0.204 C 
BRANCH  23  24
HETATM   24  C10 UNL     1      24.030   1.599 146.016  1.00  0.00     0.227 C 
BRANCH  24  25
HETATM   25  O3  UNL     1      23.619   2.840 145.678  1.00  0.00    -0.285 OA
BRANCH  25  26
HETATM   26  N6  UNL     1      24.183   3.942 146.034  1.00  0.00    -0.311 N 
ATOM     27  H62 UNL     1      25.138   4.082 145.705  1.00  0.00     0.184 HD
ATOM     28  H61 UNL     1      23.757   4.670 146.607  1.00  0.00     0.184 HD
ENDBRANCH  25  26
ENDBRANCH  24  25
ENDBRANCH  23  24
ENDBRANCH  22  23
ENDBRANCH  20  22
ENDBRANCH   1  16
TORSDOF 9
ENDMDL
MODEL 2
REMARK VINA RESULT: -5.524450838      2.107      2.782
REMARK  9 active torsions:
REMARK  status: ('A' for Active; 'I' for Inactive)
REMARK    1  A    between atoms: N1_1  and  N2_4 
REMARK    2  A    between atoms: N2_4  and  C1_6 
REMARK    3  A    between atoms: C3_13  and  N5_14 
REMARK    4  A    between atoms: N5_14  and  C4_16 
REMARK    5  A    between atoms: C8_20  and  O2_21 
REMARK    6  A    between atoms: O2_21  and  C9_22 
REMARK    7  A    between atoms: C9_22  and  C10_23 
REMARK    8  A    between atoms: C10_23  and  O3_24 
REMARK    9  A    between atoms: O3_24  and  N6_25 
ROOT
HETATM    1  N5  UNL     1      20.497   2.442 152.527  1.00  0.00    -0.352 N 
ATOM      2  H5  UNL     1      19.883   3.257 152.522  1.00  0.00     0.166 HD
ENDROOT
BRANCH   1   3
HETATM    3  C3  UNL     1      21.476   2.332 153.577  1.00  0.00     0.149 A 
HETATM    4  C1  UNL     1      21.185   1.619 154.750  1.00  0.00     0.167 A 
HETATM    5  N3  UNL     1      22.400   1.633 155.493  1.00  0.00    -0.280 N 
HETATM    6  N4  UNL     1      23.256   2.259 154.840  1.00  0.00    -0.263 N 
ATOM      7  H3  UNL     1      22.546   1.201 156.406  1.00  0.00     0.189 HD
HETATM    8  C2  UNL     1      22.810   2.775 153.645  1.00  0.00     0.290 A 
ATOM      9  H4  UNL     1      24.214   2.382 155.167  1.00  0.00     0.190 HD
HETATM   10  O1  UNL     1      23.531   3.449 152.898  1.00  0.00    -0.264 OA
BRANCH   4  11
HETATM   11  N2  UNL     1      19.957   1.251 155.304  1.00  0.00    -0.289 N 
ATOM     12  H2  UNL     1      19.240   0.937 154.650  1.00  0.00     0.188 HD
BRANCH  11  13
HETATM   13  N1  UNL     1      19.616   1.264 156.606  1.00  0.00    -0.344 N 
ATOM     14  H12 UNL     1      18.650   1.007 156.806  1.00  0.00     0.176 HD
ATOM     15  H11 UNL     1      20.215   1.500 157.398  1.00  0.00     0.176 HD
ENDBRANCH  11  13
ENDBRANCH   4  11
ENDBRANCH   1   3
BRANCH   1  16
HETATM   16  C4  UNL     1      20.345   1.496 151.517  1.00  0.00     0.016 A 
HETATM   17  C5  UNL     1      20.057   0.228 151.624  1.00  0.00     0.025 A 
HETATM   18  C6  UNL     1      20.112  -0.845 150.722  1.00  0.00     0.004 A 
HETATM   19  C7  UNL     1      20.549  -0.409 149.430  1.00  0.00     0.033 A 
HETATM   20  C8  UNL     1      20.789   0.883 149.109  1.00  0.00     0.052 A 
HETATM   21  C11 UNL     1      20.714   1.872 150.179  1.00  0.00     0.121 A 
BRANCH  20  22
HETATM   22  O2  UNL     1      21.050   1.354 147.869  1.00  0.00    -0.353 OA
BRANCH  22  23
HETATM   23  C9  UNL     1      21.417   0.450 146.993  1.00  0.00     0.204 C 
BRANCH  23  24
HETATM   24  C10 UNL     1      21.153   0.689 145.426  1.00  0.00     0.227 C 
BRANCH  24  25
HETATM   25  O3  UNL     1      22.199   1.524 145.250  1.00  0.00    -0.285 OA
BRANCH  25  26
HETATM   26  N6  UNL     1      23.334   1.443 145.853  1.00  0.00    -0.311 N 
ATOM     27  H62 UNL     1      24.158   1.645 145.286  1.00  0.00     0.184 HD
ATOM     28  H61 UNL     1      23.472   1.197 146.833  1.00  0.00     0.184 HD
ENDBRANCH  25  26
ENDBRANCH  24  25
ENDBRANCH  23  24
ENDBRANCH  22  23
ENDBRANCH  20  22
ENDBRANCH   1  16
TORSDOF 9
ENDMDL
MODEL 3
REMARK VINA RESULT: -5.380891239      1.461      1.854
REMARK  9 active torsions:
REMARK  status: ('A' for Active; 'I' for Inactive)
REMARK    1  A    between atoms: N1_1  and  N2_4 
REMARK    2  A    between atoms: N2_4  and  C1_6 
REMARK    3  A    between atoms: C3_13  and  N5_14 
REMARK    4  A    between atoms: N5_14  and  C4_16 
REMARK    5  A    between atoms: C8_20  and  O2_21 
REMARK    6  A    between atoms: O2_21  and  C9_22 
REMARK    7  A    between atoms: C9_22  and  C10_23 
REMARK    8  A    between atoms: C10_23  and  O3_24 
REMARK    9  A    between atoms: O3_24  and  N6_25 
ROOT
HETATM    1  N5  UNL     1      21.513   0.354 150.996  1.00  0.00    -0.352 N 
ATOM      2  H5  UNL     1      22.327  -0.212 151.233  1.00  0.00     0.166 HD
ENDROOT
BRANCH   1   3
HETATM    3  C3  UNL     1      20.909   1.148 152.036  1.00  0.00     0.149 A 
HETATM    4  C1  UNL     1      21.651   2.138 152.697  1.00  0.00     0.167 A 
HETATM    5  N3  UNL     1      20.715   2.774 153.562  1.00  0.00    -0.280 N 
HETATM    6  N4  UNL     1      19.606   2.228 153.414  1.00  0.00    -0.263 N 
ATOM      7  H3  UNL     1      20.919   3.548 154.195  1.00  0.00     0.189 HD
HETATM    8  C2  UNL     1      19.589   1.183 152.520  1.00  0.00     0.290 A 
ATOM      9  H4  UNL     1      18.773   2.532 153.919  1.00  0.00     0.190 HD
HETATM   10  O1  UNL     1      18.570   0.519 152.288  1.00  0.00    -0.264 OA
BRANCH   4  11
HETATM   11  N2  UNL     1      23.032   2.310 152.810  1.00  0.00    -0.289 N 
ATOM     12  H2  UNL     1      23.611   1.512 152.550  1.00  0.00     0.188 HD
BRANCH  11  13
HETATM   13  N1  UNL     1      23.683   3.414 153.224  1.00  0.00    -0.344 N 
ATOM     14  H12 UNL     1      23.330   4.294 152.849  1.00  0.00     0.176 HD
ATOM     15  H11 UNL     1      24.478   3.458 153.863  1.00  0.00     0.176 HD
ENDBRANCH  11  13
ENDBRANCH   4  11
ENDBRANCH   1   3
BRANCH   1  16
HETATM   16  C4  UNL     1      21.043   0.321 149.686  1.00  0.00     0.016 A 
HETATM   17  C5  UNL     1      20.029  -0.340 149.200  1.00  0.00     0.025 A 
HETATM   18  C6  UNL     1      19.617  -0.633 147.890  1.00  0.00     0.004 A 
HETATM   19  C7  UNL     1      20.500  -0.045 146.930  1.00  0.00     0.033 A 
HETATM   20  C8  UNL     1      21.539   0.760 147.250  1.00  0.00     0.052 A 
HETATM   21  C11 UNL     1      21.848   0.936 148.665  1.00  0.00     0.121 A 
BRANCH  20  22
HETATM   22  O2  UNL     1      22.298   1.457 146.376  1.00  0.00    -0.353 OA
BRANCH  22  23
HETATM   23  C9  UNL     1      23.534   1.675 146.757  1.00  0.00     0.204 C 
BRANCH  23  24
HETATM   24  C10 UNL     1      24.599   2.301 145.729  1.00  0.00     0.227 C 
BRANCH  24  25
HETATM   25  O3  UNL     1      23.976   3.494 145.617  1.00  0.00    -0.285 OA
BRANCH  25  26
HETATM   26  N6  UNL     1      24.297   4.571 146.245  1.00  0.00    -0.311 N 
ATOM     27  H62 UNL     1      24.592   4.454 147.214  1.00  0.00     0.184 HD
ATOM     28  H61 UNL     1      24.280   5.514 145.856  1.00  0.00     0.184 HD
ENDBRANCH  25  26
ENDBRANCH  24  25
ENDBRANCH  23  24
ENDBRANCH  22  23
ENDBRANCH  20  22
ENDBRANCH   1  16
TORSDOF 9
ENDMDL
MODEL 4
REMARK VINA RESULT: -5.239304457      1.816      2.502
REMARK  9 active torsions:
REMARK  status: ('A' for Active; 'I' for Inactive)
REMARK    1  A    between atoms: N1_1  and  N2_4 
REMARK    2  A    between atoms: N2_4  and  C1_6 
REMARK    3  A    between atoms: C3_13  and  N5_14 
REMARK    4  A    between atoms: N5_14  and  C4_16 
REMARK    5  A    between atoms: C8_20  and  O2_21 
REMARK    6  A    between atoms: O2_21  and  C9_22 
REMARK    7  A    between atoms: C9_22  and  C10_23 
REMARK    8  A    between atoms: C10_23  and  O3_24 
REMARK    9  A    between atoms: O3_24  and  N6_25 
ROOT
HETATM    1  N5  UNL     1      19.517  -0.393 148.677  1.00  0.00    -0.352 N 
ATOM      2  H5  UNL     1      18.591  -0.772 148.876  1.00  0.00     0.166 HD
ENDROOT
BRANCH   1   3
HETATM    3  C3  UNL     1      20.243   0.234 149.752  1.00  0.00     0.149 A 
HETATM    4  C1  UNL     1      21.216  -0.480 150.466  1.00  0.00     0.167 A 
HETATM    5  N3  UNL     1      21.785   0.474 151.356  1.00  0.00    -0.280 N 
HETATM    6  N4  UNL     1      21.220   1.569 151.176  1.00  0.00    -0.263 N 
ATOM      7  H3  UNL     1      22.531   0.292 152.029  1.00  0.00     0.189 HD
HETATM    8  C2  UNL     1      20.221   1.557 150.231  1.00  0.00     0.290 A 
ATOM      9  H4  UNL     1      21.478   2.411 151.691  1.00  0.00     0.190 HD
HETATM   10  O1  UNL     1      19.545   2.558 149.960  1.00  0.00    -0.264 OA
BRANCH   4  11
HETATM   11  N2  UNL     1      21.416  -1.857 150.595  1.00  0.00    -0.289 N 
ATOM     12  H2  UNL     1      21.286  -2.415 149.751  1.00  0.00     0.188 HD
BRANCH  11  13
HETATM   13  N1  UNL     1      21.762  -2.527 151.710  1.00  0.00    -0.344 N 
ATOM     14  H12 UNL     1      22.640  -2.236 152.138  1.00  0.00     0.176 HD
ATOM     15  H11 UNL     1      21.244  -3.282 152.161  1.00  0.00     0.176 HD
ENDBRANCH  11  13
ENDBRANCH   4  11
ENDBRANCH   1   3
BRANCH   1  16
HETATM   16  C4  UNL     1      20.013  -0.509 147.382  1.00  0.00     0.016 A 
HETATM   17  C5  UNL     1      19.850  -1.484 146.530  1.00  0.00     0.025 A 
HETATM   18  C6  UNL     1      20.480  -1.813 145.320  1.00  0.00     0.004 A 
HETATM   19  C7  UNL     1      21.473  -0.841 144.977  1.00  0.00     0.033 A 
HETATM   20  C8  UNL     1      21.704   0.288 145.685  1.00  0.00     0.052 A 
HETATM   21  C11 UNL     1      20.979   0.460 146.940  1.00  0.00     0.121 A 
BRANCH  20  22
HETATM   22  O2  UNL     1      22.517   1.302 145.315  1.00  0.00    -0.353 OA
BRANCH  22  23
HETATM   23  C9  UNL     1      23.488   1.576 146.154  1.00  0.00     0.204 C 
BRANCH  23  24
HETATM   24  C10 UNL     1      24.740   2.465 145.679  1.00  0.00     0.227 C 
BRANCH  24  25
HETATM   25  O3  UNL     1      24.049   3.624 145.614  1.00  0.00    -0.285 OA
BRANCH  25  26
HETATM   26  N6  UNL     1      24.320   4.697 146.272  1.00  0.00    -0.311 N 
ATOM     27  H62 UNL     1      25.310   4.902 146.408  1.00  0.00     0.184 HD
ATOM     28  H61 UNL     1      23.635   5.346 146.659  1.00  0.00     0.184 HD
ENDBRANCH  25  26
ENDBRANCH  24  25
ENDBRANCH  23  24
ENDBRANCH  22  23
ENDBRANCH  20  22
ENDBRANCH   1  16
TORSDOF 9
ENDMDL
MODEL 5
REMARK VINA RESULT: -5.198749645      2.176      2.373
REMARK  9 active torsions:
REMARK  status: ('A' for Active; 'I' for Inactive)
REMARK    1  A    between atoms: N1_1  and  N2_4 
REMARK    2  A    between atoms: N2_4  and  C1_6 
REMARK    3  A    between atoms: C3_13  and  N5_14 
REMARK    4  A    between atoms: N5_14  and  C4_16 
REMARK    5  A    between atoms: C8_20  and  O2_21 
REMARK    6  A    between atoms: O2_21  and  C9_22 
REMARK    7  A    between atoms: C9_22  and  C10_23 
REMARK    8  A    between atoms: C10_23  and  O3_24 
REMARK    9  A    between atoms: O3_24  and  N6_25 
ROOT
HETATM    1  N5  UNL     1      19.485   0.080 151.894  1.00  0.00    -0.352 N 
ATOM      2  H5  UNL     1      18.617  -0.286 152.287  1.00  0.00     0.166 HD
ENDROOT
BRANCH   1   3
HETATM    3  C3  UNL     1      20.128   1.180 152.567  1.00  0.00     0.149 A 
HETATM    4  C1  UNL     1      21.233   0.956 153.402  1.00  0.00     0.167 A 
HETATM    5  N3  UNL     1      21.659   2.257 153.794  1.00  0.00    -0.280 N 
HETATM    6  N4  UNL     1      20.909   3.096 153.262  1.00  0.00    -0.263 N 
ATOM      7  H3  UNL     1      22.447   2.466 154.408  1.00  0.00     0.189 HD
HETATM    8  C2  UNL     1      19.896   2.565 152.498  1.00  0.00     0.290 A 
ATOM      9  H4  UNL     1      21.036   4.101 153.384  1.00  0.00     0.190 HD
HETATM   10  O1  UNL     1      19.049   3.268 151.930  1.00  0.00    -0.264 OA
BRANCH   4  11
HETATM   11  N2  UNL     1      21.670  -0.212 154.031  1.00  0.00    -0.289 N 
ATOM     12  H2  UNL     1      21.621  -1.069 153.481  1.00  0.00     0.188 HD
BRANCH  11  13
HETATM   13  N1  UNL     1      22.150  -0.330 155.283  1.00  0.00    -0.344 N 
ATOM     14  H12 UNL     1      22.538   0.525 155.683  1.00  0.00     0.176 HD
ATOM     15  H11 UNL     1      22.165  -1.170 155.861  1.00  0.00     0.176 HD
ENDBRANCH  11  13
ENDBRANCH   4  11
ENDBRANCH   1   3
BRANCH   1  16
HETATM   16  C4  UNL     1      19.985  -0.510 150.738  1.00  0.00     0.016 A 
HETATM   17  C5  UNL     1      20.666  -1.616 150.615  1.00  0.00     0.025 A 
HETATM   18  C6  UNL     1      21.409  -2.171 149.561  1.00  0.00     0.004 A 
HETATM   19  C7  UNL     1      21.357  -1.335 148.400  1.00  0.00     0.033 A 
HETATM   20  C8  UNL     1      20.614  -0.208 148.311  1.00  0.00     0.052 A 
HETATM   21  C11 UNL     1      19.924   0.243 149.515  1.00  0.00     0.121 A 
BRANCH  20  22
HETATM   22  O2  UNL     1      20.414   0.521 147.191  1.00  0.00    -0.353 OA
BRANCH  22  23
HETATM   23  C9  UNL     1      21.380   0.462 146.305  1.00  0.00     0.204 C 
BRANCH  23  24
HETATM   24  C10 UNL     1      21.135   0.987 144.806  1.00  0.00     0.227 C 
BRANCH  24  25
HETATM   25  O3  UNL     1      21.380  -0.204 144.217  1.00  0.00    -0.285 OA
BRANCH  25  26
HETATM   26  N6  UNL     1      21.317  -1.354 144.794  1.00  0.00    -0.311 N 
ATOM     27  H62 UNL     1      21.629  -2.150 144.238  1.00  0.00     0.184 HD
ATOM     28  H61 UNL     1      20.987  -1.526 145.743  1.00  0.00     0.184 HD
ENDBRANCH  25  26
ENDBRANCH  24  25
ENDBRANCH  23  24
ENDBRANCH  22  23
ENDBRANCH  20  22
ENDBRANCH   1  16
TORSDOF 9
ENDMDL
