MODEL 1
REMARK VINA RESULT: -5.739942197      0.000      0.000
REMARK  8 active torsions:
REMARK  status: ('A' for Active; 'I' for Inactive)
REMARK       I    between atoms: C1_4  and  N3_6 
REMARK    1  A    between atoms: N3_6  and  N4_8 
REMARK    2  A    between atoms: N4_8  and  C2_10 
REMARK    3  A    between atoms: C4_13  and  N5_14 
REMARK       I    between atoms: N5_14  and  C5_16 
REMARK    4  A    between atoms: C5_16  and  C6_18 
REMARK    5  A    between atoms: C6_18  and  C7_20 
REMARK    6  A    between atoms: C7_20  and  C8_21 
REMARK    7  A    between atoms: C8_21  and  C9_22 
REMARK    8  A    between atoms: C9_22  and  N6_23 
ROOT
HETATM    1  C2  UNL     1      21.501   0.639 146.848  1.00  0.00     0.074 A 
HETATM    2  C3  UNL     1      20.412  -0.202 146.882  1.00  0.00     0.175 A 
HETATM    3  O1  UNL     1      19.962  -0.281 148.107  1.00  0.00    -0.303 OA
HETATM    4  C4  UNL     1      20.703   0.473 148.906  1.00  0.00     0.152 A 
HETATM    5  C10 UNL     1      21.688   1.075 148.155  1.00  0.00     0.089 A 
ENDROOT
BRANCH   4   6
HETATM    6  N5  UNL     1      20.500   0.628 150.318  1.00  0.00    -0.301 N 
HETATM    7  C5  UNL     1      19.899   1.799 150.817  1.00  0.00     0.293 C 
HETATM    8  O2  UNL     1      19.547   2.696 150.032  1.00  0.00    -0.264 OA
ATOM      9  H5  UNL     1      20.790  -0.109 150.960  1.00  0.00     0.171 HD
BRANCH   7  10
HETATM   10  C6  UNL     1      19.698   1.946 152.241  1.00  0.00     0.216 C 
HETATM   11  O3  UNL     1      18.876   1.224 152.890  1.00  0.00    -0.287 OA
BRANCH  10  12
HETATM   12  C7  UNL     1      20.477   2.980 153.000  1.00  0.00     0.090 C 
BRANCH  12  13
HETATM   13  C8  UNL     1      21.928   2.565 153.117  1.00  0.00     0.035 C 
BRANCH  13  14
HETATM   14  C9  UNL     1      22.065   1.784 154.410  1.00  0.00     0.230 C 
BRANCH  14  15
HETATM   15  N6  UNL     1      23.288   2.174 155.092  1.00  0.00    -0.079 N 
ATOM     16  H63 UNL     1      23.257   3.141 155.415  1.00  0.00     0.274 HD
ATOM     17  H62 UNL     1      23.384   1.719 156.000  1.00  0.00     0.274 HD
ATOM     18  H61 UNL     1      24.090   1.996 154.487  1.00  0.00     0.274 HD
ENDBRANCH  14  15
ENDBRANCH  13  14
ENDBRANCH  12  13
ENDBRANCH  10  12
ENDBRANCH   7  10
ENDBRANCH   4   6
BRANCH   1  19
HETATM   19  N4  UNL     1      22.246   0.964 145.696  1.00  0.00    -0.296 N 
ATOM     20  H4  UNL     1      21.761   1.155 144.819  1.00  0.00     0.187 HD
BRANCH  19  21
HETATM   21  N3  UNL     1      23.639   1.029 145.744  1.00  0.00    -0.273 N 
HETATM   22  C1  UNL     1      24.218   2.251 146.184  1.00  0.00     0.200 C 
HETATM   23  N1  UNL     1      24.937   2.208 147.255  1.00  0.00    -0.372 N 
HETATM   24  N2  UNL     1      24.055   3.488 145.529  1.00  0.00    -0.062 NA
ATOM     25  H12 UNL     1      25.353   3.085 147.570  1.00  0.00     0.158 HD
ATOM     26  H11 UNL     1      25.055   1.313 147.729  1.00  0.00     0.158 HD
ATOM     27  H3  UNL     1      24.217   0.233 145.474  1.00  0.00     0.189 HD
ENDBRANCH  19  21
ENDBRANCH   1  19
TORSDOF 8
ENDMDL
MODEL 2
REMARK VINA RESULT: -5.639215275      1.844      2.316
REMARK  8 active torsions:
REMARK  status: ('A' for Active; 'I' for Inactive)
REMARK       I    between atoms: C1_4  and  N3_6 
REMARK    1  A    between atoms: N3_6  and  N4_8 
REMARK    2  A    between atoms: N4_8  and  C2_10 
REMARK    3  A    between atoms: C4_13  and  N5_14 
REMARK       I    between atoms: N5_14  and  C5_16 
REMARK    4  A    between atoms: C5_16  and  C6_18 
REMARK    5  A    between atoms: C6_18  and  C7_20 
REMARK    6  A    between atoms: C7_20  and  C8_21 
REMARK    7  A    between atoms: C8_21  and  C9_22 
REMARK    8  A    between atoms: C9_22  and  N6_23 
ROOT
HETATM    1  C2  UNL     1      20.583  -1.411 147.359  1.00  0.00     0.074 A 
HETATM    2  C3  UNL     1      21.488  -2.028 148.194  1.00  0.00     0.175 A 
HETATM    3  O1  UNL     1      21.266  -1.654 149.427  1.00  0.00    -0.303 OA
HETATM    4  C4  UNL     1      20.247  -0.807 149.462  1.00  0.00     0.152 A 
HETATM    5  C10 UNL     1      19.782  -0.624 148.179  1.00  0.00     0.089 A 
ENDROOT
BRANCH   4   6
HETATM    6  N5  UNL     1      19.725  -0.192 150.649  1.00  0.00    -0.301 N 
HETATM    7  C5  UNL     1      20.234   1.047 151.080  1.00  0.00     0.293 C 
HETATM    8  O2  UNL     1      21.136   1.604 150.432  1.00  0.00    -0.264 OA
ATOM      9  H5  UNL     1      18.985  -0.653 151.179  1.00  0.00     0.171 HD
BRANCH   7  10
HETATM   10  C6  UNL     1      19.701   1.659 152.277  1.00  0.00     0.216 C 
HETATM   11  O3  UNL     1      18.648   1.232 152.848  1.00  0.00    -0.287 OA
BRANCH  10  12
HETATM   12  C7  UNL     1      20.401   2.839 152.884  1.00  0.00     0.090 C 
BRANCH  12  13
HETATM   13  C8  UNL     1      21.494   2.377 153.824  1.00  0.00     0.035 C 
BRANCH  13  14
HETATM   14  C9  UNL     1      22.805   2.916 153.284  1.00  0.00     0.230 C 
BRANCH  14  15
HETATM   15  N6  UNL     1      23.482   1.882 152.519  1.00  0.00    -0.079 N 
ATOM     16  H63 UNL     1      24.440   1.734 152.836  1.00  0.00     0.274 HD
ATOM     17  H62 UNL     1      23.115   0.952 152.721  1.00  0.00     0.274 HD
ATOM     18  H61 UNL     1      23.437   2.105 151.525  1.00  0.00     0.274 HD
ENDBRANCH  14  15
ENDBRANCH  13  14
ENDBRANCH  12  13
ENDBRANCH  10  12
ENDBRANCH   7  10
ENDBRANCH   4   6
BRANCH   1  19
HETATM   19  N4  UNL     1      20.520  -1.576 145.961  1.00  0.00    -0.296 N 
ATOM     20  H4  UNL     1      19.818  -2.197 145.557  1.00  0.00     0.187 HD
BRANCH  19  21
HETATM   21  N3  UNL     1      21.406  -0.898 145.123  1.00  0.00    -0.273 N 
HETATM   22  C1  UNL     1      21.410   0.523 145.194  1.00  0.00     0.200 C 
HETATM   23  N1  UNL     1      22.509   1.089 145.563  1.00  0.00    -0.372 N 
HETATM   24  N2  UNL     1      20.300   1.336 144.890  1.00  0.00    -0.062 NA
ATOM     25  H12 UNL     1      22.512   2.108 145.614  1.00  0.00     0.158 HD
ATOM     26  H11 UNL     1      23.313   0.501 145.783  1.00  0.00     0.158 HD
ATOM     27  H3  UNL     1      22.025  -1.400 144.486  1.00  0.00     0.189 HD
ENDBRANCH  19  21
ENDBRANCH   1  19
TORSDOF 8
ENDMDL
MODEL 3
REMARK VINA RESULT: -5.619046366      1.397      1.750
REMARK  8 active torsions:
REMARK  status: ('A' for Active; 'I' for Inactive)
REMARK       I    between atoms: C1_4  and  N3_6 
REMARK    1  A    between atoms: N3_6  and  N4_8 
REMARK    2  A    between atoms: N4_8  and  C2_10 
REMARK    3  A    between atoms: C4_13  and  N5_14 
REMARK       I    between atoms: N5_14  and  C5_16 
REMARK    4  A    between atoms: C5_16  and  C6_18 
REMARK    5  A    between atoms: C6_18  and  C7_20 
REMARK    6  A    between atoms: C7_20  and  C8_21 
REMARK    7  A    between atoms: C8_21  and  C9_22 
REMARK    8  A    between atoms: C9_22  and  N6_23 
ROOT
HETATM    1  C2  UNL     1      20.803  -0.973 147.405  1.00  0.00     0.074 A 
HETATM    2  C3  UNL     1      19.450  -1.045 147.645  1.00  0.00     0.175 A 
HETATM    3  O1  UNL     1      19.192  -0.551 148.828  1.00  0.00    -0.303 OA
HETATM    4  C4  UNL     1      20.317  -0.147 149.400  1.00  0.00     0.152 A 
HETATM    5  C10 UNL     1      21.362  -0.392 148.538  1.00  0.00     0.089 A 
ENDROOT
BRANCH   4   6
HETATM    6  N5  UNL     1      20.415   0.447 150.703  1.00  0.00    -0.301 N 
HETATM    7  C5  UNL     1      20.065   1.798 150.886  1.00  0.00     0.293 C 
HETATM    8  O2  UNL     1      19.672   2.472 149.919  1.00  0.00    -0.264 OA
ATOM      9  H5  UNL     1      20.738  -0.109 151.495  1.00  0.00     0.171 HD
BRANCH   7  10
HETATM   10  C6  UNL     1      20.166   2.388 152.202  1.00  0.00     0.216 C 
HETATM   11  O3  UNL     1      19.353   3.275 152.615  1.00  0.00    -0.287 OA
BRANCH  10  12
HETATM   12  C7  UNL     1      21.261   1.952 153.131  1.00  0.00     0.090 C 
BRANCH  12  13
HETATM   13  C8  UNL     1      22.294   3.049 153.277  1.00  0.00     0.035 C 
BRANCH  13  14
HETATM   14  C9  UNL     1      23.448   2.470 154.076  1.00  0.00     0.230 C 
BRANCH  14  15
HETATM   15  N6  UNL     1      22.949   1.907 155.320  1.00  0.00    -0.079 N 
ATOM     16  H63 UNL     1      22.186   2.458 155.713  1.00  0.00     0.274 HD
ATOM     17  H62 UNL     1      22.439   1.036 155.170  1.00  0.00     0.274 HD
ATOM     18  H61 UNL     1      23.720   1.793 155.978  1.00  0.00     0.274 HD
ENDBRANCH  14  15
ENDBRANCH  13  14
ENDBRANCH  12  13
ENDBRANCH  10  12
ENDBRANCH   7  10
ENDBRANCH   4   6
BRANCH   1  19
HETATM   19  N4  UNL     1      21.447  -1.411 146.231  1.00  0.00    -0.296 N 
ATOM     20  H4  UNL     1      21.167  -2.293 145.801  1.00  0.00     0.187 HD
BRANCH  19  21
HETATM   21  N3  UNL     1      22.463  -0.652 145.650  1.00  0.00    -0.273 N 
HETATM   22  C1  UNL     1      22.192   0.725 145.415  1.00  0.00     0.200 C 
HETATM   23  N1  UNL     1      22.936   1.583 146.030  1.00  0.00    -0.372 N 
HETATM   24  N2  UNL     1      21.175   1.200 144.563  1.00  0.00    -0.062 NA
ATOM     25  H12 UNL     1      22.741   2.570 145.862  1.00  0.00     0.158 HD
ATOM     26  H11 UNL     1      23.672   1.239 146.646  1.00  0.00     0.158 HD
ATOM     27  H3  UNL     1      23.363  -1.066 145.404  1.00  0.00     0.189 HD
ENDBRANCH  19  21
ENDBRANCH   1  19
TORSDOF 8
ENDMDL
MODEL 4
REMARK VINA RESULT: -5.596015080      2.282      2.658
REMARK  8 active torsions:
REMARK  status: ('A' for Active; 'I' for Inactive)
REMARK       I    between atoms: C1_4  and  N3_6 
REMARK    1  A    between atoms: N3_6  and  N4_8 
REMARK    2  A    between atoms: N4_8  and  C2_10 
REMARK    3  A    between atoms: C4_13  and  N5_14 
REMARK       I    between atoms: N5_14  and  C5_16 
REMARK    4  A    between atoms: C5_16  and  C6_18 
REMARK    5  A    between atoms: C6_18  and  C7_20 
REMARK    6  A    between atoms: C7_20  and  C8_21 
REMARK    7  A    between atoms: C8_21  and  C9_22 
REMARK    8  A    between atoms: C9_22  and  N6_23 
ROOT
HETATM    1  C2  UNL     1      20.078  -1.203 147.710  1.00  0.00     0.074 A 
HETATM    2  C3  UNL     1      20.761  -1.913 148.671  1.00  0.00     0.175 A 
HETATM    3  O1  UNL     1      20.978  -1.144 149.706  1.00  0.00    -0.303 OA
HETATM    4  C4  UNL     1      20.471   0.060 149.485  1.00  0.00     0.152 A 
HETATM    5  C10 UNL     1      19.891   0.071 148.236  1.00  0.00     0.089 A 
ENDROOT
BRANCH   4   6
HETATM    6  N5  UNL     1      20.524   1.161 150.404  1.00  0.00    -0.301 N 
HETATM    7  C5  UNL     1      19.750   1.132 151.579  1.00  0.00     0.293 C 
HETATM    8  O2  UNL     1      19.023   0.153 151.817  1.00  0.00    -0.264 OA
ATOM      9  H5  UNL     1      21.122   1.963 150.206  1.00  0.00     0.171 HD
BRANCH   7  10
HETATM   10  C6  UNL     1      19.810   2.245 152.500  1.00  0.00     0.216 C 
HETATM   11  O3  UNL     1      19.065   3.269 152.379  1.00  0.00    -0.287 OA
BRANCH  10  12
HETATM   12  C7  UNL     1      20.779   2.212 153.645  1.00  0.00     0.090 C 
BRANCH  12  13
HETATM   13  C8  UNL     1      22.066   2.914 153.267  1.00  0.00     0.035 C 
BRANCH  13  14
HETATM   14  C9  UNL     1      23.177   2.278 154.082  1.00  0.00     0.230 C 
BRANCH  14  15
HETATM   15  N6  UNL     1      22.634   1.752 155.324  1.00  0.00    -0.079 N 
ATOM     16  H63 UNL     1      23.297   1.829 156.096  1.00  0.00     0.274 HD
ATOM     17  H62 UNL     1      21.897   2.347 155.704  1.00  0.00     0.274 HD
ATOM     18  H61 UNL     1      22.319   0.793 155.182  1.00  0.00     0.274 HD
ENDBRANCH  14  15
ENDBRANCH  13  14
ENDBRANCH  12  13
ENDBRANCH  10  12
ENDBRANCH   7  10
ENDBRANCH   4   6
BRANCH   1  19
HETATM   19  N4  UNL     1      19.671  -1.707 146.458  1.00  0.00    -0.296 N 
ATOM     20  H4  UNL     1      18.677  -1.823 146.260  1.00  0.00     0.187 HD
BRANCH  19  21
HETATM   21  N3  UNL     1      20.613  -2.048 145.487  1.00  0.00    -0.273 N 
HETATM   22  C1  UNL     1      21.525  -1.034 145.082  1.00  0.00     0.200 C 
HETATM   23  N1  UNL     1      22.779  -1.253 145.295  1.00  0.00    -0.372 N 
HETATM   24  N2  UNL     1      21.145   0.178 144.472  1.00  0.00    -0.062 NA
ATOM     25  H12 UNL     1      23.433  -0.526 145.005  1.00  0.00     0.158 HD
ATOM     26  H11 UNL     1      23.054  -2.131 145.737  1.00  0.00     0.158 HD
ATOM     27  H3  UNL     1      20.646  -2.985 145.085  1.00  0.00     0.189 HD
ENDBRANCH  19  21
ENDBRANCH   1  19
TORSDOF 8
ENDMDL
MODEL 5
REMARK VINA RESULT: -5.594433204      1.849      2.295
REMARK  8 active torsions:
REMARK  status: ('A' for Active; 'I' for Inactive)
REMARK       I    between atoms: C1_4  and  N3_6 
REMARK    1  A    between atoms: N3_6  and  N4_8 
REMARK    2  A    between atoms: N4_8  and  C2_10 
REMARK    3  A    between atoms: C4_13  and  N5_14 
REMARK       I    between atoms: N5_14  and  C5_16 
REMARK    4  A    between atoms: C5_16  and  C6_18 
REMARK    5  A    between atoms: C6_18  and  C7_20 
REMARK    6  A    between atoms: C7_20  and  C8_21 
REMARK    7  A    between atoms: C8_21  and  C9_22 
REMARK    8  A    between atoms: C9_22  and  N6_23 
ROOT
HETATM    1  C2  UNL     1      21.260  -1.373 147.843  1.00  0.00     0.074 A 
HETATM    2  C3  UNL     1      19.888  -1.481 147.854  1.00  0.00     0.175 A 
HETATM    3  O1  UNL     1      19.413  -0.875 148.910  1.00  0.00    -0.303 OA
HETATM    4  C4  UNL     1      20.409  -0.360 149.617  1.00  0.00     0.152 A 
HETATM    5  C10 UNL     1      21.596  -0.649 148.981  1.00  0.00     0.089 A 
ENDROOT
BRANCH   4   6
HETATM    6  N5  UNL     1      20.260   0.376 150.840  1.00  0.00    -0.301 N 
HETATM    7  C5  UNL     1      20.042   1.766 150.802  1.00  0.00     0.293 C 
HETATM    8  O2  UNL     1      19.980   2.352 149.708  1.00  0.00    -0.264 OA
ATOM      9  H5  UNL     1      20.312  -0.108 151.737  1.00  0.00     0.171 HD
BRANCH   7  10
HETATM   10  C6  UNL     1      19.893   2.499 152.039  1.00  0.00     0.216 C 
HETATM   11  O3  UNL     1      19.057   3.448 152.171  1.00  0.00    -0.287 OA
BRANCH  10  12
HETATM   12  C7  UNL     1      20.743   2.141 153.223  1.00  0.00     0.090 C 
BRANCH  12  13
HETATM   13  C8  UNL     1      19.958   1.289 154.197  1.00  0.00     0.035 C 
BRANCH  13  14
HETATM   14  C9  UNL     1      20.787   1.180 155.463  1.00  0.00     0.230 C 
BRANCH  14  15
HETATM   15  N6  UNL     1      19.913   1.192 156.624  1.00  0.00    -0.079 N 
ATOM     16  H63 UNL     1      19.164   0.504 156.550  1.00  0.00     0.274 HD
ATOM     17  H62 UNL     1      20.373   0.820 157.455  1.00  0.00     0.274 HD
ATOM     18  H61 UNL     1      19.554   2.136 156.774  1.00  0.00     0.274 HD
ENDBRANCH  14  15
ENDBRANCH  13  14
ENDBRANCH  12  13
ENDBRANCH  10  12
ENDBRANCH   7  10
ENDBRANCH   4   6
BRANCH   1  19
HETATM   19  N4  UNL     1      22.112  -1.906 146.855  1.00  0.00    -0.296 N 
ATOM     20  H4  UNL     1      22.121  -2.912 146.685  1.00  0.00     0.187 HD
BRANCH  19  21
HETATM   21  N3  UNL     1      22.944  -1.073 146.107  1.00  0.00    -0.273 N 
HETATM   22  C1  UNL     1      22.330   0.009 145.417  1.00  0.00     0.200 C 
HETATM   23  N1  UNL     1      22.695   1.202 145.750  1.00  0.00    -0.372 N 
HETATM   24  N2  UNL     1      21.360  -0.143 144.406  1.00  0.00    -0.062 NA
ATOM     25  H12 UNL     1      22.255   1.977 145.255  1.00  0.00     0.158 HD
ATOM     26  H11 UNL     1      23.398   1.311 146.481  1.00  0.00     0.158 HD
ATOM     27  H3  UNL     1      23.951  -1.232 146.058  1.00  0.00     0.189 HD
ENDBRANCH  19  21
ENDBRANCH   1  19
TORSDOF 8
ENDMDL
