MODEL 1
REMARK VINA RESULT: -4.687473388      0.000      0.000
REMARK  1 active torsions:
REMARK  status: ('A' for Active; 'I' for Inactive)
REMARK    1  A    between atoms: C3_3  and  C4_4 
ROOT
HETATM    1  C4  UNL     1     -16.914 -35.839  15.951  1.00  0.00     0.216 C 
HETATM    2  C5  UNL     1     -17.801 -36.391  17.009  1.00  0.00     0.092 C 
HETATM    3  C6  UNL     1     -18.478 -37.512  16.349  1.00  0.00     0.028 C 
HETATM    4  N1  UNL     1     -19.556 -38.070  16.748  1.00  0.00    -0.403 N 
ATOM      5  H11 UNL     1     -20.027 -38.850  16.289  1.00  0.00     0.155 HD
ATOM      6  H12 UNL     1     -20.097 -37.818  17.575  1.00  0.00     0.155 HD
HETATM    7  C7  UNL     1     -17.697 -37.877  15.154  1.00  0.00     0.326 C 
HETATM    8 CL1  UNL     1     -17.024 -39.523  15.410  1.00  0.00    -0.088 Cl
HETATM    9  N2  UNL     1     -16.617 -36.938  15.094  1.00  0.00    -0.045 N 
ATOM     10  H21 UNL     1     -15.717 -37.366  15.308  1.00  0.00     0.280 HD
ATOM     11  H22 UNL     1     -16.411 -36.642  14.140  1.00  0.00     0.280 HD
ENDROOT
BRANCH   1  12
HETATM   12  C3  UNL     1     -17.508 -34.732  15.171  1.00  0.00     0.002 C 
HETATM   13  C2  UNL     1     -17.828 -33.558  15.652  1.00  0.00    -0.033 C 
HETATM   14  C1  UNL     1     -18.417 -32.506  14.810  1.00  0.00     0.036 C 
ENDBRANCH   1  12
TORSDOF 1
ENDMDL
MODEL 2
REMARK VINA RESULT: -4.639844034      3.037      4.620
REMARK  1 active torsions:
REMARK  status: ('A' for Active; 'I' for Inactive)
REMARK    1  A    between atoms: C3_3  and  C4_4 
ROOT
HETATM    1  C4  UNL     1     -17.663 -35.481  16.731  1.00  0.00     0.216 C 
HETATM    2  C5  UNL     1     -16.603 -35.065  15.774  1.00  0.00     0.092 C 
HETATM    3  C6  UNL     1     -17.285 -34.118  14.886  1.00  0.00     0.028 C 
HETATM    4  N1  UNL     1     -16.880 -33.758  13.729  1.00  0.00    -0.403 N 
ATOM      5  H11 UNL     1     -17.354 -33.099  13.111  1.00  0.00     0.155 HD
ATOM      6  H12 UNL     1     -16.030 -34.075  13.261  1.00  0.00     0.155 HD
HETATM    7  C7  UNL     1     -18.512 -33.660  15.563  1.00  0.00     0.326 C 
HETATM    8 CL1  UNL     1     -18.330 -31.908  15.917  1.00  0.00    -0.088 Cl
HETATM    9  N2  UNL     1     -18.565 -34.380  16.799  1.00  0.00    -0.045 N 
ATOM     10  H21 UNL     1     -18.389 -33.782  17.607  1.00  0.00     0.280 HD
ATOM     11  H22 UNL     1     -19.513 -34.669  17.041  1.00  0.00     0.280 HD
ENDROOT
BRANCH   1  12
HETATM   12  C3  UNL     1     -18.388 -36.710  16.343  1.00  0.00     0.002 C 
HETATM   13  C2  UNL     1     -17.845 -37.760  15.783  1.00  0.00    -0.033 C 
HETATM   14  C1  UNL     1     -18.636 -38.948  15.426  1.00  0.00     0.036 C 
ENDBRANCH   1  12
TORSDOF 1
ENDMDL
MODEL 3
REMARK VINA RESULT: -4.599633259      6.282      8.232
REMARK  1 active torsions:
REMARK  status: ('A' for Active; 'I' for Inactive)
REMARK    1  A    between atoms: C3_3  and  C4_4 
ROOT
HETATM    1  C4  UNL     1     -17.888 -29.677  15.067  1.00  0.00     0.216 C 
HETATM    2  C5  UNL     1     -16.686 -28.887  14.687  1.00  0.00     0.092 C 
HETATM    3  C6  UNL     1     -17.003 -28.392  13.343  1.00  0.00     0.028 C 
HETATM    4  N1  UNL     1     -16.157 -27.954  12.491  1.00  0.00    -0.403 N 
ATOM      5  H11 UNL     1     -16.378 -27.610  11.557  1.00  0.00     0.155 HD
ATOM      6  H12 UNL     1     -15.147 -27.887  12.623  1.00  0.00     0.155 HD
HETATM    7  C7  UNL     1     -18.462 -28.489  13.154  1.00  0.00     0.326 C 
HETATM    8 CL1  UNL     1     -19.116 -26.822  13.013  1.00  0.00    -0.088 Cl
HETATM    9  N2  UNL     1     -18.970 -29.089  14.350  1.00  0.00    -0.045 N 
ATOM     10  H21 UNL     1     -19.502 -28.431  14.920  1.00  0.00     0.280 HD
ATOM     11  H22 UNL     1     -19.720 -29.754  14.164  1.00  0.00     0.280 HD
ENDROOT
BRANCH   1  12
HETATM   12  C3  UNL     1     -17.796 -31.119  14.755  1.00  0.00     0.002 C 
HETATM   13  C2  UNL     1     -18.174 -32.088  15.549  1.00  0.00    -0.033 C 
HETATM   14  C1  UNL     1     -18.050 -33.502  15.165  1.00  0.00     0.036 C 
ENDBRANCH   1  12
TORSDOF 1
ENDMDL
MODEL 4
REMARK VINA RESULT: -4.461702442      6.559      8.472
REMARK  1 active torsions:
REMARK  status: ('A' for Active; 'I' for Inactive)
REMARK    1  A    between atoms: C3_3  and  C4_4 
ROOT
HETATM    1  C4  UNL     1     -17.652 -29.129  14.760  1.00  0.00     0.216 C 
HETATM    2  C5  UNL     1     -17.699 -28.301  13.525  1.00  0.00     0.092 C 
HETATM    3  C6  UNL     1     -19.131 -28.052  13.325  1.00  0.00     0.028 C 
HETATM    4  N1  UNL     1     -19.676 -27.676  12.233  1.00  0.00    -0.403 N 
ATOM      5  H11 UNL     1     -20.672 -27.503  12.094  1.00  0.00     0.155 HD
ATOM      6  H12 UNL     1     -19.198 -27.496  11.349  1.00  0.00     0.155 HD
HETATM    7  C7  UNL     1     -19.821 -28.311  14.602  1.00  0.00     0.326 C 
HETATM    8 CL1  UNL     1     -20.487 -26.753  15.200  1.00  0.00    -0.088 Cl
HETATM    9  N2  UNL     1     -18.808 -28.762  15.507  1.00  0.00    -0.045 N 
ATOM     10  H21 UNL     1     -18.601 -28.075  16.232  1.00  0.00     0.280 HD
ATOM     11  H22 UNL     1     -19.134 -29.514  16.113  1.00  0.00     0.280 HD
ENDROOT
BRANCH   1  12
HETATM   12  C3  UNL     1     -17.645 -30.588  14.518  1.00  0.00     0.002 C 
HETATM   13  C2  UNL     1     -18.163 -31.487  15.315  1.00  0.00    -0.033 C 
HETATM   14  C1  UNL     1     -18.117 -32.923  15.003  1.00  0.00     0.036 C 
ENDBRANCH   1  12
TORSDOF 1
ENDMDL
MODEL 5
REMARK VINA RESULT: -4.372238883      6.586      7.794
REMARK  1 active torsions:
REMARK  status: ('A' for Active; 'I' for Inactive)
REMARK    1  A    between atoms: C3_3  and  C4_4 
ROOT
HETATM    1  C4  UNL     1     -18.752 -30.222  15.601  1.00  0.00     0.216 C 
HETATM    2  C5  UNL     1     -19.080 -28.823  15.214  1.00  0.00     0.092 C 
HETATM    3  C6  UNL     1     -17.822 -28.308  14.664  1.00  0.00     0.028 C 
HETATM    4  N1  UNL     1     -17.525 -27.075  14.511  1.00  0.00    -0.403 N 
ATOM      5  H11 UNL     1     -16.650 -26.717  14.129  1.00  0.00     0.155 HD
ATOM      6  H12 UNL     1     -18.116 -26.278  14.748  1.00  0.00     0.155 HD
HETATM    7  C7  UNL     1     -16.968 -29.460  14.321  1.00  0.00     0.326 C 
HETATM    8 CL1  UNL     1     -16.766 -29.490  12.536  1.00  0.00    -0.088 Cl
HETATM    9  N2  UNL     1     -17.702 -30.621  14.725  1.00  0.00    -0.045 N 
ATOM     10  H21 UNL     1     -18.043 -31.162  13.930  1.00  0.00     0.280 HD
ATOM     11  H22 UNL     1     -17.104 -31.336  15.137  1.00  0.00     0.280 HD
ENDROOT
BRANCH   1  12
HETATM   12  C3  UNL     1     -18.329 -30.383  17.009  1.00  0.00     0.002 C 
HETATM   13  C2  UNL     1     -18.984 -29.935  18.049  1.00  0.00    -0.033 C 
HETATM   14  C1  UNL     1     -18.497 -30.136  19.422  1.00  0.00     0.036 C 
ENDBRANCH   1  12
TORSDOF 1
ENDMDL
