MODEL 1
REMARK VINA RESULT: -5.184426349      0.000      0.000
REMARK  2 active torsions:
REMARK  status: ('A' for Active; 'I' for Inactive)
REMARK    1  A    between atoms: C2_2  and  C3_3 
REMARK    2  A    between atoms: C3_3  and  N1_4 
ROOT
HETATM    1  N1  UNL     1     -18.348 -31.923  15.159  1.00  0.00    -0.358 N 
ATOM      2  H1  UNL     1     -19.155 -32.021  15.775  1.00  0.00     0.162 HD
HETATM    3  C4  UNL     1     -17.937 -30.732  14.904  1.00  0.00     0.192 A 
HETATM    4  N2  UNL     1     -18.540 -29.568  15.426  1.00  0.00    -0.274 N 
ATOM      5  H2  UNL     1     -19.349 -29.562  16.048  1.00  0.00     0.189 HD
HETATM    6  N3  UNL     1     -17.949 -28.550  15.023  1.00  0.00    -0.305 N 
ATOM      7  H3  UNL     1     -18.213 -27.598  15.275  1.00  0.00     0.183 HD
HETATM    8  C5  UNL     1     -16.868 -28.875  14.174  1.00  0.00     0.120 A 
HETATM    9  C6  UNL     1     -16.550 -28.043  12.978  1.00  0.00     0.059 A 
HETATM   10  C7  UNL     1     -15.620 -28.078  14.126  1.00  0.00     0.059 A 
HETATM   11  N4  UNL     1     -16.857 -30.301  14.094  1.00  0.00    -0.333 N 
ATOM     12  H4  UNL     1     -16.210 -30.885  13.565  1.00  0.00     0.165 HD
ENDROOT
BRANCH   1  13
HETATM   13  C3  UNL     1     -17.757 -33.125  14.644  1.00  0.00     0.149 C 
BRANCH  13  14
HETATM   14  C2  UNL     1     -17.841 -34.258  15.610  1.00  0.00    -0.018 C 
HETATM   15  C1  UNL     1     -16.850 -35.125  15.717  1.00  0.00     0.008 C 
ENDBRANCH  13  14
ENDBRANCH   1  13
TORSDOF 2
ENDMDL
MODEL 2
REMARK VINA RESULT: -5.168683033      2.979      6.551
REMARK  2 active torsions:
REMARK  status: ('A' for Active; 'I' for Inactive)
REMARK    1  A    between atoms: C2_2  and  C3_3 
REMARK    2  A    between atoms: C3_3  and  N1_4 
ROOT
HETATM    1  N1  UNL     1     -16.997 -33.962  14.200  1.00  0.00    -0.358 N 
ATOM      2  H1  UNL     1     -16.385 -34.176  13.412  1.00  0.00     0.162 HD
HETATM    3  C4  UNL     1     -17.296 -34.924  14.998  1.00  0.00     0.192 A 
HETATM    4  N2  UNL     1     -16.827 -36.246  14.840  1.00  0.00    -0.274 N 
ATOM      5  H2  UNL     1     -16.214 -36.558  14.087  1.00  0.00     0.189 HD
HETATM    6  N3  UNL     1     -17.266 -36.976  15.747  1.00  0.00    -0.305 N 
ATOM      7  H3  UNL     1     -17.055 -37.971  15.832  1.00  0.00     0.183 HD
HETATM    8  C5  UNL     1     -18.090 -36.261  16.643  1.00  0.00     0.120 A 
HETATM    9  C6  UNL     1     -19.315 -36.880  17.225  1.00  0.00     0.059 A 
HETATM   10  C7  UNL     1     -18.157 -36.571  18.090  1.00  0.00     0.059 A 
HETATM   11  N4  UNL     1     -18.112 -34.918  16.156  1.00  0.00    -0.333 N 
ATOM     12  H4  UNL     1     -18.610 -34.124  16.557  1.00  0.00     0.165 HD
ENDROOT
BRANCH   1  13
HETATM   13  C3  UNL     1     -17.457 -32.609  14.332  1.00  0.00     0.149 C 
BRANCH  13  14
HETATM   14  C2  UNL     1     -16.630 -31.648  13.548  1.00  0.00    -0.018 C 
HETATM   15  C1  UNL     1     -16.805 -30.345  13.681  1.00  0.00     0.008 C 
ENDBRANCH  13  14
ENDBRANCH   1  13
TORSDOF 2
ENDMDL
MODEL 3
REMARK VINA RESULT: -5.065971822      4.764      8.172
REMARK  2 active torsions:
REMARK  status: ('A' for Active; 'I' for Inactive)
REMARK    1  A    between atoms: C2_2  and  C3_3 
REMARK    2  A    between atoms: C3_3  and  N1_4 
ROOT
HETATM    1  N1  UNL     1     -16.642 -36.122  14.982  1.00  0.00    -0.358 N 
ATOM      2  H1  UNL     1     -15.968 -36.209  14.222  1.00  0.00     0.162 HD
HETATM    3  C4  UNL     1     -17.291 -37.178  15.325  1.00  0.00     0.192 A 
HETATM    4  N2  UNL     1     -17.119 -38.435  14.709  1.00  0.00    -0.274 N 
ATOM      5  H2  UNL     1     -16.472 -38.623  13.942  1.00  0.00     0.189 HD
HETATM    6  N3  UNL     1     -17.866 -39.283  15.229  1.00  0.00    -0.305 N 
ATOM      7  H3  UNL     1     -17.909 -40.261  14.942  1.00  0.00     0.183 HD
HETATM    8  C5  UNL     1     -18.647 -38.726  16.265  1.00  0.00     0.120 A 
HETATM    9  C6  UNL     1     -20.065 -39.141  16.470  1.00  0.00     0.059 A 
HETATM   10  C7  UNL     1     -19.037 -39.491  17.473  1.00  0.00     0.059 A 
HETATM   11  N4  UNL     1     -18.273 -37.349  16.331  1.00  0.00    -0.333 N 
ATOM     12  H4  UNL     1     -18.637 -36.640  16.967  1.00  0.00     0.165 HD
ENDROOT
BRANCH   1  13
HETATM   13  C3  UNL     1     -16.793 -34.830  15.588  1.00  0.00     0.149 C 
BRANCH  13  14
HETATM   14  C2  UNL     1     -17.348 -33.820  14.642  1.00  0.00    -0.018 C 
HETATM   15  C1  UNL     1     -18.246 -32.940  15.048  1.00  0.00     0.008 C 
ENDBRANCH  13  14
ENDBRANCH   1  13
TORSDOF 2
ENDMDL
MODEL 4
REMARK VINA RESULT: -4.917499476      2.386      6.128
REMARK  2 active torsions:
REMARK  status: ('A' for Active; 'I' for Inactive)
REMARK    1  A    between atoms: C2_2  and  C3_3 
REMARK    2  A    between atoms: C3_3  and  N1_4 
ROOT
HETATM    1  N1  UNL     1     -17.579 -32.782  14.674  1.00  0.00    -0.358 N 
ATOM      2  H1  UNL     1     -16.928 -32.664  13.898  1.00  0.00     0.162 HD
HETATM    3  C4  UNL     1     -17.629 -33.937  15.237  1.00  0.00     0.192 A 
HETATM    4  N2  UNL     1     -16.837 -35.035  14.839  1.00  0.00    -0.274 N 
ATOM      5  H2  UNL     1     -16.159 -35.016  14.077  1.00  0.00     0.189 HD
HETATM    6  N3  UNL     1     -17.081 -36.029  15.547  1.00  0.00    -0.305 N 
ATOM      7  H3  UNL     1     -16.624 -36.934  15.439  1.00  0.00     0.183 HD
HETATM    8  C5  UNL     1     -18.067 -35.750  16.519  1.00  0.00     0.120 A 
HETATM    9  C6  UNL     1     -19.098 -36.763  16.885  1.00  0.00     0.059 A 
HETATM   10  C7  UNL     1     -18.063 -36.370  17.864  1.00  0.00     0.059 A 
HETATM   11  N4  UNL     1     -18.428 -34.382  16.319  1.00  0.00    -0.333 N 
ATOM     12  H4  UNL     1     -19.115 -33.842  16.843  1.00  0.00     0.165 HD
ENDROOT
BRANCH   1  13
HETATM   13  C3  UNL     1     -18.370 -31.647  15.053  1.00  0.00     0.149 C 
BRANCH  13  14
HETATM   14  C2  UNL     1     -17.700 -30.354  14.734  1.00  0.00    -0.018 C 
HETATM   15  C1  UNL     1     -16.816 -30.279  13.754  1.00  0.00     0.008 C 
ENDBRANCH  13  14
ENDBRANCH   1  13
TORSDOF 2
ENDMDL
MODEL 5
REMARK VINA RESULT: -4.777885492      4.661      8.109
REMARK  2 active torsions:
REMARK  status: ('A' for Active; 'I' for Inactive)
REMARK    1  A    between atoms: C2_2  and  C3_3 
REMARK    2  A    between atoms: C3_3  and  N1_4 
ROOT
HETATM    1  N1  UNL     1     -17.682 -35.765  16.186  1.00  0.00    -0.358 N 
ATOM      2  H1  UNL     1     -18.286 -35.338  16.888  1.00  0.00     0.162 HD
HETATM    3  C4  UNL     1     -17.836 -37.020  15.953  1.00  0.00     0.192 A 
HETATM    4  N2  UNL     1     -18.788 -37.827  16.613  1.00  0.00    -0.274 N 
ATOM      5  H2  UNL     1     -19.435 -37.494  17.328  1.00  0.00     0.189 HD
HETATM    6  N3  UNL     1     -18.727 -38.999  16.201  1.00  0.00    -0.305 N 
ATOM      7  H3  UNL     1     -19.324 -39.755  16.538  1.00  0.00     0.183 HD
HETATM    8  C5  UNL     1     -17.732 -39.156  15.211  1.00  0.00     0.120 A 
HETATM    9  C6  UNL     1     -16.891 -40.385  15.151  1.00  0.00     0.059 A 
HETATM   10  C7  UNL     1     -17.870 -40.103  14.081  1.00  0.00     0.059 A 
HETATM   11  N4  UNL     1     -17.147 -37.863  15.047  1.00  0.00    -0.333 N 
ATOM     12  H4  UNL     1     -16.394 -37.602  14.411  1.00  0.00     0.165 HD
ENDROOT
BRANCH   1  13
HETATM   13  C3  UNL     1     -16.725 -34.918  15.534  1.00  0.00     0.149 C 
BRANCH  13  14
HETATM   14  C2  UNL     1     -17.365 -33.956  14.592  1.00  0.00    -0.018 C 
HETATM   15  C1  UNL     1     -18.291 -33.114  15.017  1.00  0.00     0.008 C 
ENDBRANCH  13  14
ENDBRANCH   1  13
TORSDOF 2
ENDMDL
