MODEL 1
REMARK VINA RESULT: -4.941182243      0.000      0.000
REMARK  1 active torsions:
REMARK  status: ('A' for Active; 'I' for Inactive)
REMARK    1  A    between atoms: C5_6  and  C6_7 
ROOT
HETATM    1  F1  UNL     1     -19.987 -37.257  16.970  1.00  0.00    -0.219 F 
HETATM    2  C1  UNL     1     -18.724 -37.418  17.514  1.00  0.00     0.368 C 
HETATM    3  C2  UNL     1     -18.099 -38.669  16.957  1.00  0.00     0.067 C 
HETATM    4  C3  UNL     1     -17.526 -38.539  15.607  1.00  0.00     0.007 C 
HETATM    5  C4  UNL     1     -17.222 -37.191  15.111  1.00  0.00     0.035 C 
HETATM    6  C5  UNL     1     -17.879 -36.070  15.836  1.00  0.00     0.219 C 
HETATM    7  N2  UNL     1     -17.882 -36.252  17.282  1.00  0.00    -0.038 N 
ATOM      8  H21 UNL     1     -16.950 -36.328  17.690  1.00  0.00     0.281 HD
ATOM      9  H22 UNL     1     -18.171 -35.424  17.801  1.00  0.00     0.281 HD
ENDROOT
BRANCH   6  10
HETATM   10  C6  UNL     1     -17.285 -34.728  15.555  1.00  0.00     0.218 C 
HETATM   11  C7  UNL     1     -18.235 -33.570  15.472  1.00  0.00     0.062 C 
HETATM   12  C8  UNL     1     -17.251 -33.081  14.401  1.00  0.00     0.235 C 
HETATM   13  N1  UNL     1     -16.952 -34.496  14.159  1.00  0.00    -0.069 N 
ATOM     14  H12 UNL     1     -16.055 -34.789  13.773  1.00  0.00     0.277 HD
ATOM     15  H11 UNL     1     -17.414 -35.015  13.412  1.00  0.00     0.277 HD
ENDBRANCH   6  10
TORSDOF 1
ENDMDL
MODEL 2
REMARK VINA RESULT: -4.794428769      3.463      6.138
REMARK  1 active torsions:
REMARK  status: ('A' for Active; 'I' for Inactive)
REMARK    1  A    between atoms: C5_6  and  C6_7 
ROOT
HETATM    1  F1  UNL     1     -17.657 -29.567  16.321  1.00  0.00    -0.219 F 
HETATM    2  C1  UNL     1     -18.460 -29.625  15.194  1.00  0.00     0.368 C 
HETATM    3  C2  UNL     1     -17.732 -29.003  14.034  1.00  0.00     0.067 C 
HETATM    4  C3  UNL     1     -16.725 -29.863  13.389  1.00  0.00     0.007 C 
HETATM    5  C4  UNL     1     -16.807 -31.311  13.613  1.00  0.00     0.035 C 
HETATM    6  C5  UNL     1     -17.635 -31.743  14.771  1.00  0.00     0.219 C 
HETATM    7  N2  UNL     1     -18.876 -30.989  14.895  1.00  0.00    -0.038 N 
ATOM      8  H21 UNL     1     -19.488 -31.065  14.083  1.00  0.00     0.281 HD
ATOM      9  H22 UNL     1     -19.530 -31.379  15.573  1.00  0.00     0.281 HD
ENDROOT
BRANCH   6  10
HETATM   10  C6  UNL     1     -17.992 -33.194  14.762  1.00  0.00     0.218 C 
HETATM   11  C7  UNL     1     -18.052 -33.886  16.092  1.00  0.00     0.062 C 
HETATM   12  C8  UNL     1     -17.513 -35.076  15.287  1.00  0.00     0.235 C 
HETATM   13  N1  UNL     1     -16.899 -34.082  14.401  1.00  0.00    -0.069 N 
ATOM     14  H12 UNL     1     -16.692 -34.297  13.426  1.00  0.00     0.277 HD
ATOM     15  H11 UNL     1     -15.926 -33.798  14.517  1.00  0.00     0.277 HD
ENDBRANCH   6  10
TORSDOF 1
ENDMDL
MODEL 3
REMARK VINA RESULT: -4.792422441      1.468      2.148
REMARK  1 active torsions:
REMARK  status: ('A' for Active; 'I' for Inactive)
REMARK    1  A    between atoms: C5_6  and  C6_7 
ROOT
HETATM    1  F1  UNL     1     -17.843 -37.826  18.299  1.00  0.00    -0.219 F 
HETATM    2  C1  UNL     1     -18.638 -37.789  17.166  1.00  0.00     0.368 C 
HETATM    3  C2  UNL     1     -20.063 -37.519  17.568  1.00  0.00     0.067 C 
HETATM    4  C3  UNL     1     -20.379 -36.112  17.863  1.00  0.00     0.007 C 
HETATM    5  C4  UNL     1     -19.471 -35.078  17.351  1.00  0.00     0.035 C 
HETATM    6  C5  UNL     1     -18.123 -35.546  16.933  1.00  0.00     0.219 C 
HETATM    7  N2  UNL     1     -18.161 -36.806  16.201  1.00  0.00    -0.038 N 
ATOM      8  H21 UNL     1     -18.711 -36.769  15.343  1.00  0.00     0.281 HD
ATOM      9  H22 UNL     1     -17.275 -37.056  15.762  1.00  0.00     0.281 HD
ENDROOT
BRANCH   6  10
HETATM   10  C6  UNL     1     -17.365 -34.566  16.097  1.00  0.00     0.218 C 
HETATM   11  C7  UNL     1     -18.167 -33.515  15.389  1.00  0.00     0.062 C 
HETATM   12  C8  UNL     1     -17.097 -33.694  14.305  1.00  0.00     0.235 C 
HETATM   13  N1  UNL     1     -16.961 -35.070  14.795  1.00  0.00    -0.069 N 
ATOM     14  H12 UNL     1     -16.092 -35.591  14.676  1.00  0.00     0.277 HD
ATOM     15  H11 UNL     1     -17.455 -35.843  14.350  1.00  0.00     0.277 HD
ENDBRANCH   6  10
TORSDOF 1
ENDMDL
MODEL 4
REMARK VINA RESULT: -4.776476559      1.661      2.055
REMARK  1 active torsions:
REMARK  status: ('A' for Active; 'I' for Inactive)
REMARK    1  A    between atoms: C5_6  and  C6_7 
ROOT
HETATM    1  F1  UNL     1     -16.462 -39.012  15.818  1.00  0.00    -0.219 F 
HETATM    2  C1  UNL     1     -17.551 -38.629  15.052  1.00  0.00     0.368 C 
HETATM    3  C2  UNL     1     -18.818 -38.935  15.804  1.00  0.00     0.067 C 
HETATM    4  C3  UNL     1     -19.181 -37.962  16.848  1.00  0.00     0.007 C 
HETATM    5  C4  UNL     1     -18.576 -36.626  16.789  1.00  0.00     0.035 C 
HETATM    6  C5  UNL     1     -17.366 -36.499  15.934  1.00  0.00     0.219 C 
HETATM    7  N2  UNL     1     -17.481 -37.224  14.674  1.00  0.00    -0.038 N 
ATOM      8  H21 UNL     1     -18.257 -36.914  14.089  1.00  0.00     0.281 HD
ATOM      9  H22 UNL     1     -16.739 -37.013  14.007  1.00  0.00     0.281 HD
ENDROOT
BRANCH   6  10
HETATM   10  C6  UNL     1     -16.991 -35.090  15.607  1.00  0.00     0.218 C 
HETATM   11  C7  UNL     1     -18.038 -34.040  15.831  1.00  0.00     0.062 C 
HETATM   12  C8  UNL     1     -17.399 -33.404  14.590  1.00  0.00     0.235 C 
HETATM   13  N1  UNL     1     -17.036 -34.767  14.191  1.00  0.00    -0.069 N 
ATOM     14  H12 UNL     1     -16.237 -34.946  13.581  1.00  0.00     0.277 HD
ATOM     15  H11 UNL     1     -17.615 -35.303  13.544  1.00  0.00     0.277 HD
ENDBRANCH   6  10
TORSDOF 1
ENDMDL
MODEL 5
REMARK VINA RESULT: -4.741920842      3.734      6.419
REMARK  1 active torsions:
REMARK  status: ('A' for Active; 'I' for Inactive)
REMARK    1  A    between atoms: C5_6  and  C6_7 
ROOT
HETATM    1  F1  UNL     1     -17.486 -29.976  12.252  1.00  0.00    -0.219 F 
HETATM    2  C1  UNL     1     -16.521 -30.126  13.234  1.00  0.00     0.368 C 
HETATM    3  C2  UNL     1     -16.724 -29.077  14.293  1.00  0.00     0.067 C 
HETATM    4  C3  UNL     1     -17.790 -29.363  15.267  1.00  0.00     0.007 C 
HETATM    5  C4  UNL     1     -18.249 -30.751  15.402  1.00  0.00     0.035 C 
HETATM    6  C5  UNL     1     -17.891 -31.664  14.284  1.00  0.00     0.219 C 
HETATM    7  N2  UNL     1     -16.530 -31.467  13.803  1.00  0.00    -0.038 N 
ATOM      8  H21 UNL     1     -15.815 -31.619  14.514  1.00  0.00     0.281 HD
ATOM      9  H22 UNL     1     -16.211 -32.191  13.158  1.00  0.00     0.281 HD
ENDROOT
BRANCH   6  10
HETATM   10  C6  UNL     1     -18.048 -33.115  14.604  1.00  0.00     0.218 C 
HETATM   11  C7  UNL     1     -17.736 -33.537  16.010  1.00  0.00     0.062 C 
HETATM   12  C8  UNL     1     -17.226 -34.807  15.317  1.00  0.00     0.235 C 
HETATM   13  N1  UNL     1     -16.947 -33.953  14.158  1.00  0.00    -0.069 N 
ATOM     14  H12 UNL     1     -16.923 -34.335  13.212  1.00  0.00     0.277 HD
ATOM     15  H11 UNL     1     -16.018 -33.565  13.997  1.00  0.00     0.277 HD
ENDBRANCH   6  10
TORSDOF 1
ENDMDL
