MODEL 1
REMARK VINA RESULT: -5.149950935      0.000      0.000
REMARK  2 active torsions:
REMARK  status: ('A' for Active; 'I' for Inactive)
REMARK    1  A    between atoms: C10_10  and  N1_11 
REMARK       I    between atoms: N1_11  and  C11_13 
REMARK       I    between atoms: C11_13  and  N2_15 
REMARK    2  A    between atoms: N2_15  and  C12_17 
ROOT
HETATM    1  C1  UNL     1      10.509  -9.598 -11.342  1.00  0.00     0.017 C 
HETATM    2  C2  UNL     1      11.522  -9.125 -10.683  1.00  0.00    -0.057 C 
HETATM    3  C3  UNL     1      12.759  -9.976 -10.530  1.00  0.00     0.017 C 
HETATM    4  C4  UNL     1      13.925  -9.271 -11.218  1.00  0.00     0.014 C 
HETATM    5  C5  UNL     1      13.976  -7.858 -10.738  1.00  0.00    -0.011 C 
HETATM    6  C6  UNL     1      14.447  -7.930  -9.283  1.00  0.00     0.009 C 
HETATM    7  C7  UNL     1      13.321  -8.639  -8.542  1.00  0.00    -0.011 C 
HETATM    8  C8  UNL     1      13.053 -10.022  -9.051  1.00  0.00     0.014 C 
HETATM    9  C9  UNL     1      12.121  -7.768  -8.660  1.00  0.00     0.040 C 
HETATM   10  C10 UNL     1      11.585  -7.789 -10.094  1.00  0.00     0.058 C 
HETATM   11  C15 UNL     1      12.706  -7.076 -10.894  1.00  0.00     0.040 C 
ENDROOT
BRANCH  10  12
HETATM   12  N1  UNL     1      10.350  -7.106 -10.190  1.00  0.00    -0.330 N 
HETATM   13  C11 UNL     1      10.303  -5.679 -10.320  1.00  0.00     0.317 C 
HETATM   14  O1  UNL     1      11.354  -4.965 -10.365  1.00  0.00    -0.247 OA
HETATM   15  N2  UNL     1       9.072  -4.987 -10.407  1.00  0.00    -0.339 N 
ATOM     16  H2  UNL     1       8.198  -5.511 -10.378  1.00  0.00     0.164 HD
ATOM     17  H1  UNL     1       9.480  -7.638 -10.167  1.00  0.00     0.165 HD
BRANCH  15  18
HETATM   18  C12 UNL     1       9.037  -3.564 -10.537  1.00  0.00     0.078 C 
HETATM   19  C13 UNL     1       8.254  -2.919  -9.407  1.00  0.00     0.032 C 
HETATM   20  C14 UNL     1       8.347  -3.187 -11.841  1.00  0.00     0.032 C 
ENDBRANCH  15  18
ENDBRANCH  10  12
TORSDOF 2
ENDMDL
MODEL 2
REMARK VINA RESULT: -5.133558989      0.581      2.166
REMARK  2 active torsions:
REMARK  status: ('A' for Active; 'I' for Inactive)
REMARK    1  A    between atoms: C10_10  and  N1_11 
REMARK       I    between atoms: N1_11  and  C11_13 
REMARK       I    between atoms: C11_13  and  N2_15 
REMARK    2  A    between atoms: N2_15  and  C12_17 
ROOT
HETATM    1  C1  UNL     1      11.777  -7.014  -7.966  1.00  0.00     0.017 C 
HETATM    2  C2  UNL     1      12.231  -7.521  -9.071  1.00  0.00    -0.057 C 
HETATM    3  C3  UNL     1      13.608  -8.139  -9.084  1.00  0.00     0.017 C 
HETATM    4  C4  UNL     1      13.474  -9.622  -9.418  1.00  0.00     0.014 C 
HETATM    5  C5  UNL     1      12.627  -9.759 -10.640  1.00  0.00    -0.011 C 
HETATM    6  C6  UNL     1      13.480  -9.236 -11.799  1.00  0.00     0.009 C 
HETATM    7  C7  UNL     1      13.658  -7.751 -11.513  1.00  0.00    -0.011 C 
HETATM    8  C8  UNL     1      14.353  -7.474 -10.215  1.00  0.00     0.014 C 
HETATM    9  C9  UNL     1      12.300  -7.145 -11.550  1.00  0.00     0.040 C 
HETATM   10  C10 UNL     1      11.488  -7.582 -10.328  1.00  0.00     0.058 C 
HETATM   11  C15 UNL     1      11.282  -9.100 -10.572  1.00  0.00     0.040 C 
ENDROOT
BRANCH  10  12
HETATM   12  N1  UNL     1      10.258  -6.887 -10.254  1.00  0.00    -0.330 N 
HETATM   13  C11 UNL     1      10.198  -5.467 -10.451  1.00  0.00     0.317 C 
HETATM   14  O1  UNL     1      11.231  -4.772 -10.710  1.00  0.00    -0.247 OA
HETATM   15  N2  UNL     1       8.974  -4.763 -10.369  1.00  0.00    -0.339 N 
ATOM     16  H2  UNL     1       8.114  -5.272 -10.165  1.00  0.00     0.164 HD
ATOM     17  H1  UNL     1       9.401  -7.403 -10.057  1.00  0.00     0.165 HD
BRANCH  15  18
HETATM   18  C12 UNL     1       8.926  -3.349 -10.567  1.00  0.00     0.078 C 
HETATM   19  C13 UNL     1       8.143  -2.656  -9.467  1.00  0.00     0.032 C 
HETATM   20  C14 UNL     1       8.225  -3.042 -11.884  1.00  0.00     0.032 C 
ENDBRANCH  15  18
ENDBRANCH  10  12
TORSDOF 2
ENDMDL
MODEL 3
REMARK VINA RESULT: -4.904469407      4.640      6.818
REMARK  2 active torsions:
REMARK  status: ('A' for Active; 'I' for Inactive)
REMARK    1  A    between atoms: C10_10  and  N1_11 
REMARK       I    between atoms: N1_11  and  C11_13 
REMARK       I    between atoms: C11_13  and  N2_15 
REMARK    2  A    between atoms: N2_15  and  C12_17 
ROOT
HETATM    1  C1  UNL     1       8.030  -2.936 -11.276  1.00  0.00     0.017 C 
HETATM    2  C2  UNL     1       8.724  -3.639 -12.118  1.00  0.00    -0.057 C 
HETATM    3  C3  UNL     1       9.318  -4.950 -11.664  1.00  0.00     0.017 C 
HETATM    4  C4  UNL     1       8.704  -6.076 -12.490  1.00  0.00     0.014 C 
HETATM    5  C5  UNL     1       8.807  -5.717 -13.936  1.00  0.00    -0.011 C 
HETATM    6  C6  UNL     1      10.294  -5.825 -14.286  1.00  0.00     0.009 C 
HETATM    7  C7  UNL     1      10.967  -4.724 -13.477  1.00  0.00    -0.011 C 
HETATM    8  C8  UNL     1      10.788  -4.879 -11.998  1.00  0.00     0.014 C 
HETATM    9  C9  UNL     1      10.408  -3.435 -13.966  1.00  0.00     0.040 C 
HETATM   10  C10 UNL     1       8.953  -3.280 -13.516  1.00  0.00     0.058 C 
HETATM   11  C15 UNL     1       8.221  -4.389 -14.315  1.00  0.00     0.040 C 
ENDROOT
BRANCH  10  12
HETATM   12  N1  UNL     1       8.455  -1.992 -13.823  1.00  0.00    -0.330 N 
HETATM   13  C11 UNL     1       8.327  -1.554 -15.183  1.00  0.00     0.317 C 
HETATM   14  O1  UNL     1       8.639  -2.294 -16.168  1.00  0.00    -0.247 OA
HETATM   15  N2  UNL     1       7.840  -0.264 -15.499  1.00  0.00    -0.339 N 
ATOM     16  H2  UNL     1       7.573   0.371 -14.746  1.00  0.00     0.164 HD
ATOM     17  H1  UNL     1       8.184  -1.365 -13.066  1.00  0.00     0.165 HD
BRANCH  15  18
HETATM   18  C12 UNL     1       7.716   0.162 -16.857  1.00  0.00     0.078 C 
HETATM   19  C13 UNL     1       8.974   0.861 -17.341  1.00  0.00     0.032 C 
HETATM   20  C14 UNL     1       6.569   1.157 -16.977  1.00  0.00     0.032 C 
ENDBRANCH  15  18
ENDBRANCH  10  12
TORSDOF 2
ENDMDL
MODEL 4
REMARK VINA RESULT: -4.721996173      1.860      6.074
REMARK  2 active torsions:
REMARK  status: ('A' for Active; 'I' for Inactive)
REMARK    1  A    between atoms: C10_10  and  N1_11 
REMARK       I    between atoms: N1_11  and  C11_13 
REMARK       I    between atoms: C11_13  and  N2_15 
REMARK    2  A    between atoms: N2_15  and  C12_17 
ROOT
HETATM    1  C1  UNL     1       9.477  -3.339  -9.744  1.00  0.00     0.017 C 
HETATM    2  C2  UNL     1       9.344  -4.039 -10.828  1.00  0.00    -0.057 C 
HETATM    3  C3  UNL     1       8.295  -3.638 -11.837  1.00  0.00     0.017 C 
HETATM    4  C4  UNL     1       8.992  -3.264 -13.142  1.00  0.00     0.014 C 
HETATM    5  C5  UNL     1       9.940  -4.358 -13.506  1.00  0.00    -0.011 C 
HETATM    6  C6  UNL     1       9.066  -5.543 -13.927  1.00  0.00     0.009 C 
HETATM    7  C7  UNL     1       8.332  -5.957 -12.659  1.00  0.00    -0.011 C 
HETATM    8  C8  UNL     1       7.467  -4.873 -12.091  1.00  0.00     0.014 C 
HETATM    9  C9  UNL     1       9.372  -6.395 -11.689  1.00  0.00     0.040 C 
HETATM   10  C10 UNL     1      10.171  -5.190 -11.184  1.00  0.00     0.058 C 
HETATM   11  C15 UNL     1      10.938  -4.727 -12.450  1.00  0.00     0.040 C 
ENDROOT
BRANCH  10  12
HETATM   12  N1  UNL     1      11.049  -5.559 -10.139  1.00  0.00    -0.330 N 
HETATM   13  C11 UNL     1      11.771  -6.798 -10.182  1.00  0.00     0.317 C 
HETATM   14  O1  UNL     1      11.667  -7.612 -11.152  1.00  0.00    -0.247 OA
HETATM   15  N2  UNL     1      12.643  -7.179  -9.136  1.00  0.00    -0.339 N 
ATOM     16  H2  UNL     1      12.765  -6.562  -8.332  1.00  0.00     0.164 HD
ATOM     17  H1  UNL     1      11.171  -4.934  -9.342  1.00  0.00     0.165 HD
BRANCH  15  18
HETATM   18  C12 UNL     1      13.357  -8.416  -9.189  1.00  0.00     0.078 C 
HETATM   19  C13 UNL     1      13.099  -9.264  -7.956  1.00  0.00     0.032 C 
HETATM   20  C14 UNL     1      14.854  -8.139  -9.243  1.00  0.00     0.032 C 
ENDBRANCH  15  18
ENDBRANCH  10  12
TORSDOF 2
ENDMDL
MODEL 5
REMARK VINA RESULT: -4.615382592      1.914      2.910
REMARK  2 active torsions:
REMARK  status: ('A' for Active; 'I' for Inactive)
REMARK    1  A    between atoms: C10_10  and  N1_11 
REMARK       I    between atoms: N1_11  and  C11_13 
REMARK       I    between atoms: C11_13  and  N2_15 
REMARK    2  A    between atoms: N2_15  and  C12_17 
ROOT
HETATM    1  C1  UNL     1      11.918  -6.783  -8.011  1.00  0.00     0.017 C 
HETATM    2  C2  UNL     1      12.598  -7.451  -8.892  1.00  0.00    -0.057 C 
HETATM    3  C3  UNL     1      13.520  -8.551  -8.426  1.00  0.00     0.017 C 
HETATM    4  C4  UNL     1      13.030  -9.876  -9.004  1.00  0.00     0.014 C 
HETATM    5  C5  UNL     1      12.819  -9.705 -10.472  1.00  0.00    -0.011 C 
HETATM    6  C6  UNL     1      14.218  -9.577 -11.082  1.00  0.00     0.009 C 
HETATM    7  C7  UNL     1      14.767  -8.268 -10.529  1.00  0.00    -0.011 C 
HETATM    8  C8  UNL     1      14.868  -8.250  -9.034  1.00  0.00     0.014 C 
HETATM    9  C9  UNL     1      13.877  -7.188 -11.033  1.00  0.00     0.040 C 
HETATM   10  C10 UNL     1      12.515  -7.250 -10.337  1.00  0.00     0.058 C 
HETATM   11  C15 UNL     1      11.914  -8.577 -10.868  1.00  0.00     0.040 C 
ENDROOT
BRANCH  10  12
HETATM   12  N1  UNL     1      11.715  -6.134 -10.675  1.00  0.00    -0.330 N 
HETATM   13  C11 UNL     1      11.363  -5.862 -12.039  1.00  0.00     0.317 C 
HETATM   14  O1  UNL     1      11.738  -6.606 -12.999  1.00  0.00    -0.247 OA
HETATM   15  N2  UNL     1      10.571  -4.743 -12.386  1.00  0.00    -0.339 N 
ATOM     16  H2  UNL     1      10.241  -4.114 -11.654  1.00  0.00     0.164 HD
ATOM     17  H1  UNL     1      11.382  -5.513  -9.937  1.00  0.00     0.165 HD
BRANCH  15  18
HETATM   18  C12 UNL     1      10.226  -4.482 -13.748  1.00  0.00     0.078 C 
HETATM   19  C13 UNL     1      11.231  -3.556 -14.411  1.00  0.00     0.032 C 
HETATM   20  C14 UNL     1       8.868  -3.796 -13.808  1.00  0.00     0.032 C 
ENDBRANCH  15  18
ENDBRANCH  10  12
TORSDOF 2
ENDMDL
