MODEL 1
REMARK VINA RESULT: -4.620097259      0.000      0.000
REMARK  4 active torsions:
REMARK  status: ('A' for Active; 'I' for Inactive)
REMARK    1  A    between atoms: C6_7  and  N1_8 
REMARK    2  A    between atoms: N1_8  and  C7_10 
REMARK    3  A    between atoms: C7_10  and  N2_12 
REMARK    4  A    between atoms: N2_12  and  C8_14 
ROOT
HETATM    1  N1  UNL     1      11.576  -5.126 -11.003  1.00  0.00    -0.363 N 
ATOM      2  H1  UNL     1      12.140  -4.311 -10.764  1.00  0.00     0.162 HD
ENDROOT
BRANCH   1   3
HETATM    3  C6  UNL     1      10.156  -4.986 -11.259  1.00  0.00     0.086 C 
HETATM    4  C5  UNL     1       9.997  -4.067 -12.443  1.00  0.00     0.062 C 
HETATM    5  C4  UNL     1       8.576  -3.747 -12.770  1.00  0.00     0.172 C 
HETATM    6  C3  UNL     1       7.765  -3.622 -11.477  1.00  0.00     0.041 C 
HETATM    7  F1  UNL     1       8.564  -2.463 -13.331  1.00  0.00    -0.249 F 
HETATM    8  C2  UNL     1       8.747  -3.177 -10.413  1.00  0.00    -0.014 C 
HETATM    9  C1  UNL     1       8.031  -2.564  -9.230  1.00  0.00     0.010 C 
HETATM   10  C12 UNL     1       9.536  -4.406 -10.006  1.00  0.00     0.029 C 
ENDBRANCH   1   3
BRANCH   1  11
HETATM   11  C7  UNL     1      12.169  -6.406 -11.088  1.00  0.00     0.168 C 
HETATM   12  S1  UNL     1      12.152  -7.196 -12.507  1.00  0.00    -0.041 SA
BRANCH  11  13
HETATM   13  N2  UNL     1      12.763  -6.952  -9.915  1.00  0.00    -0.359 N 
ATOM     14  H2  UNL     1      13.778  -6.939  -9.805  1.00  0.00     0.162 HD
BRANCH  13  15
HETATM   15  C8  UNL     1      11.931  -7.525  -8.876  1.00  0.00     0.021 C 
HETATM   16  C9  UNL     1      12.705  -8.644  -8.228  1.00  0.00     0.037 C 
HETATM   17  C10 UNL     1      10.647  -8.058  -9.458  1.00  0.00     0.037 C 
HETATM   18  C11 UNL     1      11.568  -6.484  -7.831  1.00  0.00     0.037 C 
ENDBRANCH  13  15
ENDBRANCH  11  13
ENDBRANCH   1  11
TORSDOF 4
ENDMDL
MODEL 2
REMARK VINA RESULT: -4.577346327      0.044      1.065
REMARK  4 active torsions:
REMARK  status: ('A' for Active; 'I' for Inactive)
REMARK    1  A    between atoms: C6_7  and  N1_8 
REMARK    2  A    between atoms: N1_8  and  C7_10 
REMARK    3  A    between atoms: C7_10  and  N2_12 
REMARK    4  A    between atoms: N2_12  and  C8_14 
ROOT
HETATM    1  N1  UNL     1      11.586  -5.099 -11.001  1.00  0.00    -0.363 N 
ATOM      2  H1  UNL     1      12.141  -4.279 -10.756  1.00  0.00     0.162 HD
ENDROOT
BRANCH   1   3
HETATM    3  C6  UNL     1      10.166  -4.972 -11.262  1.00  0.00     0.086 C 
HETATM    4  C5  UNL     1      10.002  -4.049 -12.442  1.00  0.00     0.062 C 
HETATM    5  C4  UNL     1       8.579  -3.742 -12.773  1.00  0.00     0.172 C 
HETATM    6  C3  UNL     1       7.762  -3.631 -11.482  1.00  0.00     0.041 C 
HETATM    7  F1  UNL     1       8.557  -2.456 -13.328  1.00  0.00    -0.249 F 
HETATM    8  C2  UNL     1       8.735  -3.180 -10.413  1.00  0.00    -0.014 C 
HETATM    9  C1  UNL     1       8.010  -2.579  -9.230  1.00  0.00     0.010 C 
HETATM   10  C12 UNL     1       9.535  -4.403 -10.008  1.00  0.00     0.029 C 
ENDBRANCH   1   3
BRANCH   1  11
HETATM   11  C7  UNL     1      12.192  -6.373 -11.089  1.00  0.00     0.168 C 
HETATM   12  S1  UNL     1      12.203  -7.150 -12.516  1.00  0.00    -0.041 SA
BRANCH  11  13
HETATM   13  N2  UNL     1      12.774  -6.924  -9.913  1.00  0.00    -0.359 N 
ATOM     14  H2  UNL     1      13.784  -6.875  -9.774  1.00  0.00     0.162 HD
BRANCH  13  15
HETATM   15  C8  UNL     1      11.938  -7.555  -8.912  1.00  0.00     0.021 C 
HETATM   16  C9  UNL     1      11.590  -6.516  -7.878  1.00  0.00     0.037 C 
HETATM   17  C10 UNL     1      12.663  -8.705  -8.262  1.00  0.00     0.037 C 
HETATM   18  C11 UNL     1      10.664  -8.104  -9.533  1.00  0.00     0.037 C 
ENDBRANCH  13  15
ENDBRANCH  11  13
ENDBRANCH   1  11
TORSDOF 4
ENDMDL
MODEL 3
REMARK VINA RESULT: -4.373612863      3.258      5.977
REMARK  4 active torsions:
REMARK  status: ('A' for Active; 'I' for Inactive)
REMARK    1  A    between atoms: C6_7  and  N1_8 
REMARK    2  A    between atoms: N1_8  and  C7_10 
REMARK    3  A    between atoms: C7_10  and  N2_12 
REMARK    4  A    between atoms: N2_12  and  C8_14 
ROOT
HETATM    1  N1  UNL     1      11.048  -5.352  -9.695  1.00  0.00    -0.363 N 
ATOM      2  H1  UNL     1      11.709  -4.649  -9.363  1.00  0.00     0.162 HD
ENDROOT
BRANCH   1   3
HETATM    3  C6  UNL     1      11.421  -6.752  -9.730  1.00  0.00     0.086 C 
HETATM    4  C5  UNL     1      12.001  -7.102  -8.384  1.00  0.00     0.062 C 
HETATM    5  C4  UNL     1      12.524  -8.497  -8.298  1.00  0.00     0.172 C 
HETATM    6  C3  UNL     1      13.164  -8.891  -9.633  1.00  0.00     0.041 C 
HETATM    7  F1  UNL     1      13.582  -8.482  -7.380  1.00  0.00    -0.249 F 
HETATM    8  C2  UNL     1      13.652  -7.599 -10.256  1.00  0.00    -0.014 C 
HETATM    9  C1  UNL     1      14.700  -7.864 -11.314  1.00  0.00     0.010 C 
HETATM   10  C12 UNL     1      12.435  -6.911 -10.843  1.00  0.00     0.029 C 
ENDBRANCH   1   3
BRANCH   1  11
HETATM   11  C7  UNL     1       9.757  -4.971 -10.125  1.00  0.00     0.168 C 
HETATM   12  S1  UNL     1       9.186  -3.504  -9.721  1.00  0.00    -0.041 SA
BRANCH  11  13
HETATM   13  N2  UNL     1       9.006  -5.897 -10.904  1.00  0.00    -0.359 N 
ATOM     14  H2  UNL     1       8.476  -6.637 -10.443  1.00  0.00     0.162 HD
BRANCH  13  15
HETATM   15  C8  UNL     1       8.992  -5.791 -12.349  1.00  0.00     0.021 C 
HETATM   16  C9  UNL     1       7.620  -5.332 -12.766  1.00  0.00     0.037 C 
HETATM   17  C10 UNL     1       9.304  -7.122 -12.982  1.00  0.00     0.037 C 
HETATM   18  C11 UNL     1      10.033  -4.794 -12.833  1.00  0.00     0.037 C 
ENDBRANCH  13  15
ENDBRANCH  11  13
ENDBRANCH   1  11
TORSDOF 4
ENDMDL
MODEL 4
REMARK VINA RESULT: -4.340448784      3.260      5.960
REMARK  4 active torsions:
REMARK  status: ('A' for Active; 'I' for Inactive)
REMARK    1  A    between atoms: C6_7  and  N1_8 
REMARK    2  A    between atoms: N1_8  and  C7_10 
REMARK    3  A    between atoms: C7_10  and  N2_12 
REMARK    4  A    between atoms: N2_12  and  C8_14 
ROOT
HETATM    1  N1  UNL     1      11.024  -5.346  -9.689  1.00  0.00    -0.363 N 
ATOM      2  H1  UNL     1      11.685  -4.641  -9.361  1.00  0.00     0.162 HD
ENDROOT
BRANCH   1   3
HETATM    3  C6  UNL     1      11.398  -6.746  -9.719  1.00  0.00     0.086 C 
HETATM    4  C5  UNL     1      11.983  -7.089  -8.374  1.00  0.00     0.062 C 
HETATM    5  C4  UNL     1      12.507  -8.483  -8.282  1.00  0.00     0.172 C 
HETATM    6  C3  UNL     1      13.145  -8.882  -9.617  1.00  0.00     0.041 C 
HETATM    7  F1  UNL     1      13.568  -8.463  -7.366  1.00  0.00    -0.249 F 
HETATM    8  C2  UNL     1      13.630  -7.593 -10.247  1.00  0.00    -0.014 C 
HETATM    9  C1  UNL     1      14.675  -7.861 -11.306  1.00  0.00     0.010 C 
HETATM   10  C12 UNL     1      12.410  -6.909 -10.834  1.00  0.00     0.029 C 
ENDBRANCH   1   3
BRANCH   1  11
HETATM   11  C7  UNL     1       9.732  -4.968 -10.120  1.00  0.00     0.168 C 
HETATM   12  S1  UNL     1       9.170  -3.491  -9.744  1.00  0.00    -0.041 SA
BRANCH  11  13
HETATM   13  N2  UNL     1       8.973  -5.907 -10.875  1.00  0.00    -0.359 N 
ATOM     14  H2  UNL     1       8.462  -6.651 -10.397  1.00  0.00     0.162 HD
BRANCH  13  15
HETATM   15  C8  UNL     1       8.922  -5.809 -12.319  1.00  0.00     0.021 C 
HETATM   16  C9  UNL     1       9.180  -7.181 -12.885  1.00  0.00     0.037 C 
HETATM   17  C10 UNL     1       9.962  -4.842 -12.823  1.00  0.00     0.037 C 
HETATM   18  C11 UNL     1       7.564  -5.311 -12.786  1.00  0.00     0.037 C 
ENDBRANCH  13  15
ENDBRANCH  11  13
ENDBRANCH   1  11
TORSDOF 4
ENDMDL
MODEL 5
REMARK VINA RESULT: -4.273258566      1.288      1.576
REMARK  4 active torsions:
REMARK  status: ('A' for Active; 'I' for Inactive)
REMARK    1  A    between atoms: C6_7  and  N1_8 
REMARK    2  A    between atoms: N1_8  and  C7_10 
REMARK    3  A    between atoms: C7_10  and  N2_12 
REMARK    4  A    between atoms: N2_12  and  C8_14 
ROOT
HETATM    1  N1  UNL     1      11.595  -5.960 -10.534  1.00  0.00    -0.363 N 
ATOM      2  H1  UNL     1      12.247  -5.267 -10.166  1.00  0.00     0.162 HD
ENDROOT
BRANCH   1   3
HETATM    3  C6  UNL     1      10.256  -5.571 -10.928  1.00  0.00     0.086 C 
HETATM    4  C5  UNL     1      10.371  -4.769 -12.198  1.00  0.00     0.062 C 
HETATM    5  C4  UNL     1       9.072  -4.212 -12.679  1.00  0.00     0.172 C 
HETATM    6  C3  UNL     1       8.215  -3.794 -11.480  1.00  0.00     0.041 C 
HETATM    7  F1  UNL     1       9.362  -3.018 -13.351  1.00  0.00    -0.249 F 
HETATM    8  C2  UNL     1       9.191  -3.441 -10.376  1.00  0.00    -0.014 C 
HETATM    9  C1  UNL     1       8.536  -2.577  -9.322  1.00  0.00     0.010 C 
HETATM   10  C12 UNL     1       9.681  -4.751  -9.792  1.00  0.00     0.029 C 
ENDBRANCH   1   3
BRANCH   1  11
HETATM   11  C7  UNL     1      11.987  -7.311 -10.666  1.00  0.00     0.168 C 
HETATM   12  S1  UNL     1      10.866  -8.433 -11.017  1.00  0.00    -0.041 SA
BRANCH  11  13
HETATM   13  N2  UNL     1      13.363  -7.633 -10.486  1.00  0.00    -0.359 N 
ATOM     14  H2  UNL     1      14.052  -7.325 -11.173  1.00  0.00     0.162 HD
BRANCH  13  15
HETATM   15  C8  UNL     1      13.787  -8.397  -9.330  1.00  0.00     0.021 C 
HETATM   16  C9  UNL     1      15.274  -8.212  -9.173  1.00  0.00     0.037 C 
HETATM   17  C10 UNL     1      13.467  -9.859  -9.513  1.00  0.00     0.037 C 
HETATM   18  C11 UNL     1      13.078  -7.924  -8.072  1.00  0.00     0.037 C 
ENDBRANCH  13  15
ENDBRANCH  11  13
ENDBRANCH   1  11
TORSDOF 4
ENDMDL
