MODEL 1
REMARK VINA RESULT: -5.143759708      0.000      0.000
REMARK  2 active torsions:
REMARK  status: ('A' for Active; 'I' for Inactive)
REMARK    1  A    between atoms: C2_2  and  N1_5 
REMARK       I    between atoms: C5_7  and  N3_9 
REMARK    2  A    between atoms: N3_9  and  C6_11 
ROOT
HETATM    1  N1  UNL     1      13.373  -7.846 -10.308  1.00  0.00    -0.357 N 
ATOM      2  H1  UNL     1      14.016  -7.588 -11.056  1.00  0.00     0.163 HD
HETATM    3  C5  UNL     1      12.226  -7.290 -10.337  1.00  0.00     0.185 C 
HETATM    4  N2  UNL     1      11.291  -7.612  -9.318  1.00  0.00    -0.064 NA
HETATM    5  N3  UNL     1      11.929  -6.376 -11.381  1.00  0.00    -0.360 N 
ATOM      6  H3  UNL     1      12.461  -6.415 -12.250  1.00  0.00     0.162 HD
ENDROOT
BRANCH   5   7
HETATM    7  C6  UNL     1      10.864  -5.372 -11.224  1.00  0.00     0.084 C 
HETATM    8  C7  UNL     1      10.684  -4.653 -12.512  1.00  0.00     0.025 C 
HETATM    9  C8  UNL     1       9.348  -4.798 -13.146  1.00  0.00     0.002 C 
HETATM   10  C9  UNL     1       8.188  -4.601 -12.225  1.00  0.00     0.000 C 
HETATM   11  C10 UNL     1       8.134  -3.206 -11.643  1.00  0.00     0.000 C 
HETATM   12  C11 UNL     1       8.074  -3.322 -10.131  1.00  0.00     0.000 C 
HETATM   13  C12 UNL     1       9.429  -2.889  -9.586  1.00  0.00     0.000 C 
HETATM   14  C13 UNL     1      10.214  -4.099  -9.173  1.00  0.00     0.002 C 
HETATM   15  C14 UNL     1      11.334  -4.415 -10.143  1.00  0.00     0.025 C 
ENDBRANCH   5   7
BRANCH   1  16
HETATM   16  C2  UNL     1      13.864  -8.782  -9.355  1.00  0.00     0.021 C 
HETATM   17  C1  UNL     1      13.354 -10.176  -9.500  1.00  0.00     0.037 C 
HETATM   18  C3  UNL     1      13.623  -8.318  -7.918  1.00  0.00     0.037 C 
HETATM   19  C4  UNL     1      15.391  -8.839  -9.505  1.00  0.00     0.037 C 
ENDBRANCH   1  16
TORSDOF 2
ENDMDL
MODEL 2
REMARK VINA RESULT: -4.850701291      1.674      6.339
REMARK  2 active torsions:
REMARK  status: ('A' for Active; 'I' for Inactive)
REMARK    1  A    between atoms: C2_2  and  N1_5 
REMARK       I    between atoms: C5_7  and  N3_9 
REMARK    2  A    between atoms: N3_9  and  C6_11 
ROOT
HETATM    1  N1  UNL     1       8.728  -4.894 -10.570  1.00  0.00    -0.357 N 
ATOM      2  H1  UNL     1       7.919  -5.471 -10.342  1.00  0.00     0.163 HD
HETATM    3  C5  UNL     1       9.840  -5.507 -10.686  1.00  0.00     0.185 C 
HETATM    4  N2  UNL     1      11.000  -4.752 -11.002  1.00  0.00    -0.064 NA
HETATM    5  N3  UNL     1       9.875  -6.912 -10.495  1.00  0.00    -0.360 N 
ATOM      6  H3  UNL     1       9.020  -7.456 -10.601  1.00  0.00     0.162 HD
ENDROOT
BRANCH   5   7
HETATM    7  C6  UNL     1      11.132  -7.595 -10.145  1.00  0.00     0.084 C 
HETATM    8  C7  UNL     1      11.125  -8.956 -10.741  1.00  0.00     0.025 C 
HETATM    9  C8  UNL     1      12.195  -9.224 -11.737  1.00  0.00     0.002 C 
HETATM   10  C9  UNL     1      13.566  -8.798 -11.321  1.00  0.00     0.000 C 
HETATM   11  C10 UNL     1      14.058  -9.533 -10.094  1.00  0.00     0.000 C 
HETATM   12  C11 UNL     1      14.475  -8.504  -9.059  1.00  0.00     0.000 C 
HETATM   13  C12 UNL     1      13.425  -8.517  -7.954  1.00  0.00     0.000 C 
HETATM   14  C13 UNL     1      12.535  -7.318  -8.094  1.00  0.00     0.002 C 
HETATM   15  C14 UNL     1      11.165  -7.680  -8.629  1.00  0.00     0.025 C 
ENDBRANCH   5   7
BRANCH   1  16
HETATM   16  C2  UNL     1       8.481  -3.500 -10.721  1.00  0.00     0.021 C 
HETATM   17  C1  UNL     1       8.660  -2.960 -12.099  1.00  0.00     0.037 C 
HETATM   18  C3  UNL     1       9.317  -2.662  -9.753  1.00  0.00     0.037 C 
HETATM   19  C4  UNL     1       7.024  -3.241 -10.317  1.00  0.00     0.037 C 
ENDBRANCH   1  16
TORSDOF 2
ENDMDL
MODEL 3
REMARK VINA RESULT: -4.829197588      3.120      4.493
REMARK  2 active torsions:
REMARK  status: ('A' for Active; 'I' for Inactive)
REMARK    1  A    between atoms: C2_2  and  N1_5 
REMARK       I    between atoms: C5_7  and  N3_9 
REMARK    2  A    between atoms: N3_9  and  C6_11 
ROOT
HETATM    1  N1  UNL     1      14.594  -5.936 -13.377  1.00  0.00    -0.357 N 
ATOM      2  H1  UNL     1      14.534  -6.950 -13.283  1.00  0.00     0.163 HD
HETATM    3  C5  UNL     1      13.758  -5.259 -12.692  1.00  0.00     0.185 C 
HETATM    4  N2  UNL     1      13.795  -3.842 -12.786  1.00  0.00    -0.064 NA
HETATM    5  N3  UNL     1      12.827  -5.942 -11.868  1.00  0.00    -0.360 N 
ATOM      6  H3  UNL     1      13.028  -6.895 -11.566  1.00  0.00     0.162 HD
ENDROOT
BRANCH   5   7
HETATM    7  C6  UNL     1      11.575  -5.294 -11.445  1.00  0.00     0.084 C 
HETATM    8  C7  UNL     1      11.223  -5.765 -10.081  1.00  0.00     0.025 C 
HETATM    9  C8  UNL     1      11.181  -4.714  -9.031  1.00  0.00     0.002 C 
HETATM   10  C9  UNL     1      10.435  -3.475  -9.408  1.00  0.00     0.000 C 
HETATM   11  C10 UNL     1       8.971  -3.736  -9.682  1.00  0.00     0.000 C 
HETATM   12  C11 UNL     1       8.639  -3.192 -11.059  1.00  0.00     0.000 C 
HETATM   13  C12 UNL     1       8.446  -4.386 -11.986  1.00  0.00     0.000 C 
HETATM   14  C13 UNL     1       9.655  -4.545 -12.860  1.00  0.00     0.002 C 
HETATM   15  C14 UNL     1      10.513  -5.721 -12.444  1.00  0.00     0.025 C 
ENDBRANCH   5   7
BRANCH   1  16
HETATM   16  C2  UNL     1      15.600  -5.446 -14.257  1.00  0.00     0.021 C 
HETATM   17  C1  UNL     1      16.523  -4.429 -13.677  1.00  0.00     0.037 C 
HETATM   18  C3  UNL     1      15.007  -4.890 -15.551  1.00  0.00     0.037 C 
HETATM   19  C4  UNL     1      16.457  -6.642 -14.692  1.00  0.00     0.037 C 
ENDBRANCH   1  16
TORSDOF 2
ENDMDL
MODEL 4
REMARK VINA RESULT: -4.823740925      2.194      4.215
REMARK  2 active torsions:
REMARK  status: ('A' for Active; 'I' for Inactive)
REMARK    1  A    between atoms: C2_2  and  N1_5 
REMARK       I    between atoms: C5_7  and  N3_9 
REMARK    2  A    between atoms: N3_9  and  C6_11 
ROOT
HETATM    1  N1  UNL     1      16.026  -9.299  -9.619  1.00  0.00    -0.357 N 
ATOM      2  H1  UNL     1      15.776  -9.901  -8.835  1.00  0.00     0.163 HD
HETATM    3  C5  UNL     1      15.236  -8.327  -9.855  1.00  0.00     0.185 C 
HETATM    4  N2  UNL     1      15.536  -7.457 -10.937  1.00  0.00    -0.064 NA
HETATM    5  N3  UNL     1      14.093  -8.152  -9.034  1.00  0.00    -0.360 N 
ATOM      6  H3  UNL     1      14.077  -8.561  -8.100  1.00  0.00     0.162 HD
ENDROOT
BRANCH   5   7
HETATM    7  C6  UNL     1      12.928  -7.389  -9.513  1.00  0.00     0.084 C 
HETATM    8  C7  UNL     1      11.854  -7.452  -8.489  1.00  0.00     0.025 C 
HETATM    9  C8  UNL     1      11.454  -6.148  -7.899  1.00  0.00     0.002 C 
HETATM   10  C9  UNL     1      11.224  -5.052  -8.889  1.00  0.00     0.000 C 
HETATM   11  C10 UNL     1      10.088  -5.353  -9.841  1.00  0.00     0.000 C 
HETATM   12  C11 UNL     1      10.606  -5.213 -11.260  1.00  0.00     0.000 C 
HETATM   13  C12 UNL     1      10.721  -6.615 -11.845  1.00  0.00     0.000 C 
HETATM   14  C13 UNL     1      12.161  -7.034 -11.866  1.00  0.00     0.002 C 
HETATM   15  C14 UNL     1      12.476  -8.061 -10.798  1.00  0.00     0.025 C 
ENDBRANCH   5   7
BRANCH   1  16
HETATM   16  C2  UNL     1      17.216  -9.645 -10.319  1.00  0.00     0.021 C 
HETATM   17  C1  UNL     1      18.155  -8.518 -10.591  1.00  0.00     0.037 C 
HETATM   18  C3  UNL     1      16.919 -10.364 -11.635  1.00  0.00     0.037 C 
HETATM   19  C4  UNL     1      17.974 -10.671  -9.466  1.00  0.00     0.037 C 
ENDBRANCH   1  16
TORSDOF 2
ENDMDL
MODEL 5
REMARK VINA RESULT: -4.717948628      3.600      7.343
REMARK  2 active torsions:
REMARK  status: ('A' for Active; 'I' for Inactive)
REMARK    1  A    between atoms: C2_2  and  N1_5 
REMARK       I    between atoms: C5_7  and  N3_9 
REMARK    2  A    between atoms: N3_9  and  C6_11 
ROOT
HETATM    1  N1  UNL     1       7.842  -3.150 -15.709  1.00  0.00    -0.357 N 
ATOM      2  H1  UNL     1       7.153  -3.895 -15.817  1.00  0.00     0.163 HD
HETATM    3  C5  UNL     1       8.720  -3.328 -14.802  1.00  0.00     0.185 C 
HETATM    4  N2  UNL     1       9.704  -2.322 -14.607  1.00  0.00    -0.064 NA
HETATM    5  N3  UNL     1       8.682  -4.515 -14.027  1.00  0.00    -0.360 N 
ATOM      6  H3  UNL     1       8.202  -5.338 -14.391  1.00  0.00     0.162 HD
ENDROOT
BRANCH   5   7
HETATM    7  C6  UNL     1       9.326  -4.574 -12.704  1.00  0.00     0.084 C 
HETATM    8  C7  UNL     1       9.836  -5.950 -12.475  1.00  0.00     0.025 C 
HETATM    9  C8  UNL     1      11.308  -6.068 -12.306  1.00  0.00     0.002 C 
HETATM   10  C9  UNL     1      11.915  -5.079 -11.365  1.00  0.00     0.000 C 
HETATM   11  C10 UNL     1      11.401  -5.226  -9.950  1.00  0.00     0.000 C 
HETATM   12  C11 UNL     1      10.871  -3.880  -9.493  1.00  0.00     0.000 C 
HETATM   13  C12 UNL     1       9.351  -3.976  -9.456  1.00  0.00     0.000 C 
HETATM   14  C13 UNL     1       8.774  -3.267 -10.645  1.00  0.00     0.002 C 
HETATM   15  C14 UNL     1       8.249  -4.231 -11.689  1.00  0.00     0.025 C 
ENDBRANCH   5   7
BRANCH   1  16
HETATM   16  C2  UNL     1       7.707  -2.039 -16.588  1.00  0.00     0.021 C 
HETATM   17  C1  UNL     1       8.851  -1.809 -17.516  1.00  0.00     0.037 C 
HETATM   18  C3  UNL     1       7.421  -0.742 -15.831  1.00  0.00     0.037 C 
HETATM   19  C4  UNL     1       6.462  -2.279 -17.452  1.00  0.00     0.037 C 
ENDBRANCH   1  16
TORSDOF 2
ENDMDL
