MODEL 1
REMARK VINA RESULT: -4.330995707      0.000      0.000
REMARK  1 active torsions:
REMARK  status: ('A' for Active; 'I' for Inactive)
REMARK    1  A    between atoms: C2_3  and  C3_4 
ROOT
HETATM    1  C3  UNL     1      10.782   5.253  41.400  1.00  0.00     0.080 C 
HETATM    2  C4  UNL     1       9.751   4.299  42.007  1.00  0.00     0.092 C 
HETATM    3  S1  UNL     1      10.726   2.938  42.728  1.00  0.00    -0.167 SA
HETATM    4  C5  UNL     1      11.851   3.503  43.992  1.00  0.00     0.084 C 
HETATM    5  C6  UNL     1      12.586   4.754  43.676  1.00  0.00     0.084 C 
HETATM    6  S2  UNL     1      11.664   5.985  42.782  1.00  0.00    -0.159 SA
ENDROOT
BRANCH   1   7
HETATM    7  C2  UNL     1      10.097   6.266  40.564  1.00  0.00     0.003 C 
HETATM    8  C1  UNL     1       8.832   6.219  40.243  1.00  0.00     0.097 C 
HETATM    9  N1  UNL     1       8.261   7.232  39.438  1.00  0.00    -0.115 NA
ENDBRANCH   1   7
TORSDOF 1
ENDMDL
MODEL 2
REMARK VINA RESULT: -4.081635250      1.276      1.477
REMARK  1 active torsions:
REMARK  status: ('A' for Active; 'I' for Inactive)
REMARK    1  A    between atoms: C2_3  and  C3_4 
ROOT
HETATM    1  C3  UNL     1      10.781   4.191  41.852  1.00  0.00     0.080 C 
HETATM    2  C4  UNL     1       9.409   3.803  42.408  1.00  0.00     0.092 C 
HETATM    3  S1  UNL     1       9.592   2.080  42.973  1.00  0.00    -0.167 SA
HETATM    4  C5  UNL     1      10.834   1.910  44.243  1.00  0.00     0.084 C 
HETATM    5  C6  UNL     1      12.087   2.672  44.013  1.00  0.00     0.084 C 
HETATM    6  S2  UNL     1      11.889   4.273  43.261  1.00  0.00    -0.159 SA
ENDROOT
BRANCH   1   7
HETATM    7  C2  UNL     1      10.683   5.482  41.131  1.00  0.00     0.003 C 
HETATM    8  C1  UNL     1       9.651   5.850  40.423  1.00  0.00     0.097 C 
HETATM    9  N1  UNL     1       9.644   7.104  39.767  1.00  0.00    -0.115 NA
ENDBRANCH   1   7
TORSDOF 1
ENDMDL
MODEL 3
REMARK VINA RESULT: -4.065309942      1.759      2.208
REMARK  1 active torsions:
REMARK  status: ('A' for Active; 'I' for Inactive)
REMARK    1  A    between atoms: C2_3  and  C3_4 
ROOT
HETATM    1  C3  UNL     1      10.558   4.429  42.173  1.00  0.00     0.080 C 
HETATM    2  C4  UNL     1      11.629   3.351  41.992  1.00  0.00     0.092 C 
HETATM    3  S1  UNL     1      11.952   2.713  43.669  1.00  0.00    -0.167 SA
HETATM    4  C5  UNL     1      10.496   2.006  44.418  1.00  0.00     0.084 C 
HETATM    5  C6  UNL     1       9.243   2.780  44.231  1.00  0.00     0.084 C 
HETATM    6  S2  UNL     1       9.055   3.570  42.647  1.00  0.00    -0.159 SA
ENDROOT
BRANCH   1   7
HETATM    7  C2  UNL     1      10.400   5.195  40.914  1.00  0.00     0.003 C 
HETATM    8  C1  UNL     1       9.284   5.749  40.528  1.00  0.00     0.097 C 
HETATM    9  N1  UNL     1       9.225   6.464  39.308  1.00  0.00    -0.115 NA
ENDBRANCH   1   7
TORSDOF 1
ENDMDL
MODEL 4
REMARK VINA RESULT: -3.975906020      1.771      2.627
REMARK  1 active torsions:
REMARK  status: ('A' for Active; 'I' for Inactive)
REMARK    1  A    between atoms: C2_3  and  C3_4 
ROOT
HETATM    1  C3  UNL     1      11.335   4.995  43.237  1.00  0.00     0.080 C 
HETATM    2  C4  UNL     1      12.737   4.693  43.767  1.00  0.00     0.092 C 
HETATM    3  S1  UNL     1      12.494   3.461  45.088  1.00  0.00    -0.167 SA
HETATM    4  C5  UNL     1      11.733   1.963  44.488  1.00  0.00     0.084 C 
HETATM    5  C6  UNL     1      10.606   2.156  43.542  1.00  0.00     0.084 C 
HETATM    6  S2  UNL     1      10.783   3.508  42.397  1.00  0.00    -0.159 SA
ENDROOT
BRANCH   1   7
HETATM    7  C2  UNL     1      11.381   6.171  42.336  1.00  0.00     0.003 C 
HETATM    8  C1  UNL     1      10.719   6.263  41.215  1.00  0.00     0.097 C 
HETATM    9  N1  UNL     1      10.824   7.427  40.417  1.00  0.00    -0.115 NA
ENDBRANCH   1   7
TORSDOF 1
ENDMDL
MODEL 5
REMARK VINA RESULT: -3.892032575      3.168      4.667
REMARK  1 active torsions:
REMARK  status: ('A' for Active; 'I' for Inactive)
REMARK    1  A    between atoms: C2_3  and  C3_4 
ROOT
HETATM    1  C3  UNL     1      10.729   6.697  41.672  1.00  0.00     0.080 C 
HETATM    2  C4  UNL     1       9.955   5.582  40.967  1.00  0.00     0.092 C 
HETATM    3  S1  UNL     1       8.643   6.430  40.028  1.00  0.00    -0.167 SA
HETATM    4  C5  UNL     1       9.299   7.571  38.824  1.00  0.00     0.084 C 
HETATM    5  C6  UNL     1      10.431   8.410  39.293  1.00  0.00     0.084 C 
HETATM    6  S2  UNL     1      11.585   7.607  40.384  1.00  0.00    -0.159 SA
ENDROOT
BRANCH   1   7
HETATM    7  C2  UNL     1      11.658   6.112  42.667  1.00  0.00     0.003 C 
HETATM    8  C1  UNL     1      11.632   4.864  43.049  1.00  0.00     0.097 C 
HETATM    9  N1  UNL     1      12.561   4.391  44.007  1.00  0.00    -0.115 NA
ENDBRANCH   1   7
TORSDOF 1
ENDMDL
