MODEL 1
REMARK VINA RESULT: -4.554258585      0.000      0.000
REMARK  3 active torsions:
REMARK  status: ('A' for Active; 'I' for Inactive)
REMARK    1  A    between atoms: O1_2  and  C2_3 
REMARK    2  A    between atoms: C2_3  and  N1_4 
REMARK    3  A    between atoms: N1_4  and  C3_6 
ROOT
HETATM    1  C2  UNL     1       9.493   3.028  43.762  1.00  0.00     0.130 C 
HETATM    2  C7  UNL     1       9.534   1.646  43.132  1.00  0.00     0.061 C 
HETATM    3  C8  UNL     1       8.034   1.897  42.876  1.00  0.00     0.010 C 
HETATM    4  C9  UNL     1       8.507   3.359  42.682  1.00  0.00     0.061 C 
ENDROOT
BRANCH   1   5
HETATM    5  O1  UNL     1       8.744   2.894  44.953  1.00  0.00    -0.366 OA
HETATM    6  C1  UNL     1       9.235   3.626  45.999  1.00  0.00     0.204 C 
ENDBRANCH   1   5
BRANCH   1   7
HETATM    7  N1  UNL     1      10.632   3.735  43.988  1.00  0.00    -0.384 N 
ATOM      8  H1  UNL     1      10.838   3.918  44.970  1.00  0.00     0.157 HD
BRANCH   7   9
HETATM    9  C3  UNL     1      11.548   4.239  43.097  1.00  0.00     0.017 C 
HETATM   10  C4  UNL     1      11.973   3.375  41.949  1.00  0.00     0.037 C 
HETATM   11  C5  UNL     1      12.850   4.505  43.889  1.00  0.00     0.037 C 
HETATM   12  C6  UNL     1      11.159   5.596  42.546  1.00  0.00     0.037 C 
ENDBRANCH   7   9
ENDBRANCH   1   7
TORSDOF 3
ENDMDL
MODEL 2
REMARK VINA RESULT: -4.537624823      2.895      4.318
REMARK  3 active torsions:
REMARK  status: ('A' for Active; 'I' for Inactive)
REMARK    1  A    between atoms: O1_2  and  C2_3 
REMARK    2  A    between atoms: C2_3  and  N1_4 
REMARK    3  A    between atoms: N1_4  and  C3_6 
ROOT
HETATM    1  C2  UNL     1      12.689   2.817  46.089  1.00  0.00     0.130 C 
HETATM    2  C7  UNL     1      11.634   3.278  47.081  1.00  0.00     0.061 C 
HETATM    3  C8  UNL     1      12.849   3.609  47.970  1.00  0.00     0.010 C 
HETATM    4  C9  UNL     1      13.507   3.959  46.612  1.00  0.00     0.061 C 
ENDROOT
BRANCH   1   5
HETATM    5  O1  UNL     1      13.255   1.643  46.636  1.00  0.00    -0.366 OA
HETATM    6  C1  UNL     1      13.342   0.606  45.748  1.00  0.00     0.204 C 
ENDBRANCH   1   5
BRANCH   1   7
HETATM    7  N1  UNL     1      12.392   2.638  44.774  1.00  0.00    -0.384 N 
ATOM      8  H1  UNL     1      12.540   1.692  44.423  1.00  0.00     0.157 HD
BRANCH   7   9
HETATM    9  C3  UNL     1      11.923   3.537  43.847  1.00  0.00     0.017 C 
HETATM   10  C4  UNL     1      10.509   4.016  43.975  1.00  0.00     0.037 C 
HETATM   11  C5  UNL     1      11.976   2.835  42.470  1.00  0.00     0.037 C 
HETATM   12  C6  UNL     1      12.819   4.749  43.686  1.00  0.00     0.037 C 
ENDBRANCH   7   9
ENDBRANCH   1   7
TORSDOF 3
ENDMDL
MODEL 3
REMARK VINA RESULT: -4.536456827      2.285      3.420
REMARK  3 active torsions:
REMARK  status: ('A' for Active; 'I' for Inactive)
REMARK    1  A    between atoms: O1_2  and  C2_3 
REMARK    2  A    between atoms: C2_3  and  N1_4 
REMARK    3  A    between atoms: N1_4  and  C3_6 
ROOT
HETATM    1  C2  UNL     1      10.322   2.358  43.201  1.00  0.00     0.130 C 
HETATM    2  C7  UNL     1       9.672   3.640  43.698  1.00  0.00     0.061 C 
HETATM    3  C8  UNL     1       8.588   3.301  42.655  1.00  0.00     0.010 C 
HETATM    4  C9  UNL     1       8.920   1.844  43.063  1.00  0.00     0.061 C 
ENDROOT
BRANCH   1   5
HETATM    5  O1  UNL     1      10.773   2.630  41.890  1.00  0.00    -0.366 OA
HETATM    6  C1  UNL     1      12.131   2.752  41.787  1.00  0.00     0.204 C 
ENDBRANCH   1   5
BRANCH   1   7
HETATM    7  N1  UNL     1      11.290   1.732  43.921  1.00  0.00    -0.384 N 
ATOM      8  H1  UNL     1      11.879   1.093  43.388  1.00  0.00     0.157 HD
BRANCH   7   9
HETATM    9  C3  UNL     1      11.595   1.829  45.257  1.00  0.00     0.017 C 
HETATM   10  C4  UNL     1      12.008   3.164  45.797  1.00  0.00     0.037 C 
HETATM   11  C5  UNL     1      12.814   0.911  45.510  1.00  0.00     0.037 C 
HETATM   12  C6  UNL     1      10.511   1.271  46.159  1.00  0.00     0.037 C 
ENDBRANCH   7   9
ENDBRANCH   1   7
TORSDOF 3
ENDMDL
MODEL 4
REMARK VINA RESULT: -4.534470437      1.953      4.217
REMARK  3 active torsions:
REMARK  status: ('A' for Active; 'I' for Inactive)
REMARK    1  A    between atoms: O1_2  and  C2_3 
REMARK    2  A    between atoms: C2_3  and  N1_4 
REMARK    3  A    between atoms: N1_4  and  C3_6 
ROOT
HETATM    1  C2  UNL     1      10.538   4.730  42.265  1.00  0.00     0.130 C 
HETATM    2  C7  UNL     1      11.745   4.267  43.066  1.00  0.00     0.061 C 
HETATM    3  C8  UNL     1      12.216   5.724  42.890  1.00  0.00     0.010 C 
HETATM    4  C9  UNL     1      10.701   6.027  42.999  1.00  0.00     0.061 C 
ENDROOT
BRANCH   1   5
HETATM    5  O1  UNL     1      11.006   4.960  40.951  1.00  0.00    -0.366 OA
HETATM    6  C1  UNL     1      10.183   5.757  40.203  1.00  0.00     0.204 C 
ENDBRANCH   1   5
BRANCH   1   7
HETATM    7  N1  UNL     1       9.385   4.011  42.245  1.00  0.00    -0.384 N 
ATOM      8  H1  UNL     1       8.658   4.378  41.631  1.00  0.00     0.157 HD
BRANCH   7   9
HETATM    9  C3  UNL     1       9.049   2.866  42.926  1.00  0.00     0.017 C 
HETATM   10  C4  UNL     1       9.799   1.607  42.612  1.00  0.00     0.037 C 
HETATM   11  C5  UNL     1       7.579   2.545  42.571  1.00  0.00     0.037 C 
HETATM   12  C6  UNL     1       9.042   3.048  44.431  1.00  0.00     0.037 C 
ENDBRANCH   7   9
ENDBRANCH   1   7
TORSDOF 3
ENDMDL
MODEL 5
REMARK VINA RESULT: -4.515694616      1.797      3.730
REMARK  3 active torsions:
REMARK  status: ('A' for Active; 'I' for Inactive)
REMARK    1  A    between atoms: O1_2  and  C2_3 
REMARK    2  A    between atoms: C2_3  and  N1_4 
REMARK    3  A    between atoms: N1_4  and  C3_6 
ROOT
HETATM    1  C2  UNL     1      10.776   3.887  42.577  1.00  0.00     0.130 C 
HETATM    2  C7  UNL     1      11.139   5.362  42.512  1.00  0.00     0.061 C 
HETATM    3  C8  UNL     1      10.183   5.375  41.302  1.00  0.00     0.010 C 
HETATM    4  C9  UNL     1       9.411   4.327  42.141  1.00  0.00     0.061 C 
ENDROOT
BRANCH   1   5
HETATM    5  O1  UNL     1      11.376   3.286  41.447  1.00  0.00    -0.366 OA
HETATM    6  C1  UNL     1      12.505   2.570  41.736  1.00  0.00     0.204 C 
ENDBRANCH   1   5
BRANCH   1   7
HETATM    7  N1  UNL     1      11.013   3.150  43.694  1.00  0.00    -0.384 N 
ATOM      8  H1  UNL     1      11.989   2.897  43.846  1.00  0.00     0.157 HD
BRANCH   7   9
HETATM    9  C3  UNL     1      10.138   2.694  44.650  1.00  0.00     0.017 C 
HETATM   10  C4  UNL     1       9.422   3.702  45.496  1.00  0.00     0.037 C 
HETATM   11  C5  UNL     1      10.963   1.856  45.655  1.00  0.00     0.037 C 
HETATM   12  C6  UNL     1       9.111   1.722  44.104  1.00  0.00     0.037 C 
ENDBRANCH   7   9
ENDBRANCH   1   7
TORSDOF 3
ENDMDL
