MODEL 1
REMARK VINA RESULT: -7.166947592      0.000      0.000
REMARK  8 active torsions:
REMARK  status: ('A' for Active; 'I' for Inactive)
REMARK    1  A    between atoms: C3_3  and  O1_4 
REMARK    2  A    between atoms: C5_6  and  O2_7 
REMARK    3  A    between atoms: N1_13  and  O3_15 
REMARK    4  A    between atoms: O3_15  and  C10_16 
REMARK    5  A    between atoms: C10_16  and  O5_18 
REMARK    6  A    between atoms: C12_20  and  O6_21 
REMARK    7  A    between atoms: C13_23  and  O7_24 
REMARK    8  A    between atoms: C14_26  and  O8_27 
ROOT
HETATM    1  C1  UNL     1      23.429  24.519  63.100  1.00  0.00     0.017 C 
HETATM    2  C2  UNL     1      23.655  25.548  63.855  1.00  0.00    -0.051 C 
HETATM    3  C3  UNL     1      22.662  26.638  63.996  1.00  0.00     0.178 C 
HETATM    4  C5  UNL     1      22.970  27.498  65.208  1.00  0.00     0.155 C 
HETATM    5  C6  UNL     1      23.518  26.752  66.363  1.00  0.00     0.024 C 
HETATM    6  C7  UNL     1      22.382  26.315  67.302  1.00  0.00     0.013 C 
HETATM    7  C8  UNL     1      24.448  25.631  66.084  1.00  0.00     0.053 C 
HETATM    8  C9  UNL     1      25.549  25.502  67.034  1.00  0.00     0.047 C 
HETATM    9  N1  UNL     1      25.335  25.852  68.263  1.00  0.00    -0.261 N 
ATOM     10  H1  UNL     1      24.408  26.201  68.507  1.00  0.00     0.194 HD
HETATM   11  C12 UNL     1      26.899  25.001  66.710  1.00  0.00     0.197 C 
HETATM   12  C13 UNL     1      27.166  25.037  65.220  1.00  0.00     0.182 C 
HETATM   13  C14 UNL     1      25.916  24.620  64.431  1.00  0.00     0.158 C 
HETATM   14  C15 UNL     1      24.904  25.702  64.623  1.00  0.00     0.058 C 
ENDROOT
BRANCH   9  15
HETATM   15  O3  UNL     1      26.276  25.781  69.249  1.00  0.00    -0.175 OA
BRANCH  15  16
HETATM   16  C10 UNL     1      26.036  25.007  70.377  1.00  0.00     0.428 C 
HETATM   17  O4  UNL     1      26.871  25.060  71.315  1.00  0.00    -0.227 OA
BRANCH  16  18
HETATM   18  O5  UNL     1      24.915  24.186  70.499  1.00  0.00    -0.302 OA
HETATM   19  C11 UNL     1      24.102  24.230  71.679  1.00  0.00     0.215 C 
ENDBRANCH  16  18
ENDBRANCH  15  16
ENDBRANCH   9  15
BRANCH  11  20
HETATM   20  O6  UNL     1      27.124  23.711  67.222  1.00  0.00    -0.387 OA
ATOM     21  H6  UNL     1      27.929  23.659  67.724  1.00  0.00     0.210 HD
ENDBRANCH  11  20
BRANCH  12  22
HETATM   22  O7  UNL     1      28.262  24.294  64.859  1.00  0.00    -0.390 OA
ATOM     23  H7  UNL     1      28.083  23.700  64.140  1.00  0.00     0.210 HD
ENDBRANCH  12  22
BRANCH   4  24
HETATM   24  O2  UNL     1      21.771  28.100  65.587  1.00  0.00    -0.392 OA
ATOM     25  H2  UNL     1      21.899  29.038  65.509  1.00  0.00     0.210 HD
ENDBRANCH   4  24
BRANCH  13  26
HETATM   26  O8  UNL     1      26.340  24.517  63.104  1.00  0.00    -0.392 OA
ATOM     27  H8  UNL     1      25.543  24.430  62.595  1.00  0.00     0.210 HD
ENDBRANCH  13  26
BRANCH   3  28
HETATM   28  O1  UNL     1      21.363  26.189  64.045  1.00  0.00    -0.384 OA
HETATM   29  C4  UNL     1      20.673  26.525  62.861  1.00  0.00     0.202 C 
ENDBRANCH   3  28
TORSDOF 8
ENDMDL
MODEL 2
REMARK VINA RESULT: -6.829688757      4.514     10.032
REMARK  8 active torsions:
REMARK  status: ('A' for Active; 'I' for Inactive)
REMARK    1  A    between atoms: C3_3  and  O1_4 
REMARK    2  A    between atoms: C5_6  and  O2_7 
REMARK    3  A    between atoms: N1_13  and  O3_15 
REMARK    4  A    between atoms: O3_15  and  C10_16 
REMARK    5  A    between atoms: C10_16  and  O5_18 
REMARK    6  A    between atoms: C12_20  and  O6_21 
REMARK    7  A    between atoms: C13_23  and  O7_24 
REMARK    8  A    between atoms: C14_26  and  O8_27 
ROOT
HETATM    1  C1  UNL     1      28.021  20.397  75.743  1.00  0.00     0.017 C 
HETATM    2  C2  UNL     1      27.946  21.627  75.340  1.00  0.00    -0.051 C 
HETATM    3  C3  UNL     1      29.038  22.595  75.597  1.00  0.00     0.178 C 
HETATM    4  C5  UNL     1      28.903  23.813  74.703  1.00  0.00     0.155 C 
HETATM    5  C6  UNL     1      28.388  23.522  73.347  1.00  0.00     0.024 C 
HETATM    6  C7  UNL     1      29.554  23.276  72.376  1.00  0.00     0.013 C 
HETATM    7  C8  UNL     1      27.345  22.476  73.214  1.00  0.00     0.053 C 
HETATM    8  C9  UNL     1      26.316  22.764  72.218  1.00  0.00     0.047 C 
HETATM    9  N1  UNL     1      26.658  23.450  71.174  1.00  0.00    -0.261 N 
ATOM     10  H1  UNL     1      27.628  23.756  71.097  1.00  0.00     0.194 HD
HETATM   11  C12 UNL     1      24.906  22.336  72.302  1.00  0.00     0.197 C 
HETATM   12  C13 UNL     1      24.525  21.940  73.713  1.00  0.00     0.182 C 
HETATM   13  C14 UNL     1      25.667  21.169  74.391  1.00  0.00     0.158 C 
HETATM   14  C15 UNL     1      26.781  22.143  74.598  1.00  0.00     0.058 C 
ENDROOT
BRANCH   9  15
HETATM   15  O3  UNL     1      25.796  23.787  70.170  1.00  0.00    -0.175 OA
BRANCH  15  16
HETATM   16  C10 UNL     1      26.096  24.855  69.333  1.00  0.00     0.428 C 
HETATM   17  O4  UNL     1      26.403  25.952  69.866  1.00  0.00    -0.227 OA
BRANCH  16  18
HETATM   18  O5  UNL     1      26.071  24.749  67.943  1.00  0.00    -0.302 OA
HETATM   19  C11 UNL     1      27.282  24.834  67.180  1.00  0.00     0.215 C 
ENDBRANCH  16  18
ENDBRANCH  15  16
ENDBRANCH   9  15
BRANCH  11  20
HETATM   20  O6  UNL     1      24.612  21.297  71.400  1.00  0.00    -0.387 OA
ATOM     21  H6  UNL     1      24.952  20.460  71.694  1.00  0.00     0.210 HD
ENDBRANCH  11  20
BRANCH  12  22
HETATM   22  O7  UNL     1      23.343  21.244  73.767  1.00  0.00    -0.390 OA
ATOM     23  H7  UNL     1      23.466  20.328  73.986  1.00  0.00     0.210 HD
ENDBRANCH  12  22
BRANCH   4  24
HETATM   24  O2  UNL     1      30.177  24.370  74.592  1.00  0.00    -0.392 OA
ATOM     25  H2  UNL     1      30.284  24.626  73.683  1.00  0.00     0.210 HD
ENDBRANCH   4  24
BRANCH  13  26
HETATM   26  O8  UNL     1      25.130  20.709  75.596  1.00  0.00    -0.392 OA
ATOM     27  H8  UNL     1      25.366  19.789  75.637  1.00  0.00     0.210 HD
ENDBRANCH  13  26
BRANCH   3  28
HETATM   28  O1  UNL     1      30.293  22.046  75.473  1.00  0.00    -0.384 OA
HETATM   29  C4  UNL     1      30.954  22.025  76.720  1.00  0.00     0.202 C 
ENDBRANCH   3  28
TORSDOF 8
ENDMDL
MODEL 3
REMARK VINA RESULT: -6.748338182      6.929     10.289
REMARK  8 active torsions:
REMARK  status: ('A' for Active; 'I' for Inactive)
REMARK    1  A    between atoms: C3_3  and  O1_4 
REMARK    2  A    between atoms: C5_6  and  O2_7 
REMARK    3  A    between atoms: N1_13  and  O3_15 
REMARK    4  A    between atoms: O3_15  and  C10_16 
REMARK    5  A    between atoms: C10_16  and  O5_18 
REMARK    6  A    between atoms: C12_20  and  O6_21 
REMARK    7  A    between atoms: C13_23  and  O7_24 
REMARK    8  A    between atoms: C14_26  and  O8_27 
ROOT
HETATM    1  C1  UNL     1      31.509  22.961  75.114  1.00  0.00     0.017 C 
HETATM    2  C2  UNL     1      30.754  23.210  74.090  1.00  0.00    -0.051 C 
HETATM    3  C3  UNL     1      31.318  23.348  72.727  1.00  0.00     0.178 C 
HETATM    4  C5  UNL     1      30.229  23.234  71.677  1.00  0.00     0.155 C 
HETATM    5  C6  UNL     1      29.156  22.272  72.012  1.00  0.00     0.024 C 
HETATM    6  C7  UNL     1      29.482  20.886  71.431  1.00  0.00     0.013 C 
HETATM    7  C8  UNL     1      28.731  22.177  73.429  1.00  0.00     0.053 C 
HETATM    8  C9  UNL     1      27.297  21.976  73.623  1.00  0.00     0.047 C 
HETATM    9  N1  UNL     1      26.651  21.302  72.725  1.00  0.00    -0.261 N 
ATOM     10  H1  UNL     1      27.174  20.944  71.926  1.00  0.00     0.194 HD
HETATM   11  C12 UNL     1      26.514  22.481  74.768  1.00  0.00     0.197 C 
HETATM   12  C13 UNL     1      27.245  23.586  75.501  1.00  0.00     0.182 C 
HETATM   13  C14 UNL     1      28.746  23.278  75.596  1.00  0.00     0.158 C 
HETATM   14  C15 UNL     1      29.293  23.369  74.208  1.00  0.00     0.058 C 
ENDROOT
BRANCH   9  15
HETATM   15  O3  UNL     1      25.312  21.043  72.785  1.00  0.00    -0.175 OA
BRANCH  15  16
HETATM   16  C10 UNL     1      24.486  21.435  71.740  1.00  0.00     0.428 C 
HETATM   17  O4  UNL     1      23.842  20.542  71.133  1.00  0.00    -0.227 OA
BRANCH  16  18
HETATM   18  O5  UNL     1      24.351  22.766  71.349  1.00  0.00    -0.302 OA
HETATM   19  C11 UNL     1      23.896  23.759  72.277  1.00  0.00     0.215 C 
ENDBRANCH  16  18
ENDBRANCH  15  16
ENDBRANCH   9  15
BRANCH  11  20
HETATM   20  O6  UNL     1      26.149  21.454  75.656  1.00  0.00    -0.387 OA
ATOM     21  H6  UNL     1      25.212  21.297  75.658  1.00  0.00     0.210 HD
ENDBRANCH  11  20
BRANCH  12  22
HETATM   22  O7  UNL     1      26.704  23.851  76.735  1.00  0.00    -0.390 OA
ATOM     23  H7  UNL     1      27.277  24.374  77.282  1.00  0.00     0.210 HD
ENDBRANCH  12  22
BRANCH   4  24
HETATM   24  O2  UNL     1      30.852  22.823  70.498  1.00  0.00    -0.392 OA
ATOM     25  H2  UNL     1      31.335  22.032  70.706  1.00  0.00     0.210 HD
ENDBRANCH   4  24
BRANCH  13  26
HETATM   26  O8  UNL     1      29.268  24.262  76.440  1.00  0.00    -0.392 OA
ATOM     27  H8  UNL     1      28.992  25.087  76.058  1.00  0.00     0.210 HD
ENDBRANCH  13  26
BRANCH   3  28
HETATM   28  O1  UNL     1      32.333  22.456  72.465  1.00  0.00    -0.384 OA
HETATM   29  C4  UNL     1      33.535  23.137  72.181  1.00  0.00     0.202 C 
ENDBRANCH   3  28
TORSDOF 8
ENDMDL
MODEL 4
REMARK VINA RESULT: -6.698856329      3.758      9.259
REMARK  8 active torsions:
REMARK  status: ('A' for Active; 'I' for Inactive)
REMARK    1  A    between atoms: C3_3  and  O1_4 
REMARK    2  A    between atoms: C5_6  and  O2_7 
REMARK    3  A    between atoms: N1_13  and  O3_15 
REMARK    4  A    between atoms: O3_15  and  C10_16 
REMARK    5  A    between atoms: C10_16  and  O5_18 
REMARK    6  A    between atoms: C12_20  and  O6_21 
REMARK    7  A    between atoms: C13_23  and  O7_24 
REMARK    8  A    between atoms: C14_26  and  O8_27 
ROOT
HETATM    1  C1  UNL     1      27.115  21.197  74.776  1.00  0.00     0.017 C 
HETATM    2  C2  UNL     1      27.726  22.210  74.246  1.00  0.00    -0.051 C 
HETATM    3  C3  UNL     1      29.205  22.293  74.216  1.00  0.00     0.178 C 
HETATM    4  C5  UNL     1      29.668  23.334  73.215  1.00  0.00     0.155 C 
HETATM    5  C6  UNL     1      28.830  23.428  71.998  1.00  0.00     0.024 C 
HETATM    6  C7  UNL     1      29.390  22.514  70.895  1.00  0.00     0.013 C 
HETATM    7  C8  UNL     1      27.366  23.253  72.152  1.00  0.00     0.053 C 
HETATM    8  C9  UNL     1      26.556  24.118  71.299  1.00  0.00     0.047 C 
HETATM    9  N1  UNL     1      27.033  24.447  70.141  1.00  0.00    -0.261 N 
ATOM     10  H1  UNL     1      27.951  24.086  69.880  1.00  0.00     0.194 HD
HETATM   11  C12 UNL     1      25.226  24.655  71.649  1.00  0.00     0.197 C 
HETATM   12  C13 UNL     1      24.966  24.577  73.139  1.00  0.00     0.182 C 
HETATM   13  C14 UNL     1      25.508  23.263  73.720  1.00  0.00     0.158 C 
HETATM   14  C15 UNL     1      26.999  23.338  73.637  1.00  0.00     0.058 C 
ENDROOT
BRANCH   9  15
HETATM   15  O3  UNL     1      26.379  25.247  69.249  1.00  0.00    -0.175 OA
BRANCH  15  16
HETATM   16  C10 UNL     1      26.706  25.187  67.900  1.00  0.00     0.428 C 
HETATM   17  O4  UNL     1      27.906  25.377  67.577  1.00  0.00    -0.227 OA
BRANCH  16  18
HETATM   18  O5  UNL     1      25.761  24.925  66.909  1.00  0.00    -0.302 OA
HETATM   19  C11 UNL     1      24.510  25.625  66.888  1.00  0.00     0.215 C 
ENDBRANCH  16  18
ENDBRANCH  15  16
ENDBRANCH   9  15
BRANCH  11  20
HETATM   20  O6  UNL     1      24.193  24.023  70.933  1.00  0.00    -0.387 OA
ATOM     21  H6  UNL     1      23.519  23.677  71.506  1.00  0.00     0.210 HD
ENDBRANCH  11  20
BRANCH  12  22
HETATM   22  O7  UNL     1      23.644  24.763  73.456  1.00  0.00    -0.390 OA
ATOM     23  H7  UNL     1      23.062  24.219  72.938  1.00  0.00     0.210 HD
ENDBRANCH  12  22
BRANCH   4  24
HETATM   24  O2  UNL     1      30.966  22.983  72.843  1.00  0.00    -0.392 OA
ATOM     25  H2  UNL     1      31.011  22.035  72.872  1.00  0.00     0.210 HD
ENDBRANCH   4  24
BRANCH  13  26
HETATM   26  O8  UNL     1      25.049  23.232  75.040  1.00  0.00    -0.392 OA
ATOM     27  H8  UNL     1      24.104  23.182  74.972  1.00  0.00     0.210 HD
ENDBRANCH  13  26
BRANCH   3  28
HETATM   28  O1  UNL     1      29.814  21.085  73.967  1.00  0.00    -0.384 OA
HETATM   29  C4  UNL     1      30.669  20.728  75.030  1.00  0.00     0.202 C 
ENDBRANCH   3  28
TORSDOF 8
ENDMDL
MODEL 5
REMARK VINA RESULT: -6.495756133      4.474      9.949
REMARK  8 active torsions:
REMARK  status: ('A' for Active; 'I' for Inactive)
REMARK    1  A    between atoms: C3_3  and  O1_4 
REMARK    2  A    between atoms: C5_6  and  O2_7 
REMARK    3  A    between atoms: N1_13  and  O3_15 
REMARK    4  A    between atoms: O3_15  and  C10_16 
REMARK    5  A    between atoms: C10_16  and  O5_18 
REMARK    6  A    between atoms: C12_20  and  O6_21 
REMARK    7  A    between atoms: C13_23  and  O7_24 
REMARK    8  A    between atoms: C14_26  and  O8_27 
ROOT
HETATM    1  C1  UNL     1      28.911  21.395  75.738  1.00  0.00     0.017 C 
HETATM    2  C2  UNL     1      29.084  22.335  74.863  1.00  0.00    -0.051 C 
HETATM    3  C3  UNL     1      30.406  22.582  74.241  1.00  0.00     0.178 C 
HETATM    4  C5  UNL     1      30.268  23.433  72.993  1.00  0.00     0.155 C 
HETATM    5  C6  UNL     1      29.044  23.166  72.205  1.00  0.00     0.024 C 
HETATM    6  C7  UNL     1      29.326  22.111  71.124  1.00  0.00     0.013 C 
HETATM    7  C8  UNL     1      27.797  22.859  72.946  1.00  0.00     0.053 C 
HETATM    8  C9  UNL     1      26.584  23.423  72.360  1.00  0.00     0.047 C 
HETATM    9  N1  UNL     1      26.536  23.550  71.072  1.00  0.00    -0.261 N 
ATOM     10  H1  UNL     1      27.346  23.252  70.529  1.00  0.00     0.194 HD
HETATM   11  C12 UNL     1      25.397  23.863  73.118  1.00  0.00     0.197 C 
HETATM   12  C13 UNL     1      25.716  24.075  74.583  1.00  0.00     0.182 C 
HETATM   13  C14 UNL     1      26.670  22.987  75.097  1.00  0.00     0.158 C 
HETATM   14  C15 UNL     1      27.985  23.215  74.424  1.00  0.00     0.058 C 
ENDROOT
BRANCH   9  15
HETATM   15  O3  UNL     1      25.464  24.061  70.398  1.00  0.00    -0.175 OA
BRANCH  15  16
HETATM   16  C10 UNL     1      25.648  25.102  69.497  1.00  0.00     0.428 C 
HETATM   17  O4  UNL     1      26.401  26.049  69.839  1.00  0.00    -0.227 OA
BRANCH  16  18
HETATM   18  O5  UNL     1      25.035  25.129  68.245  1.00  0.00    -0.302 OA
HETATM   19  C11 UNL     1      25.757  25.567  67.087  1.00  0.00     0.215 C 
ENDBRANCH  16  18
ENDBRANCH  15  16
ENDBRANCH   9  15
BRANCH  11  20
HETATM   20  O6  UNL     1      24.314  22.977  72.970  1.00  0.00    -0.387 OA
ATOM     21  H6  UNL     1      23.552  23.403  72.595  1.00  0.00     0.210 HD
ENDBRANCH  11  20
BRANCH  12  22
HETATM   22  O7  UNL     1      24.590  24.169  75.362  1.00  0.00    -0.390 OA
ATOM     23  H7  UNL     1      23.867  24.591  74.914  1.00  0.00     0.210 HD
ENDBRANCH  12  22
BRANCH   4  24
HETATM   24  O2  UNL     1      31.383  23.164  72.199  1.00  0.00    -0.392 OA
ATOM     25  H2  UNL     1      31.467  23.890  71.592  1.00  0.00     0.210 HD
ENDBRANCH   4  24
BRANCH  13  26
HETATM   26  O8  UNL     1      26.738  23.185  76.479  1.00  0.00    -0.392 OA
ATOM     27  H8  UNL     1      26.281  24.003  76.634  1.00  0.00     0.210 HD
ENDBRANCH  13  26
BRANCH   3  28
HETATM   28  O1  UNL     1      31.099  21.427  73.960  1.00  0.00    -0.384 OA
HETATM   29  C4  UNL     1      32.199  21.280  74.831  1.00  0.00     0.202 C 
ENDBRANCH   3  28
TORSDOF 8
ENDMDL
