MODEL 1
REMARK VINA RESULT: -9.197539783      0.000      0.000
REMARK  3 active torsions:
REMARK  status: ('A' for Active; 'I' for Inactive)
REMARK    1  A    between atoms: C2_3  and  C4_6 
REMARK    2  A    between atoms: N3_10  and  N4_12 
REMARK    3  A    between atoms: N4_12  and  C8_14 
ROOT
HETATM    1  N1  UNL     1      22.044  24.735  67.490  1.00  0.00    -0.196 NA
HETATM    2  C1  UNL     1      22.522  25.279  66.583  1.00  0.00     0.080 C 
HETATM    3  C2  UNL     1      23.101  25.969  65.438  1.00  0.00     0.222 C 
HETATM    4  C3  UNL     1      22.372  27.182  65.119  1.00  0.00     0.080 C 
HETATM    5  N2  UNL     1      21.779  28.150  64.849  1.00  0.00    -0.196 NA
ENDROOT
BRANCH   3   6
HETATM    6  C4  UNL     1      24.539  26.323  65.769  1.00  0.00     0.114 C 
HETATM    7  C5  UNL     1      25.466  25.358  65.056  1.00  0.00     0.035 C 
HETATM    8  C6  UNL     1      26.728  25.444  65.917  1.00  0.00     0.080 C 
HETATM    9  C7  UNL     1      26.154  25.637  67.256  1.00  0.00     0.092 C 
HETATM   10  N3  UNL     1      26.780  25.426  68.362  1.00  0.00    -0.288 N 
HETATM   11  N9  UNL     1      24.809  26.092  67.192  1.00  0.00    -0.372 N 
ATOM     12  H3  UNL     1      27.745  25.100  68.309  1.00  0.00     0.188 HD
ATOM     13  H9  UNL     1      24.167  26.229  67.972  1.00  0.00     0.161 HD
BRANCH  10  14
HETATM   14  N4  UNL     1      26.229  25.612  69.616  1.00  0.00    -0.285 N 
ATOM     15  H4  UNL     1      25.894  26.531  69.905  1.00  0.00     0.188 HD
BRANCH  14  16
HETATM   16  C8  UNL     1      26.137  24.498  70.496  1.00  0.00     0.130 C 
HETATM   17  N5  UNL     1      27.138  23.707  70.677  1.00  0.00    -0.369 N 
HETATM   18  C9  UNL     1      27.169  22.552  71.536  1.00  0.00     0.112 C 
ATOM     19  H5  UNL     1      27.992  23.919  70.161  1.00  0.00     0.161 HD
HETATM   20  C10 UNL     1      28.334  22.571  72.465  1.00  0.00     0.100 C 
HETATM   21  C12 UNL     1      25.905  22.256  72.246  1.00  0.00     0.113 C 
HETATM   22  S1  UNL     1      27.580  23.387  73.930  1.00  0.00    -0.165 SA
HETATM   23  C11 UNL     1      25.866  22.807  73.610  1.00  0.00     0.097 C 
HETATM   24  N6  UNL     1      24.868  22.722  71.369  1.00  0.00    -0.170 NA
HETATM   25  N7  UNL     1      23.580  22.532  71.746  1.00  0.00     0.019 NA
HETATM   26  C13 UNL     1      24.912  24.179  71.249  1.00  0.00     0.269 C 
HETATM   27  O1  UNL     1      22.855  23.493  71.133  1.00  0.00    -0.153 OA
HETATM   28  N8  UNL     1      23.679  24.359  70.524  1.00  0.00    -0.046 NA
ENDBRANCH  14  16
ENDBRANCH  10  14
ENDBRANCH   3   6
TORSDOF 3
ENDMDL
MODEL 2
REMARK VINA RESULT: -9.107427409      1.333      1.968
REMARK  3 active torsions:
REMARK  status: ('A' for Active; 'I' for Inactive)
REMARK    1  A    between atoms: C2_3  and  C4_6 
REMARK    2  A    between atoms: N3_10  and  N4_12 
REMARK    3  A    between atoms: N4_12  and  C8_14 
ROOT
HETATM    1  N1  UNL     1      24.241  26.771  63.393  1.00  0.00    -0.196 NA
HETATM    2  C1  UNL     1      24.369  26.654  64.540  1.00  0.00     0.080 C 
HETATM    3  C2  UNL     1      24.507  26.504  65.982  1.00  0.00     0.222 C 
HETATM    4  C3  UNL     1      23.623  25.476  66.501  1.00  0.00     0.080 C 
HETATM    5  N2  UNL     1      22.902  24.663  66.924  1.00  0.00    -0.196 NA
ENDROOT
BRANCH   3   6
HETATM    6  C4  UNL     1      25.944  26.126  66.289  1.00  0.00     0.114 C 
HETATM    7  C5  UNL     1      26.282  24.831  65.575  1.00  0.00     0.035 C 
HETATM    8  C6  UNL     1      27.445  24.303  66.418  1.00  0.00     0.080 C 
HETATM    9  C7  UNL     1      27.057  24.754  67.763  1.00  0.00     0.092 C 
HETATM   10  N3  UNL     1      27.524  24.271  68.863  1.00  0.00    -0.288 N 
HETATM   11  N9  UNL     1      26.095  25.798  67.711  1.00  0.00    -0.372 N 
ATOM     12  H3  UNL     1      28.212  23.522  68.800  1.00  0.00     0.188 HD
ATOM     13  H9  UNL     1      25.610  26.230  68.498  1.00  0.00     0.161 HD
BRANCH  10  14
HETATM   14  N4  UNL     1      27.151  24.704  70.121  1.00  0.00    -0.285 N 
ATOM     15  H4  UNL     1      27.435  25.623  70.460  1.00  0.00     0.188 HD
BRANCH  14  16
HETATM   16  C8  UNL     1      26.362  23.843  70.935  1.00  0.00     0.130 C 
HETATM   17  N5  UNL     1      26.851  22.755  71.424  1.00  0.00    -0.369 N 
HETATM   18  C9  UNL     1      26.159  21.807  72.256  1.00  0.00     0.112 C 
ATOM     19  H5  UNL     1      27.823  22.545  71.198  1.00  0.00     0.161 HD
HETATM   20  C10 UNL     1      26.914  21.492  73.502  1.00  0.00     0.100 C 
HETATM   21  C12 UNL     1      24.742  22.127  72.540  1.00  0.00     0.113 C 
HETATM   22  S1  UNL     1      26.188  22.727  74.655  1.00  0.00    -0.165 SA
HETATM   23  C11 UNL     1      24.553  22.827  73.821  1.00  0.00     0.097 C 
HETATM   24  N6  UNL     1      24.284  22.840  71.381  1.00  0.00    -0.170 NA
HETATM   25  N7  UNL     1      22.984  23.222  71.339  1.00  0.00     0.019 NA
HETATM   26  C13 UNL     1      24.958  24.134  71.272  1.00  0.00     0.269 C 
HETATM   27  O1  UNL     1      22.926  24.299  70.525  1.00  0.00    -0.153 OA
HETATM   28  N8  UNL     1      24.169  24.683  70.198  1.00  0.00    -0.046 NA
ENDBRANCH  14  16
ENDBRANCH  10  14
ENDBRANCH   3   6
TORSDOF 3
ENDMDL
MODEL 3
REMARK VINA RESULT: -8.850377558      1.051      1.182
REMARK  3 active torsions:
REMARK  status: ('A' for Active; 'I' for Inactive)
REMARK    1  A    between atoms: C2_3  and  C4_6 
REMARK    2  A    between atoms: N3_10  and  N4_12 
REMARK    3  A    between atoms: N4_12  and  C8_14 
ROOT
HETATM    1  N1  UNL     1      21.999  25.000  68.090  1.00  0.00    -0.196 NA
HETATM    2  C1  UNL     1      22.550  25.380  67.142  1.00  0.00     0.080 C 
HETATM    3  C2  UNL     1      23.219  25.863  65.943  1.00  0.00     0.222 C 
HETATM    4  C3  UNL     1      22.569  27.043  65.403  1.00  0.00     0.080 C 
HETATM    5  N2  UNL     1      22.040  27.981  64.957  1.00  0.00    -0.196 NA
ENDROOT
BRANCH   3   6
HETATM    6  C4  UNL     1      24.654  26.204  66.300  1.00  0.00     0.114 C 
HETATM    7  C5  UNL     1      25.591  25.404  65.416  1.00  0.00     0.035 C 
HETATM    8  C6  UNL     1      26.871  25.385  66.254  1.00  0.00     0.080 C 
HETATM    9  C7  UNL     1      26.326  25.331  67.618  1.00  0.00     0.092 C 
HETATM   10  N3  UNL     1      26.986  24.957  68.659  1.00  0.00    -0.288 N 
HETATM   11  N9  UNL     1      24.967  25.746  67.658  1.00  0.00    -0.372 N 
ATOM     12  H3  UNL     1      27.958  24.677  68.533  1.00  0.00     0.188 HD
ATOM     13  H9  UNL     1      24.341  25.729  68.463  1.00  0.00     0.161 HD
BRANCH  10  14
HETATM   14  N4  UNL     1      26.461  24.912  69.937  1.00  0.00    -0.285 N 
ATOM     15  H4  UNL     1      25.836  25.647  70.269  1.00  0.00     0.188 HD
BRANCH  14  16
HETATM   16  C8  UNL     1      26.807  23.820  70.781  1.00  0.00     0.130 C 
HETATM   17  N5  UNL     1      28.005  23.344  70.797  1.00  0.00    -0.369 N 
HETATM   18  C9  UNL     1      28.476  22.248  71.603  1.00  0.00     0.112 C 
ATOM     19  H5  UNL     1      28.685  23.786  70.179  1.00  0.00     0.161 HD
HETATM   20  C10 UNL     1      29.708  22.598  72.367  1.00  0.00     0.100 C 
HETATM   21  C12 UNL     1      27.458  21.611  72.466  1.00  0.00     0.113 C 
HETATM   22  S1  UNL     1      28.968  23.175  73.947  1.00  0.00    -0.165 SA
HETATM   23  C11 UNL     1      27.457  22.134  73.841  1.00  0.00     0.097 C 
HETATM   24  N6  UNL     1      26.220  21.762  71.754  1.00  0.00    -0.170 NA
HETATM   25  N7  UNL     1      25.102  21.219  72.294  1.00  0.00     0.019 NA
HETATM   26  C13 UNL     1      25.838  23.172  71.681  1.00  0.00     0.269 C 
HETATM   27  O1  UNL     1      24.059  21.934  71.818  1.00  0.00    -0.153 OA
HETATM   28  N8  UNL     1      24.515  22.995  71.135  1.00  0.00    -0.046 NA
ENDBRANCH  14  16
ENDBRANCH  10  14
ENDBRANCH   3   6
TORSDOF 3
ENDMDL
MODEL 4
REMARK VINA RESULT: -8.683856454      5.051      7.116
REMARK  3 active torsions:
REMARK  status: ('A' for Active; 'I' for Inactive)
REMARK    1  A    between atoms: C2_3  and  C4_6 
REMARK    2  A    between atoms: N3_10  and  N4_12 
REMARK    3  A    between atoms: N4_12  and  C8_14 
ROOT
HETATM    1  N1  UNL     1      27.967  20.429  72.611  1.00  0.00    -0.196 NA
HETATM    2  C1  UNL     1      28.665  21.238  72.158  1.00  0.00     0.080 C 
HETATM    3  C2  UNL     1      29.530  22.250  71.570  1.00  0.00     0.222 C 
HETATM    4  C3  UNL     1      28.815  23.078  70.615  1.00  0.00     0.080 C 
HETATM    5  N2  UNL     1      28.248  23.735  69.836  1.00  0.00    -0.196 NA
ENDROOT
BRANCH   3   6
HETATM    6  C4  UNL     1      30.069  23.128  72.685  1.00  0.00     0.114 C 
HETATM    7  C5  UNL     1      30.827  22.265  73.674  1.00  0.00     0.035 C 
HETATM    8  C6  UNL     1      30.766  23.117  74.944  1.00  0.00     0.080 C 
HETATM    9  C7  UNL     1      29.441  23.741  74.811  1.00  0.00     0.092 C 
HETATM   10  N3  UNL     1      28.779  24.273  75.780  1.00  0.00    -0.288 N 
HETATM   11  N9  UNL     1      28.966  23.689  73.473  1.00  0.00    -0.372 N 
ATOM     12  H3  UNL     1      29.201  24.264  76.708  1.00  0.00     0.188 HD
ATOM     13  H9  UNL     1      28.050  23.981  73.132  1.00  0.00     0.161 HD
BRANCH  10  14
HETATM   14  N4  UNL     1      27.534  24.857  75.642  1.00  0.00    -0.285 N 
ATOM     15  H4  UNL     1      27.372  25.816  75.950  1.00  0.00     0.188 HD
BRANCH  14  16
HETATM   16  C8  UNL     1      26.481  24.094  75.062  1.00  0.00     0.130 C 
HETATM   17  N5  UNL     1      25.437  24.667  74.568  1.00  0.00    -0.369 N 
HETATM   18  C9  UNL     1      24.312  24.009  73.958  1.00  0.00     0.112 C 
ATOM     19  H5  UNL     1      25.406  25.685  74.613  1.00  0.00     0.161 HD
HETATM   20  C10 UNL     1      23.991  24.568  72.614  1.00  0.00     0.100 C 
HETATM   21  C12 UNL     1      24.377  22.530  73.935  1.00  0.00     0.113 C 
HETATM   22  S1  UNL     1      24.971  23.444  71.540  1.00  0.00    -0.165 SA
HETATM   23  C11 UNL     1      24.902  21.995  72.669  1.00  0.00     0.097 C 
HETATM   24  N6  UNL     1      25.127  22.174  75.107  1.00  0.00    -0.170 NA
HETATM   25  N7  UNL     1      25.304  20.857  75.374  1.00  0.00     0.019 NA
HETATM   26  C13 UNL     1      26.513  22.623  74.987  1.00  0.00     0.269 C 
HETATM   27  O1  UNL     1      26.437  20.763  76.104  1.00  0.00    -0.153 OA
HETATM   28  N8  UNL     1      27.042  21.960  76.153  1.00  0.00    -0.046 NA
ENDBRANCH  14  16
ENDBRANCH  10  14
ENDBRANCH   3   6
TORSDOF 3
ENDMDL
MODEL 5
REMARK VINA RESULT: -8.590490910      1.440      2.123
REMARK  3 active torsions:
REMARK  status: ('A' for Active; 'I' for Inactive)
REMARK    1  A    between atoms: C2_3  and  C4_6 
REMARK    2  A    between atoms: N3_10  and  N4_12 
REMARK    3  A    between atoms: N4_12  and  C8_14 
ROOT
HETATM    1  N1  UNL     1      23.707  27.007  63.377  1.00  0.00    -0.196 NA
HETATM    2  C1  UNL     1      23.929  26.823  64.500  1.00  0.00     0.080 C 
HETATM    3  C2  UNL     1      24.185  26.586  65.914  1.00  0.00     0.222 C 
HETATM    4  C3  UNL     1      23.407  25.470  66.421  1.00  0.00     0.080 C 
HETATM    5  N2  UNL     1      22.772  24.585  66.835  1.00  0.00    -0.196 NA
ENDROOT
BRANCH   3   6
HETATM    6  C4  UNL     1      25.662  26.284  66.090  1.00  0.00     0.114 C 
HETATM    7  C5  UNL     1      26.031  25.087  65.237  1.00  0.00     0.035 C 
HETATM    8  C6  UNL     1      27.282  24.568  65.949  1.00  0.00     0.080 C 
HETATM    9  C7  UNL     1      26.963  24.867  67.352  1.00  0.00     0.092 C 
HETATM   10  N3  UNL     1      27.536  24.321  68.369  1.00  0.00    -0.288 N 
HETATM   11  N9  UNL     1      25.934  25.841  67.462  1.00  0.00    -0.372 N 
ATOM     12  H3  UNL     1      28.266  23.632  68.191  1.00  0.00     0.188 HD
ATOM     13  H9  UNL     1      25.480  26.165  68.317  1.00  0.00     0.161 HD
BRANCH  10  14
HETATM   14  N4  UNL     1      27.227  24.611  69.684  1.00  0.00    -0.285 N 
ATOM     15  H4  UNL     1      26.892  25.538  69.947  1.00  0.00     0.188 HD
BRANCH  14  16
HETATM   16  C8  UNL     1      27.384  23.592  70.665  1.00  0.00     0.130 C 
HETATM   17  N5  UNL     1      28.518  23.005  70.841  1.00  0.00    -0.369 N 
HETATM   18  C9  UNL     1      28.801  21.966  71.795  1.00  0.00     0.112 C 
ATOM     19  H5  UNL     1      29.289  23.307  70.246  1.00  0.00     0.161 HD
HETATM   20  C10 UNL     1      29.997  22.276  72.630  1.00  0.00     0.100 C 
HETATM   21  C12 UNL     1      27.653  21.533  72.622  1.00  0.00     0.113 C 
HETATM   22  S1  UNL     1      29.197  23.097  74.067  1.00  0.00    -0.165 SA
HETATM   23  C11 UNL     1      27.597  22.205  73.930  1.00  0.00     0.097 C 
HETATM   24  N6  UNL     1      26.501  21.725  71.786  1.00  0.00    -0.170 NA
HETATM   25  N7  UNL     1      25.291  21.358  72.274  1.00  0.00     0.019 NA
HETATM   26  C13 UNL     1      26.280  23.148  71.534  1.00  0.00     0.269 C 
HETATM   27  O1  UNL     1      24.373  22.114  71.633  1.00  0.00    -0.153 OA
HETATM   28  N8  UNL     1      24.994  23.042  70.889  1.00  0.00    -0.046 NA
ENDBRANCH  14  16
ENDBRANCH  10  14
ENDBRANCH   3   6
TORSDOF 3
ENDMDL
