MODEL 1
REMARK VINA RESULT: -8.799660514      0.000      0.000
REMARK  4 active torsions:
REMARK  status: ('A' for Active; 'I' for Inactive)
REMARK    1  A    between atoms: O1_2  and  C2_3 
REMARK       I    between atoms: C2_3  and  N1_5 
REMARK    2  A    between atoms: N1_5  and  C3_7 
REMARK    3  A    between atoms: C7_15  and  C8_16 
REMARK    4  A    between atoms: C10_21  and  N6_22 
ROOT
HETATM    1  C3  UNL     1      26.731  24.821  69.041  1.00  0.00     0.724 A 
HETATM    2  N2  UNL     1      27.759  24.611  68.204  1.00  0.00    -0.130 N 
ATOM      3  H2  UNL     1      28.652  24.294  68.581  1.00  0.00     0.205 HD
HETATM    4  N3  UNL     1      27.641  24.804  66.912  1.00  0.00    -0.289 N 
ATOM      5  H3  UNL     1      28.454  24.630  66.321  1.00  0.00     0.187 HD
HETATM    6  C4  UNL     1      26.483  25.228  66.313  1.00  0.00     0.054 A 
HETATM    7  C5  UNL     1      26.429  25.439  64.866  1.00  0.00     0.072 C 
HETATM    8  C6  UNL     1      25.412  25.450  67.148  1.00  0.00     0.131 A 
HETATM    9  C7  UNL     1      24.140  25.862  66.960  1.00  0.00     0.125 A 
HETATM   10  N9  UNL     1      23.572  25.884  68.243  1.00  0.00    -0.280 N 
ATOM     11  H9  UNL     1      22.611  26.155  68.448  1.00  0.00     0.189 HD
HETATM   12  N10 UNL     1      24.436  25.512  69.128  1.00  0.00    -0.220 N 
ATOM     13  H10 UNL     1      24.274  25.442  70.132  1.00  0.00     0.209 HD
HETATM   14  N11 UNL     1      25.582  25.235  68.492  1.00  0.00    -0.066 N 
ENDROOT
BRANCH   9  15
HETATM   15  C8  UNL     1      23.394  26.238  65.789  1.00  0.00     0.154 A 
HETATM   16  N4  UNL     1      22.816  25.531  64.890  1.00  0.00    -0.311 N 
HETATM   17  C9  UNL     1      22.137  25.907  63.795  1.00  0.00     0.198 A 
ATOM     18  H4  UNL     1      22.884  24.523  65.028  1.00  0.00     0.170 HD
HETATM   19  N5  UNL     1      22.052  27.241  63.620  1.00  0.00    -0.151 N 
HETATM   20  N8  UNL     1      21.459  25.233  62.749  1.00  0.00    -0.360 N 
HETATM   21  C10 UNL     1      22.640  28.066  64.533  1.00  0.00     0.682 A 
HETATM   22  C11 UNL     1      21.305  27.483  62.406  1.00  0.00     0.170 C 
HETATM   23  N7  UNL     1      23.283  27.592  65.572  1.00  0.00    -0.174 N 
ATOM     24  H7  UNL     1      23.711  28.240  66.234  1.00  0.00     0.186 HD
HETATM   25  C12 UNL     1      20.562  26.196  62.181  1.00  0.00     0.143 C 
ATOM     26  H8  UNL     1      21.584  24.263  62.459  1.00  0.00     0.162 HD
BRANCH  21  27
HETATM   27  N6  UNL     1      22.521  29.347  64.303  1.00  0.00    -0.234 N 
ATOM     28  H62 UNL     1      21.615  29.805  64.200  1.00  0.00     0.174 HD
ATOM     29  H61 UNL     1      23.394  29.869  64.232  1.00  0.00     0.174 HD
ENDBRANCH  21  27
ENDBRANCH   9  15
BRANCH   1  30
HETATM   30  N1  UNL     1      26.845  24.631  70.322  1.00  0.00    -0.132 N 
HETATM   31  C2  UNL     1      27.255  23.448  70.939  1.00  0.00     0.378 C 
HETATM   32  O2  UNL     1      28.497  23.257  71.166  1.00  0.00    -0.238 OA
ATOM     33  H1  UNL     1      26.615  25.416  70.931  1.00  0.00     0.190 HD
BRANCH  31  34
HETATM   34  O1  UNL     1      26.362  22.456  71.323  1.00  0.00    -0.308 OA
HETATM   35  C1  UNL     1      25.096  22.844  71.827  1.00  0.00     0.215 C 
ENDBRANCH  31  34
ENDBRANCH   1  30
TORSDOF 4
ENDMDL
MODEL 2
REMARK VINA RESULT: -8.260624770      0.658      1.692
REMARK  4 active torsions:
REMARK  status: ('A' for Active; 'I' for Inactive)
REMARK    1  A    between atoms: O1_2  and  C2_3 
REMARK       I    between atoms: C2_3  and  N1_5 
REMARK    2  A    between atoms: N1_5  and  C3_7 
REMARK    3  A    between atoms: C7_15  and  C8_16 
REMARK    4  A    between atoms: C10_21  and  N6_22 
ROOT
HETATM    1  C3  UNL     1      26.899  24.598  69.346  1.00  0.00     0.724 A 
HETATM    2  N2  UNL     1      27.937  24.359  68.529  1.00  0.00    -0.130 N 
ATOM      3  H2  UNL     1      28.808  24.001  68.921  1.00  0.00     0.205 HD
HETATM    4  N3  UNL     1      27.856  24.575  67.238  1.00  0.00    -0.289 N 
ATOM      5  H3  UNL     1      28.675  24.377  66.663  1.00  0.00     0.187 HD
HETATM    6  C4  UNL     1      26.730  25.053  66.619  1.00  0.00     0.054 A 
HETATM    7  C5  UNL     1      26.717  25.286  65.175  1.00  0.00     0.072 C 
HETATM    8  C6  UNL     1      25.650  25.305  67.433  1.00  0.00     0.131 A 
HETATM    9  C7  UNL     1      24.400  25.770  67.223  1.00  0.00     0.125 A 
HETATM   10  N9  UNL     1      23.804  25.796  68.493  1.00  0.00    -0.280 N 
ATOM     11  H9  UNL     1      22.849  26.103  68.680  1.00  0.00     0.189 HD
HETATM   12  N10 UNL     1      24.632  25.378  69.391  1.00  0.00    -0.220 N 
ATOM     13  H10 UNL     1      24.444  25.300  70.390  1.00  0.00     0.209 HD
HETATM   14  N11 UNL     1      25.780  25.065  68.777  1.00  0.00    -0.066 N 
ENDROOT
BRANCH   9  15
HETATM   15  C8  UNL     1      23.696  26.192  66.040  1.00  0.00     0.154 A 
HETATM   16  N4  UNL     1      23.119  27.297  65.749  1.00  0.00    -0.311 N 
HETATM   17  C9  UNL     1      22.454  27.663  64.642  1.00  0.00     0.198 A 
ATOM     18  H4  UNL     1      23.173  28.014  66.472  1.00  0.00     0.170 HD
HETATM   19  N5  UNL     1      22.386  26.710  63.690  1.00  0.00    -0.151 N 
HETATM   20  N8  UNL     1      21.790  28.837  64.205  1.00  0.00    -0.360 N 
HETATM   21  C10 UNL     1      22.976  25.502  63.921  1.00  0.00     0.682 A 
HETATM   22  C11 UNL     1      21.638  27.248  62.576  1.00  0.00     0.170 C 
HETATM   23  N7  UNL     1      23.603  25.248  65.044  1.00  0.00    -0.174 N 
ATOM     24  H7  UNL     1      24.031  24.333  65.181  1.00  0.00     0.186 HD
HETATM   25  C12 UNL     1      21.716  28.735  62.777  1.00  0.00     0.143 C 
ATOM     26  H8  UNL     1      21.437  29.596  64.787  1.00  0.00     0.162 HD
BRANCH  21  27
HETATM   27  N6  UNL     1      22.872  24.624  62.958  1.00  0.00    -0.234 N 
ATOM     28  H62 UNL     1      22.730  24.891  61.984  1.00  0.00     0.174 HD
ATOM     29  H61 UNL     1      22.944  23.646  63.239  1.00  0.00     0.174 HD
ENDBRANCH  21  27
ENDBRANCH   9  15
BRANCH   1  30
HETATM   30  N1  UNL     1      26.976  24.385  70.626  1.00  0.00    -0.132 N 
HETATM   31  C2  UNL     1      27.394  23.201  71.234  1.00  0.00     0.378 C 
HETATM   32  O2  UNL     1      28.632  23.035  71.498  1.00  0.00    -0.238 OA
ATOM     33  H1  UNL     1      26.706  25.152  71.241  1.00  0.00     0.190 HD
BRANCH  31  34
HETATM   34  O1  UNL     1      26.514  22.181  71.570  1.00  0.00    -0.308 OA
HETATM   35  C1  UNL     1      25.198  22.525  71.965  1.00  0.00     0.215 C 
ENDBRANCH  31  34
ENDBRANCH   1  30
TORSDOF 4
ENDMDL
MODEL 3
REMARK VINA RESULT: -8.068892355      1.396      2.821
REMARK  4 active torsions:
REMARK  status: ('A' for Active; 'I' for Inactive)
REMARK    1  A    between atoms: O1_2  and  C2_3 
REMARK       I    between atoms: C2_3  and  N1_5 
REMARK    2  A    between atoms: N1_5  and  C3_7 
REMARK    3  A    between atoms: C7_15  and  C8_16 
REMARK    4  A    between atoms: C10_21  and  N6_22 
ROOT
HETATM    1  C3  UNL     1      25.807  24.902  70.355  1.00  0.00     0.724 A 
HETATM    2  N2  UNL     1      24.655  24.813  71.038  1.00  0.00    -0.130 N 
ATOM      3  H2  UNL     1      24.678  24.547  72.022  1.00  0.00     0.205 HD
HETATM    4  N3  UNL     1      23.499  25.061  70.468  1.00  0.00    -0.289 N 
ATOM      5  H3  UNL     1      22.655  24.978  71.033  1.00  0.00     0.187 HD
HETATM    6  C4  UNL     1      23.367  25.426  69.153  1.00  0.00     0.054 A 
HETATM    7  C5  UNL     1      22.043  25.670  68.580  1.00  0.00     0.072 C 
HETATM    8  C6  UNL     1      24.533  25.526  68.430  1.00  0.00     0.131 A 
HETATM    9  C7  UNL     1      24.823  25.843  67.150  1.00  0.00     0.125 A 
HETATM   10  N9  UNL     1      26.220  25.747  67.060  1.00  0.00    -0.280 N 
ATOM     11  H9  UNL     1      26.761  25.926  66.213  1.00  0.00     0.189 HD
HETATM   12  N10 UNL     1      26.725  25.402  68.197  1.00  0.00    -0.220 N 
ATOM     13  H10 UNL     1      27.715  25.264  68.396  1.00  0.00     0.209 HD
HETATM   14  N11 UNL     1      25.717  25.257  69.067  1.00  0.00    -0.066 N 
ENDROOT
BRANCH   9  15
HETATM   15  C8  UNL     1      24.008  26.207  66.020  1.00  0.00     0.154 A 
HETATM   16  N4  UNL     1      23.334  27.266  65.770  1.00  0.00    -0.311 N 
HETATM   17  C9  UNL     1      22.568  27.576  64.712  1.00  0.00     0.198 A 
ATOM     18  H4  UNL     1      23.386  27.988  66.488  1.00  0.00     0.170 HD
HETATM   19  N5  UNL     1      22.503  26.616  63.768  1.00  0.00    -0.151 N 
HETATM   20  N8  UNL     1      21.791  28.696  64.323  1.00  0.00    -0.360 N 
HETATM   21  C10 UNL     1      23.194  25.455  63.957  1.00  0.00     0.682 A 
HETATM   22  C11 UNL     1      21.641  27.092  62.709  1.00  0.00     0.170 C 
HETATM   23  N7  UNL     1      23.915  25.254  65.033  1.00  0.00    -0.174 N 
ATOM     24  H7  UNL     1      24.418  24.372  65.140  1.00  0.00     0.186 HD
HETATM   25  C12 UNL     1      21.625  28.583  62.904  1.00  0.00     0.143 C 
ATOM     26  H8  UNL     1      21.425  29.431  64.928  1.00  0.00     0.162 HD
BRANCH  21  27
HETATM   27  N6  UNL     1      23.087  24.567  63.004  1.00  0.00    -0.234 N 
ATOM     28  H62 UNL     1      22.366  24.618  62.284  1.00  0.00     0.174 HD
ATOM     29  H61 UNL     1      23.773  23.813  63.020  1.00  0.00     0.174 HD
ENDBRANCH  21  27
ENDBRANCH   9  15
BRANCH   1  30
HETATM   30  N1  UNL     1      26.953  24.657  70.917  1.00  0.00    -0.132 N 
HETATM   31  C2  UNL     1      27.726  23.510  70.728  1.00  0.00     0.378 C 
HETATM   32  O2  UNL     1      28.590  23.485  69.788  1.00  0.00    -0.238 OA
ATOM     33  H1  UNL     1      27.321  25.365  71.552  1.00  0.00     0.190 HD
BRANCH  31  34
HETATM   34  O1  UNL     1      27.598  22.382  71.527  1.00  0.00    -0.308 OA
HETATM   35  C1  UNL     1      27.323  22.557  72.905  1.00  0.00     0.215 C 
ENDBRANCH  31  34
ENDBRANCH   1  30
TORSDOF 4
ENDMDL
MODEL 4
REMARK VINA RESULT: -7.998133964      3.154      4.539
REMARK  4 active torsions:
REMARK  status: ('A' for Active; 'I' for Inactive)
REMARK    1  A    between atoms: O1_2  and  C2_3 
REMARK       I    between atoms: C2_3  and  N1_5 
REMARK    2  A    between atoms: N1_5  and  C3_7 
REMARK    3  A    between atoms: C7_15  and  C8_16 
REMARK    4  A    between atoms: C10_21  and  N6_22 
ROOT
HETATM    1  C3  UNL     1      29.091  22.733  66.369  1.00  0.00     0.724 A 
HETATM    2  N2  UNL     1      29.130  23.279  67.594  1.00  0.00    -0.130 N 
ATOM      3  H2  UNL     1      29.840  22.966  68.257  1.00  0.00     0.205 HD
HETATM    4  N3  UNL     1      28.275  24.205  67.959  1.00  0.00    -0.289 N 
ATOM      5  H3  UNL     1      28.349  24.585  68.903  1.00  0.00     0.187 HD
HETATM    6  C4  UNL     1      27.288  24.688  67.140  1.00  0.00     0.054 A 
HETATM    7  C5  UNL     1      26.358  25.710  67.621  1.00  0.00     0.072 C 
HETATM    8  C6  UNL     1      27.226  24.147  65.877  1.00  0.00     0.131 A 
HETATM    9  C7  UNL     1      26.426  24.341  64.807  1.00  0.00     0.125 A 
HETATM   10  N9  UNL     1      26.903  23.452  63.831  1.00  0.00    -0.280 N 
ATOM     11  H9  UNL     1      26.509  23.350  62.896  1.00  0.00     0.189 HD
HETATM   12  N10 UNL     1      27.909  22.781  64.283  1.00  0.00    -0.220 N 
ATOM     13  H10 UNL     1      28.435  22.072  63.772  1.00  0.00     0.209 HD
HETATM   14  N11 UNL     1      28.140  23.181  65.539  1.00  0.00    -0.066 N 
ENDROOT
BRANCH   9  15
HETATM   15  C8  UNL     1      25.303  25.208  64.566  1.00  0.00     0.154 A 
HETATM   16  N4  UNL     1      25.056  26.401  64.958  1.00  0.00    -0.311 N 
HETATM   17  C9  UNL     1      23.991  27.186  64.731  1.00  0.00     0.198 A 
ATOM     18  H4  UNL     1      25.784  26.823  65.534  1.00  0.00     0.170 HD
HETATM   19  N5  UNL     1      23.033  26.621  63.969  1.00  0.00    -0.151 N 
HETATM   20  N8  UNL     1      23.610  28.502  65.097  1.00  0.00    -0.360 N 
HETATM   21  C10 UNL     1      23.218  25.351  63.509  1.00  0.00     0.682 A 
HETATM   22  C11 UNL     1      21.958  27.578  63.824  1.00  0.00     0.170 C 
HETATM   23  N7  UNL     1      24.301  24.669  63.791  1.00  0.00    -0.174 N 
ATOM     24  H7  UNL     1      24.404  23.721  63.430  1.00  0.00     0.186 HD
HETATM   25  C12 UNL     1      22.606  28.894  64.154  1.00  0.00     0.143 C 
ATOM     26  H8  UNL     1      23.976  29.054  65.872  1.00  0.00     0.162 HD
BRANCH  21  27
HETATM   27  N6  UNL     1      22.251  24.864  62.777  1.00  0.00    -0.234 N 
ATOM     28  H62 UNL     1      21.744  24.015  63.029  1.00  0.00     0.174 HD
ATOM     29  H61 UNL     1      22.027  25.386  61.930  1.00  0.00     0.174 HD
ENDBRANCH  21  27
ENDBRANCH   9  15
BRANCH   1  30
HETATM   30  N1  UNL     1      29.936  21.815  66.004  1.00  0.00    -0.132 N 
HETATM   31  C2  UNL     1      31.223  21.640  66.516  1.00  0.00     0.378 C 
HETATM   32  O2  UNL     1      31.396  20.885  67.532  1.00  0.00    -0.238 OA
ATOM     33  H1  UNL     1      29.632  21.165  65.280  1.00  0.00     0.190 HD
BRANCH  31  34
HETATM   34  O1  UNL     1      32.338  22.255  65.963  1.00  0.00    -0.308 OA
HETATM   35  C1  UNL     1      33.506  22.377  66.756  1.00  0.00     0.215 C 
ENDBRANCH  31  34
ENDBRANCH   1  30
TORSDOF 4
ENDMDL
MODEL 5
REMARK VINA RESULT: -7.906152867      2.746      3.744
REMARK  4 active torsions:
REMARK  status: ('A' for Active; 'I' for Inactive)
REMARK    1  A    between atoms: O1_2  and  C2_3 
REMARK       I    between atoms: C2_3  and  N1_5 
REMARK    2  A    between atoms: N1_5  and  C3_7 
REMARK    3  A    between atoms: C7_15  and  C8_16 
REMARK    4  A    between atoms: C10_21  and  N6_22 
ROOT
HETATM    1  C3  UNL     1      29.335  22.998  67.547  1.00  0.00     0.724 A 
HETATM    2  N2  UNL     1      29.567  22.484  66.329  1.00  0.00    -0.130 N 
ATOM      3  H2  UNL     1      30.340  21.830  66.203  1.00  0.00     0.205 HD
HETATM    4  N3  UNL     1      28.823  22.803  65.297  1.00  0.00    -0.289 N 
ATOM      5  H3  UNL     1      29.044  22.383  64.394  1.00  0.00     0.187 HD
HETATM    6  C4  UNL     1      27.764  23.670  65.368  1.00  0.00     0.054 A 
HETATM    7  C5  UNL     1      26.987  23.994  64.170  1.00  0.00     0.072 C 
HETATM    8  C6  UNL     1      27.502  24.212  66.605  1.00  0.00     0.131 A 
HETATM    9  C7  UNL     1      26.582  25.080  67.078  1.00  0.00     0.125 A 
HETATM   10  N9  UNL     1      26.880  25.215  68.443  1.00  0.00    -0.280 N 
ATOM     11  H9  UNL     1      26.365  25.809  69.093  1.00  0.00     0.189 HD
HETATM   12  N10 UNL     1      27.895  24.484  68.760  1.00  0.00    -0.220 N 
ATOM     13  H10 UNL     1      28.311  24.404  69.688  1.00  0.00     0.209 HD
HETATM   14  N11 UNL     1      28.306  23.850  67.655  1.00  0.00    -0.066 N 
ENDROOT
BRANCH   9  15
HETATM   15  C8  UNL     1      25.496  25.793  66.459  1.00  0.00     0.154 A 
HETATM   16  N4  UNL     1      25.437  26.467  65.372  1.00  0.00    -0.311 N 
HETATM   17  C9  UNL     1      24.413  27.137  64.822  1.00  0.00     0.198 A 
ATOM     18  H4  UNL     1      26.306  26.500  64.840  1.00  0.00     0.170 HD
HETATM   19  N5  UNL     1      23.267  27.089  65.532  1.00  0.00    -0.151 N 
HETATM   20  N8  UNL     1      24.224  27.902  63.643  1.00  0.00    -0.360 N 
HETATM   21  C10 UNL     1      23.245  26.391  66.703  1.00  0.00     0.682 A 
HETATM   22  C11 UNL     1      22.271  27.859  64.821  1.00  0.00     0.170 C 
HETATM   23  N7  UNL     1      24.308  25.769  67.152  1.00  0.00    -0.174 N 
ATOM     24  H7  UNL     1      24.253  25.257  68.033  1.00  0.00     0.186 HD
HETATM   25  C12 UNL     1      22.809  27.930  63.419  1.00  0.00     0.143 C 
ATOM     26  H8  UNL     1      24.947  28.340  63.073  1.00  0.00     0.162 HD
BRANCH  21  27
HETATM   27  N6  UNL     1      22.104  26.385  67.341  1.00  0.00    -0.234 N 
ATOM     28  H62 UNL     1      21.961  25.867  68.208  1.00  0.00     0.174 HD
ATOM     29  H61 UNL     1      21.356  26.936  66.920  1.00  0.00     0.174 HD
ENDBRANCH  21  27
ENDBRANCH   9  15
BRANCH   1  30
HETATM   30  N1  UNL     1      30.071  22.684  68.572  1.00  0.00    -0.132 N 
HETATM   31  C2  UNL     1      31.244  21.930  68.534  1.00  0.00     0.378 C 
HETATM   32  O2  UNL     1      32.364  22.522  68.368  1.00  0.00    -0.238 OA
ATOM     33  H1  UNL     1      29.763  23.019  69.484  1.00  0.00     0.190 HD
BRANCH  31  34
HETATM   34  O1  UNL     1      31.251  20.548  68.671  1.00  0.00    -0.308 OA
HETATM   35  C1  UNL     1      31.970  19.778  67.726  1.00  0.00     0.215 C 
ENDBRANCH  31  34
ENDBRANCH   1  30
TORSDOF 4
ENDMDL
