MODEL 1
REMARK VINA RESULT: -7.895180023      0.000      0.000
REMARK  2 active torsions:
REMARK  status: ('A' for Active; 'I' for Inactive)
REMARK    1  A    between atoms: C3_3  and  N1_4 
REMARK    2  A    between atoms: N2_8  and  C7_9 
ROOT
HETATM    1  N1  UNL     1      27.276  22.961  73.078  1.00  0.00    -0.363 N 
HETATM    2  C4  UNL     1      28.049  22.321  74.121  1.00  0.00     0.126 C 
HETATM    3  C5  UNL     1      28.759  21.136  73.568  1.00  0.00     0.040 C 
HETATM    4  C6  UNL     1      30.056  21.553  72.864  1.00  0.00     0.126 C 
HETATM    5  N2  UNL     1      29.783  22.031  71.537  1.00  0.00    -0.368 N 
HETATM    6  C13 UNL     1      28.518  22.446  70.998  1.00  0.00     0.144 C 
HETATM    7  C14 UNL     1      27.822  23.471  71.827  1.00  0.00     0.144 C 
ENDROOT
BRANCH   1   8
HETATM    8  C3  UNL     1      25.876  23.122  73.285  1.00  0.00     0.144 C 
HETATM    9  C2  UNL     1      25.197  23.975  74.011  1.00  0.00     0.049 C 
HETATM   10  C1  UNL     1      25.836  25.050  74.844  1.00  0.00     0.072 C 
HETATM   11  N9  UNL     1      23.780  23.735  73.898  1.00  0.00    -0.354 N 
HETATM   12  C15 UNL     1      23.615  22.943  72.698  1.00  0.00     0.324 C 
ATOM     13  H9  UNL     1      23.047  24.056  74.531  1.00  0.00     0.163 HD
HETATM   14  N4  UNL     1      24.909  22.272  72.647  1.00  0.00    -0.221 N 
HETATM   15  N8  UNL     1      22.571  21.962  72.820  1.00  0.00    -0.079 NA
HETATM   16  N5  UNL     1      24.943  21.024  72.027  1.00  0.00    -0.001 NA
HETATM   17  N6  UNL     1      23.856  20.974  71.148  1.00  0.00     0.004 NA
HETATM   18  N7  UNL     1      22.632  21.086  71.760  1.00  0.00    -0.229 N 
ATOM     19  H7  UNL     1      21.819  20.554  71.449  1.00  0.00     0.201 HD
ENDBRANCH   1   8
BRANCH   5  20
HETATM   20  C7  UNL     1      30.877  22.103  70.667  1.00  0.00     0.099 C 
HETATM   21  N3  UNL     1      31.291  21.130  69.916  1.00  0.00    -0.371 N 
HETATM   22  C8  UNL     1      32.445  21.405  69.083  1.00  0.00     0.112 C 
ATOM     23  H3  UNL     1      30.829  20.221  69.911  1.00  0.00     0.161 HD
HETATM   24  C9  UNL     1      32.322  20.810  67.673  1.00  0.00     0.030 C 
HETATM   25  C11 UNL     1      32.328  22.766  68.435  1.00  0.00     0.144 C 
HETATM   26  C10 UNL     1      31.539  22.080  67.313  1.00  0.00     0.036 C 
HETATM   27  O1  UNL     1      31.620  23.684  69.165  1.00  0.00    -0.376 OA
HETATM   28  C12 UNL     1      31.682  23.371  70.543  1.00  0.00     0.244 C 
ENDBRANCH   5  20
TORSDOF 2
ENDMDL
MODEL 2
REMARK VINA RESULT: -7.875292148      4.497      6.527
REMARK  2 active torsions:
REMARK  status: ('A' for Active; 'I' for Inactive)
REMARK    1  A    between atoms: C3_3  and  N1_4 
REMARK    2  A    between atoms: N2_8  and  C7_9 
ROOT
HETATM    1  N1  UNL     1      24.946  23.399  72.065  1.00  0.00    -0.363 N 
HETATM    2  C4  UNL     1      23.530  23.102  72.107  1.00  0.00     0.126 C 
HETATM    3  C5  UNL     1      22.748  24.331  71.805  1.00  0.00     0.040 C 
HETATM    4  C6  UNL     1      22.653  24.564  70.292  1.00  0.00     0.126 C 
HETATM    5  N2  UNL     1      23.852  25.184  69.798  1.00  0.00    -0.368 N 
HETATM    6  C13 UNL     1      25.128  25.268  70.451  1.00  0.00     0.144 C 
HETATM    7  C14 UNL     1      25.651  23.952  70.916  1.00  0.00     0.144 C 
ENDROOT
BRANCH   1   8
HETATM    8  C3  UNL     1      25.723  23.121  73.226  1.00  0.00     0.144 C 
HETATM    9  C2  UNL     1      25.696  23.629  74.433  1.00  0.00     0.049 C 
HETATM   10  C1  UNL     1      24.743  24.711  74.857  1.00  0.00     0.072 C 
HETATM   11  N9  UNL     1      26.694  23.015  75.273  1.00  0.00    -0.354 N 
HETATM   12  C15 UNL     1      27.048  21.776  74.615  1.00  0.00     0.324 C 
ATOM     13  H9  UNL     1      27.071  23.378  76.149  1.00  0.00     0.163 HD
HETATM   14  N4  UNL     1      26.759  22.125  73.229  1.00  0.00    -0.221 N 
HETATM   15  N8  UNL     1      28.442  21.456  74.748  1.00  0.00    -0.079 NA
HETATM   16  N5  UNL     1      27.499  21.463  72.250  1.00  0.00    -0.001 NA
HETATM   17  N6  UNL     1      27.940  20.261  72.814  1.00  0.00     0.004 NA
HETATM   18  N7  UNL     1      28.763  20.419  73.902  1.00  0.00    -0.229 N 
ATOM     19  H7  UNL     1      29.561  19.807  74.073  1.00  0.00     0.201 HD
ENDBRANCH   1   8
BRANCH   5  20
HETATM   20  C7  UNL     1      23.767  25.774  68.531  1.00  0.00     0.099 C 
HETATM   21  N3  UNL     1      24.705  25.746  67.637  1.00  0.00    -0.371 N 
HETATM   22  C8  UNL     1      24.421  26.418  66.384  1.00  0.00     0.112 C 
ATOM     23  H3  UNL     1      25.594  25.277  67.805  1.00  0.00     0.161 HD
HETATM   24  C9  UNL     1      24.923  25.640  65.159  1.00  0.00     0.030 C 
HETATM   25  C11 UNL     1      23.019  26.105  65.913  1.00  0.00     0.144 C 
HETATM   26  C10 UNL     1      23.605  24.857  65.242  1.00  0.00     0.036 C 
HETATM   27  O1  UNL     1      22.123  25.858  66.919  1.00  0.00    -0.376 OA
HETATM   28  C12 UNL     1      22.523  26.512  68.107  1.00  0.00     0.244 C 
ENDBRANCH   5  20
TORSDOF 2
ENDMDL
MODEL 3
REMARK VINA RESULT: -7.631186322      7.455      9.264
REMARK  2 active torsions:
REMARK  status: ('A' for Active; 'I' for Inactive)
REMARK    1  A    between atoms: C3_3  and  N1_4 
REMARK    2  A    between atoms: N2_8  and  C7_9 
ROOT
HETATM    1  N1  UNL     1      23.588  26.186  65.758  1.00  0.00    -0.363 N 
HETATM    2  C4  UNL     1      24.859  25.597  65.394  1.00  0.00     0.126 C 
HETATM    3  C5  UNL     1      25.902  26.004  66.373  1.00  0.00     0.040 C 
HETATM    4  C6  UNL     1      25.853  25.120  67.626  1.00  0.00     0.126 C 
HETATM    5  N2  UNL     1      24.817  25.562  68.518  1.00  0.00    -0.368 N 
HETATM    6  C13 UNL     1      23.714  26.431  68.219  1.00  0.00     0.144 C 
HETATM    7  C14 UNL     1      22.915  25.998  67.036  1.00  0.00     0.144 C 
ENDROOT
BRANCH   1   8
HETATM    8  C3  UNL     1      22.928  27.002  64.795  1.00  0.00     0.144 C 
HETATM    9  C2  UNL     1      22.951  28.296  64.590  1.00  0.00     0.049 C 
HETATM   10  C1  UNL     1      23.760  29.254  65.417  1.00  0.00     0.072 C 
HETATM   11  N9  UNL     1      22.103  28.656  63.481  1.00  0.00    -0.354 N 
HETATM   12  C15 UNL     1      21.895  27.433  62.737  1.00  0.00     0.324 C 
ATOM     13  H9  UNL     1      21.728  29.581  63.266  1.00  0.00     0.163 HD
HETATM   14  N4  UNL     1      22.049  26.449  63.801  1.00  0.00    -0.221 N 
HETATM   15  N8  UNL     1      20.571  27.338  62.184  1.00  0.00    -0.079 NA
HETATM   16  N5  UNL     1      21.357  25.248  63.649  1.00  0.00    -0.001 NA
HETATM   17  N6  UNL     1      21.128  25.079  62.279  1.00  0.00     0.004 NA
HETATM   18  N7  UNL     1      20.356  26.063  61.713  1.00  0.00    -0.229 N 
ATOM     19  H7  UNL     1      19.666  25.862  60.989  1.00  0.00     0.201 HD
ENDBRANCH   1   8
BRANCH   5  20
HETATM   20  C7  UNL     1      24.891  25.090  69.834  1.00  0.00     0.099 C 
HETATM   21  N3  UNL     1      23.874  24.935  70.624  1.00  0.00    -0.371 N 
HETATM   22  C8  UNL     1      24.160  24.432  71.953  1.00  0.00     0.112 C 
ATOM     23  H3  UNL     1      22.924  25.154  70.325  1.00  0.00     0.161 HD
HETATM   24  C9  UNL     1      23.133  23.399  72.437  1.00  0.00     0.030 C 
HETATM   25  C11 UNL     1      25.158  23.298  71.894  1.00  0.00     0.144 C 
HETATM   26  C10 UNL     1      23.965  22.360  71.673  1.00  0.00     0.036 C 
HETATM   27  O1  UNL     1      26.041  23.371  70.850  1.00  0.00    -0.376 OA
HETATM   28  C12 UNL     1      26.216  24.715  70.446  1.00  0.00     0.244 C 
ENDBRANCH   5  20
TORSDOF 2
ENDMDL
MODEL 4
REMARK VINA RESULT: -7.555108460      4.633      6.781
REMARK  2 active torsions:
REMARK  status: ('A' for Active; 'I' for Inactive)
REMARK    1  A    between atoms: C3_3  and  N1_4 
REMARK    2  A    between atoms: N2_8  and  C7_9 
ROOT
HETATM    1  N1  UNL     1      25.155  23.526  71.979  1.00  0.00    -0.363 N 
HETATM    2  C4  UNL     1      23.749  23.202  72.082  1.00  0.00     0.126 C 
HETATM    3  C5  UNL     1      22.930  24.406  71.778  1.00  0.00     0.040 C 
HETATM    4  C6  UNL     1      22.774  24.596  70.264  1.00  0.00     0.126 C 
HETATM    5  N2  UNL     1      23.940  25.226  69.709  1.00  0.00    -0.368 N 
HETATM    6  C13 UNL     1      25.238  25.354  70.310  1.00  0.00     0.144 C 
HETATM    7  C14 UNL     1      25.805  24.061  70.790  1.00  0.00     0.144 C 
ENDROOT
BRANCH   1   8
HETATM    8  C3  UNL     1      25.981  23.295  73.117  1.00  0.00     0.144 C 
HETATM    9  C2  UNL     1      26.928  22.418  73.341  1.00  0.00     0.049 C 
HETATM   10  C1  UNL     1      27.361  21.388  72.336  1.00  0.00     0.072 C 
HETATM   11  N9  UNL     1      27.478  22.581  74.663  1.00  0.00    -0.354 N 
HETATM   12  C15 UNL     1      27.098  23.913  75.081  1.00  0.00     0.324 C 
ATOM     13  H9  UNL     1      28.022  21.899  75.194  1.00  0.00     0.163 HD
HETATM   14  N4  UNL     1      25.875  24.091  74.309  1.00  0.00    -0.221 N 
HETATM   15  N8  UNL     1      26.795  23.989  76.484  1.00  0.00    -0.079 NA
HETATM   16  N5  UNL     1      24.912  24.943  74.849  1.00  0.00    -0.001 NA
HETATM   17  N6  UNL     1      25.579  25.818  75.713  1.00  0.00     0.004 NA
HETATM   18  N7  UNL     1      26.205  25.199  76.766  1.00  0.00    -0.229 N 
ATOM     19  H7  UNL     1      26.232  25.611  77.700  1.00  0.00     0.201 HD
ENDBRANCH   1   8
BRANCH   5  20
HETATM   20  C7  UNL     1      23.795  25.779  68.431  1.00  0.00     0.099 C 
HETATM   21  N3  UNL     1      24.724  25.808  67.526  1.00  0.00    -0.371 N 
HETATM   22  C8  UNL     1      24.375  26.427  66.263  1.00  0.00     0.112 C 
ATOM     23  H3  UNL     1      25.650  25.416  67.695  1.00  0.00     0.161 HD
HETATM   24  C9  UNL     1      24.926  25.665  65.049  1.00  0.00     0.030 C 
HETATM   25  C11 UNL     1      22.999  25.992  65.814  1.00  0.00     0.144 C 
HETATM   26  C10 UNL     1      23.677  24.780  65.163  1.00  0.00     0.036 C 
HETATM   27  O1  UNL     1      22.135  25.694  66.835  1.00  0.00    -0.376 OA
HETATM   28  C12 UNL     1      22.492  26.404  68.005  1.00  0.00     0.244 C 
ENDBRANCH   5  20
TORSDOF 2
ENDMDL
MODEL 5
REMARK VINA RESULT: -7.494521070      3.982      5.027
REMARK  2 active torsions:
REMARK  status: ('A' for Active; 'I' for Inactive)
REMARK    1  A    between atoms: C3_3  and  N1_4 
REMARK    2  A    between atoms: N2_8  and  C7_9 
ROOT
HETATM    1  N1  UNL     1      27.890  23.694  72.136  1.00  0.00    -0.363 N 
HETATM    2  C4  UNL     1      29.078  23.335  71.392  1.00  0.00     0.126 C 
HETATM    3  C5  UNL     1      28.695  22.731  70.089  1.00  0.00     0.040 C 
HETATM    4  C6  UNL     1      28.376  23.816  69.053  1.00  0.00     0.126 C 
HETATM    5  N2  UNL     1      27.040  24.314  69.235  1.00  0.00    -0.368 N 
HETATM    6  C13 UNL     1      26.199  24.165  70.388  1.00  0.00     0.144 C 
HETATM    7  C14 UNL     1      26.846  24.593  71.661  1.00  0.00     0.144 C 
ENDROOT
BRANCH   1   8
HETATM    8  C3  UNL     1      27.722  23.142  73.438  1.00  0.00     0.144 C 
HETATM    9  C2  UNL     1      28.452  23.233  74.522  1.00  0.00     0.049 C 
HETATM   10  C1  UNL     1      29.732  24.017  74.598  1.00  0.00     0.072 C 
HETATM   11  N9  UNL     1      27.863  22.485  75.605  1.00  0.00    -0.354 N 
HETATM   12  C15 UNL     1      26.480  22.283  75.229  1.00  0.00     0.324 C 
ATOM     13  H9  UNL     1      28.324  22.166  76.457  1.00  0.00     0.163 HD
HETATM   14  N4  UNL     1      26.595  22.317  73.777  1.00  0.00    -0.221 N 
HETATM   15  N8  UNL     1      25.975  21.002  75.641  1.00  0.00    -0.079 NA
HETATM   16  N5  UNL     1      25.648  21.589  73.057  1.00  0.00    -0.001 NA
HETATM   17  N6  UNL     1      24.524  21.456  73.878  1.00  0.00     0.004 NA
HETATM   18  N7  UNL     1      24.758  20.770  75.044  1.00  0.00    -0.229 N 
ATOM     19  H7  UNL     1      24.072  20.128  75.443  1.00  0.00     0.201 HD
ENDBRANCH   1   8
BRANCH   5  20
HETATM   20  C7  UNL     1      26.496  25.031  68.162  1.00  0.00     0.099 C 
HETATM   21  N3  UNL     1      27.109  25.273  67.046  1.00  0.00    -0.371 N 
HETATM   22  C8  UNL     1      26.371  26.034  66.057  1.00  0.00     0.112 C 
ATOM     23  H3  UNL     1      28.059  24.945  66.873  1.00  0.00     0.161 HD
HETATM   24  C9  UNL     1      26.565  25.508  64.628  1.00  0.00     0.030 C 
HETATM   25  C11 UNL     1      24.943  25.546  65.960  1.00  0.00     0.144 C 
HETATM   26  C10 UNL     1      25.447  24.507  64.951  1.00  0.00     0.036 C 
HETATM   27  O1  UNL     1      24.439  25.029  67.124  1.00  0.00    -0.376 OA
HETATM   28  C12 UNL     1      25.099  25.592  68.240  1.00  0.00     0.244 C 
ENDBRANCH   5  20
TORSDOF 2
ENDMDL
