MODEL 1
REMARK VINA RESULT: -7.322905553      0.000      0.000
REMARK  6 active torsions:
REMARK  status: ('A' for Active; 'I' for Inactive)
REMARK    1  A    between atoms: C3_5  and  N2_6 
REMARK    2  A    between atoms: N2_6  and  C4_8 
REMARK    3  A    between atoms: C5_10  and  S2_11 
REMARK    4  A    between atoms: S2_11  and  N3_12 
REMARK    5  A    between atoms: S2_11  and  N4_16 
REMARK    6  A    between atoms: N4_16  and  N5_18 
REMARK       I    between atoms: N7_23  and  C6_24 
ROOT
HETATM    1  C4  UNL     1      25.853  25.527  67.751  1.00  0.00     0.192 A 
HETATM    2  S1  UNL     1      24.387  26.170  67.147  1.00  0.00    -0.020 SA
HETATM    3  C5  UNL     1      24.574  25.693  65.520  1.00  0.00     0.189 A 
HETATM    4  N6  UNL     1      25.737  25.081  65.562  1.00  0.00    -0.272 N 
ATOM      5  H6  UNL     1      26.123  24.675  64.709  1.00  0.00     0.189 HD
HETATM    6  N7  UNL     1      26.390  24.986  66.657  1.00  0.00    -0.183 N 
HETATM    7  C6  UNL     1      27.673  24.307  66.687  1.00  0.00     0.356 C 
HETATM    8  N8  UNL     1      28.354  24.229  67.916  1.00  0.00    -0.038 NA
HETATM    9  O2  UNL     1      28.177  23.798  65.651  1.00  0.00    -0.249 OA
ENDROOT
BRANCH   1  10
HETATM   10  N2  UNL     1      26.341  25.551  68.975  1.00  0.00    -0.168 N 
ATOM     11  H2  UNL     1      27.246  25.989  69.144  1.00  0.00     0.186 HD
BRANCH  10  12
HETATM   12  C3  UNL     1      25.636  24.980  70.054  1.00  0.00     0.681 A 
HETATM   13  N1  UNL     1      24.270  24.978  70.379  1.00  0.00    -0.197 N 
HETATM   14  C2  UNL     1      24.032  24.333  71.469  1.00  0.00     0.028 A 
ATOM     15  H1  UNL     1      23.550  25.433  69.818  1.00  0.00     0.183 HD
HETATM   16  C1  UNL     1      22.711  24.104  72.148  1.00  0.00     0.066 C 
HETATM   17  C7  UNL     1      25.330  23.834  71.962  1.00  0.00     0.079 A 
HETATM   18  N9  UNL     1      26.259  24.306  70.986  1.00  0.00    -0.212 N 
HETATM   19  C8  UNL     1      25.351  22.325  72.090  1.00  0.00     0.045 C 
HETATM   20  C9  UNL     1      25.708  24.460  73.303  1.00  0.00     0.045 C 
ATOM     21  H9  UNL     1      27.266  24.142  71.013  1.00  0.00     0.179 HD
ENDBRANCH  10  12
ENDBRANCH   1  10
BRANCH   3  22
HETATM   22  S2  UNL     1      23.528  25.923  64.107  1.00  0.00     0.174 S 
HETATM   23  O1  UNL     1      24.024  27.095  63.352  1.00  0.00    -0.220 OA
BRANCH  22  24
HETATM   24  N3  UNL     1      23.395  24.496  63.182  1.00  0.00    -0.338 N 
ATOM     25  H32 UNL     1      22.537  23.950  63.114  1.00  0.00     0.167 HD
ATOM     26  H31 UNL     1      24.273  24.267  62.715  1.00  0.00     0.167 HD
ENDBRANCH  22  24
BRANCH  22  27
HETATM   27  N4  UNL     1      22.109  26.310  64.699  1.00  0.00    -0.245 N 
ATOM     28  H4  UNL     1      21.430  25.604  64.983  1.00  0.00     0.198 HD
BRANCH  27  29
HETATM   29  N5  UNL     1      21.845  27.678  64.810  1.00  0.00    -0.337 N 
ATOM     30  H52 UNL     1      22.507  28.372  64.462  1.00  0.00     0.177 HD
ATOM     31  H51 UNL     1      20.963  27.928  65.255  1.00  0.00     0.177 HD
ENDBRANCH  27  29
ENDBRANCH  22  27
ENDBRANCH   3  22
TORSDOF 6
ENDMDL
MODEL 2
REMARK VINA RESULT: -7.172297524      1.869      2.252
REMARK  6 active torsions:
REMARK  status: ('A' for Active; 'I' for Inactive)
REMARK    1  A    between atoms: C3_5  and  N2_6 
REMARK    2  A    between atoms: N2_6  and  C4_8 
REMARK    3  A    between atoms: C5_10  and  S2_11 
REMARK    4  A    between atoms: S2_11  and  N3_12 
REMARK    5  A    between atoms: S2_11  and  N4_16 
REMARK    6  A    between atoms: N4_16  and  N5_18 
REMARK       I    between atoms: N7_23  and  C6_24 
ROOT
HETATM    1  C4  UNL     1      26.091  25.054  69.198  1.00  0.00     0.192 A 
HETATM    2  S1  UNL     1      24.518  25.726  69.194  1.00  0.00    -0.020 SA
HETATM    3  C5  UNL     1      24.323  25.860  67.505  1.00  0.00     0.189 A 
HETATM    4  N6  UNL     1      25.470  25.383  67.074  1.00  0.00    -0.272 N 
ATOM      5  H6  UNL     1      25.650  25.336  66.070  1.00  0.00     0.189 HD
HETATM    6  N7  UNL     1      26.362  24.978  67.894  1.00  0.00    -0.183 N 
HETATM    7  C6  UNL     1      27.625  24.454  67.402  1.00  0.00     0.356 C 
HETATM    8  N8  UNL     1      28.575  24.020  68.345  1.00  0.00    -0.038 NA
HETATM    9  O2  UNL     1      27.877  24.383  66.171  1.00  0.00    -0.249 OA
ENDROOT
BRANCH   1  10
HETATM   10  N2  UNL     1      26.852  24.699  70.213  1.00  0.00    -0.168 N 
ATOM     11  H2  UNL     1      27.860  24.847  70.159  1.00  0.00     0.186 HD
BRANCH  10  12
HETATM   12  C3  UNL     1      26.299  24.120  71.373  1.00  0.00     0.681 A 
HETATM   13  N1  UNL     1      25.470  23.001  71.553  1.00  0.00    -0.197 N 
HETATM   14  C2  UNL     1      25.183  22.804  72.794  1.00  0.00     0.028 A 
ATOM     15  H1  UNL     1      25.134  22.413  70.790  1.00  0.00     0.183 HD
HETATM   16  C1  UNL     1      24.331  21.721  73.393  1.00  0.00     0.066 C 
HETATM   17  C7  UNL     1      25.861  23.865  73.561  1.00  0.00     0.079 A 
HETATM   18  N9  UNL     1      26.529  24.628  72.557  1.00  0.00    -0.212 N 
HETATM   19  C8  UNL     1      26.823  23.302  74.588  1.00  0.00     0.045 C 
HETATM   20  C9  UNL     1      24.863  24.789  74.258  1.00  0.00     0.045 C 
ATOM     21  H9  UNL     1      27.104  25.451  72.736  1.00  0.00     0.179 HD
ENDBRANCH  10  12
ENDBRANCH   1  10
BRANCH   3  22
HETATM   22  S2  UNL     1      22.973  26.466  66.528  1.00  0.00     0.174 S 
HETATM   23  O1  UNL     1      21.835  26.740  67.434  1.00  0.00    -0.220 OA
BRANCH  22  24
HETATM   24  N3  UNL     1      23.438  27.793  65.563  1.00  0.00    -0.338 N 
ATOM     25  H32 UNL     1      23.514  28.746  65.919  1.00  0.00     0.167 HD
ATOM     26  H31 UNL     1      23.627  27.512  64.601  1.00  0.00     0.167 HD
ENDBRANCH  22  24
BRANCH  22  27
HETATM   27  N4  UNL     1      22.553  25.250  65.601  1.00  0.00    -0.245 N 
ATOM     28  H4  UNL     1      22.729  24.281  65.867  1.00  0.00     0.198 HD
BRANCH  27  29
HETATM   29  N5  UNL     1      21.928  25.587  64.397  1.00  0.00    -0.337 N 
ATOM     30  H52 UNL     1      21.852  26.559  64.097  1.00  0.00     0.177 HD
ATOM     31  H51 UNL     1      21.561  24.807  63.852  1.00  0.00     0.177 HD
ENDBRANCH  27  29
ENDBRANCH  22  27
ENDBRANCH   3  22
TORSDOF 6
ENDMDL
MODEL 3
REMARK VINA RESULT: -7.155343128      1.745      2.256
REMARK  6 active torsions:
REMARK  status: ('A' for Active; 'I' for Inactive)
REMARK    1  A    between atoms: C3_5  and  N2_6 
REMARK    2  A    between atoms: N2_6  and  C4_8 
REMARK    3  A    between atoms: C5_10  and  S2_11 
REMARK    4  A    between atoms: S2_11  and  N3_12 
REMARK    5  A    between atoms: S2_11  and  N4_16 
REMARK    6  A    between atoms: N4_16  and  N5_18 
REMARK       I    between atoms: N7_23  and  C6_24 
ROOT
HETATM    1  C4  UNL     1      26.006  25.047  69.139  1.00  0.00     0.192 A 
HETATM    2  S1  UNL     1      24.438  25.730  69.091  1.00  0.00    -0.020 SA
HETATM    3  C5  UNL     1      24.307  25.898  67.399  1.00  0.00     0.189 A 
HETATM    4  N6  UNL     1      25.466  25.421  67.001  1.00  0.00    -0.272 N 
ATOM      5  H6  UNL     1      25.682  25.392  66.004  1.00  0.00     0.189 HD
HETATM    6  N7  UNL     1      26.324  24.994  67.845  1.00  0.00    -0.183 N 
HETATM    7  C6  UNL     1      27.601  24.471  67.390  1.00  0.00     0.356 C 
HETATM    8  N8  UNL     1      28.513  24.012  68.358  1.00  0.00    -0.038 NA
HETATM    9  O2  UNL     1      27.898  24.422  66.168  1.00  0.00    -0.249 OA
ENDROOT
BRANCH   1  10
HETATM   10  N2  UNL     1      26.727  24.667  70.175  1.00  0.00    -0.168 N 
ATOM     11  H2  UNL     1      27.743  24.647  70.097  1.00  0.00     0.186 HD
BRANCH  10  12
HETATM   12  C3  UNL     1      26.118  24.288  71.388  1.00  0.00     0.681 A 
HETATM   13  N1  UNL     1      26.061  24.919  72.641  1.00  0.00    -0.197 N 
HETATM   14  C2  UNL     1      25.395  24.228  73.502  1.00  0.00     0.028 A 
ATOM     15  H1  UNL     1      26.495  25.819  72.846  1.00  0.00     0.183 HD
HETATM   16  C1  UNL     1      25.109  24.557  74.940  1.00  0.00     0.066 C 
HETATM   17  C7  UNL     1      24.941  23.008  72.810  1.00  0.00     0.079 A 
HETATM   18  N9  UNL     1      25.458  23.162  71.489  1.00  0.00    -0.212 N 
HETATM   19  C8  UNL     1      23.432  22.872  72.823  1.00  0.00     0.045 C 
HETATM   20  C9  UNL     1      25.566  21.748  73.409  1.00  0.00     0.045 C 
ATOM     21  H9  UNL     1      25.331  22.491  70.731  1.00  0.00     0.179 HD
ENDBRANCH  10  12
ENDBRANCH   1  10
BRANCH   3  22
HETATM   22  S2  UNL     1      22.997  26.532  66.385  1.00  0.00     0.174 S 
HETATM   23  O1  UNL     1      21.837  26.820  67.258  1.00  0.00    -0.220 OA
BRANCH  22  24
HETATM   24  N3  UNL     1      23.514  27.857  65.443  1.00  0.00    -0.338 N 
ATOM     25  H32 UNL     1      24.306  28.448  65.694  1.00  0.00     0.167 HD
ATOM     26  H31 UNL     1      22.935  27.978  64.612  1.00  0.00     0.167 HD
ENDBRANCH  22  24
BRANCH  22  27
HETATM   27  N4  UNL     1      22.586  25.330  65.438  1.00  0.00    -0.245 N 
ATOM     28  H4  UNL     1      22.834  24.363  65.652  1.00  0.00     0.198 HD
BRANCH  27  29
HETATM   29  N5  UNL     1      21.865  25.673  64.291  1.00  0.00    -0.337 N 
ATOM     30  H52 UNL     1      21.847  26.633  63.948  1.00  0.00     0.177 HD
ATOM     31  H51 UNL     1      21.366  24.911  63.832  1.00  0.00     0.177 HD
ENDBRANCH  27  29
ENDBRANCH  22  27
ENDBRANCH   3  22
TORSDOF 6
ENDMDL
MODEL 4
REMARK VINA RESULT: -7.087681891      2.243      2.838
REMARK  6 active torsions:
REMARK  status: ('A' for Active; 'I' for Inactive)
REMARK    1  A    between atoms: C3_5  and  N2_6 
REMARK    2  A    between atoms: N2_6  and  C4_8 
REMARK    3  A    between atoms: C5_10  and  S2_11 
REMARK    4  A    between atoms: S2_11  and  N3_12 
REMARK    5  A    between atoms: S2_11  and  N4_16 
REMARK    6  A    between atoms: N4_16  and  N5_18 
REMARK       I    between atoms: N7_23  and  C6_24 
ROOT
HETATM    1  C4  UNL     1      25.980  24.995  69.487  1.00  0.00     0.192 A 
HETATM    2  S1  UNL     1      24.347  25.454  69.711  1.00  0.00    -0.020 SA
HETATM    3  C5  UNL     1      23.942  25.692  68.071  1.00  0.00     0.189 A 
HETATM    4  N6  UNL     1      25.081  25.402  67.479  1.00  0.00    -0.272 N 
ATOM      5  H6  UNL     1      25.147  25.456  66.462  1.00  0.00     0.189 HD
HETATM    6  N7  UNL     1      26.104  25.054  68.160  1.00  0.00    -0.183 N 
HETATM    7  C6  UNL     1      27.355  24.738  67.492  1.00  0.00     0.356 C 
HETATM    8  N8  UNL     1      28.454  24.360  68.285  1.00  0.00    -0.038 NA
HETATM    9  O2  UNL     1      27.468  24.796  66.240  1.00  0.00    -0.249 OA
ENDROOT
BRANCH   1  10
HETATM   10  N2  UNL     1      26.891  24.664  70.379  1.00  0.00    -0.168 N 
ATOM     11  H2  UNL     1      27.874  24.846  70.181  1.00  0.00     0.186 HD
BRANCH  10  12
HETATM   12  C3  UNL     1      26.531  24.064  71.603  1.00  0.00     0.681 A 
HETATM   13  N1  UNL     1      25.975  22.810  71.900  1.00  0.00    -0.197 N 
HETATM   14  C2  UNL     1      25.795  22.646  73.165  1.00  0.00     0.028 A 
ATOM     15  H1  UNL     1      25.741  22.110  71.195  1.00  0.00     0.183 HD
HETATM   16  C1  UNL     1      25.227  21.451  73.879  1.00  0.00     0.066 C 
HETATM   17  C7  UNL     1      26.259  23.880  73.825  1.00  0.00     0.079 A 
HETATM   18  N9  UNL     1      26.699  24.694  72.738  1.00  0.00    -0.212 N 
HETATM   19  C8  UNL     1      27.367  23.611  74.824  1.00  0.00     0.045 C 
HETATM   20  C9  UNL     1      25.117  24.616  74.524  1.00  0.00     0.045 C 
ATOM     21  H9  UNL     1      27.088  25.632  72.832  1.00  0.00     0.179 HD
ENDBRANCH  10  12
ENDBRANCH   1  10
BRANCH   3  22
HETATM   22  S2  UNL     1      22.424  26.190  67.302  1.00  0.00     0.174 S 
HETATM   23  O1  UNL     1      21.598  26.880  68.317  1.00  0.00    -0.220 OA
BRANCH  22  24
HETATM   24  N3  UNL     1      22.704  27.101  65.887  1.00  0.00    -0.338 N 
ATOM     25  H32 UNL     1      23.562  27.037  65.340  1.00  0.00     0.167 HD
ATOM     26  H31 UNL     1      21.913  27.707  65.666  1.00  0.00     0.167 HD
ENDBRANCH  22  24
BRANCH  22  27
HETATM   27  N4  UNL     1      21.684  24.839  66.931  1.00  0.00    -0.245 N 
ATOM     28  H4  UNL     1      21.877  24.336  66.064  1.00  0.00     0.198 HD
BRANCH  27  29
HETATM   29  N5  UNL     1      20.751  24.376  67.863  1.00  0.00    -0.337 N 
ATOM     30  H52 UNL     1      20.482  24.945  68.666  1.00  0.00     0.177 HD
ATOM     31  H51 UNL     1      20.365  23.449  67.687  1.00  0.00     0.177 HD
ENDBRANCH  27  29
ENDBRANCH  22  27
ENDBRANCH   3  22
TORSDOF 6
ENDMDL
MODEL 5
REMARK VINA RESULT: -7.087539323      1.646      1.952
REMARK  6 active torsions:
REMARK  status: ('A' for Active; 'I' for Inactive)
REMARK    1  A    between atoms: C3_5  and  N2_6 
REMARK    2  A    between atoms: N2_6  and  C4_8 
REMARK    3  A    between atoms: C5_10  and  S2_11 
REMARK    4  A    between atoms: S2_11  and  N3_12 
REMARK    5  A    between atoms: S2_11  and  N4_16 
REMARK    6  A    between atoms: N4_16  and  N5_18 
REMARK       I    between atoms: N7_23  and  C6_24 
ROOT
HETATM    1  C4  UNL     1      26.791  24.898  68.429  1.00  0.00     0.192 A 
HETATM    2  S1  UNL     1      25.656  25.480  67.288  1.00  0.00    -0.020 SA
HETATM    3  C5  UNL     1      26.358  24.800  65.891  1.00  0.00     0.189 A 
HETATM    4  N6  UNL     1      27.402  24.182  66.400  1.00  0.00    -0.272 N 
ATOM      5  H6  UNL     1      28.032  23.667  65.784  1.00  0.00     0.189 HD
HETATM    6  N7  UNL     1      27.637  24.216  67.655  1.00  0.00    -0.183 N 
HETATM    7  C6  UNL     1      28.793  23.529  68.202  1.00  0.00     0.356 C 
HETATM    8  N8  UNL     1      29.010  23.597  69.591  1.00  0.00    -0.038 NA
HETATM    9  O2  UNL     1      29.590  22.887  67.469  1.00  0.00    -0.249 OA
ENDROOT
BRANCH   1  10
HETATM   10  N2  UNL     1      26.834  25.068  69.735  1.00  0.00    -0.168 N 
ATOM     11  H2  UNL     1      27.597  25.607  70.144  1.00  0.00     0.186 HD
BRANCH  10  12
HETATM   12  C3  UNL     1      25.846  24.518  70.576  1.00  0.00     0.681 A 
HETATM   13  N1  UNL     1      24.491  24.835  70.757  1.00  0.00    -0.197 N 
HETATM   14  C2  UNL     1      23.929  24.081  71.638  1.00  0.00     0.028 A 
ATOM     15  H1  UNL     1      24.007  25.577  70.249  1.00  0.00     0.183 HD
HETATM   16  C1  UNL     1      22.502  24.104  72.110  1.00  0.00     0.066 C 
HETATM   17  C7  UNL     1      24.963  23.150  72.125  1.00  0.00     0.079 A 
HETATM   18  N9  UNL     1      26.124  23.525  71.383  1.00  0.00    -0.212 N 
HETATM   19  C8  UNL     1      24.581  21.702  71.899  1.00  0.00     0.045 C 
HETATM   20  C9  UNL     1      25.271  23.367  73.606  1.00  0.00     0.045 C 
ATOM     21  H9  UNL     1      27.039  23.082  71.469  1.00  0.00     0.179 HD
ENDBRANCH  10  12
ENDBRANCH   1  10
BRANCH   3  22
HETATM   22  S2  UNL     1      25.870  24.865  64.187  1.00  0.00     0.174 S 
HETATM   23  O1  UNL     1      25.548  26.270  63.854  1.00  0.00    -0.220 OA
BRANCH  22  24
HETATM   24  N3  UNL     1      27.038  24.151  63.169  1.00  0.00    -0.338 N 
ATOM     25  H32 UNL     1      26.934  23.223  62.762  1.00  0.00     0.167 HD
ATOM     26  H31 UNL     1      27.839  24.767  63.025  1.00  0.00     0.167 HD
ENDBRANCH  22  24
BRANCH  22  27
HETATM   27  N4  UNL     1      24.518  24.041  64.111  1.00  0.00    -0.245 N 
ATOM     28  H4  UNL     1      24.405  23.142  64.580  1.00  0.00     0.198 HD
BRANCH  27  29
HETATM   29  N5  UNL     1      23.490  24.621  63.363  1.00  0.00    -0.337 N 
ATOM     30  H52 UNL     1      23.492  25.618  63.149  1.00  0.00     0.177 HD
ATOM     31  H51 UNL     1      22.752  23.989  63.053  1.00  0.00     0.177 HD
ENDBRANCH  27  29
ENDBRANCH  22  27
ENDBRANCH   3  22
TORSDOF 6
ENDMDL
