MODEL 1
REMARK VINA RESULT: -6.861798724      0.000      0.000
REMARK  15 active torsions:
REMARK  status: ('A' for Active; 'I' for Inactive)
REMARK    1  A    between atoms: C3_3  and  O1_4 
REMARK    2  A    between atoms: C5_7  and  O2_8 
REMARK    3  A    between atoms: C7_11  and  C8_12 
REMARK    4  A    between atoms: C8_12  and  C9_13 
REMARK    5  A    between atoms: C10_14  and  C11_15 
REMARK    6  A    between atoms: C10_14  and  N3_38 
REMARK    7  A    between atoms: C11_15  and  C12_16 
REMARK    8  A    between atoms: C12_16  and  C13_17 
REMARK    9  A    between atoms: C13_17  and  C14_18 
REMARK   10  A    between atoms: C14_18  and  C15_19 
REMARK   11  A    between atoms: C15_19  and  C16_20 
REMARK   12  A    between atoms: C16_20  and  C17_21 
REMARK   13  A    between atoms: C17_21  and  C18_22 
REMARK   14  A    between atoms: C18_22  and  C19_23 
REMARK   15  A    between atoms: C19_23  and  C20_24 
ROOT
HETATM    1  C13 UNL     1      12.276  40.930  22.268  1.00  0.00    -0.009 C 
ENDROOT
BRANCH   1   2
HETATM    2  C12 UNL     1      13.276  41.501  21.850  1.00  0.00    -0.062 C 
BRANCH   2   3
HETATM    3  C11 UNL     1      14.459  42.100  21.343  1.00  0.00     0.094 C 
BRANCH   3   4
HETATM    4  C10 UNL     1      14.390  43.363  20.665  1.00  0.00     0.032 C 
HETATM    5  C9  UNL     1      13.476  44.050  20.153  1.00  0.00     0.004 C 
BRANCH   5   6
HETATM    6  C8  UNL     1      12.049  43.878  20.009  1.00  0.00     0.038 C 
BRANCH   6   7
HETATM    7  C7  UNL     1      11.850  42.907  18.824  1.00  0.00     0.022 C 
HETATM    8  C2  UNL     1      10.505  42.329  18.798  1.00  0.00    -0.056 C 
HETATM    9  C1  UNL     1      10.221  41.080  19.165  1.00  0.00     0.017 C 
HETATM   10  C3  UNL     1       9.381  43.180  18.328  1.00  0.00     0.149 C 
HETATM   11  C4  UNL     1       9.842  44.292  17.444  1.00  0.00     0.068 C 
HETATM   12  C5  UNL     1      11.103  43.998  16.690  1.00  0.00     0.121 C 
HETATM   13  C6  UNL     1      12.253  43.586  17.559  1.00  0.00     0.041 C 
BRANCH  10  14
HETATM   14  O1  UNL     1       8.764  43.732  19.447  1.00  0.00    -0.391 OA
ATOM     15  H1  UNL     1       8.362  44.551  19.185  1.00  0.00     0.210 HD
ENDBRANCH  10  14
BRANCH  12  16
HETATM   16  O2  UNL     1      11.459  45.143  15.979  1.00  0.00    -0.395 OA
ATOM     17  H2  UNL     1      12.050  45.654  16.520  1.00  0.00     0.210 HD
ENDBRANCH  12  16
ENDBRANCH   6   7
ENDBRANCH   5   6
BRANCH   4  18
HETATM   18  N3  UNL     1      15.747  44.014  20.545  1.00  0.00    -0.394 N 
HETATM   19  C30 UNL     1      16.856  43.536  21.273  1.00  0.00     0.146 C 
ATOM     20  H3  UNL     1      15.864  44.816  19.925  1.00  0.00     0.159 HD
ENDBRANCH   4  18
ENDBRANCH   3   4
ENDBRANCH   2   3
ENDBRANCH   1   2
BRANCH   1  21
HETATM   21  C14 UNL     1      11.134  40.248  22.751  1.00  0.00    -0.001 C 
BRANCH  21  22
HETATM   22  C15 UNL     1      10.166  39.647  23.160  1.00  0.00    -0.001 C 
BRANCH  22  23
HETATM   23  C16 UNL     1       9.047  38.929  23.655  1.00  0.00    -0.009 C 
BRANCH  23  24
HETATM   24  C17 UNL     1       8.107  38.303  24.087  1.00  0.00    -0.065 C 
BRANCH  24  25
HETATM   25  C18 UNL     1       6.989  37.580  24.616  1.00  0.00     0.062 C 
BRANCH  25  26
HETATM   26  C19 UNL     1       6.984  37.008  25.806  1.00  0.00    -0.007 C 
BRANCH  26  27
HETATM   27  C20 UNL     1       7.787  37.514  26.921  1.00  0.00     0.059 C 
HETATM   28  C21 UNL     1       6.982  38.389  27.814  1.00  0.00     0.015 C 
HETATM   29  C22 UNL     1       6.544  37.719  29.091  1.00  0.00     0.006 C 
HETATM   30  C23 UNL     1       7.737  37.193  29.853  1.00  0.00     0.043 C 
HETATM   31  C24 UNL     1       8.391  36.173  28.983  1.00  0.00    -0.006 A 
HETATM   32  C25 UNL     1       8.399  36.349  27.625  1.00  0.00     0.026 A 
HETATM   33  C29 UNL     1       9.050  34.988  29.242  1.00  0.00     0.067 A 
HETATM   34  N1  UNL     1       9.039  35.308  27.086  1.00  0.00    -0.357 N 
HETATM   35  C26 UNL     1       9.436  34.482  28.041  1.00  0.00     0.061 A 
ATOM     36  H1  UNL     1       9.198  35.170  26.087  1.00  0.00     0.166 HD
HETATM   37  C27 UNL     1      10.097  33.291  28.309  1.00  0.00     0.049 A 
HETATM   38  C28 UNL     1      10.085  33.122  29.672  1.00  0.00     0.090 A 
HETATM   39  N2  UNL     1       9.434  34.183  30.225  1.00  0.00    -0.364 N 
ATOM     40  H2  UNL     1       9.270  34.332  31.221  1.00  0.00     0.165 HD
ENDBRANCH  26  27
ENDBRANCH  25  26
ENDBRANCH  24  25
ENDBRANCH  23  24
ENDBRANCH  22  23
ENDBRANCH  21  22
ENDBRANCH   1  21
TORSDOF 15
ENDMDL
MODEL 2
REMARK VINA RESULT: -6.750408731      2.046      3.680
REMARK  15 active torsions:
REMARK  status: ('A' for Active; 'I' for Inactive)
REMARK    1  A    between atoms: C3_3  and  O1_4 
REMARK    2  A    between atoms: C5_7  and  O2_8 
REMARK    3  A    between atoms: C7_11  and  C8_12 
REMARK    4  A    between atoms: C8_12  and  C9_13 
REMARK    5  A    between atoms: C10_14  and  C11_15 
REMARK    6  A    between atoms: C10_14  and  N3_38 
REMARK    7  A    between atoms: C11_15  and  C12_16 
REMARK    8  A    between atoms: C12_16  and  C13_17 
REMARK    9  A    between atoms: C13_17  and  C14_18 
REMARK   10  A    between atoms: C14_18  and  C15_19 
REMARK   11  A    between atoms: C15_19  and  C16_20 
REMARK   12  A    between atoms: C16_20  and  C17_21 
REMARK   13  A    between atoms: C17_21  and  C18_22 
REMARK   14  A    between atoms: C18_22  and  C19_23 
REMARK   15  A    between atoms: C19_23  and  C20_24 
ROOT
HETATM    1  C13 UNL     1      10.066  42.101  21.147  1.00  0.00    -0.009 C 
ENDROOT
BRANCH   1   2
HETATM    2  C12 UNL     1      10.604  42.997  20.506  1.00  0.00    -0.062 C 
BRANCH   2   3
HETATM    3  C11 UNL     1      11.173  44.078  19.784  1.00  0.00     0.094 C 
BRANCH   3   4
HETATM    4  C10 UNL     1      12.596  44.252  19.755  1.00  0.00     0.032 C 
HETATM    5  C9  UNL     1      13.481  44.496  20.607  1.00  0.00     0.004 C 
BRANCH   5   6
HETATM    6  C8  UNL     1      13.468  44.718  22.035  1.00  0.00     0.038 C 
BRANCH   6   7
HETATM    7  C7  UNL     1      14.616  43.861  22.613  1.00  0.00     0.022 C 
HETATM    8  C2  UNL     1      14.232  43.177  23.850  1.00  0.00    -0.056 C 
HETATM    9  C1  UNL     1      14.627  43.553  25.065  1.00  0.00     0.017 C 
HETATM   10  C3  UNL     1      13.352  41.984  23.752  1.00  0.00     0.149 C 
HETATM   11  C4  UNL     1      13.430  41.329  22.412  1.00  0.00     0.068 C 
HETATM   12  C5  UNL     1      14.738  41.524  21.707  1.00  0.00     0.121 C 
HETATM   13  C6  UNL     1      15.141  42.958  21.549  1.00  0.00     0.041 C 
BRANCH  10  14
HETATM   14  O1  UNL     1      12.040  42.400  23.964  1.00  0.00    -0.391 OA
ATOM     15  H1  UNL     1      11.590  41.715  24.444  1.00  0.00     0.210 HD
ENDBRANCH  10  14
BRANCH  12  16
HETATM   16  O2  UNL     1      14.641  40.938  20.446  1.00  0.00    -0.395 OA
ATOM     17  H2  UNL     1      14.161  40.122  20.536  1.00  0.00     0.210 HD
ENDBRANCH  12  16
ENDBRANCH   6   7
ENDBRANCH   5   6
BRANCH   4  18
HETATM   18  N3  UNL     1      13.156  44.103  18.360  1.00  0.00    -0.394 N 
HETATM   19  C30 UNL     1      12.309  43.924  17.247  1.00  0.00     0.146 C 
ATOM     20  H3  UNL     1      14.166  44.132  18.220  1.00  0.00     0.159 HD
ENDBRANCH   4  18
ENDBRANCH   3   4
ENDBRANCH   2   3
ENDBRANCH   1   2
BRANCH   1  21
HETATM   21  C14 UNL     1       9.444  41.081  21.906  1.00  0.00    -0.001 C 
BRANCH  21  22
HETATM   22  C15 UNL     1       8.914  40.221  22.573  1.00  0.00    -0.001 C 
BRANCH  22  23
HETATM   23  C16 UNL     1       8.271  39.221  23.347  1.00  0.00    -0.009 C 
BRANCH  23  24
HETATM   24  C17 UNL     1       7.710  38.365  23.989  1.00  0.00    -0.065 C 
BRANCH  24  25
HETATM   25  C18 UNL     1       7.045  37.334  24.731  1.00  0.00     0.062 C 
BRANCH  25  26
HETATM   26  C19 UNL     1       7.648  36.567  25.619  1.00  0.00    -0.007 C 
BRANCH  26  27
HETATM   27  C20 UNL     1       8.298  37.112  26.813  1.00  0.00     0.059 C 
HETATM   28  C21 UNL     1       7.390  38.028  27.552  1.00  0.00     0.015 C 
HETATM   29  C22 UNL     1       6.772  37.414  28.783  1.00  0.00     0.006 C 
HETATM   30  C23 UNL     1       7.844  36.911  29.720  1.00  0.00     0.043 C 
HETATM   31  C24 UNL     1       8.598  35.852  28.989  1.00  0.00    -0.006 A 
HETATM   32  C25 UNL     1       8.793  35.972  27.639  1.00  0.00     0.026 A 
HETATM   33  C29 UNL     1       9.199  34.673  29.383  1.00  0.00     0.067 A 
HETATM   34  N1  UNL     1       9.488  34.905  27.235  1.00  0.00    -0.357 N 
HETATM   35  C26 UNL     1       9.739  34.116  28.267  1.00  0.00     0.061 A 
ATOM     36  H1  UNL     1       9.780  34.725  26.273  1.00  0.00     0.166 HD
HETATM   37  C27 UNL     1      10.343  32.932  28.669  1.00  0.00     0.049 A 
HETATM   38  C28 UNL     1      10.143  32.819  30.024  1.00  0.00     0.090 A 
HETATM   39  N2  UNL     1       9.435  33.906  30.440  1.00  0.00    -0.364 N 
ATOM     40  H2  UNL     1       9.138  34.096  31.397  1.00  0.00     0.165 HD
ENDBRANCH  26  27
ENDBRANCH  25  26
ENDBRANCH  24  25
ENDBRANCH  23  24
ENDBRANCH  22  23
ENDBRANCH  21  22
ENDBRANCH   1  21
TORSDOF 15
ENDMDL
MODEL 3
REMARK VINA RESULT: -6.704668378      1.167      1.959
REMARK  15 active torsions:
REMARK  status: ('A' for Active; 'I' for Inactive)
REMARK    1  A    between atoms: C3_3  and  O1_4 
REMARK    2  A    between atoms: C5_7  and  O2_8 
REMARK    3  A    between atoms: C7_11  and  C8_12 
REMARK    4  A    between atoms: C8_12  and  C9_13 
REMARK    5  A    between atoms: C10_14  and  C11_15 
REMARK    6  A    between atoms: C10_14  and  N3_38 
REMARK    7  A    between atoms: C11_15  and  C12_16 
REMARK    8  A    between atoms: C12_16  and  C13_17 
REMARK    9  A    between atoms: C13_17  and  C14_18 
REMARK   10  A    between atoms: C14_18  and  C15_19 
REMARK   11  A    between atoms: C15_19  and  C16_20 
REMARK   12  A    between atoms: C16_20  and  C17_21 
REMARK   13  A    between atoms: C17_21  and  C18_22 
REMARK   14  A    between atoms: C18_22  and  C19_23 
REMARK   15  A    between atoms: C19_23  and  C20_24 
ROOT
HETATM    1  C13 UNL     1      11.583  40.648  22.069  1.00  0.00    -0.009 C 
ENDROOT
BRANCH   1   2
HETATM    2  C12 UNL     1      12.499  41.284  21.560  1.00  0.00    -0.062 C 
BRANCH   2   3
HETATM    3  C11 UNL     1      13.521  42.023  20.910  1.00  0.00     0.094 C 
BRANCH   3   4
HETATM    4  C10 UNL     1      13.198  43.232  20.210  1.00  0.00     0.032 C 
HETATM    5  C9  UNL     1      12.429  43.539  19.270  1.00  0.00     0.004 C 
BRANCH   5   6
HETATM    6  C8  UNL     1      11.499  42.798  18.449  1.00  0.00     0.038 C 
BRANCH   6   7
HETATM    7  C7  UNL     1      10.106  42.999  19.089  1.00  0.00     0.022 C 
HETATM    8  C2  UNL     1       9.355  44.085  18.456  1.00  0.00    -0.056 C 
HETATM    9  C1  UNL     1       9.179  45.288  19.000  1.00  0.00     0.017 C 
HETATM   10  C3  UNL     1       8.741  43.835  17.126  1.00  0.00     0.149 C 
HETATM   11  C4  UNL     1       8.504  42.382  16.874  1.00  0.00     0.068 C 
HETATM   12  C5  UNL     1       8.290  41.568  18.114  1.00  0.00     0.121 C 
HETATM   13  C6  UNL     1       9.388  41.693  19.125  1.00  0.00     0.041 C 
BRANCH  10  14
HETATM   14  O1  UNL     1       9.613  44.316  16.154  1.00  0.00    -0.391 OA
ATOM     15  H1  UNL     1       9.326  43.980  15.312  1.00  0.00     0.210 HD
ENDBRANCH  10  14
BRANCH  12  16
HETATM   16  O2  UNL     1       8.168  40.232  17.738  1.00  0.00    -0.395 OA
ATOM     17  H2  UNL     1       9.039  39.892  17.571  1.00  0.00     0.210 HD
ENDBRANCH  12  16
ENDBRANCH   6   7
ENDBRANCH   5   6
BRANCH   4  18
HETATM   18  N3  UNL     1      13.975  44.416  20.737  1.00  0.00    -0.394 N 
HETATM   19  C30 UNL     1      15.260  44.257  21.295  1.00  0.00     0.146 C 
ATOM     20  H3  UNL     1      13.562  45.347  20.688  1.00  0.00     0.159 HD
ENDBRANCH   4  18
ENDBRANCH   3   4
ENDBRANCH   2   3
ENDBRANCH   1   2
BRANCH   1  21
HETATM   21  C14 UNL     1      10.513  39.917  22.637  1.00  0.00    -0.001 C 
BRANCH  21  22
HETATM   22  C15 UNL     1       9.608  39.273  23.119  1.00  0.00    -0.001 C 
BRANCH  22  23
HETATM   23  C16 UNL     1       8.536  38.539  23.689  1.00  0.00    -0.009 C 
BRANCH  23  24
HETATM   24  C17 UNL     1       7.631  37.917  24.194  1.00  0.00    -0.065 C 
BRANCH  24  25
HETATM   25  C18 UNL     1       6.565  37.187  24.815  1.00  0.00     0.062 C 
BRANCH  25  26
HETATM   26  C19 UNL     1       6.477  36.986  26.116  1.00  0.00    -0.007 C 
BRANCH  26  27
HETATM   27  C20 UNL     1       7.449  37.539  27.061  1.00  0.00     0.059 C 
HETATM   28  C21 UNL     1       6.797  38.454  28.035  1.00  0.00     0.015 C 
HETATM   29  C22 UNL     1       6.577  37.842  29.394  1.00  0.00     0.006 C 
HETATM   30  C23 UNL     1       7.881  37.348  29.973  1.00  0.00     0.043 C 
HETATM   31  C24 UNL     1       8.389  36.289  29.053  1.00  0.00    -0.006 A 
HETATM   32  C25 UNL     1       8.174  36.405  27.706  1.00  0.00     0.026 A 
HETATM   33  C29 UNL     1       9.087  35.115  29.253  1.00  0.00     0.067 A 
HETATM   34  N1  UNL     1       8.723  35.339  27.116  1.00  0.00    -0.357 N 
HETATM   35  C26 UNL     1       9.274  34.556  28.029  1.00  0.00     0.061 A 
ATOM     36  H1  UNL     1       8.717  35.157  26.112  1.00  0.00     0.166 HD
HETATM   37  C27 UNL     1       9.977  33.376  28.237  1.00  0.00     0.049 A 
HETATM   38  C28 UNL     1      10.189  33.267  29.590  1.00  0.00     0.090 A 
HETATM   39  N2  UNL     1       9.631  34.353  30.195  1.00  0.00    -0.364 N 
ATOM     40  H2  UNL     1       9.631  34.546  31.196  1.00  0.00     0.165 HD
ENDBRANCH  26  27
ENDBRANCH  25  26
ENDBRANCH  24  25
ENDBRANCH  23  24
ENDBRANCH  22  23
ENDBRANCH  21  22
ENDBRANCH   1  21
TORSDOF 15
ENDMDL
MODEL 4
REMARK VINA RESULT: -6.641379200      4.392     11.236
REMARK  15 active torsions:
REMARK  status: ('A' for Active; 'I' for Inactive)
REMARK    1  A    between atoms: C3_3  and  O1_4 
REMARK    2  A    between atoms: C5_7  and  O2_8 
REMARK    3  A    between atoms: C7_11  and  C8_12 
REMARK    4  A    between atoms: C8_12  and  C9_13 
REMARK    5  A    between atoms: C10_14  and  C11_15 
REMARK    6  A    between atoms: C10_14  and  N3_38 
REMARK    7  A    between atoms: C11_15  and  C12_16 
REMARK    8  A    between atoms: C12_16  and  C13_17 
REMARK    9  A    between atoms: C13_17  and  C14_18 
REMARK   10  A    between atoms: C14_18  and  C15_19 
REMARK   11  A    between atoms: C15_19  and  C16_20 
REMARK   12  A    between atoms: C16_20  and  C17_21 
REMARK   13  A    between atoms: C17_21  and  C18_22 
REMARK   14  A    between atoms: C18_22  and  C19_23 
REMARK   15  A    between atoms: C19_23  and  C20_24 
ROOT
HETATM    1  C13 UNL     1       8.244  39.498  24.129  1.00  0.00    -0.009 C 
ENDROOT
BRANCH   1   2
HETATM    2  C12 UNL     1       7.225  39.152  24.715  1.00  0.00    -0.062 C 
BRANCH   2   3
HETATM    3  C11 UNL     1       6.059  38.684  25.375  1.00  0.00     0.094 C 
BRANCH   3   4
HETATM    4  C10 UNL     1       5.746  37.284  25.374  1.00  0.00     0.032 C 
HETATM    5  C9  UNL     1       5.921  36.333  26.170  1.00  0.00     0.004 C 
BRANCH   5   6
HETATM    6  C8  UNL     1       6.528  36.212  27.475  1.00  0.00     0.038 C 
BRANCH   6   7
HETATM    7  C7  UNL     1       7.966  36.760  27.333  1.00  0.00     0.022 C 
HETATM    8  C2  UNL     1       8.675  36.798  28.613  1.00  0.00    -0.056 C 
HETATM    9  C1  UNL     1       8.901  37.911  29.310  1.00  0.00     0.017 C 
HETATM   10  C3  UNL     1       9.186  35.521  29.175  1.00  0.00     0.149 C 
HETATM   11  C4  UNL     1       9.393  34.481  28.123  1.00  0.00     0.068 C 
HETATM   12  C5  UNL     1       9.694  35.031  26.762  1.00  0.00     0.121 C 
HETATM   13  C6  UNL     1       8.675  36.008  26.259  1.00  0.00     0.041 C 
BRANCH  10  14
HETATM   14  O1  UNL     1       8.247  35.047  30.087  1.00  0.00    -0.391 OA
ATOM     15  H1  UNL     1       8.400  34.118  30.208  1.00  0.00     0.210 HD
ENDBRANCH  10  14
BRANCH  12  16
HETATM   16  O2  UNL     1       9.777  33.962  25.872  1.00  0.00    -0.395 OA
ATOM     17  H2  UNL     1      10.055  34.301  25.029  1.00  0.00     0.210 HD
ENDBRANCH  12  16
ENDBRANCH   6   7
ENDBRANCH   5   6
BRANCH   4  18
HETATM   18  N3  UNL     1       5.037  36.863  24.108  1.00  0.00    -0.394 N 
HETATM   19  C30 UNL     1       4.193  35.735  24.083  1.00  0.00     0.146 C 
ATOM     20  H3  UNL     1       5.173  37.406  23.255  1.00  0.00     0.159 HD
ENDBRANCH   4  18
ENDBRANCH   3   4
ENDBRANCH   2   3
ENDBRANCH   1   2
BRANCH   1  21
HETATM   21  C14 UNL     1       9.419  39.919  23.462  1.00  0.00    -0.001 C 
BRANCH  21  22
HETATM   22  C15 UNL     1      10.437  40.269  22.908  1.00  0.00    -0.001 C 
BRANCH  22  23
HETATM   23  C16 UNL     1      11.627  40.661  22.243  1.00  0.00    -0.009 C 
BRANCH  23  24
HETATM   24  C17 UNL     1      12.652  40.979  21.687  1.00  0.00    -0.065 C 
BRANCH  24  25
HETATM   25  C18 UNL     1      13.875  41.367  21.047  1.00  0.00     0.062 C 
BRANCH  25  26
HETATM   26  C19 UNL     1      15.066  41.225  21.599  1.00  0.00    -0.007 C 
BRANCH  26  27
HETATM   27  C20 UNL     1      15.810  42.356  22.157  1.00  0.00     0.059 C 
HETATM   28  C21 UNL     1      16.306  43.260  21.086  1.00  0.00     0.015 C 
HETATM   29  C22 UNL     1      15.495  44.520  20.927  1.00  0.00     0.006 C 
HETATM   30  C23 UNL     1      15.433  45.280  22.231  1.00  0.00     0.043 C 
HETATM   31  C24 UNL     1      14.746  44.396  23.216  1.00  0.00    -0.006 A 
HETATM   32  C25 UNL     1      14.940  43.042  23.158  1.00  0.00     0.026 A 
HETATM   33  C29 UNL     1      13.885  44.637  24.267  1.00  0.00     0.067 A 
HETATM   34  N1  UNL     1      14.222  42.488  24.138  1.00  0.00    -0.357 N 
HETATM   35  C26 UNL     1      13.583  43.430  24.813  1.00  0.00     0.061 A 
ATOM     36  H1  UNL     1      14.173  41.488  24.337  1.00  0.00     0.166 HD
HETATM   37  C27 UNL     1      12.716  43.679  25.869  1.00  0.00     0.049 A 
HETATM   38  C28 UNL     1      12.526  45.039  25.921  1.00  0.00     0.090 A 
HETATM   39  N2  UNL     1      13.259  45.607  24.923  1.00  0.00    -0.364 N 
ATOM     40  H2  UNL     1      13.316  46.605  24.715  1.00  0.00     0.165 HD
ENDBRANCH  26  27
ENDBRANCH  25  26
ENDBRANCH  24  25
ENDBRANCH  23  24
ENDBRANCH  22  23
ENDBRANCH  21  22
ENDBRANCH   1  21
TORSDOF 15
ENDMDL
MODEL 5
REMARK VINA RESULT: -6.600787509      2.157      3.746
REMARK  15 active torsions:
REMARK  status: ('A' for Active; 'I' for Inactive)
REMARK    1  A    between atoms: C3_3  and  O1_4 
REMARK    2  A    between atoms: C5_7  and  O2_8 
REMARK    3  A    between atoms: C7_11  and  C8_12 
REMARK    4  A    between atoms: C8_12  and  C9_13 
REMARK    5  A    between atoms: C10_14  and  C11_15 
REMARK    6  A    between atoms: C10_14  and  N3_38 
REMARK    7  A    between atoms: C11_15  and  C12_16 
REMARK    8  A    between atoms: C12_16  and  C13_17 
REMARK    9  A    between atoms: C13_17  and  C14_18 
REMARK   10  A    between atoms: C14_18  and  C15_19 
REMARK   11  A    between atoms: C15_19  and  C16_20 
REMARK   12  A    between atoms: C16_20  and  C17_21 
REMARK   13  A    between atoms: C17_21  and  C18_22 
REMARK   14  A    between atoms: C18_22  and  C19_23 
REMARK   15  A    between atoms: C19_23  and  C20_24 
ROOT
HETATM    1  C13 UNL     1       8.664  41.344  19.693  1.00  0.00    -0.009 C 
ENDROOT
BRANCH   1   2
HETATM    2  C12 UNL     1       9.006  42.043  18.746  1.00  0.00    -0.062 C 
BRANCH   2   3
HETATM    3  C11 UNL     1       9.406  42.908  17.695  1.00  0.00     0.094 C 
BRANCH   3   4
HETATM    4  C10 UNL     1      10.575  43.725  17.843  1.00  0.00     0.032 C 
HETATM    5  C9  UNL     1      11.715  43.568  18.338  1.00  0.00     0.004 C 
BRANCH   5   6
HETATM    6  C8  UNL     1      12.381  42.469  18.998  1.00  0.00     0.038 C 
BRANCH   6   7
HETATM    7  C7  UNL     1      12.102  42.640  20.508  1.00  0.00     0.022 C 
HETATM    8  C2  UNL     1      12.614  41.520  21.300  1.00  0.00    -0.056 C 
HETATM    9  C1  UNL     1      11.850  40.561  21.820  1.00  0.00     0.017 C 
HETATM   10  C3  UNL     1      14.077  41.445  21.549  1.00  0.00     0.149 C 
HETATM   11  C4  UNL     1      14.742  42.778  21.438  1.00  0.00     0.068 C 
HETATM   12  C5  UNL     1      13.850  43.939  21.755  1.00  0.00     0.121 C 
HETATM   13  C6  UNL     1      12.587  43.979  20.949  1.00  0.00     0.041 C 
BRANCH  10  14
HETATM   14  O1  UNL     1      14.631  40.594  20.596  1.00  0.00    -0.391 OA
ATOM     15  H1  UNL     1      15.328  40.102  21.014  1.00  0.00     0.210 HD
ENDBRANCH  10  14
BRANCH  12  16
HETATM   16  O2  UNL     1      14.570  45.111  21.530  1.00  0.00    -0.395 OA
ATOM     17  H2  UNL     1      13.959  45.784  21.253  1.00  0.00     0.210 HD
ENDBRANCH  12  16
ENDBRANCH   6   7
ENDBRANCH   5   6
BRANCH   4  18
HETATM   18  N3  UNL     1      10.378  45.105  17.259  1.00  0.00    -0.394 N 
HETATM   19  C30 UNL     1      10.633  45.366  15.898  1.00  0.00     0.146 C 
ATOM     20  H3  UNL     1      10.055  45.861  17.862  1.00  0.00     0.159 HD
ENDBRANCH   4  18
ENDBRANCH   3   4
ENDBRANCH   2   3
ENDBRANCH   1   2
BRANCH   1  21
HETATM   21  C14 UNL     1       8.287  40.521  20.781  1.00  0.00    -0.001 C 
BRANCH  21  22
HETATM   22  C15 UNL     1       7.975  39.831  21.725  1.00  0.00    -0.001 C 
BRANCH  22  23
HETATM   23  C16 UNL     1       7.624  39.035  22.846  1.00  0.00    -0.009 C 
BRANCH  23  24
HETATM   24  C17 UNL     1       7.316  38.343  23.788  1.00  0.00    -0.065 C 
BRANCH  24  25
HETATM   25  C18 UNL     1       6.949  37.503  24.891  1.00  0.00     0.062 C 
BRANCH  25  26
HETATM   26  C19 UNL     1       7.811  36.768  25.568  1.00  0.00    -0.007 C 
BRANCH  26  27
HETATM   27  C20 UNL     1       8.428  37.232  26.813  1.00  0.00     0.059 C 
HETATM   28  C21 UNL     1       7.506  38.111  27.579  1.00  0.00     0.015 C 
HETATM   29  C22 UNL     1       6.844  37.430  28.749  1.00  0.00     0.006 C 
HETATM   30  C23 UNL     1       7.881  36.859  29.687  1.00  0.00     0.043 C 
HETATM   31  C24 UNL     1       8.648  35.838  28.915  1.00  0.00    -0.006 A 
HETATM   32  C25 UNL     1       8.886  36.038  27.582  1.00  0.00     0.026 A 
HETATM   33  C29 UNL     1       9.225  34.631  29.254  1.00  0.00     0.067 A 
HETATM   34  N1  UNL     1       9.583  34.990  27.134  1.00  0.00    -0.357 N 
HETATM   35  C26 UNL     1       9.795  34.137  28.123  1.00  0.00     0.061 A 
ATOM     36  H1  UNL     1       9.904  34.866  26.173  1.00  0.00     0.166 HD
HETATM   37  C27 UNL     1      10.375  32.924  28.471  1.00  0.00     0.049 A 
HETATM   38  C28 UNL     1      10.131  32.730  29.809  1.00  0.00     0.090 A 
HETATM   39  N2  UNL     1       9.421  33.797  30.269  1.00  0.00    -0.364 N 
ATOM     40  H2  UNL     1       9.096  33.933  31.227  1.00  0.00     0.165 HD
ENDBRANCH  26  27
ENDBRANCH  25  26
ENDBRANCH  24  25
ENDBRANCH  23  24
ENDBRANCH  22  23
ENDBRANCH  21  22
ENDBRANCH   1  21
TORSDOF 15
ENDMDL
