MODEL 1
REMARK VINA RESULT: -5.838012714      0.000      0.000
REMARK  5 active torsions:
REMARK  status: ('A' for Active; 'I' for Inactive)
REMARK    1  A    between atoms: C2_2  and  C3_3 
REMARK    2  A    between atoms: C3_3  and  C9_16 
REMARK    3  A    between atoms: N1_4  and  N2_6 
REMARK       I    between atoms: N2_6  and  C4_8 
REMARK       I    between atoms: C4_8  and  N3_10 
REMARK    4  A    between atoms: N3_10  and  O2_11 
REMARK    5  A    between atoms: O2_11  and  C5_12 
ROOT
HETATM    1  N2  UNL     1      27.211  28.968   6.918  1.00  0.00    -0.238 N 
ATOM      2  H2  UNL     1      27.152  29.379   5.987  1.00  0.00     0.193 HD
HETATM    3  C4  UNL     1      26.008  28.984   7.629  1.00  0.00     0.437 C 
HETATM    4  O1  UNL     1      26.019  28.477   8.825  1.00  0.00    -0.226 OA
HETATM    5  N3  UNL     1      24.771  29.497   7.138  1.00  0.00    -0.215 NA
ENDROOT
BRANCH   1   6
HETATM    6  N1  UNL     1      28.407  28.517   7.235  1.00  0.00    -0.304 N 
HETATM    7  C3  UNL     1      29.567  28.505   6.837  1.00  0.00     0.007 C 
ATOM      8  H1  UNL     1      28.349  28.001   8.113  1.00  0.00     0.186 HD
BRANCH   7   9
HETATM    9  C2  UNL     1      30.020  29.165   5.563  1.00  0.00     0.050 C 
HETATM   10  C1  UNL     1      29.095  28.860   4.370  1.00  0.00     0.011 C 
ENDBRANCH   7   9
BRANCH   7  11
HETATM   11  C9  UNL     1      30.636  27.839   7.673  1.00  0.00     0.025 C 
HETATM   12  C10 UNL     1      30.037  27.413   8.981  1.00  0.00     0.016 C 
HETATM   13  C11 UNL     1      31.374  26.781   6.984  1.00  0.00     0.016 C 
ENDBRANCH   7  11
ENDBRANCH   1   6
BRANCH   5  14
HETATM   14  O2  UNL     1      23.742  29.915   6.745  1.00  0.00    -0.194 OA
BRANCH  14  15
HETATM   15  C5  UNL     1      22.567  30.235   6.468  1.00  0.00     0.092 C 
HETATM   16  C6  UNL     1      21.986  31.643   6.482  1.00  0.00     0.049 C 
HETATM   17  C7  UNL     1      22.052  29.693   5.104  1.00  0.00     0.049 C 
HETATM   18  C8  UNL     1      21.642  29.529   7.550  1.00  0.00     0.049 C 
ENDBRANCH  14  15
ENDBRANCH   5  14
TORSDOF 5
ENDMDL
MODEL 2
REMARK VINA RESULT: -5.772631559      1.623      7.027
REMARK  5 active torsions:
REMARK  status: ('A' for Active; 'I' for Inactive)
REMARK    1  A    between atoms: C2_2  and  C3_3 
REMARK    2  A    between atoms: C3_3  and  C9_16 
REMARK    3  A    between atoms: N1_4  and  N2_6 
REMARK       I    between atoms: N2_6  and  C4_8 
REMARK       I    between atoms: C4_8  and  N3_10 
REMARK    4  A    between atoms: N3_10  and  O2_11 
REMARK    5  A    between atoms: O2_11  and  C5_12 
ROOT
HETATM    1  N2  UNL     1      25.491  28.647   6.518  1.00  0.00    -0.238 N 
ATOM      2  H2  UNL     1      25.900  27.919   5.931  1.00  0.00     0.193 HD
HETATM    3  C4  UNL     1      26.322  29.080   7.555  1.00  0.00     0.437 C 
HETATM    4  O1  UNL     1      25.858  30.004   8.341  1.00  0.00    -0.226 OA
HETATM    5  N3  UNL     1      27.641  28.599   7.806  1.00  0.00    -0.215 NA
ENDROOT
BRANCH   1   6
HETATM    6  N1  UNL     1      24.276  29.010   6.163  1.00  0.00    -0.304 N 
HETATM    7  C3  UNL     1      23.470  28.902   5.245  1.00  0.00     0.007 C 
ATOM      8  H1  UNL     1      23.864  29.574   6.906  1.00  0.00     0.186 HD
BRANCH   7   9
HETATM    9  C2  UNL     1      23.745  28.141   3.977  1.00  0.00     0.050 C 
HETATM   10  C1  UNL     1      23.144  26.723   3.988  1.00  0.00     0.011 C 
ENDBRANCH   7   9
BRANCH   7  11
HETATM   11  C9  UNL     1      22.096  29.518   5.383  1.00  0.00     0.025 C 
HETATM   12  C10 UNL     1      22.116  30.509   6.509  1.00  0.00     0.016 C 
HETATM   13  C11 UNL     1      21.539  30.044   4.137  1.00  0.00     0.016 C 
ENDBRANCH   7  11
ENDBRANCH   1   6
BRANCH   5  14
HETATM   14  O2  UNL     1      28.732  28.212   8.023  1.00  0.00    -0.194 OA
BRANCH  14  15
HETATM   15  C5  UNL     1      29.930  27.860   8.062  1.00  0.00     0.092 C 
HETATM   16  C6  UNL     1      30.463  26.514   8.537  1.00  0.00     0.049 C 
HETATM   17  C7  UNL     1      30.707  28.057   6.728  1.00  0.00     0.049 C 
HETATM   18  C8  UNL     1      30.651  28.836   9.087  1.00  0.00     0.049 C 
ENDBRANCH  14  15
ENDBRANCH   5  14
TORSDOF 5
ENDMDL
MODEL 3
REMARK VINA RESULT: -5.664731429      3.971      5.350
REMARK  5 active torsions:
REMARK  status: ('A' for Active; 'I' for Inactive)
REMARK    1  A    between atoms: C2_2  and  C3_3 
REMARK    2  A    between atoms: C3_3  and  C9_16 
REMARK    3  A    between atoms: N1_4  and  N2_6 
REMARK       I    between atoms: N2_6  and  C4_8 
REMARK       I    between atoms: C4_8  and  N3_10 
REMARK    4  A    between atoms: N3_10  and  O2_11 
REMARK    5  A    between atoms: O2_11  and  C5_12 
ROOT
HETATM    1  N2  UNL     1      25.482  28.253   4.846  1.00  0.00    -0.238 N 
ATOM      2  H2  UNL     1      26.323  27.934   4.364  1.00  0.00     0.193 HD
HETATM    3  C4  UNL     1      24.301  28.065   4.123  1.00  0.00     0.437 C 
HETATM    4  O1  UNL     1      23.195  28.454   4.682  1.00  0.00    -0.226 OA
HETATM    5  N3  UNL     1      24.215  27.466   2.832  1.00  0.00    -0.215 NA
ENDROOT
BRANCH   1   6
HETATM    6  N1  UNL     1      25.705  28.768   6.038  1.00  0.00    -0.304 N 
HETATM    7  C3  UNL     1      26.611  29.008   6.827  1.00  0.00     0.007 C 
ATOM      8  H1  UNL     1      24.819  29.070   6.443  1.00  0.00     0.186 HD
BRANCH   7   9
HETATM    9  C2  UNL     1      28.056  28.687   6.563  1.00  0.00     0.050 C 
HETATM   10  C1  UNL     1      28.546  29.209   5.199  1.00  0.00     0.011 C 
ENDBRANCH   7   9
BRANCH   7  11
HETATM   11  C9  UNL     1      26.299  29.710   8.130  1.00  0.00     0.025 C 
HETATM   12  C10 UNL     1      24.854  29.492   8.468  1.00  0.00     0.016 C 
HETATM   13  C11 UNL     1      27.220  29.397   9.223  1.00  0.00     0.016 C 
ENDBRANCH   7  11
ENDBRANCH   1   6
BRANCH   5  14
HETATM   14  O2  UNL     1      24.130  26.971   1.766  1.00  0.00    -0.194 OA
BRANCH  14  15
HETATM   15  C5  UNL     1      24.131  26.286   0.722  1.00  0.00     0.092 C 
HETATM   16  C6  UNL     1      23.372  26.593  -0.563  1.00  0.00     0.049 C 
HETATM   17  C7  UNL     1      25.547  25.937   0.178  1.00  0.00     0.049 C 
HETATM   18  C8  UNL     1      23.497  24.881   1.106  1.00  0.00     0.049 C 
ENDBRANCH  14  15
ENDBRANCH   5  14
TORSDOF 5
ENDMDL
MODEL 4
REMARK VINA RESULT: -5.610894535      4.093      6.710
REMARK  5 active torsions:
REMARK  status: ('A' for Active; 'I' for Inactive)
REMARK    1  A    between atoms: C2_2  and  C3_3 
REMARK    2  A    between atoms: C3_3  and  C9_16 
REMARK    3  A    between atoms: N1_4  and  N2_6 
REMARK       I    between atoms: N2_6  and  C4_8 
REMARK       I    between atoms: C4_8  and  N3_10 
REMARK    4  A    between atoms: N3_10  and  O2_11 
REMARK    5  A    between atoms: O2_11  and  C5_12 
ROOT
HETATM    1  N2  UNL     1      28.416  29.042   4.560  1.00  0.00    -0.238 N 
ATOM      2  H2  UNL     1      27.597  29.264   3.993  1.00  0.00     0.193 HD
HETATM    3  C4  UNL     1      29.606  28.949   3.835  1.00  0.00     0.437 C 
HETATM    4  O1  UNL     1      30.685  28.665   4.500  1.00  0.00    -0.226 OA
HETATM    5  N3  UNL     1      29.730  29.159   2.429  1.00  0.00    -0.215 NA
ENDROOT
BRANCH   1   6
HETATM    6  N1  UNL     1      28.160  28.893   5.843  1.00  0.00    -0.304 N 
HETATM    7  C3  UNL     1      27.228  28.825   6.637  1.00  0.00     0.007 C 
ATOM      8  H1  UNL     1      29.040  28.805   6.352  1.00  0.00     0.186 HD
BRANCH   7   9
HETATM    9  C2  UNL     1      25.782  28.925   6.237  1.00  0.00     0.050 C 
HETATM   10  C1  UNL     1      25.511  28.372   4.825  1.00  0.00     0.011 C 
ENDBRANCH   7   9
BRANCH   7  11
HETATM   11  C9  UNL     1      27.511  28.579   8.101  1.00  0.00     0.025 C 
HETATM   12  C10 UNL     1      28.971  28.276   8.272  1.00  0.00     0.016 C 
HETATM   13  C11 UNL     1      27.011  29.619   9.000  1.00  0.00     0.016 C 
ENDBRANCH   7  11
ENDBRANCH   1   6
BRANCH   5  14
HETATM   14  O2  UNL     1      29.848  29.331   1.270  1.00  0.00    -0.194 OA
BRANCH  14  15
HETATM   15  C5  UNL     1      29.949  29.311   0.025  1.00  0.00     0.092 C 
HETATM   16  C6  UNL     1      31.099  29.877  -0.798  1.00  0.00     0.049 C 
HETATM   17  C7  UNL     1      29.759  27.907  -0.618  1.00  0.00     0.049 C 
HETATM   18  C8  UNL     1      28.738  30.172  -0.538  1.00  0.00     0.049 C 
ENDBRANCH  14  15
ENDBRANCH   5  14
TORSDOF 5
ENDMDL
MODEL 5
REMARK VINA RESULT: -5.609419539      3.561      6.968
REMARK  5 active torsions:
REMARK  status: ('A' for Active; 'I' for Inactive)
REMARK    1  A    between atoms: C2_2  and  C3_3 
REMARK    2  A    between atoms: C3_3  and  C9_16 
REMARK    3  A    between atoms: N1_4  and  N2_6 
REMARK       I    between atoms: N2_6  and  C4_8 
REMARK       I    between atoms: C4_8  and  N3_10 
REMARK    4  A    between atoms: N3_10  and  O2_11 
REMARK    5  A    between atoms: O2_11  and  C5_12 
ROOT
HETATM    1  N2  UNL     1      28.052  28.927   5.130  1.00  0.00    -0.238 N 
ATOM      2  H2  UNL     1      27.460  28.949   4.299  1.00  0.00     0.193 HD
HETATM    3  C4  UNL     1      29.422  28.917   4.857  1.00  0.00     0.437 C 
HETATM    4  O1  UNL     1      30.230  28.885   5.874  1.00  0.00    -0.226 OA
HETATM    5  N3  UNL     1      30.000  28.955   3.553  1.00  0.00    -0.215 NA
ENDROOT
BRANCH   1   6
HETATM    6  N1  UNL     1      27.387  28.913   6.267  1.00  0.00    -0.304 N 
HETATM    7  C3  UNL     1      26.245  28.895   6.713  1.00  0.00     0.007 C 
ATOM      8  H1  UNL     1      28.050  28.918   7.042  1.00  0.00     0.186 HD
BRANCH   7   9
HETATM    9  C2  UNL     1      25.012  28.890   5.852  1.00  0.00     0.050 C 
HETATM   10  C1  UNL     1      25.230  28.191   4.498  1.00  0.00     0.011 C 
ENDBRANCH   7   9
BRANCH   7  11
HETATM   11  C9  UNL     1      26.030  28.827   8.208  1.00  0.00     0.025 C 
HETATM   12  C10 UNL     1      27.256  29.340   8.902  1.00  0.00     0.016 C 
HETATM   13  C11 UNL     1      24.784  29.439   8.670  1.00  0.00     0.016 C 
ENDBRANCH   7  11
ENDBRANCH   1   6
BRANCH   5  14
HETATM   14  O2  UNL     1      30.491  28.989   2.483  1.00  0.00    -0.194 OA
BRANCH  14  15
HETATM   15  C5  UNL     1      31.042  28.824   1.375  1.00  0.00     0.092 C 
HETATM   16  C6  UNL     1      30.461  29.182   0.013  1.00  0.00     0.049 C 
HETATM   17  C7  UNL     1      32.479  29.413   1.271  1.00  0.00     0.049 C 
HETATM   18  C8  UNL     1      31.243  27.257   1.202  1.00  0.00     0.049 C 
ENDBRANCH  14  15
ENDBRANCH   5  14
TORSDOF 5
ENDMDL
