MODEL 1
REMARK VINA RESULT: -6.171749458      0.000      0.000
REMARK  3 active torsions:
REMARK  status: ('A' for Active; 'I' for Inactive)
REMARK    1  A    between atoms: O1_2  and  C2_3 
REMARK    2  A    between atoms: C4_10  and  C5_11 
REMARK    3  A    between atoms: C6_12  and  C7_13 
ROOT
HETATM    1  C7  UNL     1      25.832  29.016   5.943  1.00  0.00     0.111 C 
HETATM    2  C8  UNL     1      24.827  28.137   5.196  1.00  0.00     0.029 C 
HETATM    3  C9  UNL     1      25.801  28.657   7.356  1.00  0.00     0.067 C 
HETATM    4  N3  UNL     1      25.754  28.371   8.498  1.00  0.00    -0.197 NA
ENDROOT
BRANCH   1   5
HETATM    5  C6  UNL     1      27.185  28.762   5.413  1.00  0.00    -0.006 C 
HETATM    6  C5  UNL     1      28.261  29.231   6.009  1.00  0.00     0.031 C 
BRANCH   6   7
HETATM    7  C4  UNL     1      29.604  28.982   5.488  1.00  0.00     0.085 A 
HETATM    8  C2  UNL     1      30.674  28.492   6.203  1.00  0.00     0.171 A 
HETATM    9  N1  UNL     1      31.691  28.429   5.325  1.00  0.00    -0.312 N 
HETATM   10  C3  UNL     1      31.296  28.856   4.113  1.00  0.00     0.178 A 
ATOM     11  H1  UNL     1      32.631  28.102   5.548  1.00  0.00     0.170 HD
HETATM   12  S1  UNL     1      32.209  28.950   2.742  1.00  0.00    -0.040 SA
HETATM   13  N2  UNL     1      30.000  29.204   4.196  1.00  0.00    -0.330 N 
ATOM     14  H2  UNL     1      29.420  29.565   3.439  1.00  0.00     0.168 HD
BRANCH   8  15
HETATM   15  O1  UNL     1      30.636  28.155   7.547  1.00  0.00    -0.339 OA
HETATM   16  C1  UNL     1      30.721  26.865   8.048  1.00  0.00     0.211 C 
ENDBRANCH   8  15
ENDBRANCH   6   7
ENDBRANCH   1   5
TORSDOF 3
ENDMDL
MODEL 2
REMARK VINA RESULT: -6.141108941      1.163      1.243
REMARK  3 active torsions:
REMARK  status: ('A' for Active; 'I' for Inactive)
REMARK    1  A    between atoms: O1_2  and  C2_3 
REMARK    2  A    between atoms: C4_10  and  C5_11 
REMARK    3  A    between atoms: C6_12  and  C7_13 
ROOT
HETATM    1  C7  UNL     1      26.905  29.301   6.611  1.00  0.00     0.111 C 
HETATM    2  C8  UNL     1      25.654  28.592   6.084  1.00  0.00     0.029 C 
HETATM    3  C9  UNL     1      27.162  28.837   7.969  1.00  0.00     0.067 C 
HETATM    4  N3  UNL     1      27.349  28.468   9.072  1.00  0.00    -0.197 NA
ENDROOT
BRANCH   1   5
HETATM    5  C6  UNL     1      28.055  28.950   5.758  1.00  0.00    -0.006 C 
HETATM    6  C5  UNL     1      29.295  29.109   6.168  1.00  0.00     0.031 C 
BRANCH   6   7
HETATM    7  C4  UNL     1      30.439  28.762   5.327  1.00  0.00     0.085 A 
HETATM    8  C2  UNL     1      31.421  27.844   5.628  1.00  0.00     0.171 A 
HETATM    9  N1  UNL     1      32.256  27.857   4.575  1.00  0.00    -0.312 N 
HETATM   10  C3  UNL     1      31.836  28.736   3.648  1.00  0.00     0.178 A 
ATOM     11  H1  UNL     1      33.093  27.279   4.491  1.00  0.00     0.170 HD
HETATM   12  S1  UNL     1      32.552  29.079   2.201  1.00  0.00    -0.040 SA
HETATM   13  N2  UNL     1      30.707  29.308   4.099  1.00  0.00    -0.330 N 
ATOM     14  H2  UNL     1      30.153  30.015   3.618  1.00  0.00     0.168 HD
BRANCH   8  15
HETATM   15  O1  UNL     1      31.470  27.098   6.795  1.00  0.00    -0.339 OA
HETATM   16  C1  UNL     1      31.949  25.800   6.892  1.00  0.00     0.211 C 
ENDBRANCH   8  15
ENDBRANCH   6   7
ENDBRANCH   1   5
TORSDOF 3
ENDMDL
MODEL 3
REMARK VINA RESULT: -5.931647753      3.905      5.461
REMARK  3 active torsions:
REMARK  status: ('A' for Active; 'I' for Inactive)
REMARK    1  A    between atoms: O1_2  and  C2_3 
REMARK    2  A    between atoms: C4_10  and  C5_11 
REMARK    3  A    between atoms: C6_12  and  C7_13 
ROOT
HETATM    1  C7  UNL     1      26.871  29.286   7.741  1.00  0.00     0.111 C 
HETATM    2  C8  UNL     1      25.620  28.877   8.523  1.00  0.00     0.029 C 
HETATM    3  C9  UNL     1      28.014  28.564   8.285  1.00  0.00     0.067 C 
HETATM    4  N3  UNL     1      28.933  27.988   8.746  1.00  0.00    -0.197 NA
ENDROOT
BRANCH   1   5
HETATM    5  C6  UNL     1      26.699  28.915   6.324  1.00  0.00    -0.006 C 
HETATM    6  C5  UNL     1      25.511  28.671   5.812  1.00  0.00     0.031 C 
BRANCH   6   7
HETATM    7  C4  UNL     1      25.334  28.303   4.409  1.00  0.00     0.085 A 
HETATM    8  C2  UNL     1      24.147  27.955   3.804  1.00  0.00     0.171 A 
HETATM    9  N1  UNL     1      24.461  27.700   2.522  1.00  0.00    -0.312 N 
HETATM   10  C3  UNL     1      25.778  27.874   2.314  1.00  0.00     0.178 A 
ATOM     11  H1  UNL     1      23.792  27.415   1.805  1.00  0.00     0.170 HD
HETATM   12  S1  UNL     1      26.600  27.672   0.897  1.00  0.00    -0.040 SA
HETATM   13  N2  UNL     1      26.337  28.249   3.477  1.00  0.00    -0.330 N 
ATOM     14  H2  UNL     1      27.322  28.456   3.636  1.00  0.00     0.168 HD
BRANCH   8  15
HETATM   15  O1  UNL     1      22.921  27.902   4.448  1.00  0.00    -0.339 OA
HETATM   16  C1  UNL     1      22.054  28.974   4.601  1.00  0.00     0.211 C 
ENDBRANCH   8  15
ENDBRANCH   6   7
ENDBRANCH   1   5
TORSDOF 3
ENDMDL
MODEL 4
REMARK VINA RESULT: -5.931051956      4.017      5.296
REMARK  3 active torsions:
REMARK  status: ('A' for Active; 'I' for Inactive)
REMARK    1  A    between atoms: O1_2  and  C2_3 
REMARK    2  A    between atoms: C4_10  and  C5_11 
REMARK    3  A    between atoms: C6_12  and  C7_13 
ROOT
HETATM    1  C7  UNL     1      24.388  28.149   3.686  1.00  0.00     0.111 C 
HETATM    2  C8  UNL     1      25.238  27.843   2.450  1.00  0.00     0.029 C 
HETATM    3  C9  UNL     1      23.437  27.061   3.874  1.00  0.00     0.067 C 
HETATM    4  N3  UNL     1      22.660  26.184   4.006  1.00  0.00    -0.197 NA
ENDROOT
BRANCH   1   5
HETATM    5  C6  UNL     1      25.266  28.229   4.868  1.00  0.00    -0.006 C 
HETATM    6  C5  UNL     1      24.911  28.889   5.950  1.00  0.00     0.031 C 
BRANCH   6   7
HETATM    7  C4  UNL     1      25.777  28.973   7.124  1.00  0.00     0.085 A 
HETATM    8  C2  UNL     1      25.426  29.472   8.359  1.00  0.00     0.171 A 
HETATM    9  N1  UNL     1      26.526  29.349   9.120  1.00  0.00    -0.312 N 
HETATM   10  C3  UNL     1      27.532  28.802   8.414  1.00  0.00     0.178 A 
ATOM     11  H1  UNL     1      26.591  29.632  10.099  1.00  0.00     0.170 HD
HETATM   12  S1  UNL     1      29.058  28.469   8.944  1.00  0.00    -0.040 SA
HETATM   13  N2  UNL     1      27.082  28.561   7.170  1.00  0.00    -0.330 N 
ATOM     14  H2  UNL     1      27.614  28.148   6.404  1.00  0.00     0.168 HD
BRANCH   8  15
HETATM   15  O1  UNL     1      24.175  29.979   8.676  1.00  0.00    -0.339 OA
HETATM   16  C1  UNL     1      23.214  30.366   7.753  1.00  0.00     0.211 C 
ENDBRANCH   8  15
ENDBRANCH   6   7
ENDBRANCH   1   5
TORSDOF 3
ENDMDL
MODEL 5
REMARK VINA RESULT: -5.884477204      5.346      7.543
REMARK  3 active torsions:
REMARK  status: ('A' for Active; 'I' for Inactive)
REMARK    1  A    between atoms: O1_2  and  C2_3 
REMARK    2  A    between atoms: C4_10  and  C5_11 
REMARK    3  A    between atoms: C6_12  and  C7_13 
ROOT
HETATM    1  C7  UNL     1      25.752  28.528   6.623  1.00  0.00     0.111 C 
HETATM    2  C8  UNL     1      27.110  29.111   6.225  1.00  0.00     0.029 C 
HETATM    3  C9  UNL     1      25.162  29.385   7.645  1.00  0.00     0.067 C 
HETATM    4  N3  UNL     1      24.704  30.075   8.483  1.00  0.00    -0.197 NA
ENDROOT
BRANCH   1   5
HETATM    5  C6  UNL     1      24.868  28.510   5.443  1.00  0.00    -0.006 C 
HETATM    6  C5  UNL     1      23.581  28.767   5.538  1.00  0.00     0.031 C 
BRANCH   6   7
HETATM    7  C4  UNL     1      22.700  28.750   4.372  1.00  0.00     0.085 A 
HETATM    8  C2  UNL     1      21.685  29.643   4.107  1.00  0.00     0.171 A 
HETATM    9  N1  UNL     1      21.153  29.243   2.939  1.00  0.00    -0.312 N 
HETATM   10  C3  UNL     1      21.790  28.152   2.479  1.00  0.00     0.178 A 
ATOM     11  H1  UNL     1      20.374  29.704   2.468  1.00  0.00     0.170 HD
HETATM   12  S1  UNL     1      21.472  27.325   1.086  1.00  0.00    -0.040 SA
HETATM   13  N2  UNL     1      22.756  27.832   3.357  1.00  0.00    -0.330 N 
ATOM     14  H2  UNL     1      23.408  27.052   3.282  1.00  0.00     0.168 HD
BRANCH   8  15
HETATM   15  O1  UNL     1      21.343  30.710   4.923  1.00  0.00    -0.339 OA
HETATM   16  C1  UNL     1      20.964  31.967   4.475  1.00  0.00     0.211 C 
ENDBRANCH   8  15
ENDBRANCH   6   7
ENDBRANCH   1   5
TORSDOF 3
ENDMDL
