MODEL 1
REMARK VINA RESULT: -6.008035111      0.000      0.000
REMARK  4 active torsions:
REMARK  status: ('A' for Active; 'I' for Inactive)
REMARK    1  A    between atoms: C2_2  and  C4_4 
REMARK    2  A    between atoms: C4_4  and  N1_5 
REMARK    3  A    between atoms: C4_4  and  N2_10 
REMARK    4  A    between atoms: N1_5  and  C5_7 
ROOT
HETATM    1  C4  UNL     1      25.413  28.800   5.569  1.00  0.00     0.216 C 
ENDROOT
BRANCH   1   2
HETATM    2  C2  UNL     1      26.743  28.733   4.971  1.00  0.00    -0.051 C 
HETATM    3  C1  UNL     1      26.823  28.364   3.698  1.00  0.00     0.017 C 
HETATM    4  C3  UNL     1      28.027  29.058   5.611  1.00  0.00     0.046 C 
ENDBRANCH   1   2
BRANCH   1   5
HETATM    5  N1  UNL     1      24.455  27.821   5.291  1.00  0.00    -0.394 N 
ATOM      6  H1  UNL     1      24.365  26.988   5.873  1.00  0.00     0.155 HD
BRANCH   5   7
HETATM    7  C5  UNL     1      23.611  28.028   4.168  1.00  0.00     0.070 C 
HETATM    8  C6  UNL     1      23.395  26.707   3.461  1.00  0.00     0.031 C 
HETATM    9  C7  UNL     1      22.244  28.568   4.541  1.00  0.00     0.031 C 
ENDBRANCH   5   7
ENDBRANCH   1   5
BRANCH   1  10
HETATM   10  N2  UNL     1      25.547  29.025   6.987  1.00  0.00    -0.307 N 
HETATM   11  C8  UNL     1      26.596  28.683   7.746  1.00  0.00     0.113 A 
HETATM   12  C9  UNL     1      26.365  29.085   9.056  1.00  0.00     0.107 A 
HETATM   13  N3  UNL     1      25.177  29.670   9.079  1.00  0.00    -0.342 N 
HETATM   14  C10 UNL     1      24.679  29.635   7.831  1.00  0.00     0.179 A 
ATOM     15  H3  UNL     1      24.721  30.075   9.898  1.00  0.00     0.167 HD
HETATM   16  S1  UNL     1      23.225  30.245   7.419  1.00  0.00    -0.040 SA
ENDBRANCH   1  10
TORSDOF 4
ENDMDL
MODEL 2
REMARK VINA RESULT: -5.993871150      2.485      4.283
REMARK  4 active torsions:
REMARK  status: ('A' for Active; 'I' for Inactive)
REMARK    1  A    between atoms: C2_2  and  C4_4 
REMARK    2  A    between atoms: C4_4  and  N1_5 
REMARK    3  A    between atoms: C4_4  and  N2_10 
REMARK    4  A    between atoms: N1_5  and  C5_7 
ROOT
HETATM    1  C4  UNL     1      27.486  28.671   5.849  1.00  0.00     0.216 C 
ENDROOT
BRANCH   1   2
HETATM    2  C2  UNL     1      26.282  28.526   5.035  1.00  0.00    -0.051 C 
HETATM    3  C1  UNL     1      26.443  28.400   3.724  1.00  0.00     0.017 C 
HETATM    4  C3  UNL     1      24.889  28.471   5.504  1.00  0.00     0.046 C 
ENDBRANCH   1   2
BRANCH   1   5
HETATM    5  N1  UNL     1      28.557  29.452   5.405  1.00  0.00    -0.394 N 
ATOM      6  H1  UNL     1      28.530  30.469   5.463  1.00  0.00     0.155 HD
BRANCH   5   7
HETATM    7  C5  UNL     1      29.686  28.775   4.871  1.00  0.00     0.070 C 
HETATM    8  C6  UNL     1      29.741  29.008   3.377  1.00  0.00     0.031 C 
HETATM    9  C7  UNL     1      31.001  29.259   5.451  1.00  0.00     0.031 C 
ENDBRANCH   5   7
ENDBRANCH   1   5
BRANCH   1  10
HETATM   10  N2  UNL     1      27.103  29.013   7.197  1.00  0.00    -0.307 N 
HETATM   11  C8  UNL     1      25.970  29.626   7.565  1.00  0.00     0.113 A 
HETATM   12  C9  UNL     1      25.951  29.760   8.949  1.00  0.00     0.107 A 
HETATM   13  N3  UNL     1      27.072  29.224   9.407  1.00  0.00    -0.342 N 
HETATM   14  C10 UNL     1      27.771  28.772   8.351  1.00  0.00     0.179 A 
ATOM     15  H3  UNL     1      27.355  29.164  10.386  1.00  0.00     0.167 HD
HETATM   16  S1  UNL     1      29.224  28.043   8.473  1.00  0.00    -0.040 SA
ENDBRANCH   1  10
TORSDOF 4
ENDMDL
MODEL 3
REMARK VINA RESULT: -5.473411976      6.107      8.134
REMARK  4 active torsions:
REMARK  status: ('A' for Active; 'I' for Inactive)
REMARK    1  A    between atoms: C2_2  and  C4_4 
REMARK    2  A    between atoms: C4_4  and  N1_5 
REMARK    3  A    between atoms: C4_4  and  N2_10 
REMARK    4  A    between atoms: N1_5  and  C5_7 
ROOT
HETATM    1  C4  UNL     1      19.845  32.052   2.905  1.00  0.00     0.216 C 
ENDROOT
BRANCH   1   2
HETATM    2  C2  UNL     1      20.589  32.127   4.160  1.00  0.00    -0.051 C 
HETATM    3  C1  UNL     1      20.553  33.276   4.824  1.00  0.00     0.017 C 
HETATM    4  C3  UNL     1      21.364  31.054   4.803  1.00  0.00     0.046 C 
ENDBRANCH   1   2
BRANCH   1   5
HETATM    5  N1  UNL     1      18.794  32.937   2.645  1.00  0.00    -0.394 N 
ATOM      6  H1  UNL     1      18.816  33.898   2.984  1.00  0.00     0.155 HD
BRANCH   5   7
HETATM    7  C5  UNL     1      17.694  32.446   1.893  1.00  0.00     0.070 C 
HETATM    8  C6  UNL     1      16.420  32.660   2.682  1.00  0.00     0.031 C 
HETATM    9  C7  UNL     1      17.522  33.149   0.560  1.00  0.00     0.031 C 
ENDBRANCH   5   7
ENDBRANCH   1   5
BRANCH   1  10
HETATM   10  N2  UNL     1      20.779  32.000   1.808  1.00  0.00    -0.307 N 
HETATM   11  C8  UNL     1      21.380  33.049   1.232  1.00  0.00     0.113 A 
HETATM   12  C9  UNL     1      22.226  32.596   0.226  1.00  0.00     0.107 A 
HETATM   13  N3  UNL     1      22.132  31.275   0.204  1.00  0.00    -0.342 N 
HETATM   14  C10 UNL     1      21.257  30.912   1.158  1.00  0.00     0.179 A 
ATOM     15  H3  UNL     1      22.633  30.646  -0.425  1.00  0.00     0.167 HD
HETATM   16  S1  UNL     1      20.844  29.365   1.464  1.00  0.00    -0.040 SA
ENDBRANCH   1  10
TORSDOF 4
ENDMDL
MODEL 4
REMARK VINA RESULT: -5.456980940      2.724      5.885
REMARK  4 active torsions:
REMARK  status: ('A' for Active; 'I' for Inactive)
REMARK    1  A    between atoms: C2_2  and  C4_4 
REMARK    2  A    between atoms: C4_4  and  N1_5 
REMARK    3  A    between atoms: C4_4  and  N2_10 
REMARK    4  A    between atoms: N1_5  and  C5_7 
ROOT
HETATM    1  C4  UNL     1      23.795  28.099   3.618  1.00  0.00     0.216 C 
ENDROOT
BRANCH   1   2
HETATM    2  C2  UNL     1      22.500  28.751   3.792  1.00  0.00    -0.051 C 
HETATM    3  C1  UNL     1      22.102  28.997   5.035  1.00  0.00     0.017 C 
HETATM    4  C3  UNL     1      21.579  29.202   2.737  1.00  0.00     0.046 C 
ENDBRANCH   1   2
BRANCH   1   5
HETATM    5  N1  UNL     1      24.587  27.778   4.725  1.00  0.00    -0.394 N 
ATOM      6  H1  UNL     1      24.503  26.876   5.192  1.00  0.00     0.155 HD
BRANCH   5   7
HETATM    7  C5  UNL     1      25.512  28.757   5.176  1.00  0.00     0.070 C 
HETATM    8  C6  UNL     1      25.620  28.679   6.684  1.00  0.00     0.031 C 
HETATM    9  C7  UNL     1      26.907  28.563   4.615  1.00  0.00     0.031 C 
ENDBRANCH   5   7
ENDBRANCH   1   5
BRANCH   1  10
HETATM   10  N2  UNL     1      23.638  26.971   2.734  1.00  0.00    -0.307 N 
HETATM   11  C8  UNL     1      22.692  26.027   2.817  1.00  0.00     0.113 A 
HETATM   12  C9  UNL     1      22.855  25.122   1.774  1.00  0.00     0.107 A 
HETATM   13  N3  UNL     1      23.897  25.529   1.066  1.00  0.00    -0.342 N 
HETATM   14  C10 UNL     1      24.373  26.645   1.643  1.00  0.00     0.179 A 
ATOM     15  H3  UNL     1      24.271  25.076   0.231  1.00  0.00     0.167 HD
HETATM   16  S1  UNL     1      25.665  27.471   1.088  1.00  0.00    -0.040 SA
ENDBRANCH   1  10
TORSDOF 4
ENDMDL
MODEL 5
REMARK VINA RESULT: -5.449863415      6.242      8.131
REMARK  4 active torsions:
REMARK  status: ('A' for Active; 'I' for Inactive)
REMARK    1  A    between atoms: C2_2  and  C4_4 
REMARK    2  A    between atoms: C4_4  and  N1_5 
REMARK    3  A    between atoms: C4_4  and  N2_10 
REMARK    4  A    between atoms: N1_5  and  C5_7 
ROOT
HETATM    1  C4  UNL     1      19.893  32.093   2.543  1.00  0.00     0.216 C 
ENDROOT
BRANCH   1   2
HETATM    2  C2  UNL     1      20.558  32.060   3.843  1.00  0.00    -0.051 C 
HETATM    3  C1  UNL     1      20.523  33.167   4.575  1.00  0.00     0.017 C 
HETATM    4  C3  UNL     1      21.248  30.919   4.464  1.00  0.00     0.046 C 
ENDBRANCH   1   2
BRANCH   1   5
HETATM    5  N1  UNL     1      18.895  33.035   2.276  1.00  0.00    -0.394 N 
ATOM      6  H1  UNL     1      19.052  34.030   2.429  1.00  0.00     0.155 HD
BRANCH   5   7
HETATM    7  C5  UNL     1      17.653  32.553   1.782  1.00  0.00     0.070 C 
HETATM    8  C6  UNL     1      17.557  32.857   0.303  1.00  0.00     0.031 C 
HETATM    9  C7  UNL     1      17.488  31.055   1.946  1.00  0.00     0.031 C 
ENDBRANCH   5   7
ENDBRANCH   1   5
BRANCH   1  10
HETATM   10  N2  UNL     1      20.893  32.070   1.505  1.00  0.00    -0.307 N 
HETATM   11  C8  UNL     1      21.562  33.127   1.028  1.00  0.00     0.113 A 
HETATM   12  C9  UNL     1      22.456  32.702   0.051  1.00  0.00     0.107 A 
HETATM   13  N3  UNL     1      22.323  31.388  -0.052  1.00  0.00    -0.342 N 
HETATM   14  C10 UNL     1      21.379  31.003   0.824  1.00  0.00     0.179 A 
ATOM     15  H3  UNL     1      22.844  30.778  -0.683  1.00  0.00     0.167 HD
HETATM   16  S1  UNL     1      20.900  29.457   1.016  1.00  0.00    -0.040 SA
ENDBRANCH   1  10
TORSDOF 4
ENDMDL
