MODEL 1
REMARK VINA RESULT: -6.606245898      0.000      0.000
REMARK  3 active torsions:
REMARK  status: ('A' for Active; 'I' for Inactive)
REMARK    1  A    between atoms: N1_4  and  N2_6 
REMARK    2  A    between atoms: C4_8  and  C5_9 
REMARK    3  A    between atoms: C6_10  and  C7_11 
ROOT
HETATM    1  C5  UNL     1      24.189  29.421   6.438  1.00  0.00     0.021 C 
HETATM    2  C6  UNL     1      25.384  28.958   6.487  1.00  0.00     0.032 C 
ENDROOT
BRANCH   1   3
HETATM    3  C4  UNL     1      23.423  30.105   7.439  1.00  0.00     0.107 C 
HETATM    4  N2  UNL     1      22.231  30.565   7.078  1.00  0.00    -0.312 N 
ATOM      5  H2  UNL     1      21.645  31.060   7.750  1.00  0.00     0.186 HD
BRANCH   4   6
HETATM    6  N1  UNL     1      21.791  30.368   5.780  1.00  0.00    -0.310 N 
HETATM    7  C2  UNL     1      21.366  31.346   5.096  1.00  0.00    -0.004 C 
HETATM    8  C1  UNL     1      21.337  32.708   5.686  1.00  0.00     0.064 C 
HETATM    9  C3  UNL     1      20.887  31.155   3.698  1.00  0.00     0.064 C 
ATOM     10  H1  UNL     1      21.809  29.433   5.373  1.00  0.00     0.186 HD
ENDBRANCH   4   6
ENDBRANCH   1   3
BRANCH   2  11
HETATM   11  C7  UNL     1      26.381  28.945   7.522  1.00  0.00     0.049 A 
HETATM   12  C8  UNL     1      26.333  29.339   8.823  1.00  0.00     0.120 A 
HETATM   13  N3  UNL     1      27.575  29.101   9.350  1.00  0.00    -0.341 N 
HETATM   14  C9  UNL     1      28.385  28.580   8.434  1.00  0.00     0.176 A 
ATOM     15  H3  UNL     1      27.842  29.297  10.314  1.00  0.00     0.167 HD
HETATM   16  S1  UNL     1      29.966  28.145   8.646  1.00  0.00    -0.041 SA
HETATM   17  N4  UNL     1      27.660  28.485   7.319  1.00  0.00    -0.332 N 
ATOM     18  H4  UNL     1      28.008  28.119   6.433  1.00  0.00     0.168 HD
ENDBRANCH   2  11
TORSDOF 3
ENDMDL
MODEL 2
REMARK VINA RESULT: -6.555656164      3.500      7.530
REMARK  3 active torsions:
REMARK  status: ('A' for Active; 'I' for Inactive)
REMARK    1  A    between atoms: N1_4  and  N2_6 
REMARK    2  A    between atoms: C4_8  and  C5_9 
REMARK    3  A    between atoms: C6_10  and  C7_11 
ROOT
HETATM    1  C5  UNL     1      28.630  28.500   7.205  1.00  0.00     0.021 C 
HETATM    2  C6  UNL     1      27.482  28.918   6.816  1.00  0.00     0.032 C 
ENDROOT
BRANCH   1   3
HETATM    3  C4  UNL     1      29.095  28.173   8.521  1.00  0.00     0.107 C 
HETATM    4  N2  UNL     1      30.312  27.652   8.620  1.00  0.00    -0.312 N 
ATOM      5  H2  UNL     1      30.692  27.400   9.533  1.00  0.00     0.186 HD
BRANCH   4   6
HETATM    6  N1  UNL     1      31.061  27.452   7.472  1.00  0.00    -0.310 N 
HETATM    7  C2  UNL     1      31.563  26.314   7.230  1.00  0.00    -0.004 C 
HETATM    8  C1  UNL     1      31.351  25.191   8.178  1.00  0.00     0.064 C 
HETATM    9  C3  UNL     1      32.374  26.078   6.002  1.00  0.00     0.064 C 
ATOM     10  H1  UNL     1      31.209  28.222   6.821  1.00  0.00     0.186 HD
ENDBRANCH   4   6
ENDBRANCH   1   3
BRANCH   2  11
HETATM   11  C7  UNL     1      26.264  29.210   7.519  1.00  0.00     0.049 A 
HETATM   12  C8  UNL     1      25.976  29.241   8.848  1.00  0.00     0.120 A 
HETATM   13  N3  UNL     1      24.653  29.579   8.954  1.00  0.00    -0.341 N 
HETATM   14  C9  UNL     1      24.112  29.757   7.754  1.00  0.00     0.176 A 
ATOM     15  H3  UNL     1      24.150  29.680   9.836  1.00  0.00     0.167 HD
HETATM   16  S1  UNL     1      22.546  30.172   7.426  1.00  0.00    -0.041 SA
HETATM   17  N4  UNL     1      25.092  29.533   6.876  1.00  0.00    -0.332 N 
ATOM     18  H4  UNL     1      24.986  29.592   5.864  1.00  0.00     0.168 HD
ENDBRANCH   2  11
TORSDOF 3
ENDMDL
MODEL 3
REMARK VINA RESULT: -6.326861437      3.689      6.968
REMARK  3 active torsions:
REMARK  status: ('A' for Active; 'I' for Inactive)
REMARK    1  A    between atoms: N1_4  and  N2_6 
REMARK    2  A    between atoms: C4_8  and  C5_9 
REMARK    3  A    between atoms: C6_10  and  C7_11 
ROOT
HETATM    1  C5  UNL     1      22.823  30.317   7.340  1.00  0.00     0.021 C 
HETATM    2  C6  UNL     1      22.029  31.321   7.407  1.00  0.00     0.032 C 
ENDROOT
BRANCH   1   3
HETATM    3  C4  UNL     1      23.397  29.671   6.196  1.00  0.00     0.107 C 
HETATM    4  N2  UNL     1      24.609  29.148   6.342  1.00  0.00    -0.312 N 
ATOM      5  H2  UNL     1      25.065  28.677   5.560  1.00  0.00     0.186 HD
BRANCH   4   6
HETATM    6  N1  UNL     1      25.248  29.247   7.567  1.00  0.00    -0.310 N 
HETATM    7  C2  UNL     1      26.511  29.179   7.632  1.00  0.00    -0.004 C 
HETATM    8  C1  UNL     1      27.311  28.991   6.395  1.00  0.00     0.064 C 
HETATM    9  C3  UNL     1      27.220  29.282   8.940  1.00  0.00     0.064 C 
ATOM     10  H1  UNL     1      24.701  29.374   8.418  1.00  0.00     0.186 HD
ENDBRANCH   4   6
ENDBRANCH   1   3
BRANCH   2  11
HETATM   11  C7  UNL     1      21.430  32.158   6.404  1.00  0.00     0.049 A 
HETATM   12  C8  UNL     1      20.908  33.411   6.472  1.00  0.00     0.120 A 
HETATM   13  N3  UNL     1      20.472  33.722   5.211  1.00  0.00    -0.341 N 
HETATM   14  C9  UNL     1      20.701  32.719   4.370  1.00  0.00     0.176 A 
ATOM     15  H3  UNL     1      20.032  34.605   4.952  1.00  0.00     0.167 HD
HETATM   16  S1  UNL     1      20.334  32.675   2.759  1.00  0.00    -0.041 SA
HETATM   17  N4  UNL     1      21.284  31.763   5.095  1.00  0.00    -0.332 N 
ATOM     18  H4  UNL     1      21.583  30.860   4.728  1.00  0.00     0.168 HD
ENDBRANCH   2  11
TORSDOF 3
ENDMDL
MODEL 4
REMARK VINA RESULT: -6.192055041      1.804      2.371
REMARK  3 active torsions:
REMARK  status: ('A' for Active; 'I' for Inactive)
REMARK    1  A    between atoms: N1_4  and  N2_6 
REMARK    2  A    between atoms: C4_8  and  C5_9 
REMARK    3  A    between atoms: C6_10  and  C7_11 
ROOT
HETATM    1  C5  UNL     1      22.600  28.967   5.119  1.00  0.00     0.021 C 
HETATM    2  C6  UNL     1      23.759  28.493   4.842  1.00  0.00     0.032 C 
ENDROOT
BRANCH   1   3
HETATM    3  C4  UNL     1      22.189  29.837   6.182  1.00  0.00     0.107 C 
HETATM    4  N2  UNL     1      21.532  30.940   5.841  1.00  0.00    -0.312 N 
ATOM      5  H2  UNL     1      21.217  31.594   6.557  1.00  0.00     0.186 HD
BRANCH   4   6
HETATM    6  N1  UNL     1      21.280  31.194   4.503  1.00  0.00    -0.310 N 
HETATM    7  C2  UNL     1      20.838  32.325   4.143  1.00  0.00    -0.004 C 
HETATM    8  C1  UNL     1      20.588  33.382   5.155  1.00  0.00     0.064 C 
HETATM    9  C3  UNL     1      20.558  32.620   2.709  1.00  0.00     0.064 C 
ATOM     10  H1  UNL     1      21.450  30.470   3.806  1.00  0.00     0.186 HD
ENDBRANCH   4   6
ENDBRANCH   1   3
BRANCH   2  11
HETATM   11  C7  UNL     1      25.045  28.643   5.466  1.00  0.00     0.049 A 
HETATM   12  C8  UNL     1      26.303  28.627   4.949  1.00  0.00     0.120 A 
HETATM   13  N3  UNL     1      27.160  28.818   6.000  1.00  0.00    -0.341 N 
HETATM   14  C9  UNL     1      26.489  28.949   7.140  1.00  0.00     0.176 A 
ATOM     15  H3  UNL     1      28.176  28.853   5.920  1.00  0.00     0.167 HD
HETATM   16  S1  UNL     1      27.132  29.194   8.643  1.00  0.00    -0.041 SA
HETATM   17  N4  UNL     1      25.199  28.843   6.817  1.00  0.00    -0.332 N 
ATOM     18  H4  UNL     1      24.429  28.901   7.484  1.00  0.00     0.168 HD
ENDBRANCH   2  11
TORSDOF 3
ENDMDL
MODEL 5
REMARK VINA RESULT: -6.167469547      1.986      2.976
REMARK  3 active torsions:
REMARK  status: ('A' for Active; 'I' for Inactive)
REMARK    1  A    between atoms: N1_4  and  N2_6 
REMARK    2  A    between atoms: C4_8  and  C5_9 
REMARK    3  A    between atoms: C6_10  and  C7_11 
ROOT
HETATM    1  C5  UNL     1      26.129  28.878   8.101  1.00  0.00     0.021 C 
HETATM    2  C6  UNL     1      27.287  28.852   8.651  1.00  0.00     0.032 C 
ENDROOT
BRANCH   1   3
HETATM    3  C4  UNL     1      25.739  28.574   6.756  1.00  0.00     0.107 C 
HETATM    4  N2  UNL     1      24.636  29.156   6.300  1.00  0.00    -0.312 N 
ATOM      5  H2  UNL     1      24.313  28.974   5.349  1.00  0.00     0.186 HD
BRANCH   4   6
HETATM    6  N1  UNL     1      23.927  30.011   7.126  1.00  0.00    -0.310 N 
HETATM    7  C2  UNL     1      22.740  30.340   6.834  1.00  0.00    -0.004 C 
HETATM    8  C1  UNL     1      22.104  29.810   5.601  1.00  0.00     0.064 C 
HETATM    9  C3  UNL     1      21.959  31.261   7.709  1.00  0.00     0.064 C 
ATOM     10  H1  UNL     1      24.362  30.377   7.973  1.00  0.00     0.186 HD
ENDBRANCH   4   6
ENDBRANCH   1   3
BRANCH   2  11
HETATM   11  C7  UNL     1      28.593  28.520   8.152  1.00  0.00     0.049 A 
HETATM   12  C8  UNL     1      29.651  27.901   8.741  1.00  0.00     0.120 A 
HETATM   13  N3  UNL     1      30.645  27.846   7.800  1.00  0.00    -0.341 N 
HETATM   14  C9  UNL     1      30.250  28.404   6.661  1.00  0.00     0.176 A 
ATOM     15  H3  UNL     1      31.565  27.434   7.954  1.00  0.00     0.167 HD
HETATM   16  S1  UNL     1      31.135  28.551   5.273  1.00  0.00    -0.041 SA
HETATM   17  N4  UNL     1      28.999  28.816   6.872  1.00  0.00    -0.332 N 
ATOM     18  H4  UNL     1      28.421  29.288   6.178  1.00  0.00     0.168 HD
ENDBRANCH   2  11
TORSDOF 3
ENDMDL
