MODEL 1
REMARK VINA RESULT: -5.719776630      0.000      0.000
REMARK  7 active torsions:
REMARK  status: ('A' for Active; 'I' for Inactive)
REMARK    1  A    between atoms: C2_2  and  C3_3 
REMARK    2  A    between atoms: C3_3  and  O1_4 
REMARK    3  A    between atoms: C3_3  and  N1_6 
REMARK    4  A    between atoms: N1_6  and  C4_7 
REMARK    5  A    between atoms: N1_6  and  C10_18 
REMARK    6  A    between atoms: C5_9  and  O3_10 
REMARK    7  A    between atoms: C6_12  and  C7_13 
ROOT
HETATM    1  C4  UNL     1      32.403  20.023  -3.212  1.00  0.00     0.174 A 
HETATM    2  O2  UNL     1      33.567  19.870  -3.839  1.00  0.00    -0.268 OA
HETATM    3  C5  UNL     1      33.519  20.373  -5.048  1.00  0.00     0.201 A 
HETATM    4  C6  UNL     1      32.246  20.887  -5.218  1.00  0.00     0.093 A 
HETATM    5  C9  UNL     1      31.542  20.666  -4.060  1.00  0.00     0.104 A 
HETATM    6 CL1  UNL     1      29.889  21.122  -3.757  1.00  0.00    -0.079 Cl
ENDROOT
BRANCH   1   7
HETATM    7  N1  UNL     1      32.153  19.565  -1.860  1.00  0.00    -0.325 N 
BRANCH   7   8
HETATM    8  C3  UNL     1      31.996  18.178  -1.653  1.00  0.00     0.222 C 
BRANCH   8   9
HETATM    9  C2  UNL     1      30.741  17.483  -1.964  1.00  0.00     0.049 C 
HETATM   10  C1  UNL     1      29.630  17.557  -0.971  1.00  0.00     0.009 C 
ENDBRANCH   8   9
BRANCH   8  11
HETATM   11  O1  UNL     1      32.983  17.569  -2.503  1.00  0.00    -0.377 OA
ATOM     12  H1  UNL     1      33.818  17.768  -2.096  1.00  0.00     0.212 HD
ENDBRANCH   8  11
ENDBRANCH   7   8
BRANCH   7  13
HETATM   13  C10 UNL     1      32.095  20.574  -0.876  1.00  0.00     0.026 C 
HETATM   14  C11 UNL     1      30.854  21.353  -0.671  1.00  0.00     0.037 C 
HETATM   15  C12 UNL     1      33.303  21.538  -0.996  1.00  0.00     0.037 C 
HETATM   16  C13 UNL     1      32.349  19.871   0.496  1.00  0.00     0.037 C 
ENDBRANCH   7  13
ENDBRANCH   1   7
BRANCH   3  17
HETATM   17  O3  UNL     1      34.530  20.405  -6.001  1.00  0.00    -0.340 OA
ATOM     18  H3  UNL     1      35.083  19.688  -6.290  1.00  0.00     0.220 HD
ENDBRANCH   3  17
BRANCH   4  19
HETATM   19  C7  UNL     1      31.712  21.546  -6.390  1.00  0.00     0.162 C 
HETATM   20  C8  UNL     1      30.274  21.926  -6.410  1.00  0.00     0.097 C 
HETATM   21  O4  UNL     1      32.395  21.821  -7.406  1.00  0.00    -0.293 OA
ENDBRANCH   4  19
TORSDOF 7
ENDMDL
MODEL 2
REMARK VINA RESULT: -5.676126496      1.106      2.470
REMARK  7 active torsions:
REMARK  status: ('A' for Active; 'I' for Inactive)
REMARK    1  A    between atoms: C2_2  and  C3_3 
REMARK    2  A    between atoms: C3_3  and  O1_4 
REMARK    3  A    between atoms: C3_3  and  N1_6 
REMARK    4  A    between atoms: N1_6  and  C4_7 
REMARK    5  A    between atoms: N1_6  and  C10_18 
REMARK    6  A    between atoms: C5_9  and  O3_10 
REMARK    7  A    between atoms: C6_12  and  C7_13 
ROOT
HETATM    1  C4  UNL     1      32.728  20.244  -3.700  1.00  0.00     0.174 A 
HETATM    2  O2  UNL     1      33.859  20.044  -4.374  1.00  0.00    -0.268 OA
HETATM    3  C5  UNL     1      33.737  20.423  -5.621  1.00  0.00     0.201 A 
HETATM    4  C6  UNL     1      32.447  20.902  -5.771  1.00  0.00     0.093 A 
HETATM    5  C9  UNL     1      31.811  20.789  -4.559  1.00  0.00     0.104 A 
HETATM    6 CL1  UNL     1      30.169  21.252  -4.211  1.00  0.00    -0.079 Cl
ENDROOT
BRANCH   1   7
HETATM    7  N1  UNL     1      32.560  19.921  -2.298  1.00  0.00    -0.325 N 
BRANCH   7   8
HETATM    8  C3  UNL     1      32.618  20.979  -1.367  1.00  0.00     0.222 C 
BRANCH   8   9
HETATM    9  C2  UNL     1      31.874  20.944  -0.102  1.00  0.00     0.049 C 
HETATM   10  C1  UNL     1      30.567  21.660  -0.034  1.00  0.00     0.009 C 
ENDBRANCH   8   9
BRANCH   8  11
HETATM   11  O1  UNL     1      34.003  21.055  -0.986  1.00  0.00    -0.377 OA
ATOM     12  H1  UNL     1      34.089  21.881  -0.527  1.00  0.00     0.212 HD
ENDBRANCH   8  11
ENDBRANCH   7   8
BRANCH   7  13
HETATM   13  C10 UNL     1      32.350  18.556  -2.008  1.00  0.00     0.026 C 
HETATM   14  C11 UNL     1      32.951  17.944  -0.802  1.00  0.00     0.037 C 
HETATM   15  C12 UNL     1      32.648  17.672  -3.246  1.00  0.00     0.037 C 
HETATM   16  C13 UNL     1      30.811  18.375  -1.816  1.00  0.00     0.037 C 
ENDBRANCH   7  13
ENDBRANCH   1   7
BRANCH   3  17
HETATM   17  O3  UNL     1      34.693  20.372  -6.628  1.00  0.00    -0.340 OA
ATOM     18  H3  UNL     1      34.818  19.693  -7.281  1.00  0.00     0.220 HD
ENDBRANCH   3  17
BRANCH   4  19
HETATM   19  C7  UNL     1      31.838  21.433  -6.970  1.00  0.00     0.162 C 
HETATM   20  C8  UNL     1      30.678  22.354  -6.842  1.00  0.00     0.097 C 
HETATM   21  O4  UNL     1      32.233  21.161  -8.130  1.00  0.00    -0.293 OA
ENDBRANCH   4  19
TORSDOF 7
ENDMDL
MODEL 3
REMARK VINA RESULT: -5.406585381      4.563      5.643
REMARK  7 active torsions:
REMARK  status: ('A' for Active; 'I' for Inactive)
REMARK    1  A    between atoms: C2_2  and  C3_3 
REMARK    2  A    between atoms: C3_3  and  O1_4 
REMARK    3  A    between atoms: C3_3  and  N1_6 
REMARK    4  A    between atoms: N1_6  and  C4_7 
REMARK    5  A    between atoms: N1_6  and  C10_18 
REMARK    6  A    between atoms: C5_9  and  O3_10 
REMARK    7  A    between atoms: C6_12  and  C7_13 
ROOT
HETATM    1  C4  UNL     1      27.779  22.471  -3.065  1.00  0.00     0.174 A 
HETATM    2  O2  UNL     1      28.057  21.570  -4.005  1.00  0.00    -0.268 OA
HETATM    3  C5  UNL     1      28.517  22.146  -5.087  1.00  0.00     0.201 A 
HETATM    4  C6  UNL     1      28.541  23.507  -4.838  1.00  0.00     0.093 A 
HETATM    5  C9  UNL     1      28.076  23.712  -3.562  1.00  0.00     0.104 A 
HETATM    6 CL1  UNL     1      27.907  25.249  -2.762  1.00  0.00    -0.079 Cl
ENDROOT
BRANCH   1   7
HETATM    7  N1  UNL     1      27.254  22.133  -1.758  1.00  0.00    -0.325 N 
BRANCH   7   8
HETATM    8  C3  UNL     1      25.852  22.109  -1.597  1.00  0.00     0.222 C 
BRANCH   8   9
HETATM    9  C2  UNL     1      25.032  23.317  -1.748  1.00  0.00     0.049 C 
HETATM   10  C1  UNL     1      24.861  24.205  -0.561  1.00  0.00     0.009 C 
ENDBRANCH   8   9
BRANCH   8  11
HETATM   11  O1  UNL     1      25.384  21.208  -2.615  1.00  0.00    -0.377 OA
ATOM     12  H1  UNL     1      25.742  20.360  -2.380  1.00  0.00     0.212 HD
ENDBRANCH   8  11
ENDBRANCH   7   8
BRANCH   7  13
HETATM   13  C10 UNL     1      28.219  21.854  -0.767  1.00  0.00     0.026 C 
HETATM   14  C11 UNL     1      29.625  21.590  -1.143  1.00  0.00     0.037 C 
HETATM   15  C12 UNL     1      27.721  20.752   0.201  1.00  0.00     0.037 C 
HETATM   16  C13 UNL     1      28.287  23.116   0.152  1.00  0.00     0.037 C 
ENDBRANCH   7  13
ENDBRANCH   1   7
BRANCH   3  17
HETATM   17  O3  UNL     1      28.914  21.542  -6.274  1.00  0.00    -0.340 OA
ATOM     18  H3  UNL     1      29.573  20.868  -6.394  1.00  0.00     0.220 HD
ENDBRANCH   3  17
BRANCH   4  19
HETATM   19  C7  UNL     1      28.972  24.558  -5.733  1.00  0.00     0.162 C 
HETATM   20  C8  UNL     1      28.703  25.974  -5.363  1.00  0.00     0.097 C 
HETATM   21  O4  UNL     1      29.566  24.349  -6.818  1.00  0.00    -0.293 OA
ENDBRANCH   4  19
TORSDOF 7
ENDMDL
MODEL 4
REMARK VINA RESULT: -5.262917275      4.531      5.478
REMARK  7 active torsions:
REMARK  status: ('A' for Active; 'I' for Inactive)
REMARK    1  A    between atoms: C2_2  and  C3_3 
REMARK    2  A    between atoms: C3_3  and  O1_4 
REMARK    3  A    between atoms: C3_3  and  N1_6 
REMARK    4  A    between atoms: N1_6  and  C4_7 
REMARK    5  A    between atoms: N1_6  and  C10_18 
REMARK    6  A    between atoms: C5_9  and  O3_10 
REMARK    7  A    between atoms: C6_12  and  C7_13 
ROOT
HETATM    1  C4  UNL     1      27.795  22.308  -2.952  1.00  0.00     0.174 A 
HETATM    2  O2  UNL     1      28.096  21.486  -3.955  1.00  0.00    -0.268 OA
HETATM    3  C5  UNL     1      28.507  22.155  -5.004  1.00  0.00     0.201 A 
HETATM    4  C6  UNL     1      28.472  23.495  -4.664  1.00  0.00     0.093 A 
HETATM    5  C9  UNL     1      28.023  23.592  -3.370  1.00  0.00     0.104 A 
HETATM    6 CL1  UNL     1      27.798  25.062  -2.466  1.00  0.00    -0.079 Cl
ENDROOT
BRANCH   1   7
HETATM    7  N1  UNL     1      27.313  21.858  -1.662  1.00  0.00    -0.325 N 
BRANCH   7   8
HETATM    8  C3  UNL     1      25.948  21.520  -1.551  1.00  0.00     0.222 C 
BRANCH   8   9
HETATM    9  C2  UNL     1      24.992  22.369  -0.831  1.00  0.00     0.049 C 
HETATM   10  C1  UNL     1      24.720  23.734  -1.368  1.00  0.00     0.009 C 
ENDBRANCH   8   9
BRANCH   8  11
HETATM   11  O1  UNL     1      25.470  21.484  -2.907  1.00  0.00    -0.377 OA
ATOM     12  H1  UNL     1      24.524  21.434  -2.836  1.00  0.00     0.212 HD
ENDBRANCH   8  11
ENDBRANCH   7   8
BRANCH   7  13
HETATM   13  C10 UNL     1      28.279  21.803  -0.636  1.00  0.00     0.026 C 
HETATM   14  C11 UNL     1      28.417  22.919   0.326  1.00  0.00     0.037 C 
HETATM   15  C12 UNL     1      29.672  21.429  -1.203  1.00  0.00     0.037 C 
HETATM   16  C13 UNL     1      27.920  20.565   0.246  1.00  0.00     0.037 C 
ENDBRANCH   7  13
ENDBRANCH   1   7
BRANCH   3  17
HETATM   17  O3  UNL     1      28.908  21.651  -6.236  1.00  0.00    -0.340 OA
ATOM     18  H3  UNL     1      28.757  20.782  -6.588  1.00  0.00     0.220 HD
ENDBRANCH   3  17
BRANCH   4  19
HETATM   19  C7  UNL     1      28.834  24.623  -5.493  1.00  0.00     0.162 C 
HETATM   20  C8  UNL     1      28.630  26.000  -4.967  1.00  0.00     0.097 C 
HETATM   21  O4  UNL     1      29.317  24.514  -6.646  1.00  0.00    -0.293 OA
ENDBRANCH   4  19
TORSDOF 7
ENDMDL
MODEL 5
REMARK VINA RESULT: -5.218510970      5.009      6.119
REMARK  7 active torsions:
REMARK  status: ('A' for Active; 'I' for Inactive)
REMARK    1  A    between atoms: C2_2  and  C3_3 
REMARK    2  A    between atoms: C3_3  and  O1_4 
REMARK    3  A    between atoms: C3_3  and  N1_6 
REMARK    4  A    between atoms: N1_6  and  C4_7 
REMARK    5  A    between atoms: N1_6  and  C10_18 
REMARK    6  A    between atoms: C5_9  and  O3_10 
REMARK    7  A    between atoms: C6_12  and  C7_13 
ROOT
HETATM    1  C4  UNL     1      27.958  23.464  -3.419  1.00  0.00     0.174 A 
HETATM    2  O2  UNL     1      28.314  23.303  -4.692  1.00  0.00    -0.268 OA
HETATM    3  C5  UNL     1      28.620  24.452  -5.243  1.00  0.00     0.201 A 
HETATM    4  C6  UNL     1      28.455  25.421  -4.269  1.00  0.00     0.093 A 
HETATM    5  C9  UNL     1      28.037  24.797  -3.118  1.00  0.00     0.104 A 
HETATM    6 CL1  UNL     1      27.687  25.570  -1.598  1.00  0.00    -0.079 Cl
ENDROOT
BRANCH   1   7
HETATM    7  N1  UNL     1      27.566  22.372  -2.551  1.00  0.00    -0.325 N 
BRANCH   7   8
HETATM    8  C3  UNL     1      26.191  22.071  -2.453  1.00  0.00     0.222 C 
BRANCH   8   9
HETATM    9  C2  UNL     1      25.279  22.859  -1.615  1.00  0.00     0.049 C 
HETATM   10  C1  UNL     1      25.566  22.946  -0.153  1.00  0.00     0.009 C 
ENDBRANCH   8   9
BRANCH   8  11
HETATM   11  O1  UNL     1      25.690  22.218  -3.793  1.00  0.00    -0.377 OA
ATOM     12  H1  UNL     1      25.014  21.556  -3.879  1.00  0.00     0.212 HD
ENDBRANCH   8  11
ENDBRANCH   7   8
BRANCH   7  13
HETATM   13  C10 UNL     1      28.620  21.713  -1.885  1.00  0.00     0.026 C 
HETATM   14  C11 UNL     1      29.257  22.325  -0.697  1.00  0.00     0.037 C 
HETATM   15  C12 UNL     1      29.713  21.259  -2.886  1.00  0.00     0.037 C 
HETATM   16  C13 UNL     1      28.041  20.358  -1.367  1.00  0.00     0.037 C 
ENDBRANCH   7  13
ENDBRANCH   1   7
BRANCH   3  17
HETATM   17  O3  UNL     1      29.034  24.690  -6.548  1.00  0.00    -0.340 OA
ATOM     18  H3  UNL     1      29.396  25.491  -6.909  1.00  0.00     0.220 HD
ENDBRANCH   3  17
BRANCH   4  19
HETATM   19  C7  UNL     1      28.671  26.844  -4.399  1.00  0.00     0.162 C 
HETATM   20  C8  UNL     1      29.003  27.404  -5.736  1.00  0.00     0.097 C 
HETATM   21  O4  UNL     1      28.596  27.650  -3.440  1.00  0.00    -0.293 OA
ENDBRANCH   4  19
TORSDOF 7
ENDMDL
