MODEL 1
REMARK VINA RESULT: -7.502982232      0.000      0.000
REMARK  6 active torsions:
REMARK  status: ('A' for Active; 'I' for Inactive)
REMARK    1  A    between atoms: C2_2  and  C3_3 
REMARK    2  A    between atoms: C3_3  and  C4_4 
REMARK    3  A    between atoms: C4_4  and  C5_5 
REMARK    4  A    between atoms: C6_10  and  N3_11 
REMARK    5  A    between atoms: N3_11  and  N4_13 
REMARK    6  A    between atoms: N4_13  and  C7_15 
ROOT
HETATM    1  C5  UNL     1      28.976  26.925  -7.619  1.00  0.00     0.065 A 
HETATM    2  N1  UNL     1      29.266  26.357  -8.823  1.00  0.00    -0.287 N 
ATOM      3  H1  UNL     1      29.229  26.947  -9.654  1.00  0.00     0.187 HD
HETATM    4  N2  UNL     1      29.591  25.087  -8.975  1.00  0.00    -0.130 N 
ATOM      5  H2  UNL     1      29.798  24.714  -9.901  1.00  0.00     0.205 HD
HETATM    6  C6  UNL     1      29.645  24.291  -7.894  1.00  0.00     0.712 A 
HETATM    7  N5  UNL     1      29.368  24.818  -6.703  1.00  0.00    -0.177 N 
ATOM      8  H5  UNL     1      29.413  24.209  -5.886  1.00  0.00     0.185 HD
HETATM    9  C10 UNL     1      29.030  26.121  -6.513  1.00  0.00     0.140 A 
HETATM   10  S2  UNL     1      28.666  26.618  -4.994  1.00  0.00    -0.058 SA
ENDROOT
BRANCH   6  11
HETATM   11  N3  UNL     1      29.961  23.051  -8.072  1.00  0.00    -0.128 N 
ATOM     12  H3  UNL     1      30.326  22.756  -8.978  1.00  0.00     0.205 HD
BRANCH  11  13
HETATM   13  N4  UNL     1      29.815  22.103  -7.054  1.00  0.00    -0.259 N 
ATOM     14  H4  UNL     1      28.900  21.792  -6.729  1.00  0.00     0.190 HD
BRANCH  13  15
HETATM   15  C7  UNL     1      30.935  21.636  -6.540  1.00  0.00     0.207 A 
HETATM   16  O1  UNL     1      31.142  21.267  -5.321  1.00  0.00    -0.274 OA
HETATM   17  C8  UNL     1      32.256  20.839  -4.944  1.00  0.00     0.154 A 
HETATM   18 CL1  UNL     1      32.556  20.329  -3.262  1.00  0.00    -0.056 Cl
HETATM   19  C9  UNL     1      33.273  20.766  -5.868  1.00  0.00     0.104 A 
HETATM   20  S1  UNL     1      32.455  21.360  -7.260  1.00  0.00    -0.053 SA
ENDBRANCH  13  15
ENDBRANCH  11  13
ENDBRANCH   6  11
BRANCH   1  21
HETATM   21  C4  UNL     1      28.666  28.361  -7.493  1.00  0.00     0.062 C 
BRANCH  21  22
HETATM   22  C3  UNL     1      28.211  29.073  -8.701  1.00  0.00     0.006 C 
BRANCH  22  23
HETATM   23  C2  UNL     1      27.453  30.332  -8.557  1.00  0.00    -0.004 C 
HETATM   24  C1  UNL     1      26.547  30.452  -9.805  1.00  0.00     0.005 C 
ENDBRANCH  22  23
ENDBRANCH  21  22
ENDBRANCH   1  21
TORSDOF 6
ENDMDL
MODEL 2
REMARK VINA RESULT: -7.418800432      4.601      8.212
REMARK  6 active torsions:
REMARK  status: ('A' for Active; 'I' for Inactive)
REMARK    1  A    between atoms: C2_2  and  C3_3 
REMARK    2  A    between atoms: C3_3  and  C4_4 
REMARK    3  A    between atoms: C4_4  and  C5_5 
REMARK    4  A    between atoms: C6_10  and  N3_11 
REMARK    5  A    between atoms: N3_11  and  N4_13 
REMARK    6  A    between atoms: N4_13  and  C7_15 
ROOT
HETATM    1  C5  UNL     1      29.433  24.768  -7.545  1.00  0.00     0.065 A 
HETATM    2  N1  UNL     1      29.673  25.140  -8.833  1.00  0.00    -0.287 N 
ATOM      3  H1  UNL     1      30.050  24.441  -9.473  1.00  0.00     0.187 HD
HETATM    4  N2  UNL     1      29.446  26.353  -9.301  1.00  0.00    -0.130 N 
ATOM      5  H2  UNL     1      29.645  26.577 -10.276  1.00  0.00     0.205 HD
HETATM    6  C6  UNL     1      28.951  27.291  -8.476  1.00  0.00     0.712 A 
HETATM    7  N5  UNL     1      28.705  26.957  -7.211  1.00  0.00    -0.177 N 
ATOM      8  H5  UNL     1      28.327  27.673  -6.590  1.00  0.00     0.185 HD
HETATM    9  C10 UNL     1      28.928  25.717  -6.698  1.00  0.00     0.140 A 
HETATM   10  S2  UNL     1      28.626  25.466  -5.107  1.00  0.00    -0.058 SA
ENDROOT
BRANCH   6  11
HETATM   11  N3  UNL     1      28.743  28.471  -8.958  1.00  0.00    -0.128 N 
ATOM     12  H3  UNL     1      28.594  28.578  -9.962  1.00  0.00     0.205 HD
BRANCH  11  13
HETATM   13  N4  UNL     1      28.718  29.605  -8.139  1.00  0.00    -0.259 N 
ATOM     14  H4  UNL     1      29.524  29.891  -7.585  1.00  0.00     0.190 HD
BRANCH  13  15
HETATM   15  C7  UNL     1      27.586  30.280  -8.129  1.00  0.00     0.207 A 
HETATM   16  O1  UNL     1      27.115  31.000  -7.167  1.00  0.00    -0.274 OA
HETATM   17  C8  UNL     1      26.020  31.598  -7.271  1.00  0.00     0.154 A 
HETATM   18 CL1  UNL     1      25.356  32.595  -5.950  1.00  0.00    -0.056 Cl
HETATM   19  C9  UNL     1      25.318  31.473  -8.448  1.00  0.00     0.104 A 
HETATM   20  S1  UNL     1      26.382  30.445  -9.324  1.00  0.00    -0.053 SA
ENDBRANCH  13  15
ENDBRANCH  11  13
ENDBRANCH   6  11
BRANCH   1  21
HETATM   21  C4  UNL     1      29.656  23.387  -7.081  1.00  0.00     0.062 C 
BRANCH  21  22
HETATM   22  C3  UNL     1      30.802  22.651  -7.646  1.00  0.00     0.006 C 
BRANCH  22  23
HETATM   23  C2  UNL     1      31.505  21.654  -6.812  1.00  0.00    -0.004 C 
HETATM   24  C1  UNL     1      30.655  21.463  -5.534  1.00  0.00     0.005 C 
ENDBRANCH  22  23
ENDBRANCH  21  22
ENDBRANCH   1  21
TORSDOF 6
ENDMDL
MODEL 3
REMARK VINA RESULT: -7.354762905      2.045      2.535
REMARK  6 active torsions:
REMARK  status: ('A' for Active; 'I' for Inactive)
REMARK    1  A    between atoms: C2_2  and  C3_3 
REMARK    2  A    between atoms: C3_3  and  C4_4 
REMARK    3  A    between atoms: C4_4  and  C5_5 
REMARK    4  A    between atoms: C6_10  and  N3_11 
REMARK    5  A    between atoms: N3_11  and  N4_13 
REMARK    6  A    between atoms: N4_13  and  C7_15 
ROOT
HETATM    1  C5  UNL     1      28.602  28.838  -7.554  1.00  0.00     0.065 A 
HETATM    2  N1  UNL     1      28.679  28.517  -8.876  1.00  0.00    -0.287 N 
ATOM      3  H1  UNL     1      28.395  29.220  -9.558  1.00  0.00     0.187 HD
HETATM    4  N2  UNL     1      29.102  27.349  -9.323  1.00  0.00    -0.130 N 
ATOM      5  H2  UNL     1      29.139  27.163 -10.326  1.00  0.00     0.205 HD
HETATM    6  C6  UNL     1      29.481  26.409  -8.443  1.00  0.00     0.712 A 
HETATM    7  N5  UNL     1      29.418  26.693  -7.144  1.00  0.00    -0.177 N 
ATOM      8  H5  UNL     1      29.709  25.975  -6.480  1.00  0.00     0.185 HD
HETATM    9  C10 UNL     1      28.987  27.885  -6.650  1.00  0.00     0.140 A 
HETATM   10  S2  UNL     1      28.915  28.074  -5.024  1.00  0.00    -0.058 SA
ENDROOT
BRANCH   6  11
HETATM   11  N3  UNL     1      29.886  25.274  -8.908  1.00  0.00    -0.128 N 
ATOM     12  H3  UNL     1      30.701  25.250  -9.521  1.00  0.00     0.205 HD
BRANCH  11  13
HETATM   13  N4  UNL     1      29.234  24.077  -8.593  1.00  0.00    -0.259 N 
ATOM     14  H4  UNL     1      28.291  23.870  -8.922  1.00  0.00     0.190 HD
BRANCH  13  15
HETATM   15  C7  UNL     1      29.914  23.233  -7.845  1.00  0.00     0.207 A 
HETATM   16  O1  UNL     1      31.026  22.647  -8.141  1.00  0.00    -0.274 OA
HETATM   17  C8  UNL     1      31.584  21.857  -7.346  1.00  0.00     0.154 A 
HETATM   18 CL1  UNL     1      33.118  21.039  -7.743  1.00  0.00    -0.056 Cl
HETATM   19  C9  UNL     1      30.982  21.622  -6.131  1.00  0.00     0.104 A 
HETATM   20  S1  UNL     1      29.596  22.629  -6.283  1.00  0.00    -0.053 SA
ENDBRANCH  13  15
ENDBRANCH  11  13
ENDBRANCH   6  11
BRANCH   1  21
HETATM   21  C4  UNL     1      28.170  30.173  -7.103  1.00  0.00     0.062 C 
BRANCH  21  22
HETATM   22  C3  UNL     1      27.102  30.842  -7.867  1.00  0.00     0.006 C 
BRANCH  22  23
HETATM   23  C2  UNL     1      26.047  31.582  -7.143  1.00  0.00    -0.004 C 
HETATM   24  C1  UNL     1      24.818  31.638  -8.081  1.00  0.00     0.005 C 
ENDBRANCH  22  23
ENDBRANCH  21  22
ENDBRANCH   1  21
TORSDOF 6
ENDMDL
MODEL 4
REMARK VINA RESULT: -7.339076356      4.354      7.985
REMARK  6 active torsions:
REMARK  status: ('A' for Active; 'I' for Inactive)
REMARK    1  A    between atoms: C2_2  and  C3_3 
REMARK    2  A    between atoms: C3_3  and  C4_4 
REMARK    3  A    between atoms: C4_4  and  C5_5 
REMARK    4  A    between atoms: C6_10  and  N3_11 
REMARK    5  A    between atoms: N3_11  and  N4_13 
REMARK    6  A    between atoms: N4_13  and  C7_15 
ROOT
HETATM    1  C5  UNL     1      29.550  23.601  -6.866  1.00  0.00     0.065 A 
HETATM    2  N1  UNL     1      29.925  23.642  -8.175  1.00  0.00    -0.287 N 
ATOM      3  H1  UNL     1      30.369  22.815  -8.574  1.00  0.00     0.187 HD
HETATM    4  N2  UNL     1      29.745  24.690  -8.956  1.00  0.00    -0.130 N 
ATOM      5  H2  UNL     1      30.045  24.666  -9.931  1.00  0.00     0.205 HD
HETATM    6  C6  UNL     1      29.162  25.790  -8.453  1.00  0.00     0.712 A 
HETATM    7  N5  UNL     1      28.784  25.781  -7.176  1.00  0.00    -0.177 N 
ATOM      8  H5  UNL     1      28.341  26.618  -6.800  1.00  0.00     0.185 HD
HETATM    9  C10 UNL     1      28.956  24.718  -6.345  1.00  0.00     0.140 A 
HETATM   10  S2  UNL     1      28.487  24.868  -4.782  1.00  0.00    -0.058 SA
ENDROOT
BRANCH   6  11
HETATM   11  N3  UNL     1      29.003  26.803  -9.238  1.00  0.00    -0.128 N 
ATOM     12  H3  UNL     1      28.531  26.670 -10.133  1.00  0.00     0.205 HD
BRANCH  11  13
HETATM   13  N4  UNL     1      29.463  28.079  -8.893  1.00  0.00    -0.259 N 
ATOM     14  H4  UNL     1      30.455  28.286  -8.784  1.00  0.00     0.190 HD
BRANCH  13  15
HETATM   15  C7  UNL     1      28.533  28.996  -8.719  1.00  0.00     0.207 A 
HETATM   16  O1  UNL     1      27.655  29.392  -9.578  1.00  0.00    -0.274 OA
HETATM   17  C8  UNL     1      26.817  30.279  -9.298  1.00  0.00     0.154 A 
HETATM   18 CL1  UNL     1      25.601  30.838 -10.477  1.00  0.00    -0.056 Cl
HETATM   19  C9  UNL     1      26.846  30.830  -8.038  1.00  0.00     0.104 A 
HETATM   20  S1  UNL     1      28.161  29.953  -7.359  1.00  0.00    -0.053 SA
ENDBRANCH  13  15
ENDBRANCH  11  13
ENDBRANCH   6  11
BRANCH   1  21
HETATM   21  C4  UNL     1      29.727  22.389  -6.046  1.00  0.00     0.062 C 
BRANCH  21  22
HETATM   22  C3  UNL     1      30.949  21.592  -6.255  1.00  0.00     0.006 C 
BRANCH  22  23
HETATM   23  C2  UNL     1      31.652  21.021  -5.087  1.00  0.00    -0.004 C 
HETATM   24  C1  UNL     1      33.155  20.975  -5.449  1.00  0.00     0.005 C 
ENDBRANCH  22  23
ENDBRANCH  21  22
ENDBRANCH   1  21
TORSDOF 6
ENDMDL
MODEL 5
REMARK VINA RESULT: -7.155672189      1.917      2.543
REMARK  6 active torsions:
REMARK  status: ('A' for Active; 'I' for Inactive)
REMARK    1  A    between atoms: C2_2  and  C3_3 
REMARK    2  A    between atoms: C3_3  and  C4_4 
REMARK    3  A    between atoms: C4_4  and  C5_5 
REMARK    4  A    between atoms: C6_10  and  N3_11 
REMARK    5  A    between atoms: N3_11  and  N4_13 
REMARK    6  A    between atoms: N4_13  and  C7_15 
ROOT
HETATM    1  C5  UNL     1      28.892  26.787  -5.893  1.00  0.00     0.065 A 
HETATM    2  N1  UNL     1      28.633  26.424  -4.605  1.00  0.00    -0.287 N 
ATOM      3  H1  UNL     1      28.511  27.162  -3.913  1.00  0.00     0.187 HD
HETATM    4  N2  UNL     1      28.531  25.171  -4.203  1.00  0.00    -0.130 N 
ATOM      5  H2  UNL     1      28.335  24.956  -3.226  1.00  0.00     0.205 HD
HETATM    6  C6  UNL     1      28.688  24.181  -5.098  1.00  0.00     0.712 A 
HETATM    7  N5  UNL     1      28.941  24.504  -6.365  1.00  0.00    -0.177 N 
ATOM      8  H5  UNL     1      29.058  23.749  -7.039  1.00  0.00     0.185 HD
HETATM    9  C10 UNL     1      29.053  25.785  -6.810  1.00  0.00     0.140 A 
HETATM   10  S2  UNL     1      29.418  26.030  -8.389  1.00  0.00    -0.058 SA
ENDROOT
BRANCH   6  11
HETATM   11  N3  UNL     1      28.588  22.964  -4.676  1.00  0.00    -0.128 N 
ATOM     12  H3  UNL     1      28.260  22.793  -3.725  1.00  0.00     0.205 HD
BRANCH  11  13
HETATM   13  N4  UNL     1      28.917  21.876  -5.491  1.00  0.00    -0.259 N 
ATOM     14  H4  UNL     1      28.211  21.354  -6.011  1.00  0.00     0.190 HD
BRANCH  13  15
HETATM   15  C7  UNL     1      30.196  21.566  -5.546  1.00  0.00     0.207 A 
HETATM   16  O1  UNL     1      30.912  21.033  -4.612  1.00  0.00    -0.274 OA
HETATM   17  C8  UNL     1      32.128  20.785  -4.778  1.00  0.00     0.154 A 
HETATM   18 CL1  UNL     1      33.128  20.052  -3.497  1.00  0.00    -0.056 Cl
HETATM   19  C9  UNL     1      32.696  21.093  -5.993  1.00  0.00     0.104 A 
HETATM   20  S1  UNL     1      31.328  21.746  -6.806  1.00  0.00    -0.053 SA
ENDBRANCH  13  15
ENDBRANCH  11  13
ENDBRANCH   6  11
BRANCH   1  21
HETATM   21  C4  UNL     1      28.948  28.201  -6.304  1.00  0.00     0.062 C 
BRANCH  21  22
HETATM   22  C3  UNL     1      28.970  29.223  -5.242  1.00  0.00     0.006 C 
BRANCH  22  23
HETATM   23  C2  UNL     1      28.629  30.622  -5.575  1.00  0.00    -0.004 C 
HETATM   24  C1  UNL     1      27.950  30.597  -6.964  1.00  0.00     0.005 C 
ENDBRANCH  22  23
ENDBRANCH  21  22
ENDBRANCH   1  21
TORSDOF 6
ENDMDL
