MODEL 1
REMARK VINA RESULT: -7.515411368      0.000      0.000
REMARK  6 active torsions:
REMARK  status: ('A' for Active; 'I' for Inactive)
REMARK    1  A    between atoms: C2_2  and  C11_19 
REMARK    2  A    between atoms: N1_3  and  O1_5 
REMARK    3  A    between atoms: O1_5  and  C3_6 
REMARK       I    between atoms: C3_6  and  N2_8 
REMARK    4  A    between atoms: N2_8  and  C4_10 
REMARK    5  A    between atoms: C4_10  and  C6_12 
REMARK    6  A    between atoms: C11_19  and  N3_21 
ROOT
HETATM    1  C3  UNL     1      30.011  22.858  -6.954  1.00  0.00     0.387 C 
HETATM    2  O2  UNL     1      30.762  23.210  -7.926  1.00  0.00    -0.236 OA
HETATM    3  N2  UNL     1      29.134  23.778  -6.335  1.00  0.00    -0.304 N 
ATOM      4  H2  UNL     1      28.516  23.526  -5.563  1.00  0.00     0.171 HD
ENDROOT
BRANCH   1   5
HETATM    5  O1  UNL     1      30.171  21.500  -6.618  1.00  0.00    -0.181 OA
BRANCH   5   6
HETATM    6  N1  UNL     1      31.139  21.188  -5.795  1.00  0.00    -0.263 N 
HETATM    7  C2  UNL     1      31.525  20.909  -4.693  1.00  0.00     0.036 C 
HETATM    8  C1  UNL     1      30.709  20.786  -3.467  1.00  0.00     0.067 C 
ATOM      9  H1  UNL     1      31.979  21.178  -6.374  1.00  0.00     0.194 HD
BRANCH   7  10
HETATM   10  C11 UNL     1      33.024  20.709  -4.475  1.00  0.00     0.226 C 
HETATM   11  C12 UNL     1      33.726  20.430  -5.743  1.00  0.00     0.046 C 
BRANCH  10  12
HETATM   12  N3  UNL     1      33.251  19.702  -3.497  1.00  0.00    -0.070 N 
ATOM     13  H33 UNL     1      33.075  18.768  -3.864  1.00  0.00     0.275 HD
ATOM     14  H32 UNL     1      34.242  19.597  -3.283  1.00  0.00     0.275 HD
ATOM     15  H31 UNL     1      32.699  19.891  -2.660  1.00  0.00     0.275 HD
ENDBRANCH  10  12
ENDBRANCH   7  10
ENDBRANCH   5   6
ENDBRANCH   1   5
BRANCH   3  16
HETATM   16  C4  UNL     1      29.197  25.128  -6.905  1.00  0.00     0.023 C 
HETATM   17  C5  UNL     1      28.548  25.286  -8.240  1.00  0.00     0.069 C 
BRANCH  16  18
HETATM   18  C6  UNL     1      28.933  26.174  -5.902  1.00  0.00     0.016 A 
HETATM   19  C7  UNL     1      29.153  27.494  -6.116  1.00  0.00     0.029 A 
HETATM   20  C8  UNL     1      29.006  28.341  -5.053  1.00  0.00    -0.019 A 
HETATM   21  C9  UNL     1      29.199  29.819  -4.947  1.00  0.00     0.056 C 
HETATM   22  S1  UNL     1      28.580  27.292  -3.774  1.00  0.00    -0.082 SA
HETATM   23  C10 UNL     1      28.587  25.818  -4.614  1.00  0.00     0.087 A 
HETATM   24 CL1  UNL     1      28.181  24.185  -4.022  1.00  0.00    -0.075 Cl
ENDBRANCH  16  18
ENDBRANCH   3  16
TORSDOF 6
ENDMDL
MODEL 2
REMARK VINA RESULT: -7.494275601      3.608      6.797
REMARK  6 active torsions:
REMARK  status: ('A' for Active; 'I' for Inactive)
REMARK    1  A    between atoms: C2_2  and  C11_19 
REMARK    2  A    between atoms: N1_3  and  O1_5 
REMARK    3  A    between atoms: O1_5  and  C3_6 
REMARK       I    between atoms: C3_6  and  N2_8 
REMARK    4  A    between atoms: N2_8  and  C4_10 
REMARK    5  A    between atoms: C4_10  and  C6_12 
REMARK    6  A    between atoms: C11_19  and  N3_21 
ROOT
HETATM    1  C3  UNL     1      28.732  26.229  -8.150  1.00  0.00     0.387 C 
HETATM    2  O2  UNL     1      28.160  25.289  -8.800  1.00  0.00    -0.236 OA
HETATM    3  N2  UNL     1      29.181  26.034  -6.824  1.00  0.00    -0.304 N 
ATOM      4  H2  UNL     1      29.650  26.760  -6.282  1.00  0.00     0.171 HD
ENDROOT
BRANCH   1   5
HETATM    5  O1  UNL     1      28.851  27.410  -8.908  1.00  0.00    -0.181 OA
BRANCH   5   6
HETATM    6  N1  UNL     1      28.557  28.541  -8.318  1.00  0.00    -0.263 N 
HETATM    7  C2  UNL     1      27.986  29.597  -8.308  1.00  0.00     0.036 C 
HETATM    8  C1  UNL     1      27.109  30.146  -9.363  1.00  0.00     0.067 C 
ATOM      9  H1  UNL     1      29.059  28.509  -7.431  1.00  0.00     0.194 HD
BRANCH   7  10
HETATM   10  C11 UNL     1      28.210  30.534  -7.123  1.00  0.00     0.226 C 
HETATM   11  C12 UNL     1      28.691  29.804  -5.934  1.00  0.00     0.046 C 
BRANCH  10  12
HETATM   12  N3  UNL     1      27.031  31.285  -6.858  1.00  0.00    -0.070 N 
ATOM     13  H33 UNL     1      27.013  32.161  -7.380  1.00  0.00     0.275 HD
ATOM     14  H32 UNL     1      26.204  30.850  -7.265  1.00  0.00     0.275 HD
ATOM     15  H31 UNL     1      26.927  31.438  -5.855  1.00  0.00     0.275 HD
ENDBRANCH  10  12
ENDBRANCH   7  10
ENDBRANCH   5   6
ENDBRANCH   1   5
BRANCH   3  16
HETATM   16  C4  UNL     1      28.910  24.691  -6.301  1.00  0.00     0.023 C 
HETATM   17  C5  UNL     1      29.899  23.644  -6.690  1.00  0.00     0.069 C 
BRANCH  16  18
HETATM   18  C6  UNL     1      28.474  24.713  -4.894  1.00  0.00     0.016 A 
HETATM   19  C7  UNL     1      28.445  25.834  -4.133  1.00  0.00     0.029 A 
HETATM   20  C8  UNL     1      28.160  25.690  -2.804  1.00  0.00    -0.019 A 
HETATM   21  C9  UNL     1      28.079  26.701  -1.706  1.00  0.00     0.056 C 
HETATM   22  S1  UNL     1      27.952  24.003  -2.630  1.00  0.00    -0.082 SA
HETATM   23  C10 UNL     1      28.217  23.528  -4.236  1.00  0.00     0.087 A 
HETATM   24 CL1  UNL     1      28.126  21.898  -4.955  1.00  0.00    -0.075 Cl
ENDBRANCH  16  18
ENDBRANCH   3  16
TORSDOF 6
ENDMDL
MODEL 3
REMARK VINA RESULT: -7.397144667      2.522      3.575
REMARK  6 active torsions:
REMARK  status: ('A' for Active; 'I' for Inactive)
REMARK    1  A    between atoms: C2_2  and  C11_19 
REMARK    2  A    between atoms: N1_3  and  O1_5 
REMARK    3  A    between atoms: O1_5  and  C3_6 
REMARK       I    between atoms: C3_6  and  N2_8 
REMARK    4  A    between atoms: N2_8  and  C4_10 
REMARK    5  A    between atoms: C4_10  and  C6_12 
REMARK    6  A    between atoms: C11_19  and  N3_21 
ROOT
HETATM    1  C3  UNL     1      29.752  25.732  -7.877  1.00  0.00     0.387 C 
HETATM    2  O2  UNL     1      30.517  26.539  -8.507  1.00  0.00    -0.236 OA
HETATM    3  N2  UNL     1      28.919  26.181  -6.827  1.00  0.00    -0.304 N 
ATOM      4  H2  UNL     1      28.290  25.565  -6.311  1.00  0.00     0.171 HD
ENDROOT
BRANCH   1   5
HETATM    5  O1  UNL     1      29.850  24.413  -8.360  1.00  0.00    -0.181 OA
BRANCH   5   6
HETATM    6  N1  UNL     1      29.920  23.448  -7.479  1.00  0.00    -0.263 N 
HETATM    7  C2  UNL     1      30.452  22.461  -7.049  1.00  0.00     0.036 C 
HETATM    8  C1  UNL     1      31.645  21.781  -7.597  1.00  0.00     0.067 C 
ATOM      9  H1  UNL     1      29.138  23.617  -6.847  1.00  0.00     0.194 HD
BRANCH   7  10
HETATM   10  C11 UNL     1      29.828  21.764  -5.842  1.00  0.00     0.226 C 
HETATM   11  C12 UNL     1      28.927  22.666  -5.098  1.00  0.00     0.046 C 
BRANCH  10  12
HETATM   12  N3  UNL     1      30.841  21.207  -5.015  1.00  0.00    -0.070 N 
ATOM     13  H33 UNL     1      30.517  20.373  -4.525  1.00  0.00     0.275 HD
ATOM     14  H32 UNL     1      31.587  20.779  -5.563  1.00  0.00     0.275 HD
ATOM     15  H31 UNL     1      31.199  21.911  -4.369  1.00  0.00     0.275 HD
ENDBRANCH  10  12
ENDBRANCH   7  10
ENDBRANCH   5   6
ENDBRANCH   1   5
BRANCH   3  16
HETATM   16  C4  UNL     1      29.042  27.616  -6.550  1.00  0.00     0.023 C 
HETATM   17  C5  UNL     1      28.281  28.511  -7.470  1.00  0.00     0.069 C 
BRANCH  16  18
HETATM   18  C6  UNL     1      28.972  27.918  -5.110  1.00  0.00     0.016 A 
HETATM   19  C7  UNL     1      28.658  27.000  -4.163  1.00  0.00     0.029 A 
HETATM   20  C8  UNL     1      28.484  27.446  -2.882  1.00  0.00    -0.019 A 
HETATM   21  C9  UNL     1      28.113  26.713  -1.634  1.00  0.00     0.056 C 
HETATM   22  S1  UNL     1      28.746  29.129  -3.015  1.00  0.00    -0.082 SA
HETATM   23  C10 UNL     1      29.077  29.223  -4.676  1.00  0.00     0.087 A 
HETATM   24 CL1  UNL     1      29.528  30.647  -5.652  1.00  0.00    -0.075 Cl
ENDBRANCH  16  18
ENDBRANCH   3  16
TORSDOF 6
ENDMDL
MODEL 4
REMARK VINA RESULT: -7.385835512      4.780      8.530
REMARK  6 active torsions:
REMARK  status: ('A' for Active; 'I' for Inactive)
REMARK    1  A    between atoms: C2_2  and  C11_19 
REMARK    2  A    between atoms: N1_3  and  O1_5 
REMARK    3  A    between atoms: O1_5  and  C3_6 
REMARK       I    between atoms: C3_6  and  N2_8 
REMARK    4  A    between atoms: N2_8  and  C4_10 
REMARK    5  A    between atoms: C4_10  and  C6_12 
REMARK    6  A    between atoms: C11_19  and  N3_21 
ROOT
HETATM    1  C3  UNL     1      28.355  29.111  -8.146  1.00  0.00     0.387 C 
HETATM    2  O2  UNL     1      28.177  28.502  -9.255  1.00  0.00    -0.236 OA
HETATM    3  N2  UNL     1      28.755  28.412  -6.983  1.00  0.00    -0.304 N 
ATOM      4  H2  UNL     1      28.914  28.870  -6.085  1.00  0.00     0.171 HD
ENDROOT
BRANCH   1   5
HETATM    5  O1  UNL     1      28.119  30.495  -8.250  1.00  0.00    -0.181 OA
BRANCH   5   6
HETATM    6  N1  UNL     1      26.953  30.942  -7.859  1.00  0.00    -0.263 N 
HETATM    7  C2  UNL     1      26.263  31.488  -7.043  1.00  0.00     0.036 C 
HETATM    8  C1  UNL     1      26.687  32.021  -5.731  1.00  0.00     0.067 C 
ATOM      9  H1  UNL     1      26.319  30.717  -8.625  1.00  0.00     0.194 HD
BRANCH   7  10
HETATM   10  C11 UNL     1      24.766  31.611  -7.320  1.00  0.00     0.226 C 
HETATM   11  C12 UNL     1      24.503  32.066  -8.699  1.00  0.00     0.046 C 
BRANCH  10  12
HETATM   12  N3  UNL     1      24.151  32.447  -6.346  1.00  0.00    -0.070 N 
ATOM     13  H33 UNL     1      24.308  33.436  -6.540  1.00  0.00     0.275 HD
ATOM     14  H32 UNL     1      23.134  32.437  -6.424  1.00  0.00     0.275 HD
ATOM     15  H31 UNL     1      24.464  32.189  -5.410  1.00  0.00     0.275 HD
ENDBRANCH  10  12
ENDBRANCH   7  10
ENDBRANCH   5   6
ENDBRANCH   1   5
BRANCH   3  16
HETATM   16  C4  UNL     1      28.917  26.969  -7.188  1.00  0.00     0.023 C 
HETATM   17  C5  UNL     1      30.026  26.578  -8.108  1.00  0.00     0.069 C 
BRANCH  16  18
HETATM   18  C6  UNL     1      28.780  26.205  -5.937  1.00  0.00     0.016 A 
HETATM   19  C7  UNL     1      28.585  24.865  -5.891  1.00  0.00     0.029 A 
HETATM   20  C8  UNL     1      28.328  24.304  -4.671  1.00  0.00    -0.019 A 
HETATM   21  C9  UNL     1      28.044  22.888  -4.287  1.00  0.00     0.056 C 
HETATM   22  S1  UNL     1      28.347  25.644  -3.613  1.00  0.00    -0.082 SA
HETATM   23  C10 UNL     1      28.689  26.872  -4.732  1.00  0.00     0.087 A 
HETATM   24 CL1  UNL     1      28.947  28.614  -4.446  1.00  0.00    -0.075 Cl
ENDBRANCH  16  18
ENDBRANCH   3  16
TORSDOF 6
ENDMDL
MODEL 5
REMARK VINA RESULT: -7.233904480      0.922      1.263
REMARK  6 active torsions:
REMARK  status: ('A' for Active; 'I' for Inactive)
REMARK    1  A    between atoms: C2_2  and  C11_19 
REMARK    2  A    between atoms: N1_3  and  O1_5 
REMARK    3  A    between atoms: O1_5  and  C3_6 
REMARK       I    between atoms: C3_6  and  N2_8 
REMARK    4  A    between atoms: N2_8  and  C4_10 
REMARK    5  A    between atoms: C4_10  and  C6_12 
REMARK    6  A    between atoms: C11_19  and  N3_21 
ROOT
HETATM    1  C3  UNL     1      29.719  23.275  -6.976  1.00  0.00     0.387 C 
HETATM    2  O2  UNL     1      30.483  23.552  -7.963  1.00  0.00    -0.236 OA
HETATM    3  N2  UNL     1      28.974  24.282  -6.321  1.00  0.00    -0.304 N 
ATOM      4  H2  UNL     1      28.349  24.092  -5.537  1.00  0.00     0.171 HD
ENDROOT
BRANCH   1   5
HETATM    5  O1  UNL     1      29.723  21.902  -6.664  1.00  0.00    -0.181 OA
BRANCH   5   6
HETATM    6  N1  UNL     1      30.590  21.483  -5.777  1.00  0.00    -0.263 N 
HETATM    7  C2  UNL     1      31.704  21.148  -5.482  1.00  0.00     0.036 C 
HETATM    8  C1  UNL     1      32.881  21.082  -6.373  1.00  0.00     0.067 C 
ATOM      9  H1  UNL     1      30.056  21.402  -4.912  1.00  0.00     0.194 HD
BRANCH   7  10
HETATM   10  C11 UNL     1      31.966  20.671  -4.055  1.00  0.00     0.226 C 
HETATM   11  C12 UNL     1      32.937  19.559  -4.022  1.00  0.00     0.046 C 
BRANCH  10  12
HETATM   12  N3  UNL     1      30.741  20.340  -3.412  1.00  0.00    -0.070 N 
ATOM     13  H33 UNL     1      30.656  20.788  -2.500  1.00  0.00     0.275 HD
ATOM     14  H32 UNL     1      29.941  20.777  -3.870  1.00  0.00     0.275 HD
ATOM     15  H31 UNL     1      30.636  19.327  -3.348  1.00  0.00     0.275 HD
ENDBRANCH  10  12
ENDBRANCH   7  10
ENDBRANCH   5   6
ENDBRANCH   1   5
BRANCH   3  16
HETATM   16  C4  UNL     1      29.185  25.624  -6.873  1.00  0.00     0.023 C 
HETATM   17  C5  UNL     1      28.635  25.843  -8.243  1.00  0.00     0.069 C 
BRANCH  16  18
HETATM   18  C6  UNL     1      28.950  26.684  -5.877  1.00  0.00     0.016 A 
HETATM   19  C7  UNL     1      29.169  28.000  -6.114  1.00  0.00     0.029 A 
HETATM   20  C8  UNL     1      29.051  28.862  -5.058  1.00  0.00    -0.019 A 
HETATM   21  C9  UNL     1      29.250  30.340  -4.976  1.00  0.00     0.056 C 
HETATM   22  S1  UNL     1      28.652  27.831  -3.756  1.00  0.00    -0.082 SA
HETATM   23  C10 UNL     1      28.634  26.347  -4.577  1.00  0.00     0.087 A 
HETATM   24 CL1  UNL     1      28.237  24.723  -3.954  1.00  0.00    -0.075 Cl
ENDBRANCH  16  18
ENDBRANCH   3  16
TORSDOF 6
ENDMDL
