MODEL 1
REMARK VINA RESULT: -7.159690125      0.000      0.000
REMARK  5 active torsions:
REMARK  status: ('A' for Active; 'I' for Inactive)
REMARK    1  A    between atoms: C2_2  and  O1_3 
REMARK    2  A    between atoms: O1_3  and  C3_4 
REMARK    3  A    between atoms: C3_4  and  C4_6 
REMARK    4  A    between atoms: C6_10  and  N2_11 
REMARK       I    between atoms: N2_11  and  C7_13 
REMARK    5  A    between atoms: C7_13  and  C8_15 
ROOT
HETATM    1  C4  UNL     1      28.690  28.190  -7.025  1.00  0.00     0.079 A 
HETATM    2  C5  UNL     1      28.765  28.065  -8.402  1.00  0.00     0.105 A 
HETATM    3  N1  UNL     1      28.638  29.113  -9.392  1.00  0.00    -0.093 NA
HETATM    4  S1  UNL     1      29.039  26.420  -8.636  1.00  0.00    -0.056 SA
HETATM    5  C6  UNL     1      29.056  25.883  -6.962  1.00  0.00     0.085 A 
HETATM    6  C11 UNL     1      28.846  27.051  -6.301  1.00  0.00    -0.009 A 
HETATM    7  C12 UNL     1      28.873  27.053  -4.765  1.00  0.00     0.052 C 
ENDROOT
BRANCH   5   8
HETATM    8  N2  UNL     1      29.258  24.516  -6.603  1.00  0.00    -0.318 N 
HETATM    9  C7  UNL     1      29.920  23.443  -7.105  1.00  0.00     0.261 C 
HETATM   10  O3  UNL     1      30.625  23.292  -8.110  1.00  0.00    -0.269 OA
ATOM     11  H2  UNL     1      28.775  24.283  -5.734  1.00  0.00     0.169 HD
BRANCH   9  12
HETATM   12  C8  UNL     1      29.791  22.140  -6.295  1.00  0.00     0.176 C 
HETATM   13  C9  UNL     1      31.208  21.661  -6.106  1.00  0.00     0.062 C 
HETATM   14  C10 UNL     1      29.030  22.368  -5.043  1.00  0.00     0.062 C 
HETATM   15  F1  UNL     1      29.143  21.191  -7.067  1.00  0.00    -0.233 F 
ENDBRANCH   9  12
ENDBRANCH   5   8
BRANCH   1  16
HETATM   16  C3  UNL     1      28.416  29.544  -6.464  1.00  0.00     0.296 C 
HETATM   17  O2  UNL     1      28.977  29.918  -5.390  1.00  0.00    -0.259 OA
BRANCH  16  18
HETATM   18  O1  UNL     1      27.585  30.488  -7.001  1.00  0.00    -0.318 OA
BRANCH  18  19
HETATM   19  C2  UNL     1      27.028  31.564  -6.308  1.00  0.00     0.174 C 
HETATM   20  C1  UNL     1      25.679  31.987  -6.853  1.00  0.00     0.034 C 
ENDBRANCH  18  19
ENDBRANCH  16  18
ENDBRANCH   1  16
TORSDOF 5
ENDMDL
MODEL 2
REMARK VINA RESULT: -7.087255985      1.035      1.720
REMARK  5 active torsions:
REMARK  status: ('A' for Active; 'I' for Inactive)
REMARK    1  A    between atoms: C2_2  and  O1_3 
REMARK    2  A    between atoms: O1_3  and  C3_4 
REMARK    3  A    between atoms: C3_4  and  C4_6 
REMARK    4  A    between atoms: C6_10  and  N2_11 
REMARK       I    between atoms: N2_11  and  C7_13 
REMARK    5  A    between atoms: C7_13  and  C8_15 
ROOT
HETATM    1  C4  UNL     1      28.687  28.141  -6.983  1.00  0.00     0.079 A 
HETATM    2  C5  UNL     1      28.776  28.032  -8.360  1.00  0.00     0.105 A 
HETATM    3  N1  UNL     1      28.649  29.091  -9.340  1.00  0.00    -0.093 NA
HETATM    4  S1  UNL     1      29.064  26.392  -8.611  1.00  0.00    -0.056 SA
HETATM    5  C6  UNL     1      29.070  25.836  -6.943  1.00  0.00     0.085 A 
HETATM    6  C11 UNL     1      28.845  26.995  -6.270  1.00  0.00    -0.009 A 
HETATM    7  C12 UNL     1      28.858  26.979  -4.735  1.00  0.00     0.052 C 
ENDROOT
BRANCH   5   8
HETATM    8  N2  UNL     1      29.279  24.467  -6.598  1.00  0.00    -0.318 N 
HETATM    9  C7  UNL     1      29.941  23.401  -7.116  1.00  0.00     0.261 C 
HETATM   10  O3  UNL     1      30.638  23.261  -8.127  1.00  0.00    -0.269 OA
ATOM     11  H2  UNL     1      28.804  24.225  -5.728  1.00  0.00     0.169 HD
BRANCH   9  12
HETATM   12  C8  UNL     1      29.823  22.090  -6.316  1.00  0.00     0.176 C 
HETATM   13  C9  UNL     1      31.245  21.630  -6.116  1.00  0.00     0.062 C 
HETATM   14  C10 UNL     1      29.046  22.298  -5.070  1.00  0.00     0.062 C 
HETATM   15  F1  UNL     1      29.196  21.137  -7.101  1.00  0.00    -0.233 F 
ENDBRANCH   9  12
ENDBRANCH   5   8
BRANCH   1  16
HETATM   16  C3  UNL     1      28.398  29.487  -6.408  1.00  0.00     0.296 C 
HETATM   17  O2  UNL     1      27.837  30.377  -7.114  1.00  0.00    -0.259 OA
BRANCH  16  18
HETATM   18  O1  UNL     1      28.681  29.899  -5.135  1.00  0.00    -0.318 OA
BRANCH  18  19
HETATM   19  C2  UNL     1      29.670  30.818  -4.784  1.00  0.00     0.174 C 
HETATM   20  C1  UNL     1      30.560  30.332  -3.657  1.00  0.00     0.034 C 
ENDBRANCH  18  19
ENDBRANCH  16  18
ENDBRANCH   1  16
TORSDOF 5
ENDMDL
MODEL 3
REMARK VINA RESULT: -7.078932695      3.485      4.366
REMARK  5 active torsions:
REMARK  status: ('A' for Active; 'I' for Inactive)
REMARK    1  A    between atoms: C2_2  and  O1_3 
REMARK    2  A    between atoms: O1_3  and  C3_4 
REMARK    3  A    between atoms: C3_4  and  C4_6 
REMARK    4  A    between atoms: C6_10  and  N2_11 
REMARK       I    between atoms: N2_11  and  C7_13 
REMARK    5  A    between atoms: C7_13  and  C8_15 
ROOT
HETATM    1  C4  UNL     1      29.138  25.883  -6.972  1.00  0.00     0.079 A 
HETATM    2  C5  UNL     1      29.315  24.579  -7.400  1.00  0.00     0.105 A 
HETATM    3  N1  UNL     1      29.691  24.127  -8.724  1.00  0.00    -0.093 NA
HETATM    4  S1  UNL     1      28.992  23.662  -6.025  1.00  0.00    -0.056 SA
HETATM    5  C6  UNL     1      28.625  24.954  -4.890  1.00  0.00     0.085 A 
HETATM    6  C11 UNL     1      28.785  26.054  -5.670  1.00  0.00    -0.009 A 
HETATM    7  C12 UNL     1      28.639  27.444  -5.036  1.00  0.00     0.052 C 
ENDROOT
BRANCH   5   8
HETATM    8  N2  UNL     1      28.273  24.695  -3.531  1.00  0.00    -0.318 N 
HETATM    9  C7  UNL     1      27.372  23.927  -2.866  1.00  0.00     0.261 C 
HETATM   10  O3  UNL     1      26.505  23.134  -3.251  1.00  0.00    -0.269 OA
ATOM     11  H2  UNL     1      28.854  25.232  -2.886  1.00  0.00     0.169 HD
BRANCH   9  12
HETATM   12  C8  UNL     1      27.406  24.039  -1.331  1.00  0.00     0.176 C 
HETATM   13  C9  UNL     1      27.626  25.504  -1.054  1.00  0.00     0.062 C 
HETATM   14  C10 UNL     1      26.180  23.460  -0.730  1.00  0.00     0.062 C 
HETATM   15  F1  UNL     1      28.519  23.366  -0.854  1.00  0.00    -0.233 F 
ENDBRANCH   9  12
ENDBRANCH   5   8
BRANCH   1  16
HETATM   16  C3  UNL     1      29.317  26.975  -7.972  1.00  0.00     0.296 C 
HETATM   17  O2  UNL     1      30.448  27.171  -8.510  1.00  0.00    -0.259 OA
BRANCH  16  18
HETATM   18  O1  UNL     1      28.351  27.840  -8.405  1.00  0.00    -0.318 OA
BRANCH  18  19
HETATM   19  C2  UNL     1      28.262  29.190  -8.064  1.00  0.00     0.174 C 
HETATM   20  C1  UNL     1      27.459  30.003  -9.059  1.00  0.00     0.034 C 
ENDBRANCH  18  19
ENDBRANCH  16  18
ENDBRANCH   1  16
TORSDOF 5
ENDMDL
MODEL 4
REMARK VINA RESULT: -7.050327065      3.026      7.309
REMARK  5 active torsions:
REMARK  status: ('A' for Active; 'I' for Inactive)
REMARK    1  A    between atoms: C2_2  and  O1_3 
REMARK    2  A    between atoms: O1_3  and  C3_4 
REMARK    3  A    between atoms: C3_4  and  C4_6 
REMARK    4  A    between atoms: C6_10  and  N2_11 
REMARK       I    between atoms: N2_11  and  C7_13 
REMARK    5  A    between atoms: C7_13  and  C8_15 
ROOT
HETATM    1  C4  UNL     1      29.382  24.170  -6.548  1.00  0.00     0.079 A 
HETATM    2  C5  UNL     1      28.919  24.155  -5.243  1.00  0.00     0.105 A 
HETATM    3  N1  UNL     1      28.861  23.026  -4.339  1.00  0.00    -0.093 NA
HETATM    4  S1  UNL     1      28.449  25.749  -4.971  1.00  0.00    -0.056 SA
HETATM    5  C6  UNL     1      28.845  26.444  -6.537  1.00  0.00     0.085 A 
HETATM    6  C11 UNL     1      29.337  25.363  -7.196  1.00  0.00    -0.009 A 
HETATM    7  C12 UNL     1      29.896  25.547  -8.614  1.00  0.00     0.052 C 
ENDROOT
BRANCH   5   8
HETATM    8  N2  UNL     1      28.626  27.823  -6.835  1.00  0.00    -0.318 N 
HETATM    9  C7  UNL     1      28.412  28.579  -7.942  1.00  0.00     0.261 C 
HETATM   10  O3  UNL     1      28.319  28.296  -9.142  1.00  0.00    -0.269 OA
ATOM     11  H2  UNL     1      28.633  28.393  -5.989  1.00  0.00     0.169 HD
BRANCH   9  12
HETATM   12  C8  UNL     1      28.247  30.090  -7.695  1.00  0.00     0.176 C 
HETATM   13  C9  UNL     1      26.875  30.421  -8.224  1.00  0.00     0.062 C 
HETATM   14  C10 UNL     1      28.470  30.421  -6.268  1.00  0.00     0.062 C 
HETATM   15  F1  UNL     1      29.159  30.777  -8.479  1.00  0.00    -0.233 F 
ENDBRANCH   9  12
ENDBRANCH   5   8
BRANCH   1  16
HETATM   16  C3  UNL     1      29.855  22.882  -7.132  1.00  0.00     0.296 C 
HETATM   17  O2  UNL     1      29.100  21.864  -7.135  1.00  0.00    -0.259 OA
BRANCH  16  18
HETATM   18  O1  UNL     1      31.079  22.655  -7.700  1.00  0.00    -0.318 OA
BRANCH  18  19
HETATM   19  C2  UNL     1      31.853  21.508  -7.521  1.00  0.00     0.174 C 
HETATM   20  C1  UNL     1      32.371  21.356  -6.105  1.00  0.00     0.034 C 
ENDBRANCH  18  19
ENDBRANCH  16  18
ENDBRANCH   1  16
TORSDOF 5
ENDMDL
MODEL 5
REMARK VINA RESULT: -6.981505713      3.069      7.048
REMARK  5 active torsions:
REMARK  status: ('A' for Active; 'I' for Inactive)
REMARK    1  A    between atoms: C2_2  and  O1_3 
REMARK    2  A    between atoms: O1_3  and  C3_4 
REMARK    3  A    between atoms: C3_4  and  C4_6 
REMARK    4  A    between atoms: C6_10  and  N2_11 
REMARK       I    between atoms: N2_11  and  C7_13 
REMARK    5  A    between atoms: C7_13  and  C8_15 
ROOT
HETATM    1  C4  UNL     1      29.124  24.963  -6.504  1.00  0.00     0.079 A 
HETATM    2  C5  UNL     1      29.407  25.169  -7.844  1.00  0.00     0.105 A 
HETATM    3  N1  UNL     1      29.686  24.169  -8.853  1.00  0.00    -0.093 NA
HETATM    4  S1  UNL     1      29.347  26.844  -8.008  1.00  0.00    -0.056 SA
HETATM    5  C6  UNL     1      28.959  27.289  -6.352  1.00  0.00     0.085 A 
HETATM    6  C11 UNL     1      28.893  26.071  -5.753  1.00  0.00    -0.009 A 
HETATM    7  C12 UNL     1      28.483  25.989  -4.276  1.00  0.00     0.052 C 
ENDROOT
BRANCH   5   8
HETATM    8  N2  UNL     1      28.795  28.647  -5.947  1.00  0.00    -0.318 N 
HETATM    9  C7  UNL     1      29.003  29.383  -4.825  1.00  0.00     0.261 C 
HETATM   10  O3  UNL     1      29.446  29.095  -3.707  1.00  0.00    -0.269 OA
ATOM     11  H2  UNL     1      28.420  29.220  -6.704  1.00  0.00     0.169 HD
BRANCH   9  12
HETATM   12  C8  UNL     1      28.625  30.873  -4.925  1.00  0.00     0.176 C 
HETATM   13  C9  UNL     1      27.828  30.985  -6.199  1.00  0.00     0.062 C 
HETATM   14  C10 UNL     1      27.924  31.325  -3.699  1.00  0.00     0.062 C 
HETATM   15  F1  UNL     1      29.778  31.619  -5.102  1.00  0.00    -0.233 F 
ENDBRANCH   9  12
ENDBRANCH   5   8
BRANCH   1  16
HETATM   16  C3  UNL     1      29.129  23.559  -6.001  1.00  0.00     0.296 C 
HETATM   17  O2  UNL     1      28.564  23.270  -4.904  1.00  0.00    -0.259 OA
BRANCH  16  18
HETATM   18  O1  UNL     1      29.702  22.481  -6.619  1.00  0.00    -0.318 OA
BRANCH  18  19
HETATM   19  C2  UNL     1      30.902  21.878  -6.243  1.00  0.00     0.174 C 
HETATM   20  C1  UNL     1      31.821  21.601  -7.416  1.00  0.00     0.034 C 
ENDBRANCH  18  19
ENDBRANCH  16  18
ENDBRANCH   1  16
TORSDOF 5
ENDMDL
