MODEL 1
REMARK VINA RESULT: -7.393711136      0.000      0.000
REMARK  5 active torsions:
REMARK  status: ('A' for Active; 'I' for Inactive)
REMARK       I    between atoms: C1_2  and  N1_3 
REMARK    1  A    between atoms: C1_2  and  C7_11 
REMARK    2  A    between atoms: N1_3  and  N2_5 
REMARK    3  A    between atoms: C10_15  and  N3_16 
REMARK    4  A    between atoms: N4_18  and  N5_20 
REMARK    5  A    between atoms: N5_20  and  O2_22 
ROOT
HETATM    1  C7  UNL     1      30.955  21.599  -5.439  1.00  0.00     0.078 A 
HETATM    2  C8  UNL     1      32.100  21.315  -6.123  1.00  0.00     0.051 A 
HETATM    3  C9  UNL     1      32.998  20.518  -5.536  1.00  0.00     0.070 A 
HETATM    4 CL1  UNL     1      34.550  20.047  -6.283  1.00  0.00    -0.081 Cl
HETATM    5  C10 UNL     1      32.693  20.048  -4.286  1.00  0.00     0.112 A 
HETATM    6  S1  UNL     1      31.165  20.738  -3.979  1.00  0.00    -0.064 SA
ENDROOT
BRANCH   1   7
HETATM    7  C1  UNL     1      29.814  22.437  -5.841  1.00  0.00     0.276 C 
HETATM    8  O1  UNL     1      28.671  22.036  -5.502  1.00  0.00    -0.265 OA
HETATM    9  N1  UNL     1      29.975  23.622  -6.563  1.00  0.00    -0.268 N 
ATOM     10  H1  UNL     1      30.925  23.899  -6.811  1.00  0.00     0.190 HD
BRANCH   9  11
HETATM   11  N2  UNL     1      28.951  24.439  -6.964  1.00  0.00    -0.325 N 
HETATM   12  C2  UNL     1      28.474  25.355  -5.995  1.00  0.00     0.142 C 
HETATM   13  C3  UNL     1      29.025  26.753  -6.143  1.00  0.00     0.021 C 
HETATM   14  C4  UNL     1      28.930  27.246  -7.572  1.00  0.00     0.003 C 
HETATM   15  C5  UNL     1      29.713  26.239  -8.402  1.00  0.00     0.021 C 
HETATM   16  C6  UNL     1      28.987  24.923  -8.296  1.00  0.00     0.142 C 
ENDBRANCH   9  11
ENDBRANCH   1   7
BRANCH   5  17
HETATM   17  N3  UNL     1      33.431  19.187  -3.406  1.00  0.00    -0.276 N 
HETATM   18  N4  UNL     1      32.838  18.250  -2.846  1.00  0.00    -0.222 N 
ATOM     19  H4  UNL     1      31.843  18.144  -3.048  1.00  0.00     0.210 HD
ATOM     20  H3  UNL     1      34.427  19.342  -3.243  1.00  0.00     0.189 HD
BRANCH  18  21
HETATM   21  N5  UNL     1      33.399  17.342  -1.979  1.00  0.00    -0.196 N 
ATOM     22  H5  UNL     1      33.189  16.351  -2.095  1.00  0.00     0.217 HD
BRANCH  21  23
HETATM   23  O2  UNL     1      34.217  17.724  -0.984  1.00  0.00    -0.273 OA
ATOM     24  H2  UNL     1      33.887  17.951  -0.123  1.00  0.00     0.246 HD
ENDBRANCH  21  23
ENDBRANCH  18  21
ENDBRANCH   5  17
TORSDOF 5
ENDMDL
MODEL 2
REMARK VINA RESULT: -7.252964821      2.738      3.068
REMARK  5 active torsions:
REMARK  status: ('A' for Active; 'I' for Inactive)
REMARK       I    between atoms: C1_2  and  N1_3 
REMARK    1  A    between atoms: C1_2  and  C7_11 
REMARK    2  A    between atoms: N1_3  and  N2_5 
REMARK    3  A    between atoms: C10_15  and  N3_16 
REMARK    4  A    between atoms: N4_18  and  N5_20 
REMARK    5  A    between atoms: N5_20  and  O2_22 
ROOT
HETATM    1  C7  UNL     1      31.096  21.809  -5.989  1.00  0.00     0.078 A 
HETATM    2  C8  UNL     1      31.412  21.028  -4.917  1.00  0.00     0.051 A 
HETATM    3  C9  UNL     1      32.569  20.358  -4.949  1.00  0.00     0.070 A 
HETATM    4 CL1  UNL     1      33.137  19.288  -3.638  1.00  0.00    -0.081 Cl
HETATM    5  C10 UNL     1      33.349  20.512  -6.066  1.00  0.00     0.112 A 
HETATM    6  S1  UNL     1      32.436  21.585  -7.025  1.00  0.00    -0.064 SA
ENDROOT
BRANCH   1   7
HETATM    7  C1  UNL     1      29.904  22.641  -6.215  1.00  0.00     0.276 C 
HETATM    8  O1  UNL     1      28.808  22.184  -5.800  1.00  0.00    -0.265 OA
HETATM    9  N1  UNL     1      29.970  23.881  -6.856  1.00  0.00    -0.268 N 
ATOM     10  H1  UNL     1      30.886  24.202  -7.171  1.00  0.00     0.190 HD
BRANCH   9  11
HETATM   11  N2  UNL     1      28.895  24.697  -7.094  1.00  0.00    -0.325 N 
HETATM   12  C2  UNL     1      28.510  25.541  -6.024  1.00  0.00     0.142 C 
HETATM   13  C3  UNL     1      29.017  26.958  -6.142  1.00  0.00     0.021 C 
HETATM   14  C4  UNL     1      28.761  27.533  -7.520  1.00  0.00     0.003 C 
HETATM   15  C5  UNL     1      29.467  26.597  -8.490  1.00  0.00     0.021 C 
HETATM   16  C6  UNL     1      28.780  25.261  -8.390  1.00  0.00     0.142 C 
ENDBRANCH   9  11
ENDBRANCH   1   7
BRANCH   5  17
HETATM   17  N3  UNL     1      34.623  19.944  -6.401  1.00  0.00    -0.276 N 
HETATM   18  N4  UNL     1      35.405  20.599  -7.109  1.00  0.00    -0.222 N 
ATOM     19  H4  UNL     1      35.091  21.520  -7.417  1.00  0.00     0.210 HD
ATOM     20  H3  UNL     1      34.883  19.017  -6.062  1.00  0.00     0.189 HD
BRANCH  18  21
HETATM   21  N5  UNL     1      36.655  20.197  -7.517  1.00  0.00    -0.196 N 
ATOM     22  H5  UNL     1      36.737  19.423  -8.175  1.00  0.00     0.217 HD
BRANCH  21  23
HETATM   23  O2  UNL     1      37.773  20.796  -7.072  1.00  0.00    -0.273 OA
ATOM     24  H2  UNL     1      38.279  21.384  -7.620  1.00  0.00     0.246 HD
ENDBRANCH  21  23
ENDBRANCH  18  21
ENDBRANCH   5  17
TORSDOF 5
ENDMDL
MODEL 3
REMARK VINA RESULT: -6.774778156      4.262      5.125
REMARK  5 active torsions:
REMARK  status: ('A' for Active; 'I' for Inactive)
REMARK       I    between atoms: C1_2  and  N1_3 
REMARK    1  A    between atoms: C1_2  and  C7_11 
REMARK    2  A    between atoms: N1_3  and  N2_5 
REMARK    3  A    between atoms: C10_15  and  N3_16 
REMARK    4  A    between atoms: N4_18  and  N5_20 
REMARK    5  A    between atoms: N5_20  and  O2_22 
ROOT
HETATM    1  C7  UNL     1      30.823  20.888  -3.693  1.00  0.00     0.078 A 
HETATM    2  C8  UNL     1      30.713  21.296  -4.989  1.00  0.00     0.051 A 
HETATM    3  C9  UNL     1      31.793  21.193  -5.771  1.00  0.00     0.070 A 
HETATM    4 CL1  UNL     1      31.829  21.682  -7.487  1.00  0.00    -0.081 Cl
HETATM    5  C10 UNL     1      32.930  20.684  -5.201  1.00  0.00     0.112 A 
HETATM    6  S1  UNL     1      32.447  20.369  -3.597  1.00  0.00    -0.064 SA
ENDROOT
BRANCH   1   7
HETATM    7  C1  UNL     1      29.808  20.890  -2.627  1.00  0.00     0.276 C 
HETATM    8  O1  UNL     1      29.975  20.073  -1.685  1.00  0.00    -0.265 OA
HETATM    9  N1  UNL     1      28.708  21.751  -2.645  1.00  0.00    -0.268 N 
ATOM     10  H1  UNL     1      28.624  22.393  -3.433  1.00  0.00     0.190 HD
BRANCH   9  11
HETATM   11  N2  UNL     1      27.734  21.796  -1.683  1.00  0.00    -0.325 N 
HETATM   12  C2  UNL     1      27.885  22.798  -0.694  1.00  0.00     0.142 C 
HETATM   13  C3  UNL     1      27.050  24.033  -0.933  1.00  0.00     0.021 C 
HETATM   14  C4  UNL     1      25.613  23.685  -1.258  1.00  0.00     0.003 C 
HETATM   15  C5  UNL     1      25.678  22.798  -2.493  1.00  0.00     0.021 C 
HETATM   16  C6  UNL     1      26.401  21.539  -2.093  1.00  0.00     0.142 C 
ENDBRANCH   9  11
ENDBRANCH   1   7
BRANCH   5  17
HETATM   17  N3  UNL     1      34.230  20.448  -5.761  1.00  0.00    -0.276 N 
HETATM   18  N4  UNL     1      34.359  20.439  -6.997  1.00  0.00    -0.222 N 
ATOM     19  H4  UNL     1      33.519  20.604  -7.552  1.00  0.00     0.210 HD
ATOM     20  H3  UNL     1      35.036  20.290  -5.155  1.00  0.00     0.189 HD
BRANCH  18  21
HETATM   21  N5  UNL     1      35.530  20.228  -7.685  1.00  0.00    -0.196 N 
ATOM     22  H5  UNL     1      35.487  19.870  -8.639  1.00  0.00     0.217 HD
BRANCH  21  23
HETATM   23  O2  UNL     1      36.730  20.481  -7.137  1.00  0.00    -0.273 OA
ATOM     24  H2  UNL     1      37.426  20.904  -7.625  1.00  0.00     0.246 HD
ENDBRANCH  21  23
ENDBRANCH  18  21
ENDBRANCH   5  17
TORSDOF 5
ENDMDL
MODEL 4
REMARK VINA RESULT: -6.751426434      4.490      6.283
REMARK  5 active torsions:
REMARK  status: ('A' for Active; 'I' for Inactive)
REMARK       I    between atoms: C1_2  and  N1_3 
REMARK    1  A    between atoms: C1_2  and  C7_11 
REMARK    2  A    between atoms: N1_3  and  N2_5 
REMARK    3  A    between atoms: C10_15  and  N3_16 
REMARK    4  A    between atoms: N4_18  and  N5_20 
REMARK    5  A    between atoms: N5_20  and  O2_22 
ROOT
HETATM    1  C7  UNL     1      28.922  26.509  -7.525  1.00  0.00     0.078 A 
HETATM    2  C8  UNL     1      28.602  25.998  -6.303  1.00  0.00     0.051 A 
HETATM    3  C9  UNL     1      28.910  24.720  -6.058  1.00  0.00     0.070 A 
HETATM    4 CL1  UNL     1      28.561  23.889  -4.518  1.00  0.00    -0.081 Cl
HETATM    5  C10 UNL     1      29.528  24.023  -7.064  1.00  0.00     0.112 A 
HETATM    6  S1  UNL     1      29.652  25.179  -8.311  1.00  0.00    -0.064 SA
ENDROOT
BRANCH   1   7
HETATM    7  C1  UNL     1      28.701  27.864  -8.055  1.00  0.00     0.276 C 
HETATM    8  O1  UNL     1      28.962  28.045  -9.272  1.00  0.00    -0.265 OA
HETATM    9  N1  UNL     1      28.224  28.908  -7.259  1.00  0.00    -0.268 N 
ATOM     10  H1  UNL     1      28.029  28.704  -6.279  1.00  0.00     0.190 HD
BRANCH   9  11
HETATM   11  N2  UNL     1      28.001  30.187  -7.697  1.00  0.00    -0.325 N 
HETATM   12  C2  UNL     1      26.991  30.338  -8.679  1.00  0.00     0.142 C 
HETATM   13  C3  UNL     1      25.659  30.792  -8.131  1.00  0.00     0.021 C 
HETATM   14  C4  UNL     1      25.810  31.976  -7.199  1.00  0.00     0.003 C 
HETATM   15  C5  UNL     1      26.747  31.509  -6.094  1.00  0.00     0.021 C 
HETATM   16  C6  UNL     1      28.079  31.228  -6.737  1.00  0.00     0.142 C 
ENDBRANCH   9  11
ENDBRANCH   1   7
BRANCH   5  17
HETATM   17  N3  UNL     1      29.982  22.663  -7.115  1.00  0.00    -0.276 N 
HETATM   18  N4  UNL     1      31.171  22.437  -7.394  1.00  0.00    -0.222 N 
ATOM     19  H4  UNL     1      31.767  23.246  -7.573  1.00  0.00     0.210 HD
ATOM     20  H3  UNL     1      29.338  21.893  -6.926  1.00  0.00     0.189 HD
BRANCH  18  21
HETATM   21  N5  UNL     1      31.758  21.197  -7.483  1.00  0.00    -0.196 N 
ATOM     22  H5  UNL     1      31.198  20.368  -7.284  1.00  0.00     0.217 HD
BRANCH  21  23
HETATM   23  O2  UNL     1      33.048  21.046  -7.826  1.00  0.00    -0.273 OA
ATOM     24  H2  UNL     1      33.608  20.406  -7.403  1.00  0.00     0.246 HD
ENDBRANCH  21  23
ENDBRANCH  18  21
ENDBRANCH   5  17
TORSDOF 5
ENDMDL
MODEL 5
REMARK VINA RESULT: -6.663656561      4.825      9.122
REMARK  5 active torsions:
REMARK  status: ('A' for Active; 'I' for Inactive)
REMARK       I    between atoms: C1_2  and  N1_3 
REMARK    1  A    between atoms: C1_2  and  C7_11 
REMARK    2  A    between atoms: N1_3  and  N2_5 
REMARK    3  A    between atoms: C10_15  and  N3_16 
REMARK    4  A    between atoms: N4_18  and  N5_20 
REMARK    5  A    between atoms: N5_20  and  O2_22 
ROOT
HETATM    1  C7  UNL     1      29.312  25.744  -7.397  1.00  0.00     0.078 A 
HETATM    2  C8  UNL     1      29.251  26.518  -6.277  1.00  0.00     0.051 A 
HETATM    3  C9  UNL     1      28.915  27.804  -6.422  1.00  0.00     0.070 A 
HETATM    4 CL1  UNL     1      28.791  28.960  -5.068  1.00  0.00    -0.081 Cl
HETATM    5  C10 UNL     1      28.657  28.242  -7.695  1.00  0.00     0.112 A 
HETATM    6  S1  UNL     1      28.896  26.842  -8.637  1.00  0.00    -0.064 SA
ENDROOT
BRANCH   1   7
HETATM    7  C1  UNL     1      29.652  24.318  -7.525  1.00  0.00     0.276 C 
HETATM    8  O1  UNL     1      29.787  23.872  -8.694  1.00  0.00    -0.265 OA
HETATM    9  N1  UNL     1      29.820  23.488  -6.415  1.00  0.00    -0.268 N 
ATOM     10  H1  UNL     1      29.699  23.903  -5.491  1.00  0.00     0.190 HD
BRANCH   9  11
HETATM   11  N2  UNL     1      30.135  22.155  -6.475  1.00  0.00    -0.325 N 
HETATM   12  C2  UNL     1      31.398  21.842  -7.035  1.00  0.00     0.142 C 
HETATM   13  C3  UNL     1      32.476  21.572  -6.013  1.00  0.00     0.021 C 
HETATM   14  C4  UNL     1      32.007  20.608  -4.943  1.00  0.00     0.003 C 
HETATM   15  C5  UNL     1      30.784  21.260  -4.315  1.00  0.00     0.021 C 
HETATM   16  C6  UNL     1      29.730  21.340  -5.387  1.00  0.00     0.142 C 
ENDBRANCH   9  11
ENDBRANCH   1   7
BRANCH   5  17
HETATM   17  N3  UNL     1      28.276  29.539  -8.177  1.00  0.00    -0.276 N 
HETATM   18  N4  UNL     1      27.413  29.619  -9.067  1.00  0.00    -0.222 N 
ATOM     19  H4  UNL     1      27.018  28.743  -9.409  1.00  0.00     0.210 HD
ATOM     20  H3  UNL     1      28.707  30.382  -7.795  1.00  0.00     0.189 HD
BRANCH  18  21
HETATM   21  N5  UNL     1      26.942  30.780  -9.633  1.00  0.00    -0.196 N 
ATOM     22  H5  UNL     1      27.459  31.647  -9.488  1.00  0.00     0.217 HD
BRANCH  21  23
HETATM   23  O2  UNL     1      25.820  30.805 -10.371  1.00  0.00    -0.273 OA
ATOM     24  H2  UNL     1      25.648  30.157 -11.044  1.00  0.00     0.246 HD
ENDBRANCH  21  23
ENDBRANCH  18  21
ENDBRANCH   5  17
TORSDOF 5
ENDMDL
