MODEL 1
REMARK VINA RESULT: -6.161309353      0.000      0.000
REMARK  5 active torsions:
REMARK  status: ('A' for Active; 'I' for Inactive)
REMARK    1  A    between atoms: C3_5  and  N2_6 
REMARK    2  A    between atoms: N2_6  and  N3_8 
REMARK       I    between atoms: N3_8  and  C5_10 
REMARK    3  A    between atoms: C5_10  and  C6_12 
REMARK    4  A    between atoms: C7_14  and  N4_15 
REMARK    5  A    between atoms: N4_15  and  O2_17 
ROOT
HETATM    1  C1  UNL     1      29.046  22.229  -5.568  1.00  0.00     0.070 C 
HETATM    2  C2  UNL     1      30.171  21.503  -4.904  1.00  0.00     0.029 A 
HETATM    3  N1  UNL     1      30.048  21.064  -3.635  1.00  0.00    -0.342 N 
ATOM      4  H1  UNL     1      29.172  21.232  -3.139  1.00  0.00     0.167 HD
HETATM    5  C3  UNL     1      31.048  20.407  -2.994  1.00  0.00     0.153 A 
HETATM    6  C7  UNL     1      32.231  20.175  -3.654  1.00  0.00     0.122 A 
HETATM    7  C8  UNL     1      32.422  20.606  -4.975  1.00  0.00     0.086 A 
HETATM    8  S1  UNL     1      33.828  20.315  -5.733  1.00  0.00    -0.076 SA
HETATM    9  C9  UNL     1      31.358  21.271  -5.567  1.00  0.00     0.090 A 
HETATM   10  C10 UNL     1      31.495  21.732  -6.903  1.00  0.00     0.103 C 
HETATM   11  N5  UNL     1      31.615  22.097  -8.016  1.00  0.00    -0.191 NA
ENDROOT
BRANCH   6  12
HETATM   12  N4  UNL     1      33.259  19.489  -2.960  1.00  0.00    -0.264 N 
ATOM     13  H4  UNL     1      33.974  20.011  -2.452  1.00  0.00     0.194 HD
BRANCH  12  14
HETATM   14  O2  UNL     1      33.282  18.242  -2.976  1.00  0.00    -0.289 OA
ATOM     15  H2  UNL     1      34.053  17.786  -2.661  1.00  0.00     0.244 HD
ENDBRANCH  12  14
ENDBRANCH   6  12
BRANCH   5  16
HETATM   16  N2  UNL     1      30.885  19.951  -1.677  1.00  0.00    -0.277 N 
HETATM   17  C4  UNL     1      30.421  18.640  -1.300  1.00  0.00     0.179 C 
BRANCH  16  18
HETATM   18  N3  UNL     1      31.196  20.845  -0.645  1.00  0.00    -0.266 N 
HETATM   19  C5  UNL     1      32.377  20.648   0.099  1.00  0.00     0.249 C 
HETATM   20  O1  UNL     1      33.143  19.679  -0.169  1.00  0.00    -0.271 OA
ATOM     21  H3  UNL     1      30.577  21.628  -0.434  1.00  0.00     0.190 HD
BRANCH  19  22
HETATM   22  C6  UNL     1      32.722  21.581   1.203  1.00  0.00     0.219 C 
HETATM   23 CL1  UNL     1      33.440  23.047   0.539  1.00  0.00    -0.121 Cl
ENDBRANCH  19  22
ENDBRANCH  16  18
ENDBRANCH   5  16
TORSDOF 5
ENDMDL
MODEL 2
REMARK VINA RESULT: -5.999499472      1.155      1.172
REMARK  5 active torsions:
REMARK  status: ('A' for Active; 'I' for Inactive)
REMARK    1  A    between atoms: C3_5  and  N2_6 
REMARK    2  A    between atoms: N2_6  and  N3_8 
REMARK       I    between atoms: N3_8  and  C5_10 
REMARK    3  A    between atoms: C5_10  and  C6_12 
REMARK    4  A    between atoms: C7_14  and  N4_15 
REMARK    5  A    between atoms: N4_15  and  O2_17 
ROOT
HETATM    1  C1  UNL     1      28.881  22.100  -5.088  1.00  0.00     0.070 C 
HETATM    2  C2  UNL     1      30.040  21.380  -4.479  1.00  0.00     0.029 A 
HETATM    3  N1  UNL     1      29.961  20.894  -3.223  1.00  0.00    -0.342 N 
ATOM      4  H1  UNL     1      29.095  21.022  -2.700  1.00  0.00     0.167 HD
HETATM    5  C3  UNL     1      30.993  20.239  -2.632  1.00  0.00     0.153 A 
HETATM    6  C7  UNL     1      32.163  20.061  -3.330  1.00  0.00     0.122 A 
HETATM    7  C8  UNL     1      32.309  20.542  -4.638  1.00  0.00     0.086 A 
HETATM    8  S1  UNL     1      33.702  20.313  -5.442  1.00  0.00    -0.076 SA
HETATM    9  C9  UNL     1      31.215  21.201  -5.179  1.00  0.00     0.090 A 
HETATM   10  C10 UNL     1      31.305  21.712  -6.501  1.00  0.00     0.103 C 
HETATM   11  N5  UNL     1      31.387  22.118  -7.603  1.00  0.00    -0.191 NA
ENDROOT
BRANCH   6  12
HETATM   12  N4  UNL     1      33.226  19.377  -2.687  1.00  0.00    -0.264 N 
ATOM     13  H4  UNL     1      33.361  18.377  -2.839  1.00  0.00     0.194 HD
BRANCH  12  14
HETATM   14  O2  UNL     1      33.993  20.008  -1.933  1.00  0.00    -0.289 OA
ATOM     15  H2  UNL     1      34.756  19.572  -1.573  1.00  0.00     0.244 HD
ENDBRANCH  12  14
ENDBRANCH   6  12
BRANCH   5  16
HETATM   16  N2  UNL     1      30.875  19.734  -1.328  1.00  0.00    -0.277 N 
HETATM   17  C4  UNL     1      30.049  18.620  -0.938  1.00  0.00     0.179 C 
BRANCH  16  18
HETATM   18  N3  UNL     1      31.620  20.366  -0.325  1.00  0.00    -0.266 N 
HETATM   19  C5  UNL     1      31.197  21.622   0.154  1.00  0.00     0.249 C 
HETATM   20  O1  UNL     1      30.157  22.165  -0.316  1.00  0.00    -0.271 OA
ATOM     21  H3  UNL     1      32.457  19.924   0.054  1.00  0.00     0.190 HD
BRANCH  19  22
HETATM   22  C6  UNL     1      31.978  22.313   1.213  1.00  0.00     0.219 C 
HETATM   23 CL1  UNL     1      33.441  23.006   0.515  1.00  0.00    -0.121 Cl
ENDBRANCH  19  22
ENDBRANCH  16  18
ENDBRANCH   5  16
TORSDOF 5
ENDMDL
MODEL 3
REMARK VINA RESULT: -5.905600279      3.599      4.316
REMARK  5 active torsions:
REMARK  status: ('A' for Active; 'I' for Inactive)
REMARK    1  A    between atoms: C3_5  and  N2_6 
REMARK    2  A    between atoms: N2_6  and  N3_8 
REMARK       I    between atoms: N3_8  and  C5_10 
REMARK    3  A    between atoms: C5_10  and  C6_12 
REMARK    4  A    between atoms: C7_14  and  N4_15 
REMARK    5  A    between atoms: N4_15  and  O2_17 
ROOT
HETATM    1  C1  UNL     1      28.756  26.730  -5.788  1.00  0.00     0.070 C 
HETATM    2  C2  UNL     1      28.708  25.305  -5.340  1.00  0.00     0.029 A 
HETATM    3  N1  UNL     1      28.228  24.988  -4.119  1.00  0.00    -0.342 N 
ATOM      4  H1  UNL     1      27.895  25.735  -3.511  1.00  0.00     0.167 HD
HETATM    5  C3  UNL     1      28.173  23.707  -3.673  1.00  0.00     0.153 A 
HETATM    6  C7  UNL     1      28.619  22.692  -4.486  1.00  0.00     0.122 A 
HETATM    7  C8  UNL     1      29.129  22.956  -5.764  1.00  0.00     0.086 A 
HETATM    8  S1  UNL     1      29.644  21.738  -6.706  1.00  0.00    -0.076 SA
HETATM    9  C9  UNL     1      29.155  24.287  -6.155  1.00  0.00     0.090 A 
HETATM   10  C10 UNL     1      29.662  24.616  -7.440  1.00  0.00     0.103 C 
HETATM   11  N5  UNL     1      30.071  24.874  -8.513  1.00  0.00    -0.191 NA
ENDROOT
BRANCH   6  12
HETATM   12  N4  UNL     1      28.553  21.364  -3.992  1.00  0.00    -0.264 N 
ATOM     13  H4  UNL     1      27.711  20.805  -4.130  1.00  0.00     0.194 HD
BRANCH  12  14
HETATM   14  O2  UNL     1      29.534  20.886  -3.388  1.00  0.00    -0.289 OA
ATOM     15  H2  UNL     1      29.499  19.989  -3.081  1.00  0.00     0.244 HD
ENDBRANCH  12  14
ENDBRANCH   6  12
BRANCH   5  16
HETATM   16  N2  UNL     1      27.658  23.407  -2.403  1.00  0.00    -0.277 N 
HETATM   17  C4  UNL     1      26.274  23.135  -2.108  1.00  0.00     0.179 C 
BRANCH  16  18
HETATM   18  N3  UNL     1      28.562  23.370  -1.334  1.00  0.00    -0.266 N 
HETATM   19  C5  UNL     1      28.739  22.164  -0.627  1.00  0.00     0.249 C 
HETATM   20  O1  UNL     1      28.092  21.131  -0.960  1.00  0.00    -0.271 OA
ATOM     21  H3  UNL     1      29.085  24.205  -1.071  1.00  0.00     0.190 HD
BRANCH  19  22
HETATM   22  C6  UNL     1      29.688  22.106   0.514  1.00  0.00     0.219 C 
HETATM   23 CL1  UNL     1      31.279  21.610  -0.061  1.00  0.00    -0.121 Cl
ENDBRANCH  19  22
ENDBRANCH  16  18
ENDBRANCH   5  16
TORSDOF 5
ENDMDL
MODEL 4
REMARK VINA RESULT: -5.867554160      2.352      2.943
REMARK  5 active torsions:
REMARK  status: ('A' for Active; 'I' for Inactive)
REMARK    1  A    between atoms: C3_5  and  N2_6 
REMARK    2  A    between atoms: N2_6  and  N3_8 
REMARK       I    between atoms: N3_8  and  C5_10 
REMARK    3  A    between atoms: C5_10  and  C6_12 
REMARK    4  A    between atoms: C7_14  and  N4_15 
REMARK    5  A    between atoms: N4_15  and  O2_17 
ROOT
HETATM    1  C1  UNL     1      29.061  22.303  -5.613  1.00  0.00     0.070 C 
HETATM    2  C2  UNL     1      30.153  21.532  -4.943  1.00  0.00     0.029 A 
HETATM    3  N1  UNL     1      29.989  21.066  -3.688  1.00  0.00    -0.342 N 
ATOM      4  H1  UNL     1      29.108  21.244  -3.207  1.00  0.00     0.167 HD
HETATM    5  C3  UNL     1      30.958  20.367  -3.042  1.00  0.00     0.153 A 
HETATM    6  C7  UNL     1      32.149  20.121  -3.682  1.00  0.00     0.122 A 
HETATM    7  C8  UNL     1      32.380  20.578  -4.987  1.00  0.00     0.086 A 
HETATM    8  S1  UNL     1      33.796  20.270  -5.722  1.00  0.00    -0.076 SA
HETATM    9  C9  UNL     1      31.348  21.285  -5.586  1.00  0.00     0.090 A 
HETATM   10  C10 UNL     1      31.526  21.775  -6.907  1.00  0.00     0.103 C 
HETATM   11  N5  UNL     1      31.680  22.164  -8.007  1.00  0.00    -0.191 NA
ENDROOT
BRANCH   6  12
HETATM   12  N4  UNL     1      33.144  19.391  -2.983  1.00  0.00    -0.264 N 
ATOM     13  H4  UNL     1      33.739  19.858  -2.300  1.00  0.00     0.194 HD
BRANCH  12  14
HETATM   14  O2  UNL     1      33.283  18.173  -3.212  1.00  0.00    -0.289 OA
ATOM     15  H2  UNL     1      33.809  17.896  -3.952  1.00  0.00     0.244 HD
ENDBRANCH  12  14
ENDBRANCH   6  12
BRANCH   5  16
HETATM   16  N2  UNL     1      30.754  19.884  -1.741  1.00  0.00    -0.277 N 
HETATM   17  C4  UNL     1      31.393  20.391  -0.554  1.00  0.00     0.179 C 
BRANCH  16  18
HETATM   18  N3  UNL     1      29.856  18.820  -1.584  1.00  0.00    -0.266 N 
HETATM   19  C5  UNL     1      30.361  17.528  -1.342  1.00  0.00     0.249 C 
HETATM   20  O1  UNL     1      31.608  17.336  -1.263  1.00  0.00    -0.271 OA
ATOM     21  H3  UNL     1      28.850  18.980  -1.644  1.00  0.00     0.190 HD
BRANCH  19  22
HETATM   22  C6  UNL     1      29.426  16.384  -1.180  1.00  0.00     0.219 C 
HETATM   23 CL1  UNL     1      29.396  15.428  -2.660  1.00  0.00    -0.121 Cl
ENDBRANCH  19  22
ENDBRANCH  16  18
ENDBRANCH   5  16
TORSDOF 5
ENDMDL
MODEL 5
REMARK VINA RESULT: -5.729914012     10.637     12.117
REMARK  5 active torsions:
REMARK  status: ('A' for Active; 'I' for Inactive)
REMARK    1  A    between atoms: C3_5  and  N2_6 
REMARK    2  A    between atoms: N2_6  and  N3_8 
REMARK       I    between atoms: N3_8  and  C5_10 
REMARK    3  A    between atoms: C5_10  and  C6_12 
REMARK    4  A    between atoms: C7_14  and  N4_15 
REMARK    5  A    between atoms: N4_15  and  O2_17 
ROOT
HETATM    1  C1  UNL     1      27.090  30.483  -8.860  1.00  0.00     0.070 C 
HETATM    2  C2  UNL     1      26.838  31.094  -7.519  1.00  0.00     0.029 A 
HETATM    3  N1  UNL     1      27.736  30.948  -6.522  1.00  0.00    -0.342 N 
ATOM      4  H1  UNL     1      28.589  30.420  -6.701  1.00  0.00     0.167 HD
HETATM    5  C3  UNL     1      27.542  31.482  -5.289  1.00  0.00     0.153 A 
HETATM    6  C7  UNL     1      26.395  32.197  -5.038  1.00  0.00     0.122 A 
HETATM    7  C8  UNL     1      25.425  32.384  -6.032  1.00  0.00     0.086 A 
HETATM    8  S1  UNL     1      24.080  33.238  -5.711  1.00  0.00    -0.076 SA
HETATM    9  C9  UNL     1      25.688  31.811  -7.268  1.00  0.00     0.090 A 
HETATM   10  C10 UNL     1      24.739  31.967  -8.313  1.00  0.00     0.103 C 
HETATM   11  N5  UNL     1      23.952  32.114  -9.176  1.00  0.00    -0.191 NA
ENDROOT
BRANCH   6  12
HETATM   12  N4  UNL     1      26.218  32.740  -3.741  1.00  0.00    -0.264 N 
ATOM     13  H4  UNL     1      26.452  33.716  -3.554  1.00  0.00     0.194 HD
BRANCH  12  14
HETATM   14  O2  UNL     1      25.773  32.015  -2.829  1.00  0.00    -0.289 OA
ATOM     15  H2  UNL     1      26.379  31.571  -2.249  1.00  0.00     0.244 HD
ENDBRANCH  12  14
ENDBRANCH   6  12
BRANCH   5  16
HETATM   16  N2  UNL     1      28.500  31.324  -4.275  1.00  0.00    -0.277 N 
HETATM   17  C4  UNL     1      29.630  32.190  -4.054  1.00  0.00     0.179 C 
BRANCH  16  18
HETATM   18  N3  UNL     1      28.345  30.234  -3.410  1.00  0.00    -0.266 N 
HETATM   19  C5  UNL     1      28.772  28.959  -3.832  1.00  0.00     0.249 C 
HETATM   20  O1  UNL     1      29.291  28.808  -4.974  1.00  0.00    -0.271 OA
ATOM     21  H3  UNL     1      27.929  30.361  -2.488  1.00  0.00     0.190 HD
BRANCH  19  22
HETATM   22  C6  UNL     1      28.611  27.788  -2.932  1.00  0.00     0.219 C 
HETATM   23 CL1  UNL     1      28.516  26.311  -3.891  1.00  0.00    -0.121 Cl
ENDBRANCH  19  22
ENDBRANCH  16  18
ENDBRANCH   5  16
TORSDOF 5
ENDMDL
