MODEL 1
REMARK VINA RESULT: -7.121025274      0.000      0.000
REMARK  7 active torsions:
REMARK  status: ('A' for Active; 'I' for Inactive)
REMARK    1  A    between atoms: C2_2  and  C3_3 
REMARK    2  A    between atoms: C3_3  and  C4_4 
REMARK    3  A    between atoms: C4_4  and  N1_6 
REMARK    4  A    between atoms: N1_6  and  C6_8 
REMARK    5  A    between atoms: C7_9  and  N2_10 
REMARK    6  A    between atoms: N2_10  and  C8_12 
REMARK    7  A    between atoms: C13_20  and  O1_21 
ROOT
HETATM    1  C6  UNL     1      30.378  28.254   6.281  1.00  0.00     0.122 A 
HETATM    2  C7  UNL     1      29.159  28.937   6.180  1.00  0.00     0.198 A 
HETATM    3  O2  UNL     1      28.955  29.110   4.911  1.00  0.00    -0.214 OA
HETATM    4  N4  UNL     1      29.912  28.611   4.197  1.00  0.00    -0.242 N 
HETATM    5  C14 UNL     1      30.054  28.599   2.745  1.00  0.00     0.187 C 
HETATM    6  C15 UNL     1      30.845  28.055   5.001  1.00  0.00     0.154 A 
HETATM    7  S1  UNL     1      32.223  27.303   4.561  1.00  0.00    -0.056 SA
ENDROOT
BRANCH   2   8
HETATM    8  N2  UNL     1      28.360  29.330   7.307  1.00  0.00    -0.337 N 
ATOM      9  H2  UNL     1      28.822  29.567   8.186  1.00  0.00     0.163 HD
BRANCH   8  10
HETATM   10  C8  UNL     1      26.937  29.397   7.231  1.00  0.00     0.314 C 
HETATM   11  N3  UNL     1      26.359  28.290   6.487  1.00  0.00    -0.052 N 
HETATM   12  C9  UNL     1      25.405  28.718   5.489  1.00  0.00     0.235 C 
ATOM     13  H32 UNL     1      27.088  27.712   6.070  1.00  0.00     0.279 HD
ATOM     14  H31 UNL     1      25.943  27.605   7.118  1.00  0.00     0.279 HD
HETATM   15  C10 UNL     1      24.037  28.971   6.027  1.00  0.00     0.028 C 
HETATM   16  C11 UNL     1      24.046  29.810   7.285  1.00  0.00     0.004 C 
HETATM   17  C12 UNL     1      24.785  29.149   8.408  1.00  0.00     0.036 C 
HETATM   18  C13 UNL     1      26.223  29.598   8.527  1.00  0.00     0.168 C 
BRANCH  18  19
HETATM   19  O1  UNL     1      26.771  28.956   9.615  1.00  0.00    -0.392 OA
ATOM     20  H1  UNL     1      26.499  28.055   9.742  1.00  0.00     0.210 HD
ENDBRANCH  18  19
ENDBRANCH   8  10
ENDBRANCH   2   8
BRANCH   1  21
HETATM   21  N1  UNL     1      30.989  27.854   7.482  1.00  0.00    -0.380 N 
ATOM     22  H1  UNL     1      31.817  28.356   7.800  1.00  0.00     0.160 HD
BRANCH  21  23
HETATM   23  C4  UNL     1      30.498  26.774   8.273  1.00  0.00     0.077 C 
HETATM   24  C5  UNL     1      30.077  27.223   9.666  1.00  0.00     0.032 C 
BRANCH  23  25
HETATM   25  C3  UNL     1      31.484  25.664   8.473  1.00  0.00     0.024 C 
BRANCH  25  26
HETATM   26  C2  UNL     1      31.605  24.831   7.236  1.00  0.00    -0.003 C 
HETATM   27  C1  UNL     1      33.053  24.438   7.015  1.00  0.00     0.005 C 
ENDBRANCH  25  26
ENDBRANCH  23  25
ENDBRANCH  21  23
ENDBRANCH   1  21
TORSDOF 7
ENDMDL
MODEL 2
REMARK VINA RESULT: -6.979879430      3.879      7.800
REMARK  7 active torsions:
REMARK  status: ('A' for Active; 'I' for Inactive)
REMARK    1  A    between atoms: C2_2  and  C3_3 
REMARK    2  A    between atoms: C3_3  and  C4_4 
REMARK    3  A    between atoms: C4_4  and  N1_6 
REMARK    4  A    between atoms: N1_6  and  C6_8 
REMARK    5  A    between atoms: C7_9  and  N2_10 
REMARK    6  A    between atoms: N2_10  and  C8_12 
REMARK    7  A    between atoms: C13_20  and  O1_21 
ROOT
HETATM    1  C6  UNL     1      22.641  29.136   4.951  1.00  0.00     0.122 A 
HETATM    2  C7  UNL     1      23.825  28.577   5.447  1.00  0.00     0.198 A 
HETATM    3  O2  UNL     1      24.377  27.969   4.442  1.00  0.00    -0.214 OA
HETATM    4  N4  UNL     1      23.670  28.082   3.364  1.00  0.00    -0.242 N 
HETATM    5  C14 UNL     1      23.945  27.547   2.035  1.00  0.00     0.187 C 
HETATM    6  C15 UNL     1      22.559  28.809   3.615  1.00  0.00     0.154 A 
HETATM    7  S1  UNL     1      21.375  29.219   2.572  1.00  0.00    -0.056 SA
ENDROOT
BRANCH   2   8
HETATM    8  N2  UNL     1      24.266  28.699   6.808  1.00  0.00    -0.337 N 
ATOM      9  H2  UNL     1      23.572  28.821   7.546  1.00  0.00     0.163 HD
BRANCH   8  10
HETATM   10  C8  UNL     1      25.649  28.655   7.156  1.00  0.00     0.314 C 
HETATM   11  N3  UNL     1      26.481  29.442   6.261  1.00  0.00    -0.052 N 
HETATM   12  C9  UNL     1      27.636  28.718   5.782  1.00  0.00     0.235 C 
ATOM     13  H32 UNL     1      25.933  29.810   5.483  1.00  0.00     0.279 HD
ATOM     14  H31 UNL     1      26.758  30.321   6.700  1.00  0.00     0.279 HD
HETATM   15  C10 UNL     1      28.789  28.718   6.729  1.00  0.00     0.028 C 
HETATM   16  C11 UNL     1      28.383  28.383   8.147  1.00  0.00     0.004 C 
HETATM   17  C12 UNL     1      27.417  29.376   8.716  1.00  0.00     0.036 C 
HETATM   18  C13 UNL     1      25.972  28.953   8.583  1.00  0.00     0.168 C 
BRANCH  18  19
HETATM   19  O1  UNL     1      25.197  29.923   9.180  1.00  0.00    -0.392 OA
ATOM     20  H1  UNL     1      24.668  29.632   9.914  1.00  0.00     0.210 HD
ENDBRANCH  18  19
ENDBRANCH   8  10
ENDBRANCH   2   8
BRANCH   1  21
HETATM   21  N1  UNL     1      21.723  29.893   5.699  1.00  0.00    -0.380 N 
ATOM     22  H1  UNL     1      20.832  29.469   5.953  1.00  0.00     0.160 HD
BRANCH  21  23
HETATM   23  C4  UNL     1      21.988  31.230   6.119  1.00  0.00     0.077 C 
HETATM   24  C5  UNL     1      22.035  31.362   7.635  1.00  0.00     0.032 C 
BRANCH  23  25
HETATM   25  C3  UNL     1      20.980  32.232   5.643  1.00  0.00     0.024 C 
BRANCH  25  26
HETATM   26  C2  UNL     1      21.226  32.596   4.214  1.00  0.00    -0.003 C 
HETATM   27  C1  UNL     1      19.913  32.633   3.455  1.00  0.00     0.005 C 
ENDBRANCH  25  26
ENDBRANCH  23  25
ENDBRANCH  21  23
ENDBRANCH   1  21
TORSDOF 7
ENDMDL
MODEL 3
REMARK VINA RESULT: -6.886860132      3.464      7.510
REMARK  7 active torsions:
REMARK  status: ('A' for Active; 'I' for Inactive)
REMARK    1  A    between atoms: C2_2  and  C3_3 
REMARK    2  A    between atoms: C3_3  and  C4_4 
REMARK    3  A    between atoms: C4_4  and  N1_6 
REMARK    4  A    between atoms: N1_6  and  C6_8 
REMARK    5  A    between atoms: C7_9  and  N2_10 
REMARK    6  A    between atoms: N2_10  and  C8_12 
REMARK    7  A    between atoms: C13_20  and  O1_21 
ROOT
HETATM    1  C6  UNL     1      23.500  28.887   5.252  1.00  0.00     0.122 A 
HETATM    2  C7  UNL     1      24.853  28.692   5.558  1.00  0.00     0.198 A 
HETATM    3  O2  UNL     1      25.390  28.201   4.485  1.00  0.00    -0.214 OA
HETATM    4  N4  UNL     1      24.525  28.064   3.532  1.00  0.00    -0.242 N 
HETATM    5  C14 UNL     1      24.731  27.553   2.181  1.00  0.00     0.187 C 
HETATM    6  C15 UNL     1      23.309  28.480   3.950  1.00  0.00     0.154 A 
HETATM    7  S1  UNL     1      21.915  28.504   3.105  1.00  0.00    -0.056 SA
ENDROOT
BRANCH   2   8
HETATM    8  N2  UNL     1      25.443  28.999   6.831  1.00  0.00    -0.337 N 
ATOM      9  H2  UNL     1      24.871  29.441   7.551  1.00  0.00     0.163 HD
BRANCH   8  10
HETATM   10  C8  UNL     1      26.810  28.703   7.115  1.00  0.00     0.314 C 
HETATM   11  N3  UNL     1      27.734  29.578   6.413  1.00  0.00    -0.052 N 
HETATM   12  C9  UNL     1      28.789  28.859   5.736  1.00  0.00     0.235 C 
ATOM     13  H32 UNL     1      27.236  30.190   5.765  1.00  0.00     0.279 HD
ATOM     14  H31 UNL     1      28.120  30.282   7.043  1.00  0.00     0.279 HD
HETATM   15  C10 UNL     1      29.933  28.487   6.619  1.00  0.00     0.028 C 
HETATM   16  C11 UNL     1      29.488  27.866   7.924  1.00  0.00     0.004 C 
HETATM   17  C12 UNL     1      28.655  28.799   8.748  1.00  0.00     0.036 C 
HETATM   18  C13 UNL     1      27.168  28.600   8.560  1.00  0.00     0.168 C 
BRANCH  18  19
HETATM   19  O1  UNL     1      26.521  29.481   9.400  1.00  0.00    -0.392 OA
ATOM     20  H1  UNL     1      27.054  30.188   9.744  1.00  0.00     0.210 HD
ENDBRANCH  18  19
ENDBRANCH   8  10
ENDBRANCH   2   8
BRANCH   1  21
HETATM   21  N1  UNL     1      22.535  29.411   6.130  1.00  0.00    -0.380 N 
ATOM     22  H1  UNL     1      21.970  28.762   6.678  1.00  0.00     0.160 HD
BRANCH  21  23
HETATM   23  C4  UNL     1      22.313  30.811   6.286  1.00  0.00     0.077 C 
HETATM   24  C5  UNL     1      21.882  31.174   7.701  1.00  0.00     0.032 C 
BRANCH  23  25
HETATM   25  C3  UNL     1      21.263  31.369   5.374  1.00  0.00     0.024 C 
BRANCH  25  26
HETATM   26  C2  UNL     1      21.461  32.837   5.171  1.00  0.00    -0.003 C 
HETATM   27  C1  UNL     1      20.129  33.558   5.271  1.00  0.00     0.005 C 
ENDBRANCH  25  26
ENDBRANCH  23  25
ENDBRANCH  21  23
ENDBRANCH   1  21
TORSDOF 7
ENDMDL
MODEL 4
REMARK VINA RESULT: -6.789786887      1.110      1.235
REMARK  7 active torsions:
REMARK  status: ('A' for Active; 'I' for Inactive)
REMARK    1  A    between atoms: C2_2  and  C3_3 
REMARK    2  A    between atoms: C3_3  and  C4_4 
REMARK    3  A    between atoms: C4_4  and  N1_6 
REMARK    4  A    between atoms: N1_6  and  C6_8 
REMARK    5  A    between atoms: C7_9  and  N2_10 
REMARK    6  A    between atoms: N2_10  and  C8_12 
REMARK    7  A    between atoms: C13_20  and  O1_21 
ROOT
HETATM    1  C6  UNL     1      29.330  28.568   6.215  1.00  0.00     0.122 A 
HETATM    2  C7  UNL     1      27.957  28.770   6.023  1.00  0.00     0.198 A 
HETATM    3  O2  UNL     1      27.785  28.832   4.739  1.00  0.00    -0.214 OA
HETATM    4  N4  UNL     1      28.900  28.692   4.097  1.00  0.00    -0.242 N 
HETATM    5  C14 UNL     1      29.128  28.702   2.655  1.00  0.00     0.187 C 
HETATM    6  C15 UNL     1      29.917  28.521   4.970  1.00  0.00     0.154 A 
HETATM    7  S1  UNL     1      31.497  28.301   4.634  1.00  0.00    -0.056 SA
ENDROOT
BRANCH   2   8
HETATM    8  N2  UNL     1      27.002  28.875   7.091  1.00  0.00    -0.337 N 
ATOM      9  H2  UNL     1      27.305  28.698   8.048  1.00  0.00     0.163 HD
BRANCH   8  10
HETATM   10  C8  UNL     1      25.639  29.222   6.846  1.00  0.00     0.314 C 
HETATM   11  N3  UNL     1      24.863  28.116   6.311  1.00  0.00    -0.052 N 
HETATM   12  C9  UNL     1      24.091  28.479   5.145  1.00  0.00     0.235 C 
ATOM     13  H32 UNL     1      25.460  27.312   6.116  1.00  0.00     0.279 HD
ATOM     14  H31 UNL     1      24.265  27.708   7.030  1.00  0.00     0.279 HD
HETATM   15  C10 UNL     1      22.791  29.139   5.459  1.00  0.00     0.028 C 
HETATM   16  C11 UNL     1      22.925  30.238   6.490  1.00  0.00     0.004 C 
HETATM   17  C12 UNL     1      23.426  29.730   7.806  1.00  0.00     0.036 C 
HETATM   18  C13 UNL     1      24.920  29.878   7.978  1.00  0.00     0.168 C 
BRANCH  18  19
HETATM   19  O1  UNL     1      25.243  29.420   9.236  1.00  0.00    -0.392 OA
ATOM     20  H1  UNL     1      25.543  30.080   9.849  1.00  0.00     0.210 HD
ENDBRANCH  18  19
ENDBRANCH   8  10
ENDBRANCH   2   8
BRANCH   1  21
HETATM   21  N1  UNL     1      29.966  28.436   7.461  1.00  0.00    -0.380 N 
ATOM     22  H1  UNL     1      30.321  29.274   7.920  1.00  0.00     0.160 HD
BRANCH  21  23
HETATM   23  C4  UNL     1      30.136  27.177   8.111  1.00  0.00     0.077 C 
HETATM   24  C5  UNL     1      30.186  27.312   9.627  1.00  0.00     0.032 C 
BRANCH  23  25
HETATM   25  C3  UNL     1      31.382  26.447   7.714  1.00  0.00     0.024 C 
BRANCH  25  26
HETATM   26  C2  UNL     1      31.314  25.013   8.133  1.00  0.00    -0.003 C 
HETATM   27  C1  UNL     1      32.713  24.432   8.220  1.00  0.00     0.005 C 
ENDBRANCH  25  26
ENDBRANCH  23  25
ENDBRANCH  21  23
ENDBRANCH   1  21
TORSDOF 7
ENDMDL
MODEL 5
REMARK VINA RESULT: -6.579099461      3.145      7.132
REMARK  7 active torsions:
REMARK  status: ('A' for Active; 'I' for Inactive)
REMARK    1  A    between atoms: C2_2  and  C3_3 
REMARK    2  A    between atoms: C3_3  and  C4_4 
REMARK    3  A    between atoms: C4_4  and  N1_6 
REMARK    4  A    between atoms: N1_6  and  C6_8 
REMARK    5  A    between atoms: C7_9  and  N2_10 
REMARK    6  A    between atoms: N2_10  and  C8_12 
REMARK    7  A    between atoms: C13_20  and  O1_21 
ROOT
HETATM    1  C6  UNL     1      31.153  27.260   7.063  1.00  0.00     0.122 A 
HETATM    2  C7  UNL     1      31.982  26.586   6.157  1.00  0.00     0.198 A 
HETATM    3  O2  UNL     1      32.369  25.509   6.766  1.00  0.00    -0.214 OA
HETATM    4  N4  UNL     1      31.876  25.426   7.959  1.00  0.00    -0.242 N 
HETATM    5  C14 UNL     1      32.070  24.377   8.955  1.00  0.00     0.187 C 
HETATM    6  C15 UNL     1      31.098  26.502   8.211  1.00  0.00     0.154 A 
HETATM    7  S1  UNL     1      30.265  26.836   9.573  1.00  0.00    -0.056 SA
ENDROOT
BRANCH   2   8
HETATM    8  N2  UNL     1      32.289  27.064   4.837  1.00  0.00    -0.337 N 
ATOM      9  H2  UNL     1      32.302  28.069   4.663  1.00  0.00     0.163 HD
BRANCH   8  10
HETATM   10  C8  UNL     1      32.576  26.169   3.763  1.00  0.00     0.314 C 
HETATM   11  N3  UNL     1      32.220  24.793   4.065  1.00  0.00    -0.052 N 
HETATM   12  C9  UNL     1      33.280  23.857   3.767  1.00  0.00     0.235 C 
ATOM     13  H32 UNL     1      31.915  24.700   5.034  1.00  0.00     0.279 HD
ATOM     14  H31 UNL     1      31.356  24.527   3.592  1.00  0.00     0.279 HD
HETATM   15  C10 UNL     1      33.340  23.446   2.333  1.00  0.00     0.028 C 
HETATM   16  C11 UNL     1      33.253  24.619   1.383  1.00  0.00     0.004 C 
HETATM   17  C12 UNL     1      31.963  25.368   1.514  1.00  0.00     0.036 C 
HETATM   18  C13 UNL     1      32.056  26.571   2.423  1.00  0.00     0.168 C 
BRANCH  18  19
HETATM   19  O1  UNL     1      30.827  27.192   2.421  1.00  0.00    -0.392 OA
ATOM     20  H1  UNL     1      30.136  26.735   1.955  1.00  0.00     0.210 HD
ENDBRANCH  18  19
ENDBRANCH   8  10
ENDBRANCH   2   8
BRANCH   1  21
HETATM   21  N1  UNL     1      30.505  28.483   6.818  1.00  0.00    -0.380 N 
ATOM     22  H1  UNL     1      30.788  29.302   7.355  1.00  0.00     0.160 HD
BRANCH  21  23
HETATM   23  C4  UNL     1      29.467  28.625   5.850  1.00  0.00     0.077 C 
HETATM   24  C5  UNL     1      29.822  29.634   4.766  1.00  0.00     0.032 C 
BRANCH  23  25
HETATM   25  C3  UNL     1      28.155  29.068   6.421  1.00  0.00     0.024 C 
BRANCH  25  26
HETATM   26  C2  UNL     1      27.028  28.710   5.504  1.00  0.00    -0.003 C 
HETATM   27  C1  UNL     1      25.711  28.767   6.255  1.00  0.00     0.005 C 
ENDBRANCH  25  26
ENDBRANCH  23  25
ENDBRANCH  21  23
ENDBRANCH   1  21
TORSDOF 7
ENDMDL
