MODEL 1
REMARK VINA RESULT: -7.761204376      0.000      0.000
REMARK  8 active torsions:
REMARK  status: ('A' for Active; 'I' for Inactive)
REMARK    1  A    between atoms: C2_3  and  O1_4 
REMARK    2  A    between atoms: C3_6  and  N2_7 
REMARK    3  A    between atoms: N2_7  and  C4_9 
REMARK    4  A    between atoms: C4_9  and  O2_10 
REMARK    5  A    between atoms: C4_9  and  C5_12 
REMARK    6  A    between atoms: C5_12  and  C6_13 
REMARK    7  A    between atoms: C6_13  and  S1_14 
REMARK    8  A    between atoms: S1_14  and  C7_15 
ROOT
HETATM    1  N2  UNL     1      26.975  29.704   8.376  1.00  0.00    -0.346 N 
ATOM      2  H2  UNL     1      27.060  30.596   8.862  1.00  0.00     0.163 HD
ENDROOT
BRANCH   1   3
HETATM    3  C3  UNL     1      28.091  29.158   7.687  1.00  0.00     0.157 A 
HETATM    4  C2  UNL     1      29.041  28.280   8.198  1.00  0.00     0.189 A 
HETATM    5  N1  UNL     1      29.933  27.987   7.259  1.00  0.00    -0.306 N 
HETATM    6  C1  UNL     1      31.100  27.107   7.358  1.00  0.00     0.161 C 
HETATM    7  C13 UNL     1      29.570  28.663   6.154  1.00  0.00     0.181 A 
HETATM    8  N3  UNL     1      28.456  29.372   6.408  1.00  0.00    -0.316 N 
HETATM    9  S2  UNL     1      30.383  28.605   4.737  1.00  0.00    -0.040 SA
ATOM     10  H3  UNL     1      27.969  29.973   5.743  1.00  0.00     0.170 HD
BRANCH   4  11
HETATM   11  O1  UNL     1      29.051  27.783   9.511  1.00  0.00    -0.343 OA
ATOM     12  H1  UNL     1      28.833  28.282  10.290  1.00  0.00     0.219 HD
ENDBRANCH   4  11
ENDBRANCH   1   3
BRANCH   1  13
HETATM   13  C4  UNL     1      25.712  28.986   8.387  1.00  0.00     0.219 C 
BRANCH  13  14
HETATM   14  O2  UNL     1      24.842  29.653   9.245  1.00  0.00    -0.377 OA
ATOM     15  H2  UNL     1      24.142  29.055   9.479  1.00  0.00     0.212 HD
ENDBRANCH  13  14
BRANCH  13  16
HETATM   16  C5  UNL     1      25.130  28.945   6.962  1.00  0.00     0.064 C 
BRANCH  16  17
HETATM   17  C6  UNL     1      23.822  29.684   6.996  1.00  0.00     0.078 C 
BRANCH  17  18
HETATM   18  S1  UNL     1      22.783  29.527   5.578  1.00  0.00    -0.164 SA
BRANCH  18  19
HETATM   19  C7  UNL     1      21.386  30.654   5.456  1.00  0.00     0.047 C 
HETATM   20  C8  UNL     1      21.076  30.790   3.981  1.00  0.00     0.015 C 
HETATM   21  C9  UNL     1      21.221  32.202   3.492  1.00  0.00     0.001 C 
HETATM   22  C10 UNL     1      20.279  33.034   4.373  1.00  0.00     0.000 C 
HETATM   23  C11 UNL     1      20.948  33.144   5.696  1.00  0.00     0.001 C 
HETATM   24  C12 UNL     1      21.681  31.918   6.160  1.00  0.00     0.015 C 
ENDBRANCH  18  19
ENDBRANCH  17  18
ENDBRANCH  16  17
ENDBRANCH  13  16
ENDBRANCH   1  13
TORSDOF 8
ENDMDL
MODEL 2
REMARK VINA RESULT: -7.622234974      4.320      6.314
REMARK  8 active torsions:
REMARK  status: ('A' for Active; 'I' for Inactive)
REMARK    1  A    between atoms: C2_3  and  O1_4 
REMARK    2  A    between atoms: C3_6  and  N2_7 
REMARK    3  A    between atoms: N2_7  and  C4_9 
REMARK    4  A    between atoms: C4_9  and  O2_10 
REMARK    5  A    between atoms: C4_9  and  C5_12 
REMARK    6  A    between atoms: C5_12  and  C6_13 
REMARK    7  A    between atoms: C6_13  and  S1_14 
REMARK    8  A    between atoms: S1_14  and  C7_15 
ROOT
HETATM    1  N2  UNL     1      31.896  24.976   8.753  1.00  0.00    -0.346 N 
ATOM      2  H2  UNL     1      32.350  24.679   9.617  1.00  0.00     0.163 HD
ENDROOT
BRANCH   1   3
HETATM    3  C3  UNL     1      32.444  24.604   7.496  1.00  0.00     0.157 A 
HETATM    4  C2  UNL     1      33.789  24.430   7.188  1.00  0.00     0.189 A 
HETATM    5  N1  UNL     1      33.917  24.078   5.914  1.00  0.00    -0.306 N 
HETATM    6  C1  UNL     1      35.146  23.796   5.170  1.00  0.00     0.161 C 
HETATM    7  C13 UNL     1      32.675  24.024   5.400  1.00  0.00     0.181 A 
HETATM    8  N3  UNL     1      31.781  24.340   6.353  1.00  0.00    -0.316 N 
HETATM    9  S2  UNL     1      32.343  23.628   3.849  1.00  0.00    -0.040 SA
ATOM     10  H3  UNL     1      30.768  24.375   6.231  1.00  0.00     0.170 HD
BRANCH   4  11
HETATM   11  O1  UNL     1      34.848  24.603   8.094  1.00  0.00    -0.343 OA
ATOM     12  H1  UNL     1      35.226  23.919   8.635  1.00  0.00     0.219 HD
ENDBRANCH   4  11
ENDBRANCH   1   3
BRANCH   1  13
HETATM   13  C4  UNL     1      30.689  25.783   8.804  1.00  0.00     0.219 C 
BRANCH  13  14
HETATM   14  O2  UNL     1      30.349  25.970  10.141  1.00  0.00    -0.377 OA
ATOM     15  H2  UNL     1      30.807  25.316  10.657  1.00  0.00     0.212 HD
ENDBRANCH  13  14
BRANCH  13  16
HETATM   16  C5  UNL     1      30.945  27.139   8.123  1.00  0.00     0.064 C 
BRANCH  16  17
HETATM   17  C6  UNL     1      29.663  27.918   8.191  1.00  0.00     0.078 C 
BRANCH  17  18
HETATM   18  S1  UNL     1      29.053  28.581   6.674  1.00  0.00    -0.164 SA
BRANCH  18  19
HETATM   19  C7  UNL     1      27.445  29.387   6.717  1.00  0.00     0.047 C 
HETATM   20  C8  UNL     1      27.056  29.485   8.176  1.00  0.00     0.015 C 
HETATM   21  C9  UNL     1      25.790  28.739   8.484  1.00  0.00     0.001 C 
HETATM   22  C10 UNL     1      24.730  29.337   7.549  1.00  0.00     0.000 C 
HETATM   23  C11 UNL     1      25.029  28.799   6.196  1.00  0.00     0.001 C 
HETATM   24  C12 UNL     1      26.486  28.669   5.853  1.00  0.00     0.015 C 
ENDBRANCH  18  19
ENDBRANCH  17  18
ENDBRANCH  16  17
ENDBRANCH  13  16
ENDBRANCH   1  13
TORSDOF 8
ENDMDL
MODEL 3
REMARK VINA RESULT: -7.606706360      3.382      8.307
REMARK  8 active torsions:
REMARK  status: ('A' for Active; 'I' for Inactive)
REMARK    1  A    between atoms: C2_3  and  O1_4 
REMARK    2  A    between atoms: C3_6  and  N2_7 
REMARK    3  A    between atoms: N2_7  and  C4_9 
REMARK    4  A    between atoms: C4_9  and  O2_10 
REMARK    5  A    between atoms: C4_9  and  C5_12 
REMARK    6  A    between atoms: C5_12  and  C6_13 
REMARK    7  A    between atoms: C6_13  and  S1_14 
REMARK    8  A    between atoms: S1_14  and  C7_15 
ROOT
HETATM    1  N2  UNL     1      22.416  29.503   6.307  1.00  0.00    -0.346 N 
ATOM      2  H2  UNL     1      22.045  28.630   6.683  1.00  0.00     0.163 HD
ENDROOT
BRANCH   1   3
HETATM    3  C3  UNL     1      21.772  30.137   5.211  1.00  0.00     0.157 A 
HETATM    4  C2  UNL     1      21.324  31.452   5.152  1.00  0.00     0.189 A 
HETATM    5  N1  UNL     1      20.776  31.687   3.965  1.00  0.00    -0.306 N 
HETATM    6  C1  UNL     1      20.177  32.930   3.471  1.00  0.00     0.161 C 
HETATM    7  C13 UNL     1      20.866  30.544   3.262  1.00  0.00     0.181 A 
HETATM    8  N3  UNL     1      21.468  29.603   4.011  1.00  0.00    -0.316 N 
HETATM    9  S2  UNL     1      20.317  30.363   1.733  1.00  0.00    -0.040 SA
ATOM     10  H3  UNL     1      21.663  28.645   3.720  1.00  0.00     0.170 HD
BRANCH   4  11
HETATM   11  O1  UNL     1      21.435  32.385   6.194  1.00  0.00    -0.343 OA
ATOM     12  H1  UNL     1      21.029  32.306   7.049  1.00  0.00     0.219 HD
ENDBRANCH   4  11
ENDBRANCH   1   3
BRANCH   1  13
HETATM   13  C4  UNL     1      23.604  30.101   6.891  1.00  0.00     0.219 C 
BRANCH  13  14
HETATM   14  O2  UNL     1      23.266  30.601   8.146  1.00  0.00    -0.377 OA
ATOM     15  H2  UNL     1      24.057  30.929   8.556  1.00  0.00     0.212 HD
ENDBRANCH  13  14
BRANCH  13  16
HETATM   16  C5  UNL     1      24.708  29.035   7.020  1.00  0.00     0.064 C 
BRANCH  16  17
HETATM   17  C6  UNL     1      25.269  29.144   8.409  1.00  0.00     0.078 C 
BRANCH  17  18
HETATM   18  S1  UNL     1      26.998  29.468   8.546  1.00  0.00    -0.164 SA
BRANCH  18  19
HETATM   19  C7  UNL     1      28.107  28.423   7.590  1.00  0.00     0.047 C 
HETATM   20  C8  UNL     1      29.260  28.075   8.507  1.00  0.00     0.015 C 
HETATM   21  C9  UNL     1      30.579  28.567   7.983  1.00  0.00     0.001 C 
HETATM   22  C10 UNL     1      30.721  27.939   6.590  1.00  0.00     0.000 C 
HETATM   23  C11 UNL     1      29.791  28.690   5.707  1.00  0.00     0.001 C 
HETATM   24  C12 UNL     1      28.482  29.090   6.328  1.00  0.00     0.015 C 
ENDBRANCH  18  19
ENDBRANCH  17  18
ENDBRANCH  16  17
ENDBRANCH  13  16
ENDBRANCH   1  13
TORSDOF 8
ENDMDL
MODEL 4
REMARK VINA RESULT: -7.554606991      1.633      1.796
REMARK  8 active torsions:
REMARK  status: ('A' for Active; 'I' for Inactive)
REMARK    1  A    between atoms: C2_3  and  O1_4 
REMARK    2  A    between atoms: C3_6  and  N2_7 
REMARK    3  A    between atoms: N2_7  and  C4_9 
REMARK    4  A    between atoms: C4_9  and  O2_10 
REMARK    5  A    between atoms: C4_9  and  C5_12 
REMARK    6  A    between atoms: C5_12  and  C6_13 
REMARK    7  A    between atoms: C6_13  and  S1_14 
REMARK    8  A    between atoms: S1_14  and  C7_15 
ROOT
HETATM    1  N2  UNL     1      26.996  29.627   8.341  1.00  0.00    -0.346 N 
ATOM      2  H2  UNL     1      27.078  30.644   8.374  1.00  0.00     0.163 HD
ENDROOT
BRANCH   1   3
HETATM    3  C3  UNL     1      28.163  28.819   8.288  1.00  0.00     0.157 A 
HETATM    4  C2  UNL     1      29.004  28.636   7.195  1.00  0.00     0.189 A 
HETATM    5  N1  UNL     1      29.994  27.814   7.523  1.00  0.00    -0.306 N 
HETATM    6  C1  UNL     1      31.101  27.346   6.685  1.00  0.00     0.161 C 
HETATM    7  C13 UNL     1      29.801  27.467   8.809  1.00  0.00     0.181 A 
HETATM    8  N3  UNL     1      28.695  28.073   9.276  1.00  0.00    -0.316 N 
HETATM    9  S2  UNL     1      30.783  26.460   9.643  1.00  0.00    -0.040 SA
ATOM     10  H3  UNL     1      28.321  27.983  10.221  1.00  0.00     0.170 HD
BRANCH   4  11
HETATM   11  O1  UNL     1      28.827  29.233   5.938  1.00  0.00    -0.343 OA
ATOM     12  H1  UNL     1      28.900  28.787   5.102  1.00  0.00     0.219 HD
ENDBRANCH   4  11
ENDBRANCH   1   3
BRANCH   1  13
HETATM   13  C4  UNL     1      25.685  29.002   8.348  1.00  0.00     0.219 C 
BRANCH  13  14
HETATM   14  O2  UNL     1      24.857  29.741   9.189  1.00  0.00    -0.377 OA
ATOM     15  H2  UNL     1      24.497  29.152   9.841  1.00  0.00     0.212 HD
ENDBRANCH  13  14
BRANCH  13  16
HETATM   16  C5  UNL     1      25.114  28.983   6.918  1.00  0.00     0.064 C 
BRANCH  16  17
HETATM   17  C6  UNL     1      23.802  29.713   6.955  1.00  0.00     0.078 C 
BRANCH  17  18
HETATM   18  S1  UNL     1      22.765  29.557   5.536  1.00  0.00    -0.164 SA
BRANCH  18  19
HETATM   19  C7  UNL     1      21.363  30.679   5.416  1.00  0.00     0.047 C 
HETATM   20  C8  UNL     1      21.052  30.815   3.941  1.00  0.00     0.015 C 
HETATM   21  C9  UNL     1      21.191  32.228   3.453  1.00  0.00     0.001 C 
HETATM   22  C10 UNL     1      20.246  33.056   4.336  1.00  0.00     0.000 C 
HETATM   23  C11 UNL     1      20.917  33.168   5.658  1.00  0.00     0.001 C 
HETATM   24  C12 UNL     1      21.655  31.943   6.120  1.00  0.00     0.015 C 
ENDBRANCH  18  19
ENDBRANCH  17  18
ENDBRANCH  16  17
ENDBRANCH  13  16
ENDBRANCH   1  13
TORSDOF 8
ENDMDL
MODEL 5
REMARK VINA RESULT: -7.515367111      2.217      8.513
REMARK  8 active torsions:
REMARK  status: ('A' for Active; 'I' for Inactive)
REMARK    1  A    between atoms: C2_3  and  O1_4 
REMARK    2  A    between atoms: C3_6  and  N2_7 
REMARK    3  A    between atoms: N2_7  and  C4_9 
REMARK    4  A    between atoms: C4_9  and  O2_10 
REMARK    5  A    between atoms: C4_9  and  C5_12 
REMARK    6  A    between atoms: C5_12  and  C6_13 
REMARK    7  A    between atoms: C6_13  and  S1_14 
REMARK    8  A    between atoms: S1_14  and  C7_15 
ROOT
HETATM    1  N2  UNL     1      25.156  28.910   8.400  1.00  0.00    -0.346 N 
ATOM      2  H2  UNL     1      24.850  28.342   9.190  1.00  0.00     0.163 HD
ENDROOT
BRANCH   1   3
HETATM    3  C3  UNL     1      24.306  29.080   7.274  1.00  0.00     0.157 A 
HETATM    4  C2  UNL     1      23.283  30.011   7.132  1.00  0.00     0.189 A 
HETATM    5  N1  UNL     1      22.711  29.873   5.942  1.00  0.00    -0.306 N 
HETATM    6  C1  UNL     1      21.598  30.638   5.375  1.00  0.00     0.161 C 
HETATM    7  C13 UNL     1      23.351  28.868   5.318  1.00  0.00     0.181 A 
HETATM    8  N3  UNL     1      24.318  28.385   6.119  1.00  0.00    -0.316 N 
HETATM    9  S2  UNL     1      22.984  28.341   3.814  1.00  0.00    -0.040 SA
ATOM     10  H3  UNL     1      24.954  27.621   5.891  1.00  0.00     0.170 HD
BRANCH   4  11
HETATM   11  O1  UNL     1      22.914  30.953   8.106  1.00  0.00    -0.343 OA
ATOM     12  H1  UNL     1      22.849  31.890   7.968  1.00  0.00     0.219 HD
ENDBRANCH   4  11
ENDBRANCH   1   3
BRANCH   1  13
HETATM   13  C4  UNL     1      26.461  29.547   8.422  1.00  0.00     0.219 C 
BRANCH  13  14
HETATM   14  O2  UNL     1      27.053  29.280   9.654  1.00  0.00    -0.377 OA
ATOM     15  H2  UNL     1      27.533  30.053   9.925  1.00  0.00     0.212 HD
ENDBRANCH  13  14
BRANCH  13  16
HETATM   16  C5  UNL     1      27.329  28.987   7.280  1.00  0.00     0.064 C 
BRANCH  16  17
HETATM   17  C6  UNL     1      28.551  28.381   7.908  1.00  0.00     0.078 C 
BRANCH  17  18
HETATM   18  S1  UNL     1      29.943  28.123   6.854  1.00  0.00    -0.164 SA
BRANCH  18  19
HETATM   19  C7  UNL     1      31.291  27.125   7.504  1.00  0.00     0.047 C 
HETATM   20  C8  UNL     1      31.955  26.476   6.308  1.00  0.00     0.015 C 
HETATM   21  C9  UNL     1      31.894  24.977   6.363  1.00  0.00     0.001 C 
HETATM   22  C10 UNL     1      32.561  24.592   7.690  1.00  0.00     0.000 C 
HETATM   23  C11 UNL     1      31.580  24.933   8.754  1.00  0.00     0.001 C 
HETATM   24  C12 UNL     1      30.792  26.193   8.534  1.00  0.00     0.015 C 
ENDBRANCH  18  19
ENDBRANCH  17  18
ENDBRANCH  16  17
ENDBRANCH  13  16
ENDBRANCH   1  13
TORSDOF 8
ENDMDL
