MODEL 1
REMARK VINA RESULT: -6.454571235      0.000      0.000
REMARK  20 active torsions:
REMARK  status: ('A' for Active; 'I' for Inactive)
REMARK    1  A    between atoms: C2_2  and  C3_7 
REMARK    2  A    between atoms: N1_3  and  O1_5 
REMARK    3  A    between atoms: C3_7  and  O2_8 
REMARK    4  A    between atoms: C4_11  and  O4_12 
REMARK    5  A    between atoms: O4_12  and  C5_13 
REMARK    6  A    between atoms: C5_13  and  C6_15 
REMARK    7  A    between atoms: C6_15  and  C7_16 
REMARK    8  A    between atoms: C7_16  and  O6_17 
REMARK    9  A    between atoms: C7_16  and  C8_19 
REMARK   10  A    between atoms: C8_19  and  C9_20 
REMARK   11  A    between atoms: C9_20  and  O7_21 
REMARK   12  A    between atoms: O7_21  and  C10_22 
REMARK   13  A    between atoms: C12_25  and  O9_27 
REMARK   14  A    between atoms: C14_29  and  O10_30 
REMARK   15  A    between atoms: C15_32  and  O11_33 
REMARK   16  A    between atoms: C16_35  and  O12_36 
REMARK   17  A    between atoms: C17_38  and  O13_39 
REMARK   18  A    between atoms: C18_41  and  O14_42 
REMARK   19  A    between atoms: C19_44  and  C20_45 
REMARK   20  A    between atoms: C20_45  and  O15_46 
ROOT
HETATM    1  C3  UNL     1      -5.722  23.890   4.456  1.00  0.00     0.214 C 
HETATM    2  O3  UNL     1      -6.811  24.288   5.176  1.00  0.00    -0.316 OA
HETATM    3  C4  UNL     1      -7.946  24.589   4.448  1.00  0.00     0.304 C 
HETATM    4  C16 UNL     1      -8.013  26.037   4.001  1.00  0.00     0.205 C 
HETATM    5  C17 UNL     1      -6.970  26.507   3.093  1.00  0.00     0.181 C 
HETATM    6  C18 UNL     1      -5.955  25.548   2.601  1.00  0.00     0.161 C 
HETATM    7  C19 UNL     1      -5.063  24.985   3.687  1.00  0.00     0.109 C 
ENDROOT
BRANCH   3   8
HETATM    8  O4  UNL     1      -8.235  23.709   3.396  1.00  0.00    -0.287 OA
BRANCH   8   9
HETATM    9  C5  UNL     1      -9.528  23.612   2.915  1.00  0.00     0.263 C 
HETATM   10  O5  UNL     1      -9.694  23.723   1.678  1.00  0.00    -0.265 OA
BRANCH   9  11
HETATM   11  C6  UNL     1     -10.676  23.384   3.821  1.00  0.00     0.142 C 
BRANCH  11  12
HETATM   12  C7  UNL     1     -11.495  22.169   3.502  1.00  0.00     0.129 C 
BRANCH  12  13
HETATM   13  O6  UNL     1     -10.592  21.186   3.099  1.00  0.00    -0.395 OA
ATOM     14  H6  UNL     1     -10.389  21.369   2.190  1.00  0.00     0.210 HD
ENDBRANCH  12  13
BRANCH  12  15
HETATM   15  C8  UNL     1     -12.408  21.674   4.546  1.00  0.00     0.058 C 
BRANCH  15  16
HETATM   16  C9  UNL     1     -11.882  20.881   5.666  1.00  0.00     0.173 C 
BRANCH  16  17
HETATM   17  O7  UNL     1     -12.089  21.289   6.948  1.00  0.00    -0.358 OA
BRANCH  17  18
HETATM   18  C10 UNL     1     -12.302  20.300   7.889  1.00  0.00     0.290 C 
HETATM   19  O8  UNL     1     -11.093  19.726   8.204  1.00  0.00    -0.356 OA
HETATM   20  C11 UNL     1     -11.179  18.643   9.033  1.00  0.00     0.211 C 
HETATM   21  C12 UNL     1     -12.415  18.535   9.856  1.00  0.00     0.104 C 
HETATM   22  C13 UNL     1     -13.409  17.576   9.215  1.00  0.00     0.051 C 
HETATM   23  C14 UNL     1     -13.066  19.831  10.201  1.00  0.00     0.187 C 
HETATM   24  C15 UNL     1     -12.762  20.939   9.225  1.00  0.00     0.205 C 
BRANCH  21  25
HETATM   25  O9  UNL     1     -12.028  17.915  11.069  1.00  0.00    -0.385 OA
ATOM     26  H9  UNL     1     -12.831  17.627  11.486  1.00  0.00     0.210 HD
ENDBRANCH  21  25
BRANCH  23  27
HETATM   27  O10 UNL     1     -14.460  19.590  10.261  1.00  0.00    -0.390 OA
ATOM     28  H10 UNL     1     -14.891  20.431  10.171  1.00  0.00     0.210 HD
ENDBRANCH  23  27
BRANCH  24  29
HETATM   29  O11 UNL     1     -11.674  21.670   9.683  1.00  0.00    -0.388 OA
ATOM     30  H11 UNL     1     -12.004  22.194  10.405  1.00  0.00     0.210 HD
ENDBRANCH  24  29
ENDBRANCH  17  18
ENDBRANCH  16  17
ENDBRANCH  15  16
ENDBRANCH  12  15
ENDBRANCH  11  12
ENDBRANCH   9  11
ENDBRANCH   8   9
ENDBRANCH   3   8
BRANCH   4  31
HETATM   31  O12 UNL     1      -8.100  26.808   5.165  1.00  0.00    -0.388 OA
ATOM     32  H12 UNL     1      -8.852  27.377   5.056  1.00  0.00     0.210 HD
ENDBRANCH   4  31
BRANCH   1  33
HETATM   33  C2  UNL     1      -4.723  23.300   5.383  1.00  0.00     0.068 C 
HETATM   34  C1  UNL     1      -4.890  23.280   6.867  1.00  0.00     0.071 C 
HETATM   35  N1  UNL     1      -3.620  22.752   4.956  1.00  0.00    -0.272 N 
ATOM     36  H1  UNL     1      -2.985  22.368   5.657  1.00  0.00     0.193 HD
BRANCH  35  37
HETATM   37  O1  UNL     1      -3.248  22.650   3.659  1.00  0.00    -0.290 OA
ATOM     38  H1  UNL     1      -2.493  22.170   3.339  1.00  0.00     0.244 HD
ENDBRANCH  35  37
ENDBRANCH   1  33
BRANCH   1  39
HETATM   39  O2  UNL     1      -6.028  22.865   3.542  1.00  0.00    -0.360 OA
ATOM     40  H2  UNL     1      -6.692  23.232   2.970  1.00  0.00     0.213 HD
ENDBRANCH   1  39
BRANCH   5  41
HETATM   41  O13 UNL     1      -7.583  27.063   1.939  1.00  0.00    -0.390 OA
ATOM     42  H13 UNL     1      -7.305  26.570   1.176  1.00  0.00     0.210 HD
ENDBRANCH   5  41
BRANCH   7  43
HETATM   43  C20 UNL     1      -4.481  26.093   4.489  1.00  0.00     0.177 C 
BRANCH  43  44
HETATM   44  O15 UNL     1      -3.190  26.466   4.091  1.00  0.00    -0.400 OA
ATOM     45  H15 UNL     1      -3.159  27.275   3.594  1.00  0.00     0.209 HD
ENDBRANCH  43  44
ENDBRANCH   7  43
BRANCH   6  46
HETATM   46  O14 UNL     1      -5.093  26.275   1.741  1.00  0.00    -0.392 OA
ATOM     47  H14 UNL     1      -5.107  25.830   0.903  1.00  0.00     0.210 HD
ENDBRANCH   6  46
TORSDOF 20
ENDMDL
MODEL 2
REMARK VINA RESULT: -6.387045789      5.853      9.589
REMARK  20 active torsions:
REMARK  status: ('A' for Active; 'I' for Inactive)
REMARK    1  A    between atoms: C2_2  and  C3_7 
REMARK    2  A    between atoms: N1_3  and  O1_5 
REMARK    3  A    between atoms: C3_7  and  O2_8 
REMARK    4  A    between atoms: C4_11  and  O4_12 
REMARK    5  A    between atoms: O4_12  and  C5_13 
REMARK    6  A    between atoms: C5_13  and  C6_15 
REMARK    7  A    between atoms: C6_15  and  C7_16 
REMARK    8  A    between atoms: C7_16  and  O6_17 
REMARK    9  A    between atoms: C7_16  and  C8_19 
REMARK   10  A    between atoms: C8_19  and  C9_20 
REMARK   11  A    between atoms: C9_20  and  O7_21 
REMARK   12  A    between atoms: O7_21  and  C10_22 
REMARK   13  A    between atoms: C12_25  and  O9_27 
REMARK   14  A    between atoms: C14_29  and  O10_30 
REMARK   15  A    between atoms: C15_32  and  O11_33 
REMARK   16  A    between atoms: C16_35  and  O12_36 
REMARK   17  A    between atoms: C17_38  and  O13_39 
REMARK   18  A    between atoms: C18_41  and  O14_42 
REMARK   19  A    between atoms: C19_44  and  C20_45 
REMARK   20  A    between atoms: C20_45  and  O15_46 
ROOT
HETATM    1  C3  UNL     1     -14.902  18.281   7.392  1.00  0.00     0.214 C 
HETATM    2  O3  UNL     1     -15.385  19.260   6.573  1.00  0.00    -0.316 OA
HETATM    3  C4  UNL     1     -14.530  20.313   6.313  1.00  0.00     0.304 C 
HETATM    4  C16 UNL     1     -14.633  21.441   7.322  1.00  0.00     0.205 C 
HETATM    5  C17 UNL     1     -14.281  21.135   8.706  1.00  0.00     0.181 C 
HETATM    6  C18 UNL     1     -13.780  19.784   9.042  1.00  0.00     0.161 C 
HETATM    7  C19 UNL     1     -14.792  18.680   8.825  1.00  0.00     0.109 C 
ENDROOT
BRANCH   3   8
HETATM    8  O4  UNL     1     -13.196  19.958   6.069  1.00  0.00    -0.287 OA
BRANCH   8   9
HETATM    9  C5  UNL     1     -12.277  20.930   5.717  1.00  0.00     0.263 C 
HETATM   10  O5  UNL     1     -11.442  21.276   6.585  1.00  0.00    -0.265 OA
BRANCH   9  11
HETATM   11  C6  UNL     1     -12.274  21.539   4.369  1.00  0.00     0.142 C 
BRANCH  11  12
HETATM   12  C7  UNL     1     -11.672  20.684   3.295  1.00  0.00     0.129 C 
BRANCH  12  13
HETATM   13  O6  UNL     1     -11.059  19.614   3.947  1.00  0.00    -0.395 OA
ATOM     14  H6  UNL     1     -10.298  19.388   3.427  1.00  0.00     0.210 HD
ENDBRANCH  12  13
BRANCH  12  15
HETATM   15  C8  UNL     1     -12.562  20.223   2.216  1.00  0.00     0.058 C 
BRANCH  15  16
HETATM   16  C9  UNL     1     -13.776  19.463   2.539  1.00  0.00     0.173 C 
BRANCH  16  17
HETATM   17  O7  UNL     1     -13.713  18.403   3.390  1.00  0.00    -0.358 OA
BRANCH  17  18
HETATM   18  C10 UNL     1     -13.517  17.159   2.822  1.00  0.00     0.290 C 
HETATM   19  O8  UNL     1     -12.218  16.769   3.055  1.00  0.00    -0.356 OA
HETATM   20  C11 UNL     1     -11.855  15.608   2.433  1.00  0.00     0.211 C 
HETATM   21  C12 UNL     1     -12.961  14.695   2.037  1.00  0.00     0.104 C 
HETATM   22  C13 UNL     1     -13.303  14.866   0.562  1.00  0.00     0.051 C 
HETATM   23  C14 UNL     1     -14.187  14.772   2.883  1.00  0.00     0.187 C 
HETATM   24  C15 UNL     1     -14.357  16.099   3.579  1.00  0.00     0.205 C 
BRANCH  21  25
HETATM   25  O9  UNL     1     -12.447  13.380   2.150  1.00  0.00    -0.385 OA
ATOM     26  H9  UNL     1     -12.860  13.000   2.917  1.00  0.00     0.210 HD
ENDBRANCH  21  25
BRANCH  23  27
HETATM   27  O10 UNL     1     -15.291  14.509   2.037  1.00  0.00    -0.390 OA
ATOM     28  H10 UNL     1     -15.804  15.307   1.994  1.00  0.00     0.210 HD
ENDBRANCH  23  27
BRANCH  24  29
HETATM   29  O11 UNL     1     -13.807  16.025   4.851  1.00  0.00    -0.388 OA
ATOM     30  H11 UNL     1     -14.265  15.315   5.287  1.00  0.00     0.210 HD
ENDBRANCH  24  29
ENDBRANCH  17  18
ENDBRANCH  16  17
ENDBRANCH  15  16
ENDBRANCH  12  15
ENDBRANCH  11  12
ENDBRANCH   9  11
ENDBRANCH   8   9
ENDBRANCH   3   8
BRANCH   4  31
HETATM   31  O12 UNL     1     -15.923  21.967   7.199  1.00  0.00    -0.388 OA
ATOM     32  H12 UNL     1     -16.269  22.042   8.081  1.00  0.00     0.210 HD
ENDBRANCH   4  31
BRANCH   1  33
HETATM   33  C2  UNL     1     -15.792  17.095   7.301  1.00  0.00     0.068 C 
HETATM   34  C1  UNL     1     -17.236  17.180   6.930  1.00  0.00     0.071 C 
HETATM   35  N1  UNL     1     -15.365  15.887   7.542  1.00  0.00    -0.272 N 
ATOM     36  H1  UNL     1     -16.040  15.127   7.458  1.00  0.00     0.193 HD
BRANCH  35  37
HETATM   37  O1  UNL     1     -14.100  15.560   7.895  1.00  0.00    -0.290 OA
ATOM     38  H1  UNL     1     -13.708  14.700   7.800  1.00  0.00     0.244 HD
ENDBRANCH  35  37
ENDBRANCH   1  33
BRANCH   1  39
HETATM   39  O2  UNL     1     -13.634  17.821   6.990  1.00  0.00    -0.360 OA
ATOM     40  H2  UNL     1     -13.531  18.125   6.096  1.00  0.00     0.213 HD
ENDBRANCH   1  39
BRANCH   5  41
HETATM   41  O13 UNL     1     -13.283  22.048   9.138  1.00  0.00    -0.390 OA
ATOM     42  H13 UNL     1     -13.699  22.758   9.612  1.00  0.00     0.210 HD
ENDBRANCH   5  41
BRANCH   7  43
HETATM   43  C20 UNL     1     -16.066  19.018   9.512  1.00  0.00     0.177 C 
BRANCH  43  44
HETATM   44  O15 UNL     1     -16.069  18.725  10.882  1.00  0.00    -0.400 OA
ATOM     45  H15 UNL     1     -16.371  17.848  11.088  1.00  0.00     0.209 HD
ENDBRANCH  43  44
ENDBRANCH   7  43
BRANCH   6  46
HETATM   46  O14 UNL     1     -13.513  19.785  10.436  1.00  0.00    -0.392 OA
ATOM     47  H14 UNL     1     -13.152  18.931  10.644  1.00  0.00     0.210 HD
ENDBRANCH   6  46
TORSDOF 20
ENDMDL
MODEL 3
REMARK VINA RESULT: -6.265003771      0.853      1.297
REMARK  20 active torsions:
REMARK  status: ('A' for Active; 'I' for Inactive)
REMARK    1  A    between atoms: C2_2  and  C3_7 
REMARK    2  A    between atoms: N1_3  and  O1_5 
REMARK    3  A    between atoms: C3_7  and  O2_8 
REMARK    4  A    between atoms: C4_11  and  O4_12 
REMARK    5  A    between atoms: O4_12  and  C5_13 
REMARK    6  A    between atoms: C5_13  and  C6_15 
REMARK    7  A    between atoms: C6_15  and  C7_16 
REMARK    8  A    between atoms: C7_16  and  O6_17 
REMARK    9  A    between atoms: C7_16  and  C8_19 
REMARK   10  A    between atoms: C8_19  and  C9_20 
REMARK   11  A    between atoms: C9_20  and  O7_21 
REMARK   12  A    between atoms: O7_21  and  C10_22 
REMARK   13  A    between atoms: C12_25  and  O9_27 
REMARK   14  A    between atoms: C14_29  and  O10_30 
REMARK   15  A    between atoms: C15_32  and  O11_33 
REMARK   16  A    between atoms: C16_35  and  O12_36 
REMARK   17  A    between atoms: C17_38  and  O13_39 
REMARK   18  A    between atoms: C18_41  and  O14_42 
REMARK   19  A    between atoms: C19_44  and  C20_45 
REMARK   20  A    between atoms: C20_45  and  O15_46 
ROOT
HETATM    1  C3  UNL     1      -5.685  23.870   4.506  1.00  0.00     0.214 C 
HETATM    2  O3  UNL     1      -6.781  24.284   5.205  1.00  0.00    -0.316 OA
HETATM    3  C4  UNL     1      -7.890  24.620   4.454  1.00  0.00     0.304 C 
HETATM    4  C16 UNL     1      -7.914  26.074   4.024  1.00  0.00     0.205 C 
HETATM    5  C17 UNL     1      -6.839  26.531   3.147  1.00  0.00     0.181 C 
HETATM    6  C18 UNL     1      -5.835  25.555   2.667  1.00  0.00     0.161 C 
HETATM    7  C19 UNL     1      -4.982  24.958   3.766  1.00  0.00     0.109 C 
ENDROOT
BRANCH   3   8
HETATM    8  O4  UNL     1      -8.175  23.760   3.384  1.00  0.00    -0.287 OA
BRANCH   8   9
HETATM    9  C5  UNL     1      -9.389  23.854   2.729  1.00  0.00     0.263 C 
HETATM   10  O5  UNL     1      -9.364  24.049   1.491  1.00  0.00    -0.265 OA
BRANCH   9  11
HETATM   11  C6  UNL     1     -10.672  23.729   3.456  1.00  0.00     0.142 C 
BRANCH  11  12
HETATM   12  C7  UNL     1     -11.317  22.378   3.362  1.00  0.00     0.129 C 
BRANCH  12  13
HETATM   13  O6  UNL     1     -10.318  21.498   2.947  1.00  0.00    -0.395 OA
ATOM     14  H6  UNL     1     -10.697  20.628   2.986  1.00  0.00     0.210 HD
ENDBRANCH  12  13
BRANCH  12  15
HETATM   15  C8  UNL     1     -12.019  21.878   4.556  1.00  0.00     0.058 C 
BRANCH  15  16
HETATM   16  C9  UNL     1     -11.879  20.472   4.956  1.00  0.00     0.173 C 
BRANCH  16  17
HETATM   17  O7  UNL     1     -11.446  20.157   6.207  1.00  0.00    -0.358 OA
BRANCH  17  18
HETATM   18  C10 UNL     1     -12.409  20.063   7.194  1.00  0.00     0.290 C 
HETATM   19  O8  UNL     1     -12.923  18.788   7.187  1.00  0.00    -0.356 OA
HETATM   20  C11 UNL     1     -13.978  18.598   8.033  1.00  0.00     0.211 C 
HETATM   21  C12 UNL     1     -14.107  19.563   9.159  1.00  0.00     0.104 C 
HETATM   22  C13 UNL     1     -15.127  20.645   8.831  1.00  0.00     0.051 C 
HETATM   23  C14 UNL     1     -12.827  20.160   9.636  1.00  0.00     0.187 C 
HETATM   24  C15 UNL     1     -11.742  20.181   8.589  1.00  0.00     0.205 C 
BRANCH  21  25
HETATM   25  O9  UNL     1     -14.667  18.837  10.239  1.00  0.00    -0.385 OA
ATOM     26  H9  UNL     1     -14.509  19.357  11.018  1.00  0.00     0.210 HD
ENDBRANCH  21  25
BRANCH  23  27
HETATM   27  O10 UNL     1     -13.121  21.474  10.073  1.00  0.00    -0.390 OA
ATOM     28  H10 UNL     1     -13.382  21.411  10.984  1.00  0.00     0.210 HD
ENDBRANCH  23  27
BRANCH  24  29
HETATM   29  O11 UNL     1     -10.953  19.047   8.722  1.00  0.00    -0.388 OA
ATOM     30  H11 UNL     1     -10.933  18.646   7.860  1.00  0.00     0.210 HD
ENDBRANCH  24  29
ENDBRANCH  17  18
ENDBRANCH  16  17
ENDBRANCH  15  16
ENDBRANCH  12  15
ENDBRANCH  11  12
ENDBRANCH   9  11
ENDBRANCH   8   9
ENDBRANCH   3   8
BRANCH   4  31
HETATM   31  O12 UNL     1      -8.010  26.833   5.196  1.00  0.00    -0.388 OA
ATOM     32  H12 UNL     1      -8.645  26.394   5.750  1.00  0.00     0.210 HD
ENDBRANCH   4  31
BRANCH   1  33
HETATM   33  C2  UNL     1      -4.721  23.244   5.448  1.00  0.00     0.068 C 
HETATM   34  C1  UNL     1      -4.918  23.221   6.928  1.00  0.00     0.071 C 
HETATM   35  N1  UNL     1      -3.627  22.667   5.038  1.00  0.00    -0.272 N 
ATOM     36  H1  UNL     1      -3.018  22.261   5.749  1.00  0.00     0.193 HD
BRANCH  35  37
HETATM   37  O1  UNL     1      -3.232  22.562   3.748  1.00  0.00    -0.290 OA
ATOM     38  H1  UNL     1      -2.496  23.020   3.359  1.00  0.00     0.244 HD
ENDBRANCH  35  37
ENDBRANCH   1  33
BRANCH   1  39
HETATM   39  O2  UNL     1      -5.992  22.863   3.571  1.00  0.00    -0.360 OA
ATOM     40  H2  UNL     1      -6.932  22.747   3.631  1.00  0.00     0.213 HD
ENDBRANCH   1  39
BRANCH   5  41
HETATM   41  O13 UNL     1      -7.411  27.115   1.986  1.00  0.00    -0.390 OA
ATOM     42  H13 UNL     1      -8.298  26.791   1.884  1.00  0.00     0.210 HD
ENDBRANCH   5  41
BRANCH   7  43
HETATM   43  C20 UNL     1      -4.393  26.042   4.596  1.00  0.00     0.177 C 
BRANCH  43  44
HETATM   44  O15 UNL     1      -3.068  26.354   4.267  1.00  0.00    -0.400 OA
ATOM     45  H15 UNL     1      -2.881  27.285   4.259  1.00  0.00     0.209 HD
ENDBRANCH  43  44
ENDBRANCH   7  43
BRANCH   6  46
HETATM   46  O14 UNL     1      -4.936  26.272   1.837  1.00  0.00    -0.392 OA
ATOM     47  H14 UNL     1      -4.125  26.357   2.324  1.00  0.00     0.210 HD
ENDBRANCH   6  46
TORSDOF 20
ENDMDL
MODEL 4
REMARK VINA RESULT: -6.092250649      2.522      9.169
REMARK  20 active torsions:
REMARK  status: ('A' for Active; 'I' for Inactive)
REMARK    1  A    between atoms: C2_2  and  C3_7 
REMARK    2  A    between atoms: N1_3  and  O1_5 
REMARK    3  A    between atoms: C3_7  and  O2_8 
REMARK    4  A    between atoms: C4_11  and  O4_12 
REMARK    5  A    between atoms: O4_12  and  C5_13 
REMARK    6  A    between atoms: C5_13  and  C6_15 
REMARK    7  A    between atoms: C6_15  and  C7_16 
REMARK    8  A    between atoms: C7_16  and  O6_17 
REMARK    9  A    between atoms: C7_16  and  C8_19 
REMARK   10  A    between atoms: C8_19  and  C9_20 
REMARK   11  A    between atoms: C9_20  and  O7_21 
REMARK   12  A    between atoms: O7_21  and  C10_22 
REMARK   13  A    between atoms: C12_25  and  O9_27 
REMARK   14  A    between atoms: C14_29  and  O10_30 
REMARK   15  A    between atoms: C15_32  and  O11_33 
REMARK   16  A    between atoms: C16_35  and  O12_36 
REMARK   17  A    between atoms: C17_38  and  O13_39 
REMARK   18  A    between atoms: C18_41  and  O14_42 
REMARK   19  A    between atoms: C19_44  and  C20_45 
REMARK   20  A    between atoms: C20_45  and  O15_46 
ROOT
HETATM    1  C3  UNL     1     -12.504  20.041   8.290  1.00  0.00     0.214 C 
HETATM    2  O3  UNL     1     -12.208  19.164   7.288  1.00  0.00    -0.316 OA
HETATM    3  C4  UNL     1     -12.637  19.517   6.024  1.00  0.00     0.304 C 
HETATM    4  C16 UNL     1     -14.039  19.037   5.703  1.00  0.00     0.205 C 
HETATM    5  C17 UNL     1     -15.130  19.561   6.521  1.00  0.00     0.181 C 
HETATM    6  C18 UNL     1     -14.832  20.574   7.558  1.00  0.00     0.161 C 
HETATM    7  C19 UNL     1     -13.945  20.069   8.675  1.00  0.00     0.109 C 
ENDROOT
BRANCH   3   8
HETATM    8  O4  UNL     1     -12.462  20.866   5.685  1.00  0.00    -0.287 OA
BRANCH   8   9
HETATM    9  C5  UNL     1     -11.765  21.205   4.539  1.00  0.00     0.263 C 
HETATM   10  O5  UNL     1     -11.214  20.276   3.903  1.00  0.00    -0.265 OA
BRANCH   9  11
HETATM   11  C6  UNL     1     -11.671  22.608   4.078  1.00  0.00     0.142 C 
BRANCH  11  12
HETATM   12  C7  UNL     1     -10.275  23.088   3.813  1.00  0.00     0.129 C 
BRANCH  12  13
HETATM   13  O6  UNL     1      -9.881  22.498   2.612  1.00  0.00    -0.395 OA
ATOM     14  H6  UNL     1      -8.971  22.253   2.723  1.00  0.00     0.210 HD
ENDBRANCH  12  13
BRANCH  12  15
HETATM   15  C8  UNL     1     -10.050  24.544   3.801  1.00  0.00     0.058 C 
BRANCH  15  16
HETATM   16  C9  UNL     1      -8.681  25.076   3.813  1.00  0.00     0.173 C 
BRANCH  16  17
HETATM   17  O7  UNL     1      -8.009  25.207   4.988  1.00  0.00    -0.358 OA
BRANCH  17  18
HETATM   18  C10 UNL     1      -6.821  24.510   5.108  1.00  0.00     0.290 C 
HETATM   19  O8  UNL     1      -5.923  25.011   4.196  1.00  0.00    -0.356 OA
HETATM   20  C11 UNL     1      -4.746  24.322   4.123  1.00  0.00     0.211 C 
HETATM   21  C12 UNL     1      -4.387  23.495   5.307  1.00  0.00     0.104 C 
HETATM   22  C13 UNL     1      -4.753  22.034   5.079  1.00  0.00     0.051 C 
HETATM   23  C14 UNL     1      -4.921  23.984   6.611  1.00  0.00     0.187 C 
HETATM   24  C15 UNL     1      -6.166  24.823   6.478  1.00  0.00     0.205 C 
BRANCH  21  25
HETATM   25  O9  UNL     1      -2.973  23.517   5.390  1.00  0.00    -0.385 OA
ATOM     26  H9  UNL     1      -2.727  22.755   5.901  1.00  0.00     0.210 HD
ENDBRANCH  21  25
BRANCH  23  27
HETATM   27  O10 UNL     1      -5.174  22.842   7.409  1.00  0.00    -0.390 OA
ATOM     28  H10 UNL     1      -5.863  22.350   6.979  1.00  0.00     0.210 HD
ENDBRANCH  23  27
BRANCH  24  29
HETATM   29  O11 UNL     1      -5.813  26.165   6.424  1.00  0.00    -0.388 OA
ATOM     30  H11 UNL     1      -5.305  26.327   7.210  1.00  0.00     0.210 HD
ENDBRANCH  24  29
ENDBRANCH  17  18
ENDBRANCH  16  17
ENDBRANCH  15  16
ENDBRANCH  12  15
ENDBRANCH  11  12
ENDBRANCH   9  11
ENDBRANCH   8   9
ENDBRANCH   3   8
BRANCH   4  31
HETATM   31  O12 UNL     1     -13.990  17.639   5.705  1.00  0.00    -0.388 OA
ATOM     32  H12 UNL     1     -14.825  17.340   6.045  1.00  0.00     0.210 HD
ENDBRANCH   4  31
BRANCH   1  33
HETATM   33  C2  UNL     1     -11.704  19.688   9.491  1.00  0.00     0.068 C 
HETATM   34  C1  UNL     1     -11.022  18.370   9.664  1.00  0.00     0.071 C 
HETATM   35  N1  UNL     1     -11.542  20.515  10.485  1.00  0.00    -0.272 N 
ATOM     36  H1  UNL     1     -10.978  20.196  11.273  1.00  0.00     0.193 HD
BRANCH  35  37
HETATM   37  O1  UNL     1     -12.061  21.763  10.557  1.00  0.00    -0.290 OA
ATOM     38  H1  UNL     1     -11.726  22.467  11.100  1.00  0.00     0.244 HD
ENDBRANCH  35  37
ENDBRANCH   1  33
BRANCH   1  39
HETATM   39  O2  UNL     1     -12.132  21.362   7.977  1.00  0.00    -0.360 OA
ATOM     40  H2  UNL     1     -12.894  21.741   7.553  1.00  0.00     0.213 HD
ENDBRANCH   1  39
BRANCH   5  41
HETATM   41  O13 UNL     1     -16.105  20.142   5.667  1.00  0.00    -0.390 OA
ATOM     42  H13 UNL     1     -16.128  21.079   5.819  1.00  0.00     0.210 HD
ENDBRANCH   5  41
BRANCH   7  43
HETATM   43  C20 UNL     1     -14.500  18.807   9.232  1.00  0.00     0.177 C 
BRANCH  43  44
HETATM   44  O15 UNL     1     -15.341  18.995  10.337  1.00  0.00    -0.400 OA
ATOM     45  H15 UNL     1     -15.491  18.206  10.845  1.00  0.00     0.209 HD
ENDBRANCH  43  44
ENDBRANCH   7  43
BRANCH   6  46
HETATM   46  O14 UNL     1     -16.068  20.900   8.174  1.00  0.00    -0.392 OA
ATOM     47  H14 UNL     1     -15.916  21.683   8.689  1.00  0.00     0.210 HD
ENDBRANCH   6  46
TORSDOF 20
ENDMDL
MODEL 5
REMARK VINA RESULT: -6.039110945      2.537      9.354
REMARK  20 active torsions:
REMARK  status: ('A' for Active; 'I' for Inactive)
REMARK    1  A    between atoms: C2_2  and  C3_7 
REMARK    2  A    between atoms: N1_3  and  O1_5 
REMARK    3  A    between atoms: C3_7  and  O2_8 
REMARK    4  A    between atoms: C4_11  and  O4_12 
REMARK    5  A    between atoms: O4_12  and  C5_13 
REMARK    6  A    between atoms: C5_13  and  C6_15 
REMARK    7  A    between atoms: C6_15  and  C7_16 
REMARK    8  A    between atoms: C7_16  and  O6_17 
REMARK    9  A    between atoms: C7_16  and  C8_19 
REMARK   10  A    between atoms: C8_19  and  C9_20 
REMARK   11  A    between atoms: C9_20  and  O7_21 
REMARK   12  A    between atoms: O7_21  and  C10_22 
REMARK   13  A    between atoms: C12_25  and  O9_27 
REMARK   14  A    between atoms: C14_29  and  O10_30 
REMARK   15  A    between atoms: C15_32  and  O11_33 
REMARK   16  A    between atoms: C16_35  and  O12_36 
REMARK   17  A    between atoms: C17_38  and  O13_39 
REMARK   18  A    between atoms: C18_41  and  O14_42 
REMARK   19  A    between atoms: C19_44  and  C20_45 
REMARK   20  A    between atoms: C20_45  and  O15_46 
ROOT
HETATM    1  C3  UNL     1     -12.658  20.128   7.715  1.00  0.00     0.214 C 
HETATM    2  O3  UNL     1     -12.373  19.127   6.832  1.00  0.00    -0.316 OA
HETATM    3  C4  UNL     1     -12.864  19.287   5.551  1.00  0.00     0.304 C 
HETATM    4  C16 UNL     1     -14.261  18.729   5.363  1.00  0.00     0.205 C 
HETATM    5  C17 UNL     1     -15.335  19.333   6.147  1.00  0.00     0.181 C 
HETATM    6  C18 UNL     1     -15.030  20.490   7.019  1.00  0.00     0.161 C 
HETATM    7  C19 UNL     1     -14.082  20.170   8.155  1.00  0.00     0.109 C 
ENDROOT
BRANCH   3   8
HETATM    8  O4  UNL     1     -12.747  20.579   5.020  1.00  0.00    -0.287 OA
BRANCH   8   9
HETATM    9  C5  UNL     1     -11.915  20.808   3.940  1.00  0.00     0.263 C 
HETATM   10  O5  UNL     1     -11.096  19.907   3.641  1.00  0.00    -0.265 OA
BRANCH   9  11
HETATM   11  C6  UNL     1     -11.984  22.065   3.162  1.00  0.00     0.142 C 
BRANCH  11  12
HETATM   12  C7  UNL     1     -10.971  23.099   3.551  1.00  0.00     0.129 C 
BRANCH  12  13
HETATM   13  O6  UNL     1     -10.658  22.855   4.888  1.00  0.00    -0.395 OA
ATOM     14  H6  UNL     1      -9.710  22.831   4.939  1.00  0.00     0.210 HD
ENDBRANCH  12  13
BRANCH  12  15
HETATM   15  C8  UNL     1      -9.759  23.207   2.721  1.00  0.00     0.058 C 
BRANCH  15  16
HETATM   16  C9  UNL     1      -8.600  23.966   3.208  1.00  0.00     0.173 C 
BRANCH  16  17
HETATM   17  O7  UNL     1      -7.346  23.638   2.795  1.00  0.00    -0.358 OA
BRANCH  17  18
HETATM   18  C10 UNL     1      -6.360  23.602   3.763  1.00  0.00     0.290 C 
HETATM   19  O8  UNL     1      -5.884  22.316   3.859  1.00  0.00    -0.356 OA
HETATM   20  C11 UNL     1      -4.991  22.116   4.874  1.00  0.00     0.211 C 
HETATM   21  C12 UNL     1      -4.292  23.325   5.388  1.00  0.00     0.104 C 
HETATM   22  C13 UNL     1      -4.957  23.836   6.659  1.00  0.00     0.051 C 
HETATM   23  C14 UNL     1      -4.110  24.425   4.399  1.00  0.00     0.187 C 
HETATM   24  C15 UNL     1      -5.128  24.413   3.287  1.00  0.00     0.205 C 
BRANCH  21  25
HETATM   25  O9  UNL     1      -3.004  22.894   5.789  1.00  0.00    -0.385 OA
ATOM     26  H9  UNL     1      -3.128  22.395   6.588  1.00  0.00     0.210 HD
ENDBRANCH  21  25
BRANCH  23  27
HETATM   27  O10 UNL     1      -4.172  25.643   5.118  1.00  0.00    -0.390 OA
ATOM     28  H10 UNL     1      -3.439  26.173   4.831  1.00  0.00     0.210 HD
ENDBRANCH  23  27
BRANCH  24  29
HETATM   29  O11 UNL     1      -4.617  23.714   2.202  1.00  0.00    -0.388 OA
ATOM     30  H11 UNL     1      -5.078  22.883   2.194  1.00  0.00     0.210 HD
ENDBRANCH  24  29
ENDBRANCH  17  18
ENDBRANCH  16  17
ENDBRANCH  15  16
ENDBRANCH  12  15
ENDBRANCH  11  12
ENDBRANCH   9  11
ENDBRANCH   8   9
ENDBRANCH   3   8
BRANCH   4  31
HETATM   31  O12 UNL     1     -14.167  17.347   5.558  1.00  0.00    -0.388 OA
ATOM     32  H12 UNL     1     -13.424  17.052   5.043  1.00  0.00     0.210 HD
ENDBRANCH   4  31
BRANCH   1  33
HETATM   33  C2  UNL     1     -11.799  19.968   8.916  1.00  0.00     0.068 C 
HETATM   34  C1  UNL     1     -11.049  18.715   9.228  1.00  0.00     0.071 C 
HETATM   35  N1  UNL     1     -11.642  20.924   9.789  1.00  0.00    -0.272 N 
ATOM     36  H1  UNL     1     -11.035  20.734  10.587  1.00  0.00     0.193 HD
BRANCH  35  37
HETATM   37  O1  UNL     1     -12.218  22.146   9.722  1.00  0.00    -0.290 OA
ATOM     38  H1  UNL     1     -12.285  22.680   8.939  1.00  0.00     0.244 HD
ENDBRANCH  35  37
ENDBRANCH   1  33
BRANCH   1  39
HETATM   39  O2  UNL     1     -12.342  21.401   7.204  1.00  0.00    -0.360 OA
ATOM     40  H2  UNL     1     -12.451  21.996   7.936  1.00  0.00     0.213 HD
ENDBRANCH   1  39
BRANCH   5  41
HETATM   41  O13 UNL     1     -16.362  19.762   5.264  1.00  0.00    -0.390 OA
ATOM     42  H13 UNL     1     -16.853  20.461   5.680  1.00  0.00     0.210 HD
ENDBRANCH   5  41
BRANCH   7  43
HETATM   43  C20 UNL     1     -14.573  18.985   8.906  1.00  0.00     0.177 C 
BRANCH  43  44
HETATM   44  O15 UNL     1     -15.042  19.282  10.193  1.00  0.00    -0.400 OA
ATOM     45  H15 UNL     1     -15.492  20.116  10.257  1.00  0.00     0.209 HD
ENDBRANCH  43  44
ENDBRANCH   7  43
BRANCH   6  46
HETATM   46  O14 UNL     1     -16.250  20.866   7.637  1.00  0.00    -0.392 OA
ATOM     47  H14 UNL     1     -16.039  21.553   8.258  1.00  0.00     0.210 HD
ENDBRANCH   6  46
TORSDOF 20
ENDMDL
