MODEL 1
REMARK VINA RESULT: -7.411619304      0.000      0.000
REMARK  17 active torsions:
REMARK  status: ('A' for Active; 'I' for Inactive)
REMARK    1  A    between atoms: O1_2  and  C2_3 
REMARK    2  A    between atoms: C2_3  and  C3_5 
REMARK    3  A    between atoms: C4_6  and  N1_7 
REMARK    4  A    between atoms: C9_12  and  N2_13 
REMARK    5  A    between atoms: C10_22  and  O4_23 
REMARK    6  A    between atoms: C11_25  and  O5_26 
REMARK    7  A    between atoms: O5_26  and  C12_27 
REMARK       I    between atoms: C12_27  and  N6_29 
REMARK    8  A    between atoms: N6_29  and  C13_31 
REMARK    9  A    between atoms: C13_31  and  C14_32 
REMARK   10  A    between atoms: C14_32  and  O7_33 
REMARK   11  A    between atoms: C14_32  and  C15_35 
REMARK   12  A    between atoms: C15_35  and  O8_36 
REMARK   13  A    between atoms: C15_35  and  C16_38 
REMARK   14  A    between atoms: C16_38  and  O9_39 
REMARK   15  A    between atoms: C16_38  and  C17_41 
REMARK   16  A    between atoms: C17_41  and  O10_42 
REMARK   17  A    between atoms: C18_44  and  O11_46 
ROOT
HETATM    1  C3  UNL     1     -15.861  19.718   8.215  1.00  0.00     0.105 C 
HETATM    2  C4  UNL     1     -14.948  20.628   7.899  1.00  0.00     0.168 C 
HETATM    3  O3  UNL     1     -14.052  20.234   6.879  1.00  0.00    -0.300 OA
HETATM    4  C10 UNL     1     -13.445  18.960   6.871  1.00  0.00     0.298 C 
HETATM    5  C11 UNL     1     -14.418  17.888   7.297  1.00  0.00     0.228 C 
HETATM    6  C18 UNL     1     -15.817  18.463   7.481  1.00  0.00     0.123 C 
HETATM    7  C19 UNL     1     -16.703  17.378   8.031  1.00  0.00     0.055 C 
ENDROOT
BRANCH   5   8
HETATM    8  O5  UNL     1     -13.990  17.139   8.412  1.00  0.00    -0.290 OA
BRANCH   8   9
HETATM    9  C12 UNL     1     -13.206  17.643   9.435  1.00  0.00     0.361 C 
HETATM   10  O6  UNL     1     -13.739  18.430  10.231  1.00  0.00    -0.239 OA
HETATM   11  N6  UNL     1     -11.849  17.231   9.508  1.00  0.00    -0.334 N 
ATOM     12  H6  UNL     1     -11.446  16.581   8.834  1.00  0.00     0.164 HD
BRANCH  11  13
HETATM   13  C13 UNL     1     -11.061  17.794  10.611  1.00  0.00     0.159 C 
BRANCH  13  14
HETATM   14  C14 UNL     1     -10.066  16.774  11.126  1.00  0.00     0.167 C 
BRANCH  14  15
HETATM   15  O7  UNL     1      -8.936  16.693  10.357  1.00  0.00    -0.391 OA
ATOM     16  H7  UNL     1      -9.015  16.068   9.645  1.00  0.00     0.210 HD
ENDBRANCH  14  15
BRANCH  14  17
HETATM   17  C15 UNL     1     -10.807  15.465  11.294  1.00  0.00     0.179 C 
BRANCH  17  18
HETATM   18  O8  UNL     1     -10.188  14.577  10.390  1.00  0.00    -0.390 OA
ATOM     19  H8  UNL     1      -9.890  15.124   9.672  1.00  0.00     0.210 HD
ENDBRANCH  17  18
BRANCH  17  20
HETATM   20  C16 UNL     1     -10.613  14.876  12.674  1.00  0.00     0.173 C 
BRANCH  20  21
HETATM   21  O9  UNL     1      -9.250  15.035  12.994  1.00  0.00    -0.391 OA
ATOM     22  H9  UNL     1      -9.197  15.082  13.942  1.00  0.00     0.210 HD
ENDBRANCH  20  21
BRANCH  20  23
HETATM   23  C17 UNL     1     -10.901  13.412  12.754  1.00  0.00     0.198 C 
BRANCH  23  24
HETATM   24  O10 UNL     1     -12.156  13.153  12.192  1.00  0.00    -0.398 OA
ATOM     25  H10 UNL     1     -12.782  12.979  12.884  1.00  0.00     0.209 HD
ENDBRANCH  23  24
ENDBRANCH  20  23
ENDBRANCH  17  20
ENDBRANCH  14  17
ENDBRANCH  13  14
ENDBRANCH  11  13
ENDBRANCH   8   9
ENDBRANCH   5   8
BRANCH   4  26
HETATM   26  O4  UNL     1     -12.924  18.758   5.596  1.00  0.00    -0.368 OA
ATOM     27  H4  UNL     1     -13.188  17.889   5.318  1.00  0.00     0.212 HD
ENDBRANCH   4  26
BRANCH   6  28
HETATM   28  O11 UNL     1     -16.344  18.738   6.190  1.00  0.00    -0.382 OA
ATOM     29  H11 UNL     1     -16.750  17.933   5.892  1.00  0.00     0.211 HD
ENDBRANCH   6  28
BRANCH   1  30
HETATM   30  C2  UNL     1     -16.845  19.980   9.238  1.00  0.00     0.296 C 
HETATM   31  O2  UNL     1     -16.683  19.668  10.440  1.00  0.00    -0.259 OA
BRANCH  30  32
HETATM   32  O1  UNL     1     -18.035  20.605   8.915  1.00  0.00    -0.323 OA
HETATM   33  C1  UNL     1     -18.712  21.345   9.889  1.00  0.00     0.213 C 
ENDBRANCH  30  32
ENDBRANCH   1  30
BRANCH   2  34
HETATM   34  N1  UNL     1     -14.817  21.912   8.489  1.00  0.00    -0.286 N 
HETATM   35  C5  UNL     1     -15.737  22.892   8.239  1.00  0.00     0.103 A 
HETATM   36  C6  UNL     1     -15.666  24.143   8.813  1.00  0.00     0.051 A 
HETATM   37  C7  UNL     1     -14.650  24.462   9.674  1.00  0.00     0.079 A 
HETATM   38  C8  UNL     1     -13.706  23.482   9.943  1.00  0.00     0.118 A 
HETATM   39  N5  UNL     1     -14.277  25.616  10.422  1.00  0.00    -0.282 N 
HETATM   40  C9  UNL     1     -13.822  22.248   9.344  1.00  0.00     0.138 A 
HETATM   41  N3  UNL     1     -12.795  24.087  10.849  1.00  0.00    -0.278 N 
HETATM   42  N4  UNL     1     -12.963  25.471  10.894  1.00  0.00    -0.022 NA
ATOM     43  H3  UNL     1     -12.105  23.575  11.398  1.00  0.00     0.184 HD
ATOM     44  H5  UNL     1     -14.875  26.425  10.589  1.00  0.00     0.184 HD
BRANCH  40  45
HETATM   45  N2  UNL     1     -12.927  21.336   9.618  1.00  0.00    -0.383 N 
ATOM     46  H22 UNL     1     -13.129  20.367   9.371  1.00  0.00     0.157 HD
ATOM     47  H21 UNL     1     -12.062  21.643  10.064  1.00  0.00     0.157 HD
ENDBRANCH  40  45
ENDBRANCH   2  34
TORSDOF 17
ENDMDL
MODEL 2
REMARK VINA RESULT: -7.056161353      3.838      6.230
REMARK  17 active torsions:
REMARK  status: ('A' for Active; 'I' for Inactive)
REMARK    1  A    between atoms: O1_2  and  C2_3 
REMARK    2  A    between atoms: C2_3  and  C3_5 
REMARK    3  A    between atoms: C4_6  and  N1_7 
REMARK    4  A    between atoms: C9_12  and  N2_13 
REMARK    5  A    between atoms: C10_22  and  O4_23 
REMARK    6  A    between atoms: C11_25  and  O5_26 
REMARK    7  A    between atoms: O5_26  and  C12_27 
REMARK       I    between atoms: C12_27  and  N6_29 
REMARK    8  A    between atoms: N6_29  and  C13_31 
REMARK    9  A    between atoms: C13_31  and  C14_32 
REMARK   10  A    between atoms: C14_32  and  O7_33 
REMARK   11  A    between atoms: C14_32  and  C15_35 
REMARK   12  A    between atoms: C15_35  and  O8_36 
REMARK   13  A    between atoms: C15_35  and  C16_38 
REMARK   14  A    between atoms: C16_38  and  O9_39 
REMARK   15  A    between atoms: C16_38  and  C17_41 
REMARK   16  A    between atoms: C17_41  and  O10_42 
REMARK   17  A    between atoms: C18_44  and  O11_46 
ROOT
HETATM    1  C3  UNL     1     -14.241  18.499   6.546  1.00  0.00     0.105 C 
HETATM    2  C4  UNL     1     -15.277  17.926   7.145  1.00  0.00     0.168 C 
HETATM    3  O3  UNL     1     -15.416  18.245   8.515  1.00  0.00    -0.300 OA
HETATM    4  C10 UNL     1     -14.316  18.230   9.399  1.00  0.00     0.298 C 
HETATM    5  C11 UNL     1     -13.082  18.803   8.746  1.00  0.00     0.228 C 
HETATM    6  C18 UNL     1     -13.405  19.362   7.366  1.00  0.00     0.123 C 
HETATM    7  C19 UNL     1     -12.117  19.793   6.719  1.00  0.00     0.055 C 
ENDROOT
BRANCH   5   8
HETATM    8  O5  UNL     1     -11.983  17.919   8.728  1.00  0.00    -0.290 OA
BRANCH   8   9
HETATM    9  C12 UNL     1     -11.177  17.656   9.821  1.00  0.00     0.361 C 
HETATM   10  O6  UNL     1     -10.761  18.625  10.474  1.00  0.00    -0.239 OA
HETATM   11  N6  UNL     1     -10.877  16.302  10.125  1.00  0.00    -0.334 N 
ATOM     12  H6  UNL     1     -11.238  15.530   9.564  1.00  0.00     0.164 HD
BRANCH  11  13
HETATM   13  C13 UNL     1     -10.018  16.076  11.294  1.00  0.00     0.159 C 
BRANCH  13  14
HETATM   14  C14 UNL     1     -10.772  15.322  12.369  1.00  0.00     0.167 C 
BRANCH  14  15
HETATM   15  O7  UNL     1     -10.109  15.290  13.566  1.00  0.00    -0.391 OA
ATOM     16  H7  UNL     1      -9.959  14.407  13.885  1.00  0.00     0.210 HD
ENDBRANCH  14  15
BRANCH  14  17
HETATM   17  C15 UNL     1     -11.118  13.960  11.807  1.00  0.00     0.179 C 
BRANCH  17  18
HETATM   18  O8  UNL     1     -10.058  13.645  10.932  1.00  0.00    -0.390 OA
ATOM     19  H8  UNL     1     -10.155  14.245  10.202  1.00  0.00     0.210 HD
ENDBRANCH  17  18
BRANCH  17  20
HETATM   20  C16 UNL     1     -11.124  12.890  12.876  1.00  0.00     0.173 C 
BRANCH  20  21
HETATM   21  O9  UNL     1      -9.786  12.484  13.050  1.00  0.00    -0.391 OA
ATOM     22  H9  UNL     1      -9.730  12.095  13.916  1.00  0.00     0.210 HD
ENDBRANCH  20  21
BRANCH  20  23
HETATM   23  C17 UNL     1     -11.894  11.664  12.503  1.00  0.00     0.198 C 
BRANCH  23  24
HETATM   24  O10 UNL     1     -11.052  10.549  12.565  1.00  0.00    -0.398 OA
ATOM     25  H10 UNL     1     -10.356  10.643  11.925  1.00  0.00     0.209 HD
ENDBRANCH  23  24
ENDBRANCH  20  23
ENDBRANCH  17  20
ENDBRANCH  14  17
ENDBRANCH  13  14
ENDBRANCH  11  13
ENDBRANCH   8   9
ENDBRANCH   5   8
BRANCH   4  26
HETATM   26  O4  UNL     1     -14.699  18.915  10.549  1.00  0.00    -0.368 OA
ATOM     27  H4  UNL     1     -14.452  18.379  11.293  1.00  0.00     0.212 HD
ENDBRANCH   4  26
BRANCH   6  28
HETATM   28  O11 UNL     1     -14.136  20.567   7.549  1.00  0.00    -0.382 OA
ATOM     29  H11 UNL     1     -13.516  21.276   7.427  1.00  0.00     0.211 HD
ENDBRANCH   6  28
BRANCH   1  30
HETATM   30  C2  UNL     1     -13.974  18.267   5.147  1.00  0.00     0.296 C 
HETATM   31  O2  UNL     1     -14.266  19.089   4.249  1.00  0.00    -0.259 OA
BRANCH  30  32
HETATM   32  O1  UNL     1     -13.368  17.094   4.739  1.00  0.00    -0.323 OA
HETATM   33  C1  UNL     1     -13.991  16.293   3.777  1.00  0.00     0.213 C 
ENDBRANCH  30  32
ENDBRANCH   1  30
BRANCH   2  34
HETATM   34  N1  UNL     1     -16.214  17.054   6.531  1.00  0.00    -0.286 N 
HETATM   35  C5  UNL     1     -17.170  17.543   5.684  1.00  0.00     0.103 A 
HETATM   36  C6  UNL     1     -18.081  16.732   5.042  1.00  0.00     0.051 A 
HETATM   37  C7  UNL     1     -18.064  15.375   5.232  1.00  0.00     0.079 A 
HETATM   38  C8  UNL     1     -17.102  14.858   6.086  1.00  0.00     0.118 A 
HETATM   39  N5  UNL     1     -18.829  14.274   4.749  1.00  0.00    -0.282 N 
HETATM   40  C9  UNL     1     -16.215  15.712   6.702  1.00  0.00     0.138 A 
HETATM   41  N3  UNL     1     -17.325  13.455   6.085  1.00  0.00    -0.278 N 
HETATM   42  N4  UNL     1     -18.562  13.134   5.525  1.00  0.00    -0.022 NA
ATOM     43  H3  UNL     1     -16.664  12.769   6.448  1.00  0.00     0.184 HD
ATOM     44  H5  UNL     1     -19.473  14.308   3.959  1.00  0.00     0.184 HD
BRANCH  40  45
HETATM   45  N2  UNL     1     -15.311  15.203   7.497  1.00  0.00    -0.383 N 
ATOM     46  H22 UNL     1     -14.871  15.813   8.185  1.00  0.00     0.157 HD
ATOM     47  H21 UNL     1     -15.093  14.211   7.390  1.00  0.00     0.157 HD
ENDBRANCH  40  45
ENDBRANCH   2  34
TORSDOF 17
ENDMDL
MODEL 3
REMARK VINA RESULT: -6.882533506      1.794      2.724
REMARK  17 active torsions:
REMARK  status: ('A' for Active; 'I' for Inactive)
REMARK    1  A    between atoms: O1_2  and  C2_3 
REMARK    2  A    between atoms: C2_3  and  C3_5 
REMARK    3  A    between atoms: C4_6  and  N1_7 
REMARK    4  A    between atoms: C9_12  and  N2_13 
REMARK    5  A    between atoms: C10_22  and  O4_23 
REMARK    6  A    between atoms: C11_25  and  O5_26 
REMARK    7  A    between atoms: O5_26  and  C12_27 
REMARK       I    between atoms: C12_27  and  N6_29 
REMARK    8  A    between atoms: N6_29  and  C13_31 
REMARK    9  A    between atoms: C13_31  and  C14_32 
REMARK   10  A    between atoms: C14_32  and  O7_33 
REMARK   11  A    between atoms: C14_32  and  C15_35 
REMARK   12  A    between atoms: C15_35  and  O8_36 
REMARK   13  A    between atoms: C15_35  and  C16_38 
REMARK   14  A    between atoms: C16_38  and  O9_39 
REMARK   15  A    between atoms: C16_38  and  C17_41 
REMARK   16  A    between atoms: C17_41  and  O10_42 
REMARK   17  A    between atoms: C18_44  and  O11_46 
ROOT
HETATM    1  C3  UNL     1     -16.646  22.281   8.689  1.00  0.00     0.105 C 
HETATM    2  C4  UNL     1     -15.372  22.556   8.442  1.00  0.00     0.168 C 
HETATM    3  O3  UNL     1     -14.853  21.949   7.275  1.00  0.00    -0.300 OA
HETATM    4  C10 UNL     1     -15.091  20.591   6.972  1.00  0.00     0.298 C 
HETATM    5  C11 UNL     1     -16.510  20.197   7.305  1.00  0.00     0.228 C 
HETATM    6  C18 UNL     1     -17.324  21.408   7.743  1.00  0.00     0.123 C 
HETATM    7  C19 UNL     1     -18.680  20.930   8.185  1.00  0.00     0.055 C 
ENDROOT
BRANCH   5   8
HETATM    8  O5  UNL     1     -16.606  19.124   8.214  1.00  0.00    -0.290 OA
BRANCH   8   9
HETATM    9  C12 UNL     1     -15.774  18.952   9.307  1.00  0.00     0.361 C 
HETATM   10  O6  UNL     1     -16.274  19.080  10.435  1.00  0.00    -0.239 OA
HETATM   11  N6  UNL     1     -14.409  18.641   9.071  1.00  0.00    -0.334 N 
ATOM     12  H6  UNL     1     -14.033  18.543   8.128  1.00  0.00     0.164 HD
BRANCH  11  13
HETATM   13  C13 UNL     1     -13.570  18.469  10.263  1.00  0.00     0.159 C 
BRANCH  13  14
HETATM   14  C14 UNL     1     -12.148  18.128   9.866  1.00  0.00     0.167 C 
BRANCH  14  15
HETATM   15  O7  UNL     1     -11.933  18.221   8.516  1.00  0.00    -0.391 OA
ATOM     16  H7  UNL     1     -11.696  17.391   8.120  1.00  0.00     0.210 HD
ENDBRANCH  14  15
BRANCH  14  17
HETATM   17  C15 UNL     1     -11.825  16.775  10.461  1.00  0.00     0.179 C 
BRANCH  17  18
HETATM   18  O8  UNL     1     -11.761  15.897   9.360  1.00  0.00    -0.390 OA
ATOM     19  H8  UNL     1     -11.853  16.453   8.595  1.00  0.00     0.210 HD
ENDBRANCH  17  18
BRANCH  17  20
HETATM   20  C16 UNL     1     -10.457  16.752  11.108  1.00  0.00     0.173 C 
BRANCH  20  21
HETATM   21  O9  UNL     1      -9.560  17.317  10.179  1.00  0.00    -0.391 OA
ATOM     22  H9  UNL     1      -9.274  18.145  10.546  1.00  0.00     0.210 HD
ENDBRANCH  20  21
BRANCH  20  23
HETATM   23  C17 UNL     1      -9.950  15.378  11.405  1.00  0.00     0.198 C 
BRANCH  23  24
HETATM   24  O10 UNL     1      -9.316  15.376  12.652  1.00  0.00    -0.398 OA
ATOM     25  H10 UNL     1      -9.480  14.549  13.089  1.00  0.00     0.209 HD
ENDBRANCH  23  24
ENDBRANCH  20  23
ENDBRANCH  17  20
ENDBRANCH  14  17
ENDBRANCH  13  14
ENDBRANCH  11  13
ENDBRANCH   8   9
ENDBRANCH   5   8
BRANCH   4  26
HETATM   26  O4  UNL     1     -14.767  20.402   5.632  1.00  0.00    -0.368 OA
ATOM     27  H4  UNL     1     -15.191  21.094   5.138  1.00  0.00     0.212 HD
ENDBRANCH   4  26
BRANCH   6  28
HETATM   28  O11 UNL     1     -17.580  22.196   6.588  1.00  0.00    -0.382 OA
ATOM     29  H11 UNL     1     -17.737  23.080   6.899  1.00  0.00     0.211 HD
ENDBRANCH   6  28
BRANCH   1  30
HETATM   30  C2  UNL     1     -17.311  22.832   9.845  1.00  0.00     0.296 C 
HETATM   31  O2  UNL     1     -17.901  23.936   9.834  1.00  0.00    -0.259 OA
BRANCH  30  32
HETATM   32  O1  UNL     1     -17.320  22.137  11.040  1.00  0.00    -0.323 OA
HETATM   33  C1  UNL     1     -18.519  21.990  11.744  1.00  0.00     0.213 C 
ENDBRANCH  30  32
ENDBRANCH   1  30
BRANCH   2  34
HETATM   34  N1  UNL     1     -14.531  23.382   9.233  1.00  0.00    -0.286 N 
HETATM   35  C5  UNL     1     -14.848  24.695   9.451  1.00  0.00     0.103 A 
HETATM   36  C6  UNL     1     -14.079  25.526  10.236  1.00  0.00     0.051 A 
HETATM   37  C7  UNL     1     -12.942  25.060  10.842  1.00  0.00     0.079 A 
HETATM   38  C8  UNL     1     -12.602  23.732  10.635  1.00  0.00     0.118 A 
HETATM   39  N5  UNL     1     -11.942  25.620  11.690  1.00  0.00    -0.282 N 
HETATM   40  C9  UNL     1     -13.405  22.943   9.843  1.00  0.00     0.138 A 
HETATM   41  N3  UNL     1     -11.403  23.540  11.372  1.00  0.00    -0.278 N 
HETATM   42  N4  UNL     1     -10.837  24.757  11.753  1.00  0.00    -0.022 NA
ATOM     43  H3  UNL     1     -11.007  22.627  11.596  1.00  0.00     0.184 HD
ATOM     44  H5  UNL     1     -12.019  26.512  12.178  1.00  0.00     0.184 HD
BRANCH  40  45
HETATM   45  N2  UNL     1     -13.071  21.692   9.668  1.00  0.00    -0.383 N 
ATOM     46  H22 UNL     1     -13.799  20.981   9.736  1.00  0.00     0.157 HD
ATOM     47  H21 UNL     1     -12.092  21.489   9.466  1.00  0.00     0.157 HD
ENDBRANCH  40  45
ENDBRANCH   2  34
TORSDOF 17
ENDMDL
MODEL 4
REMARK VINA RESULT: -6.875995903      3.078      5.731
REMARK  17 active torsions:
REMARK  status: ('A' for Active; 'I' for Inactive)
REMARK    1  A    between atoms: O1_2  and  C2_3 
REMARK    2  A    between atoms: C2_3  and  C3_5 
REMARK    3  A    between atoms: C4_6  and  N1_7 
REMARK    4  A    between atoms: C9_12  and  N2_13 
REMARK    5  A    between atoms: C10_22  and  O4_23 
REMARK    6  A    between atoms: C11_25  and  O5_26 
REMARK    7  A    between atoms: O5_26  and  C12_27 
REMARK       I    between atoms: C12_27  and  N6_29 
REMARK    8  A    between atoms: N6_29  and  C13_31 
REMARK    9  A    between atoms: C13_31  and  C14_32 
REMARK   10  A    between atoms: C14_32  and  O7_33 
REMARK   11  A    between atoms: C14_32  and  C15_35 
REMARK   12  A    between atoms: C15_35  and  O8_36 
REMARK   13  A    between atoms: C15_35  and  C16_38 
REMARK   14  A    between atoms: C16_38  and  O9_39 
REMARK   15  A    between atoms: C16_38  and  C17_41 
REMARK   16  A    between atoms: C17_41  and  O10_42 
REMARK   17  A    between atoms: C18_44  and  O11_46 
ROOT
HETATM    1  C3  UNL     1     -14.428  19.704   6.182  1.00  0.00     0.105 C 
HETATM    2  C4  UNL     1     -15.254  19.175   7.075  1.00  0.00     0.168 C 
HETATM    3  O3  UNL     1     -15.428  19.947   8.246  1.00  0.00    -0.300 OA
HETATM    4  C10 UNL     1     -14.335  20.526   8.926  1.00  0.00     0.298 C 
HETATM    5  C11 UNL     1     -13.320  21.081   7.957  1.00  0.00     0.228 C 
HETATM    6  C18 UNL     1     -13.825  20.984   6.523  1.00  0.00     0.123 C 
HETATM    7  C19 UNL     1     -12.720  21.426   5.604  1.00  0.00     0.055 C 
ENDROOT
BRANCH   5   8
HETATM    8  O5  UNL     1     -12.027  20.540   8.113  1.00  0.00    -0.290 OA
BRANCH   8   9
HETATM    9  C12 UNL     1     -11.610  19.826   9.223  1.00  0.00     0.361 C 
HETATM   10  O6  UNL     1     -11.751  20.358  10.334  1.00  0.00    -0.239 OA
HETATM   11  N6  UNL     1     -11.051  18.536   9.021  1.00  0.00    -0.334 N 
ATOM     12  H6  UNL     1     -10.951  18.131   8.091  1.00  0.00     0.164 HD
BRANCH  11  13
HETATM   13  C13 UNL     1     -10.624  17.820  10.230  1.00  0.00     0.159 C 
BRANCH  13  14
HETATM   14  C14 UNL     1     -10.906  16.338  10.095  1.00  0.00     0.167 C 
BRANCH  14  15
HETATM   15  O7  UNL     1     -12.240  16.038  10.171  1.00  0.00    -0.391 OA
ATOM     16  H7  UNL     1     -12.426  15.123   9.993  1.00  0.00     0.210 HD
ENDBRANCH  14  15
BRANCH  14  17
HETATM   17  C15 UNL     1     -10.042  15.620  11.108  1.00  0.00     0.179 C 
BRANCH  17  18
HETATM   18  O8  UNL     1      -9.192  16.614  11.635  1.00  0.00    -0.390 OA
ATOM     19  H8  UNL     1      -8.483  16.690  11.007  1.00  0.00     0.210 HD
ENDBRANCH  17  18
BRANCH  17  20
HETATM   20  C16 UNL     1     -10.853  15.089  12.270  1.00  0.00     0.173 C 
BRANCH  20  21
HETATM   21  O9  UNL     1     -10.309  15.662  13.438  1.00  0.00    -0.391 OA
ATOM     22  H9  UNL     1     -10.889  16.371  13.689  1.00  0.00     0.210 HD
ENDBRANCH  20  21
BRANCH  20  23
HETATM   23  C17 UNL     1     -10.766  13.607  12.444  1.00  0.00     0.198 C 
BRANCH  23  24
HETATM   24  O10 UNL     1     -10.431  13.014  11.222  1.00  0.00    -0.398 OA
ATOM     25  H10 UNL     1      -9.530  13.224  11.006  1.00  0.00     0.209 HD
ENDBRANCH  23  24
ENDBRANCH  20  23
ENDBRANCH  17  20
ENDBRANCH  14  17
ENDBRANCH  13  14
ENDBRANCH  11  13
ENDBRANCH   8   9
ENDBRANCH   5   8
BRANCH   4  26
HETATM   26  O4  UNL     1     -14.849  21.485   9.795  1.00  0.00    -0.368 OA
ATOM     27  H4  UNL     1     -14.707  21.170  10.680  1.00  0.00     0.212 HD
ENDBRANCH   4  26
BRANCH   6  28
HETATM   28  O11 UNL     1     -14.843  21.961   6.357  1.00  0.00    -0.382 OA
ATOM     29  H11 UNL     1     -14.613  22.456   5.581  1.00  0.00     0.211 HD
ENDBRANCH   6  28
BRANCH   1  30
HETATM   30  C2  UNL     1     -14.155  19.030   4.935  1.00  0.00     0.296 C 
HETATM   31  O2  UNL     1     -14.590  19.429   3.831  1.00  0.00    -0.259 OA
BRANCH  30  32
HETATM   32  O1  UNL     1     -13.379  17.886   4.919  1.00  0.00    -0.323 OA
HETATM   33  C1  UNL     1     -13.771  16.798   4.133  1.00  0.00     0.213 C 
ENDBRANCH  30  32
ENDBRANCH   1  30
BRANCH   2  34
HETATM   34  N1  UNL     1     -15.945  17.943   6.940  1.00  0.00    -0.286 N 
HETATM   35  C5  UNL     1     -17.147  17.884   6.289  1.00  0.00     0.103 A 
HETATM   36  C6  UNL     1     -17.839  16.706   6.108  1.00  0.00     0.051 A 
HETATM   37  C7  UNL     1     -17.339  15.522   6.583  1.00  0.00     0.079 A 
HETATM   38  C8  UNL     1     -16.121  15.558   7.245  1.00  0.00     0.118 A 
HETATM   39  N5  UNL     1     -17.771  14.164   6.576  1.00  0.00    -0.282 N 
HETATM   40  C9  UNL     1     -15.470  16.761   7.398  1.00  0.00     0.138 A 
HETATM   41  N3  UNL     1     -15.864  14.211   7.613  1.00  0.00    -0.278 N 
HETATM   42  N4  UNL     1     -17.004  13.419   7.487  1.00  0.00    -0.022 NA
ATOM     43  H3  UNL     1     -14.958  13.866   7.931  1.00  0.00     0.184 HD
ATOM     44  H5  UNL     1     -18.523  13.790   5.998  1.00  0.00     0.184 HD
BRANCH  40  45
HETATM   45  N2  UNL     1     -14.319  16.771   8.018  1.00  0.00    -0.383 N 
ATOM     46  H22 UNL     1     -13.797  17.646   8.056  1.00  0.00     0.157 HD
ATOM     47  H21 UNL     1     -14.003  15.898   8.439  1.00  0.00     0.157 HD
ENDBRANCH  40  45
ENDBRANCH   2  34
TORSDOF 17
ENDMDL
MODEL 5
REMARK VINA RESULT: -6.778072230      3.134      5.274
REMARK  17 active torsions:
REMARK  status: ('A' for Active; 'I' for Inactive)
REMARK    1  A    between atoms: O1_2  and  C2_3 
REMARK    2  A    between atoms: C2_3  and  C3_5 
REMARK    3  A    between atoms: C4_6  and  N1_7 
REMARK    4  A    between atoms: C9_12  and  N2_13 
REMARK    5  A    between atoms: C10_22  and  O4_23 
REMARK    6  A    between atoms: C11_25  and  O5_26 
REMARK    7  A    between atoms: O5_26  and  C12_27 
REMARK       I    between atoms: C12_27  and  N6_29 
REMARK    8  A    between atoms: N6_29  and  C13_31 
REMARK    9  A    between atoms: C13_31  and  C14_32 
REMARK   10  A    between atoms: C14_32  and  O7_33 
REMARK   11  A    between atoms: C14_32  and  C15_35 
REMARK   12  A    between atoms: C15_35  and  O8_36 
REMARK   13  A    between atoms: C15_35  and  C16_38 
REMARK   14  A    between atoms: C16_38  and  O9_39 
REMARK   15  A    between atoms: C16_38  and  C17_41 
REMARK   16  A    between atoms: C17_41  and  O10_42 
REMARK   17  A    between atoms: C18_44  and  O11_46 
ROOT
HETATM    1  C3  UNL     1     -13.832  19.475   7.735  1.00  0.00     0.105 C 
HETATM    2  C4  UNL     1     -14.726  19.259   8.691  1.00  0.00     0.168 C 
HETATM    3  O3  UNL     1     -14.265  19.526  10.001  1.00  0.00    -0.300 OA
HETATM    4  C10 UNL     1     -13.002  19.084  10.451  1.00  0.00     0.298 C 
HETATM    5  C11 UNL     1     -11.954  19.236   9.376  1.00  0.00     0.228 C 
HETATM    6  C18 UNL     1     -12.523  19.951   8.157  1.00  0.00     0.123 C 
HETATM    7  C19 UNL     1     -11.474  19.951   7.078  1.00  0.00     0.055 C 
ENDROOT
BRANCH   5   8
HETATM    8  O5  UNL     1     -11.302  18.032   9.041  1.00  0.00    -0.290 OA
BRANCH   8   9
HETATM    9  C12 UNL     1     -10.460  17.339   9.894  1.00  0.00     0.361 C 
HETATM   10  O6  UNL     1      -9.425  17.909  10.269  1.00  0.00    -0.239 OA
HETATM   11  N6  UNL     1     -10.833  16.025  10.284  1.00  0.00    -0.334 N 
ATOM     12  H6  UNL     1     -11.693  15.588   9.955  1.00  0.00     0.164 HD
BRANCH  11  13
HETATM   13  C13 UNL     1      -9.907  15.332  11.189  1.00  0.00     0.159 C 
BRANCH  13  14
HETATM   14  C14 UNL     1     -10.670  14.645  12.303  1.00  0.00     0.167 C 
BRANCH  14  15
HETATM   15  O7  UNL     1      -9.942  14.530  13.457  1.00  0.00    -0.391 OA
ATOM     16  H7  UNL     1      -9.007  14.461  13.302  1.00  0.00     0.210 HD
ENDBRANCH  14  15
BRANCH  14  17
HETATM   17  C15 UNL     1     -11.188  13.334  11.754  1.00  0.00     0.179 C 
BRANCH  17  18
HETATM   18  O8  UNL     1     -10.247  12.950  10.776  1.00  0.00    -0.390 OA
ATOM     19  H8  UNL     1      -9.543  12.536  11.262  1.00  0.00     0.210 HD
ENDBRANCH  17  18
BRANCH  17  20
HETATM   20  C16 UNL     1     -11.190  12.242  12.800  1.00  0.00     0.173 C 
BRANCH  20  21
HETATM   21  O9  UNL     1      -9.871  11.753  12.878  1.00  0.00    -0.391 OA
ATOM     22  H9  UNL     1      -9.715  11.533  13.790  1.00  0.00     0.210 HD
ENDBRANCH  20  21
BRANCH  20  23
HETATM   23  C17 UNL     1     -12.056  11.073  12.456  1.00  0.00     0.198 C 
BRANCH  23  24
HETATM   24  O10 UNL     1     -11.392   9.888  12.790  1.00  0.00    -0.398 OA
ATOM     25  H10 UNL     1     -11.850   9.150  12.404  1.00  0.00     0.209 HD
ENDBRANCH  23  24
ENDBRANCH  20  23
ENDBRANCH  17  20
ENDBRANCH  14  17
ENDBRANCH  13  14
ENDBRANCH  11  13
ENDBRANCH   8   9
ENDBRANCH   5   8
BRANCH   4  26
HETATM   26  O4  UNL     1     -12.706  19.792  11.613  1.00  0.00    -0.368 OA
ATOM     27  H4  UNL     1     -13.292  19.478  12.292  1.00  0.00     0.212 HD
ENDBRANCH   4  26
BRANCH   6  28
HETATM   28  O11 UNL     1     -12.688  21.320   8.498  1.00  0.00    -0.382 OA
ATOM     29  H11 UNL     1     -11.855  21.740   8.324  1.00  0.00     0.211 HD
ENDBRANCH   6  28
BRANCH   1  30
HETATM   30  C2  UNL     1     -14.162  19.247   6.349  1.00  0.00     0.296 C 
HETATM   31  O2  UNL     1     -14.727  20.102   5.630  1.00  0.00    -0.259 OA
BRANCH  30  32
HETATM   32  O1  UNL     1     -13.854  18.040   5.750  1.00  0.00    -0.323 OA
HETATM   33  C1  UNL     1     -14.595  17.609   4.645  1.00  0.00     0.213 C 
ENDBRANCH  30  32
ENDBRANCH   1  30
BRANCH   2  34
HETATM   34  N1  UNL     1     -16.054  18.798   8.498  1.00  0.00    -0.286 N 
HETATM   35  C5  UNL     1     -17.105  19.674   8.501  1.00  0.00     0.103 A 
HETATM   36  C6  UNL     1     -18.407  19.277   8.288  1.00  0.00     0.051 A 
HETATM   37  C7  UNL     1     -18.707  17.959   8.060  1.00  0.00     0.079 A 
HETATM   38  C8  UNL     1     -17.657  17.054   8.051  1.00  0.00     0.118 A 
HETATM   39  N5  UNL     1     -19.899  17.219   7.811  1.00  0.00    -0.282 N 
HETATM   40  C9  UNL     1     -16.375  17.502   8.269  1.00  0.00     0.138 A 
HETATM   41  N3  UNL     1     -18.261  15.794   7.795  1.00  0.00    -0.278 N 
HETATM   42  N4  UNL     1     -19.645  15.847   7.961  1.00  0.00    -0.022 NA
ATOM     43  H3  UNL     1     -17.747  14.956   7.523  1.00  0.00     0.184 HD
ATOM     44  H5  UNL     1     -20.801  17.626   7.562  1.00  0.00     0.184 HD
BRANCH  40  45
HETATM   45  N2  UNL     1     -15.399  16.633   8.248  1.00  0.00    -0.383 N 
ATOM     46  H22 UNL     1     -14.526  16.894   7.790  1.00  0.00     0.157 HD
ATOM     47  H21 UNL     1     -15.560  15.732   8.699  1.00  0.00     0.157 HD
ENDBRANCH  40  45
ENDBRANCH   2  34
TORSDOF 17
ENDMDL
