MODEL 1
REMARK VINA RESULT: -9.094098672      0.000      0.000
REMARK  14 active torsions:
REMARK  status: ('A' for Active; 'I' for Inactive)
REMARK    1  A    between atoms: C6_9  and  C7_10 
REMARK    2  A    between atoms: C8_11  and  C10_13 
REMARK    3  A    between atoms: C10_13  and  C11_14 
REMARK       I    between atoms: C11_14  and  N2_16 
REMARK    4  A    between atoms: N2_16  and  C12_18 
REMARK    5  A    between atoms: C12_18  and  N3_20 
REMARK    6  A    between atoms: N3_20  and  C14_22 
REMARK    7  A    between atoms: C14_22  and  C16_24 
REMARK    8  A    between atoms: C14_22  and  C18_29 
REMARK    9  A    between atoms: C16_24  and  N4_25 
REMARK   10  A    between atoms: N4_25  and  C17_27 
REMARK       I    between atoms: C18_29  and  N5_31 
REMARK   11  A    between atoms: N5_31  and  C19_33 
REMARK   12  A    between atoms: C19_33  and  C20_34 
REMARK   13  A    between atoms: C20_34  and  C23_37 
REMARK   14  A    between atoms: C23_37  and  N6_38 
ROOT
HETATM    1  C14 UNL     1      24.794  16.095  35.673  1.00  0.00     0.138 C 
HETATM    2  C15 UNL     1      24.613  16.121  37.177  1.00  0.00     0.055 C 
ENDROOT
BRANCH   1   3
HETATM    3  N3  UNL     1      23.599  15.754  34.932  1.00  0.00    -0.381 N 
ATOM      4  H3  UNL     1      23.693  15.597  33.928  1.00  0.00     0.156 HD
BRANCH   3   5
HETATM    5  C12 UNL     1      22.353  15.627  35.480  1.00  0.00     0.176 C 
HETATM    6  C13 UNL     1      21.614  14.390  34.924  1.00  0.00     0.055 C 
BRANCH   5   7
HETATM    7  N2  UNL     1      21.493  16.773  35.266  1.00  0.00    -0.337 N 
HETATM    8  C11 UNL     1      21.444  17.413  33.943  1.00  0.00     0.243 C 
HETATM    9  O2  UNL     1      22.210  16.890  33.130  1.00  0.00    -0.269 OA
ATOM     10  H2  UNL     1      20.923  17.135  36.030  1.00  0.00     0.164 HD
BRANCH   8  11
HETATM   11  C10 UNL     1      20.528  18.535  33.794  1.00  0.00     0.080 C 
BRANCH  11  12
HETATM   12  C8  UNL     1      20.786  19.864  34.344  1.00  0.00    -0.056 C 
HETATM   13  C7  UNL     1      22.056  20.357  34.813  1.00  0.00     0.020 C 
HETATM   14  C9  UNL     1      19.518  20.319  35.054  1.00  0.00     0.048 C 
BRANCH  13  15
HETATM   15  C6  UNL     1      22.649  20.233  36.114  1.00  0.00    -0.014 A 
HETATM   16  C2  UNL     1      23.888  20.722  36.447  1.00  0.00    -0.045 A 
HETATM   17  C1  UNL     1      24.819  21.401  35.522  1.00  0.00     0.049 C 
HETATM   18  C3  UNL     1      24.342  20.496  37.760  1.00  0.00     0.082 A 
HETATM   19  C4  UNL     1      23.633  19.826  38.701  1.00  0.00     0.245 A 
HETATM   20  O1  UNL     1      24.094  19.653  39.865  1.00  0.00    -0.268 OA
HETATM   21  N1  UNL     1      22.419  19.351  38.352  1.00  0.00    -0.333 N 
HETATM   22  C5  UNL     1      21.967  19.550  37.130  1.00  0.00     0.103 A 
ATOM     23  H1  UNL     1      21.854  18.841  39.031  1.00  0.00     0.168 HD
ENDBRANCH  13  15
ENDBRANCH  11  12
ENDBRANCH   8  11
ENDBRANCH   5   7
ENDBRANCH   3   5
ENDBRANCH   1   3
BRANCH   1  24
HETATM   24  C16 UNL     1      25.231  17.398  35.133  1.00  0.00     0.103 C 
BRANCH  24  25
HETATM   25  N4  UNL     1      26.433  17.575  34.430  1.00  0.00    -0.345 N 
ATOM     26  H4  UNL     1      26.346  17.471  33.419  1.00  0.00     0.167 HD
BRANCH  25  27
HETATM   27  C17 UNL     1      27.724  17.867  34.868  1.00  0.00     0.352 C 
HETATM   28  O3  UNL     1      28.691  17.139  34.559  1.00  0.00    -0.283 OA
ENDBRANCH  25  27
ENDBRANCH  24  25
ENDBRANCH   1  24
BRANCH   1  29
HETATM   29  C18 UNL     1      25.670  14.892  35.423  1.00  0.00     0.254 C 
HETATM   30  O4  UNL     1      25.936  14.627  34.242  1.00  0.00    -0.270 OA
HETATM   31  N5  UNL     1      26.130  14.108  36.489  1.00  0.00    -0.338 N 
ATOM     32  H5  UNL     1      25.869  14.443  37.416  1.00  0.00     0.167 HD
BRANCH  31  33
HETATM   33  C19 UNL     1      26.891  12.940  36.476  1.00  0.00     0.074 C 
BRANCH  33  34
HETATM   34  C20 UNL     1      26.723  11.745  37.303  1.00  0.00     0.011 C 
HETATM   35  C21 UNL     1      25.539  11.900  38.286  1.00  0.00     0.022 C 
HETATM   36  C22 UNL     1      27.907  11.229  38.033  1.00  0.00     0.022 C 
BRANCH  34  37
HETATM   37  C23 UNL     1      26.251  10.650  36.313  1.00  0.00     0.286 C 
BRANCH  37  38
HETATM   38  N6  UNL     1      25.643  11.174  35.138  1.00  0.00     0.092 N 
HETATM   39  C24 UNL     1      25.976  10.226  34.009  1.00  0.00     0.275 C 
HETATM   40  C25 UNL     1      25.113  10.861  32.929  1.00  0.00     0.069 C 
HETATM   41  C26 UNL     1      23.863  11.239  33.709  1.00  0.00     0.200 C 
HETATM   42  F1  UNL     1      22.782  10.590  33.178  1.00  0.00    -0.248 F 
HETATM   43  C27 UNL     1      24.187  10.828  35.128  1.00  0.00     0.309 C 
ENDBRANCH  37  38
ENDBRANCH  34  37
ENDBRANCH  33  34
ENDBRANCH  31  33
ENDBRANCH   1  29
TORSDOF 14
ENDMDL
MODEL 2
REMARK VINA RESULT: -9.069131131      3.092      8.762
REMARK  14 active torsions:
REMARK  status: ('A' for Active; 'I' for Inactive)
REMARK    1  A    between atoms: C6_9  and  C7_10 
REMARK    2  A    between atoms: C8_11  and  C10_13 
REMARK    3  A    between atoms: C10_13  and  C11_14 
REMARK       I    between atoms: C11_14  and  N2_16 
REMARK    4  A    between atoms: N2_16  and  C12_18 
REMARK    5  A    between atoms: C12_18  and  N3_20 
REMARK    6  A    between atoms: N3_20  and  C14_22 
REMARK    7  A    between atoms: C14_22  and  C16_24 
REMARK    8  A    between atoms: C14_22  and  C18_29 
REMARK    9  A    between atoms: C16_24  and  N4_25 
REMARK   10  A    between atoms: N4_25  and  C17_27 
REMARK       I    between atoms: C18_29  and  N5_31 
REMARK   11  A    between atoms: N5_31  and  C19_33 
REMARK   12  A    between atoms: C19_33  and  C20_34 
REMARK   13  A    between atoms: C20_34  and  C23_37 
REMARK   14  A    between atoms: C23_37  and  N6_38 
ROOT
HETATM    1  C14 UNL     1      26.626  16.326  35.126  1.00  0.00     0.138 C 
HETATM    2  C15 UNL     1      25.947  14.999  34.851  1.00  0.00     0.055 C 
ENDROOT
BRANCH   1   3
HETATM    3  N3  UNL     1      27.042  16.513  36.499  1.00  0.00    -0.381 N 
ATOM      4  H3  UNL     1      27.927  16.993  36.664  1.00  0.00     0.156 HD
BRANCH   3   5
HETATM    5  C12 UNL     1      26.335  16.091  37.591  1.00  0.00     0.176 C 
HETATM    6  C13 UNL     1      26.189  17.217  38.639  1.00  0.00     0.055 C 
BRANCH   5   7
HETATM    7  N2  UNL     1      26.916  14.949  38.267  1.00  0.00    -0.337 N 
HETATM    8  C11 UNL     1      26.099  13.751  38.511  1.00  0.00     0.243 C 
HETATM    9  O2  UNL     1      24.937  13.877  38.119  1.00  0.00    -0.269 OA
ATOM     10  H2  UNL     1      27.889  14.976  38.572  1.00  0.00     0.164 HD
BRANCH   8  11
HETATM   11  C10 UNL     1      26.763  12.630  39.162  1.00  0.00     0.080 C 
BRANCH  11  12
HETATM   12  C8  UNL     1      27.233  11.446  38.446  1.00  0.00    -0.056 C 
HETATM   13  C7  UNL     1      27.091  11.196  37.034  1.00  0.00     0.020 C 
HETATM   14  C9  UNL     1      27.154  10.268  39.408  1.00  0.00     0.048 C 
BRANCH  13  15
HETATM   15  C6  UNL     1      25.997  10.595  36.328  1.00  0.00    -0.014 A 
HETATM   16  C2  UNL     1      25.920   9.260  36.016  1.00  0.00    -0.045 A 
HETATM   17  C1  UNL     1      26.957   8.250  36.307  1.00  0.00     0.049 C 
HETATM   18  C3  UNL     1      24.791   8.827  35.294  1.00  0.00     0.082 A 
HETATM   19  C4  UNL     1      23.790   9.648  34.892  1.00  0.00     0.245 A 
HETATM   20  O1  UNL     1      22.800   9.202  34.245  1.00  0.00    -0.268 OA
HETATM   21  N1  UNL     1      23.887  10.957  35.207  1.00  0.00    -0.333 N 
HETATM   22  C5  UNL     1      24.931  11.390  35.884  1.00  0.00     0.103 A 
ATOM     23  H1  UNL     1      23.155  11.608  34.922  1.00  0.00     0.168 HD
ENDBRANCH  13  15
ENDBRANCH  11  12
ENDBRANCH   8  11
ENDBRANCH   5   7
ENDBRANCH   3   5
ENDBRANCH   1   3
BRANCH   1  24
HETATM   24  C16 UNL     1      27.846  16.516  34.317  1.00  0.00     0.103 C 
BRANCH  24  25
HETATM   25  N4  UNL     1      28.283  17.772  33.869  1.00  0.00    -0.345 N 
ATOM     26  H4  UNL     1      28.010  17.995  32.911  1.00  0.00     0.167 HD
BRANCH  25  27
HETATM   27  C17 UNL     1      29.026  18.770  34.499  1.00  0.00     0.352 C 
HETATM   28  O3  UNL     1      29.242  18.735  35.729  1.00  0.00    -0.283 OA
ENDBRANCH  25  27
ENDBRANCH  24  25
ENDBRANCH   1  24
BRANCH   1  29
HETATM   29  C18 UNL     1      25.520  17.344  34.995  1.00  0.00     0.254 C 
HETATM   30  O4  UNL     1      25.822  18.530  35.191  1.00  0.00    -0.270 OA
HETATM   31  N5  UNL     1      24.212  16.946  34.690  1.00  0.00    -0.338 N 
ATOM     32  H5  UNL     1      24.093  15.947  34.524  1.00  0.00     0.167 HD
BRANCH  31  33
HETATM   33  C19 UNL     1      23.047  17.706  34.581  1.00  0.00     0.074 C 
BRANCH  33  34
HETATM   34  C20 UNL     1      22.043  17.973  35.611  1.00  0.00     0.011 C 
HETATM   35  C21 UNL     1      22.522  17.495  37.002  1.00  0.00     0.022 C 
HETATM   36  C22 UNL     1      20.658  17.498  35.374  1.00  0.00     0.022 C 
BRANCH  34  37
HETATM   37  C23 UNL     1      22.012  19.517  35.733  1.00  0.00     0.286 C 
BRANCH  37  38
HETATM   38  N6  UNL     1      21.687  20.174  34.513  1.00  0.00     0.092 N 
HETATM   39  C24 UNL     1      20.411  20.948  34.755  1.00  0.00     0.275 C 
HETATM   40  C25 UNL     1      20.347  21.685  33.426  1.00  0.00     0.069 C 
HETATM   41  C26 UNL     1      21.810  22.030  33.188  1.00  0.00     0.200 C 
HETATM   42  F1  UNL     1      21.949  23.389  33.111  1.00  0.00    -0.248 F 
HETATM   43  C27 UNL     1      22.523  21.408  34.369  1.00  0.00     0.309 C 
ENDBRANCH  37  38
ENDBRANCH  34  37
ENDBRANCH  33  34
ENDBRANCH  31  33
ENDBRANCH   1  29
TORSDOF 14
ENDMDL
MODEL 3
REMARK VINA RESULT: -9.046221289      2.513      4.764
REMARK  14 active torsions:
REMARK  status: ('A' for Active; 'I' for Inactive)
REMARK    1  A    between atoms: C6_9  and  C7_10 
REMARK    2  A    between atoms: C8_11  and  C10_13 
REMARK    3  A    between atoms: C10_13  and  C11_14 
REMARK       I    between atoms: C11_14  and  N2_16 
REMARK    4  A    between atoms: N2_16  and  C12_18 
REMARK    5  A    between atoms: C12_18  and  N3_20 
REMARK    6  A    between atoms: N3_20  and  C14_22 
REMARK    7  A    between atoms: C14_22  and  C16_24 
REMARK    8  A    between atoms: C14_22  and  C18_29 
REMARK    9  A    between atoms: C16_24  and  N4_25 
REMARK   10  A    between atoms: N4_25  and  C17_27 
REMARK       I    between atoms: C18_29  and  N5_31 
REMARK   11  A    between atoms: N5_31  and  C19_33 
REMARK   12  A    between atoms: C19_33  and  C20_34 
REMARK   13  A    between atoms: C20_34  and  C23_37 
REMARK   14  A    between atoms: C23_37  and  N6_38 
ROOT
HETATM    1  C14 UNL     1      24.401  14.243  35.781  1.00  0.00     0.138 C 
HETATM    2  C15 UNL     1      25.525  14.834  34.954  1.00  0.00     0.055 C 
ENDROOT
BRANCH   1   3
HETATM    3  N3  UNL     1      24.758  13.942  37.150  1.00  0.00    -0.381 N 
ATOM      4  H3  UNL     1      24.246  13.196  37.620  1.00  0.00     0.156 HD
BRANCH   3   5
HETATM    5  C12 UNL     1      25.733  14.588  37.859  1.00  0.00     0.176 C 
HETATM    6  C13 UNL     1      26.380  13.656  38.908  1.00  0.00     0.055 C 
BRANCH   5   7
HETATM    7  N2  UNL     1      25.270  15.768  38.561  1.00  0.00    -0.337 N 
HETATM    8  C11 UNL     1      25.902  17.069  38.300  1.00  0.00     0.243 C 
HETATM    9  O2  UNL     1      26.829  16.997  37.491  1.00  0.00    -0.269 OA
ATOM     10  H2  UNL     1      24.508  15.696  39.235  1.00  0.00     0.164 HD
BRANCH   8  11
HETATM   11  C10 UNL     1      25.358  18.215  39.015  1.00  0.00     0.080 C 
BRANCH  11  12
HETATM   12  C8  UNL     1      24.001  18.719  38.816  1.00  0.00    -0.056 C 
HETATM   13  C7  UNL     1      23.199  18.554  37.630  1.00  0.00     0.020 C 
HETATM   14  C9  UNL     1      23.871  20.011  39.612  1.00  0.00     0.048 C 
BRANCH  13  15
HETATM   15  C6  UNL     1      23.157  19.367  36.448  1.00  0.00    -0.014 A 
HETATM   16  C2  UNL     1      22.002  19.857  35.890  1.00  0.00    -0.045 A 
HETATM   17  C1  UNL     1      20.633  19.591  36.378  1.00  0.00     0.049 C 
HETATM   18  C3  UNL     1      22.124  20.618  34.712  1.00  0.00     0.082 A 
HETATM   19  C4  UNL     1      23.306  20.887  34.104  1.00  0.00     0.245 A 
HETATM   20  O1  UNL     1      23.353  21.576  33.046  1.00  0.00    -0.268 OA
HETATM   21  N1  UNL     1      24.428  20.393  34.667  1.00  0.00    -0.333 N 
HETATM   22  C5  UNL     1      24.344  19.679  35.772  1.00  0.00     0.103 A 
ATOM     23  H1  UNL     1      25.337  20.572  34.241  1.00  0.00     0.168 HD
ENDBRANCH  13  15
ENDBRANCH  11  12
ENDBRANCH   8  11
ENDBRANCH   5   7
ENDBRANCH   3   5
ENDBRANCH   1   3
BRANCH   1  24
HETATM   24  C16 UNL     1      23.231  15.139  35.868  1.00  0.00     0.103 C 
BRANCH  24  25
HETATM   25  N4  UNL     1      22.391  15.416  34.779  1.00  0.00    -0.345 N 
ATOM     26  H4  UNL     1      21.974  14.589  34.350  1.00  0.00     0.167 HD
BRANCH  25  27
HETATM   27  C17 UNL     1      22.024  16.620  34.179  1.00  0.00     0.352 C 
HETATM   28  O3  UNL     1      22.336  16.874  32.997  1.00  0.00    -0.283 OA
ENDBRANCH  25  27
ENDBRANCH  24  25
ENDBRANCH   1  24
BRANCH   1  29
HETATM   29  C18 UNL     1      24.198  12.864  35.202  1.00  0.00     0.254 C 
HETATM   30  O4  UNL     1      23.727  12.799  34.057  1.00  0.00    -0.270 OA
HETATM   31  N5  UNL     1      24.509  11.720  35.949  1.00  0.00    -0.338 N 
ATOM     32  H5  UNL     1      24.916  11.902  36.866  1.00  0.00     0.167 HD
BRANCH  31  33
HETATM   33  C19 UNL     1      24.347  10.372  35.632  1.00  0.00     0.074 C 
BRANCH  33  34
HETATM   34  C20 UNL     1      25.303   9.477  34.979  1.00  0.00     0.011 C 
HETATM   35  C21 UNL     1      25.005   9.339  33.468  1.00  0.00     0.022 C 
HETATM   36  C22 UNL     1      25.512   8.132  35.568  1.00  0.00     0.022 C 
BRANCH  34  37
HETATM   37  C23 UNL     1      26.649  10.243  35.030  1.00  0.00     0.286 C 
BRANCH  37  38
HETATM   38  N6  UNL     1      27.584   9.682  35.945  1.00  0.00     0.092 N 
HETATM   39  C24 UNL     1      28.962   9.922  35.370  1.00  0.00     0.275 C 
HETATM   40  C25 UNL     1      29.781   9.418  36.549  1.00  0.00     0.069 C 
HETATM   41  C26 UNL     1      28.982   9.943  37.733  1.00  0.00     0.200 C 
HETATM   42  F1  UNL     1      29.766  10.783  38.474  1.00  0.00    -0.248 F 
HETATM   43  C27 UNL     1      27.793  10.624  37.090  1.00  0.00     0.309 C 
ENDBRANCH  37  38
ENDBRANCH  34  37
ENDBRANCH  33  34
ENDBRANCH  31  33
ENDBRANCH   1  29
TORSDOF 14
ENDMDL
MODEL 4
REMARK VINA RESULT: -8.894266100      2.910      8.570
REMARK  14 active torsions:
REMARK  status: ('A' for Active; 'I' for Inactive)
REMARK    1  A    between atoms: C6_9  and  C7_10 
REMARK    2  A    between atoms: C8_11  and  C10_13 
REMARK    3  A    between atoms: C10_13  and  C11_14 
REMARK       I    between atoms: C11_14  and  N2_16 
REMARK    4  A    between atoms: N2_16  and  C12_18 
REMARK    5  A    between atoms: C12_18  and  N3_20 
REMARK    6  A    between atoms: N3_20  and  C14_22 
REMARK    7  A    between atoms: C14_22  and  C16_24 
REMARK    8  A    between atoms: C14_22  and  C18_29 
REMARK    9  A    between atoms: C16_24  and  N4_25 
REMARK   10  A    between atoms: N4_25  and  C17_27 
REMARK       I    between atoms: C18_29  and  N5_31 
REMARK   11  A    between atoms: N5_31  and  C19_33 
REMARK   12  A    between atoms: C19_33  and  C20_34 
REMARK   13  A    between atoms: C20_34  and  C23_37 
REMARK   14  A    between atoms: C23_37  and  N6_38 
ROOT
HETATM    1  C14 UNL     1      24.832  15.426  36.034  1.00  0.00     0.138 C 
HETATM    2  C15 UNL     1      23.972  14.178  36.037  1.00  0.00     0.055 C 
ENDROOT
BRANCH   1   3
HETATM    3  N3  UNL     1      25.265  15.859  37.345  1.00  0.00    -0.381 N 
ATOM      4  H3  UNL     1      25.478  16.849  37.469  1.00  0.00     0.156 HD
BRANCH   3   5
HETATM    5  C12 UNL     1      25.408  15.037  38.427  1.00  0.00     0.176 C 
HETATM    6  C13 UNL     1      25.635  15.844  39.725  1.00  0.00     0.055 C 
BRANCH   5   7
HETATM    7  N2  UNL     1      26.503  14.094  38.313  1.00  0.00    -0.337 N 
HETATM    8  C11 UNL     1      26.283  12.676  38.634  1.00  0.00     0.243 C 
HETATM    9  O2  UNL     1      25.135  12.445  39.017  1.00  0.00    -0.269 OA
ATOM     10  H2  UNL     1      27.423  14.413  38.010  1.00  0.00     0.164 HD
BRANCH   8  11
HETATM   11  C10 UNL     1      27.420  11.783  38.458  1.00  0.00     0.080 C 
BRANCH  11  12
HETATM   12  C8  UNL     1      27.738  11.122  37.195  1.00  0.00    -0.056 C 
HETATM   13  C7  UNL     1      27.341  11.563  35.882  1.00  0.00     0.020 C 
HETATM   14  C9  UNL     1      27.818   9.626  37.469  1.00  0.00     0.048 C 
BRANCH  13  15
HETATM   15  C6  UNL     1      26.130  11.290  35.164  1.00  0.00    -0.014 A 
HETATM   16  C2  UNL     1      25.923  11.617  33.847  1.00  0.00    -0.045 A 
HETATM   17  C1  UNL     1      26.879  12.337  32.981  1.00  0.00     0.049 C 
HETATM   18  C3  UNL     1      24.667  11.305  33.291  1.00  0.00     0.082 A 
HETATM   19  C4  UNL     1      23.662  10.711  33.980  1.00  0.00     0.245 A 
HETATM   20  O1  UNL     1      22.554  10.456  33.427  1.00  0.00    -0.268 OA
HETATM   21  N1  UNL     1      23.885  10.401  35.274  1.00  0.00    -0.333 N 
HETATM   22  C5  UNL     1      25.052  10.679  35.820  1.00  0.00     0.103 A 
ATOM     23  H1  UNL     1      23.154   9.953  35.827  1.00  0.00     0.168 HD
ENDBRANCH  13  15
ENDBRANCH  11  12
ENDBRANCH   8  11
ENDBRANCH   5   7
ENDBRANCH   3   5
ENDBRANCH   1   3
BRANCH   1  24
HETATM   24  C16 UNL     1      26.070  15.258  35.248  1.00  0.00     0.103 C 
BRANCH  24  25
HETATM   25  N4  UNL     1      26.956  16.312  34.972  1.00  0.00    -0.345 N 
ATOM     26  H4  UNL     1      26.803  16.764  34.070  1.00  0.00     0.167 HD
BRANCH  25  27
HETATM   27  C17 UNL     1      28.007  16.851  35.712  1.00  0.00     0.352 C 
HETATM   28  O3  UNL     1      27.799  17.455  36.786  1.00  0.00    -0.283 OA
ENDBRANCH  25  27
ENDBRANCH  24  25
ENDBRANCH   1  24
BRANCH   1  29
HETATM   29  C18 UNL     1      23.883  16.532  35.638  1.00  0.00     0.254 C 
HETATM   30  O4  UNL     1      24.072  17.066  34.535  1.00  0.00    -0.270 OA
HETATM   31  N5  UNL     1      22.858  16.939  36.501  1.00  0.00    -0.338 N 
ATOM     32  H5  UNL     1      22.786  16.405  37.367  1.00  0.00     0.167 HD
BRANCH  31  33
HETATM   33  C19 UNL     1      21.922  17.963  36.358  1.00  0.00     0.074 C 
BRANCH  33  34
HETATM   34  C20 UNL     1      20.723  17.978  35.520  1.00  0.00     0.011 C 
HETATM   35  C21 UNL     1      19.583  18.786  36.183  1.00  0.00     0.022 C 
HETATM   36  C22 UNL     1      20.193  16.680  35.036  1.00  0.00     0.022 C 
BRANCH  34  37
HETATM   37  C23 UNL     1      21.121  18.829  34.287  1.00  0.00     0.286 C 
BRANCH  37  38
HETATM   38  N6  UNL     1      21.512  20.156  34.619  1.00  0.00     0.092 N 
HETATM   39  C24 UNL     1      22.958  20.307  34.203  1.00  0.00     0.275 C 
HETATM   40  C25 UNL     1      23.109  21.796  34.477  1.00  0.00     0.069 C 
HETATM   41  C26 UNL     1      21.771  22.340  34.001  1.00  0.00     0.200 C 
HETATM   42  F1  UNL     1      21.978  23.239  32.991  1.00  0.00    -0.248 F 
HETATM   43  C27 UNL     1      21.012  21.103  33.572  1.00  0.00     0.309 C 
ENDBRANCH  37  38
ENDBRANCH  34  37
ENDBRANCH  33  34
ENDBRANCH  31  33
ENDBRANCH   1  29
TORSDOF 14
ENDMDL
MODEL 5
REMARK VINA RESULT: -8.868309662      2.724      8.661
REMARK  14 active torsions:
REMARK  status: ('A' for Active; 'I' for Inactive)
REMARK    1  A    between atoms: C6_9  and  C7_10 
REMARK    2  A    between atoms: C8_11  and  C10_13 
REMARK    3  A    between atoms: C10_13  and  C11_14 
REMARK       I    between atoms: C11_14  and  N2_16 
REMARK    4  A    between atoms: N2_16  and  C12_18 
REMARK    5  A    between atoms: C12_18  and  N3_20 
REMARK    6  A    between atoms: N3_20  and  C14_22 
REMARK    7  A    between atoms: C14_22  and  C16_24 
REMARK    8  A    between atoms: C14_22  and  C18_29 
REMARK    9  A    between atoms: C16_24  and  N4_25 
REMARK   10  A    between atoms: N4_25  and  C17_27 
REMARK       I    between atoms: C18_29  and  N5_31 
REMARK   11  A    between atoms: N5_31  and  C19_33 
REMARK   12  A    between atoms: C19_33  and  C20_34 
REMARK   13  A    between atoms: C20_34  and  C23_37 
REMARK   14  A    between atoms: C23_37  and  N6_38 
ROOT
HETATM    1  C14 UNL     1      24.956  15.281  35.554  1.00  0.00     0.138 C 
HETATM    2  C15 UNL     1      23.790  14.394  35.940  1.00  0.00     0.055 C 
ENDROOT
BRANCH   1   3
HETATM    3  N3  UNL     1      25.698  15.818  36.674  1.00  0.00    -0.381 N 
ATOM      4  H3  UNL     1      26.309  16.615  36.499  1.00  0.00     0.156 HD
BRANCH   3   5
HETATM    5  C12 UNL     1      25.637  15.332  37.951  1.00  0.00     0.176 C 
HETATM    6  C13 UNL     1      25.824  16.458  38.993  1.00  0.00     0.055 C 
BRANCH   5   7
HETATM    7  N2  UNL     1      26.622  14.310  38.242  1.00  0.00    -0.337 N 
HETATM    8  C11 UNL     1      26.215  13.079  38.936  1.00  0.00     0.243 C 
HETATM    9  O2  UNL     1      25.020  13.073  39.237  1.00  0.00    -0.269 OA
ATOM     10  H2  UNL     1      27.595  14.444  37.966  1.00  0.00     0.164 HD
BRANCH   8  11
HETATM   11  C10 UNL     1      27.252  12.083  39.159  1.00  0.00     0.080 C 
BRANCH  11  12
HETATM   12  C8  UNL     1      27.589  11.040  38.193  1.00  0.00    -0.056 C 
HETATM   13  C7  UNL     1      27.604  11.183  36.760  1.00  0.00     0.020 C 
HETATM   14  C9  UNL     1      27.157   9.706  38.790  1.00  0.00     0.048 C 
BRANCH  13  15
HETATM   15  C6  UNL     1      26.527  11.027  35.825  1.00  0.00    -0.014 A 
HETATM   16  C2  UNL     1      26.685  11.015  34.461  1.00  0.00    -0.045 A 
HETATM   17  C1  UNL     1      27.962  11.208  33.744  1.00  0.00     0.049 C 
HETATM   18  C3  UNL     1      25.525  10.880  33.675  1.00  0.00     0.082 A 
HETATM   19  C4  UNL     1      24.274  10.767  34.187  1.00  0.00     0.245 A 
HETATM   20  O1  UNL     1      23.269  10.649  33.430  1.00  0.00    -0.268 OA
HETATM   21  N1  UNL     1      24.141  10.783  35.529  1.00  0.00    -0.333 N 
HETATM   22  C5  UNL     1      25.210  10.907  36.290  1.00  0.00     0.103 A 
ATOM     23  H1  UNL     1      23.217  10.701  35.953  1.00  0.00     0.168 HD
ENDBRANCH  13  15
ENDBRANCH  11  12
ENDBRANCH   8  11
ENDBRANCH   5   7
ENDBRANCH   3   5
ENDBRANCH   1   3
BRANCH   1  24
HETATM   24  C16 UNL     1      25.954  14.577  34.725  1.00  0.00     0.103 C 
BRANCH  24  25
HETATM   25  N4  UNL     1      27.292  14.986  34.617  1.00  0.00    -0.345 N 
ATOM     26  H4  UNL     1      27.958  14.372  35.086  1.00  0.00     0.167 HD
BRANCH  25  27
HETATM   27  C17 UNL     1      27.873  16.083  33.983  1.00  0.00     0.352 C 
HETATM   28  O3  UNL     1      27.637  17.249  34.364  1.00  0.00    -0.283 OA
ENDBRANCH  25  27
ENDBRANCH  24  25
ENDBRANCH   1  24
BRANCH   1  29
HETATM   29  C18 UNL     1      24.309  16.521  34.986  1.00  0.00     0.254 C 
HETATM   30  O4  UNL     1      23.412  16.352  34.148  1.00  0.00    -0.270 OA
HETATM   31  N5  UNL     1      24.733  17.796  35.381  1.00  0.00    -0.338 N 
ATOM     32  H5  UNL     1      25.459  17.806  36.098  1.00  0.00     0.167 HD
BRANCH  31  33
HETATM   33  C19 UNL     1      24.317  19.053  34.945  1.00  0.00     0.074 C 
BRANCH  33  34
HETATM   34  C20 UNL     1      23.376  19.967  35.593  1.00  0.00     0.011 C 
HETATM   35  C21 UNL     1      23.383  21.357  34.916  1.00  0.00     0.022 C 
HETATM   36  C22 UNL     1      23.467  20.133  37.065  1.00  0.00     0.022 C 
BRANCH  34  37
HETATM   37  C23 UNL     1      21.978  19.390  35.256  1.00  0.00     0.286 C 
BRANCH  37  38
HETATM   38  N6  UNL     1      20.931  20.349  35.358  1.00  0.00     0.092 N 
HETATM   39  C24 UNL     1      20.161  20.300  34.058  1.00  0.00     0.275 C 
HETATM   40  C25 UNL     1      19.028  21.241  34.441  1.00  0.00     0.069 C 
HETATM   41  C26 UNL     1      18.765  20.843  35.885  1.00  0.00     0.200 C 
HETATM   42  F1  UNL     1      17.475  20.403  36.008  1.00  0.00    -0.248 F 
HETATM   43  C27 UNL     1      19.803  19.777  36.160  1.00  0.00     0.309 C 
ENDBRANCH  37  38
ENDBRANCH  34  37
ENDBRANCH  33  34
ENDBRANCH  31  33
ENDBRANCH   1  29
TORSDOF 14
ENDMDL
