MODEL 1
REMARK VINA RESULT: -9.069519019      0.000      0.000
REMARK  17 active torsions:
REMARK  status: ('A' for Active; 'I' for Inactive)
REMARK    1  A    between atoms: C2_2  and  C3_3 
REMARK    2  A    between atoms: C3_3  and  C5_5 
REMARK    3  A    between atoms: C5_5  and  N1_6 
REMARK    4  A    between atoms: C5_5  and  C11_22 
REMARK       I    between atoms: N1_6  and  C6_8 
REMARK    5  A    between atoms: C6_8  and  C7_10 
REMARK    6  A    between atoms: C7_10  and  N2_11 
REMARK    7  A    between atoms: C7_10  and  C8_15 
REMARK    8  A    between atoms: C8_15  and  C9_16 
REMARK    9  A    between atoms: C9_16  and  C10_17 
REMARK   10  A    between atoms: C10_17  and  N3_18 
REMARK   11  A    between atoms: C11_22  and  N5_26 
REMARK   12  A    between atoms: N5_26  and  C12_28 
REMARK   13  A    between atoms: N6_31  and  C15_32 
REMARK   14  A    between atoms: C15_32  and  C17_34 
REMARK   15  A    between atoms: C18_35  and  C19_36 
REMARK   16  A    between atoms: C19_36  and  C20_37 
REMARK       I    between atoms: N7_40  and  C23_41 
REMARK   17  A    between atoms: C23_41  and  C24_43 
ROOT
HETATM    1  C11 UNL     1      21.794  18.759  34.681  1.00  0.00     0.094 C 
HETATM    2  N4  UNL     1      21.136  18.162  33.763  1.00  0.00    -0.387 N 
ATOM      3  H41 UNL     1      21.375  17.221  33.446  1.00  0.00     0.157 HD
ATOM      4  H42 UNL     1      20.352  18.669  33.352  1.00  0.00     0.157 HD
ENDROOT
BRANCH   1   5
HETATM    5  C5  UNL     1      21.454  20.103  35.134  1.00  0.00     0.155 C 
BRANCH   5   6
HETATM    6  C3  UNL     1      22.176  21.254  34.556  1.00  0.00     0.011 C 
HETATM    7  C4  UNL     1      21.598  21.794  33.258  1.00  0.00     0.012 C 
BRANCH   6   8
HETATM    8  C2  UNL     1      23.664  21.220  34.547  1.00  0.00     0.002 C 
HETATM    9  C1  UNL     1      24.334  21.310  35.876  1.00  0.00     0.005 C 
ENDBRANCH   6   8
ENDBRANCH   5   6
BRANCH   5  10
HETATM   10  N1  UNL     1      20.026  20.389  35.052  1.00  0.00    -0.347 N 
HETATM   11  C6  UNL     1      19.142  20.179  36.135  1.00  0.00     0.248 C 
HETATM   12  O1  UNL     1      19.606  19.724  37.216  1.00  0.00    -0.271 OA
ATOM     13  H1  UNL     1      19.650  20.756  34.178  1.00  0.00     0.163 HD
BRANCH  11  14
HETATM   14  C7  UNL     1      17.708  20.503  35.957  1.00  0.00     0.274 C 
BRANCH  14  15
HETATM   15  N2  UNL     1      17.523  21.478  34.917  1.00  0.00    -0.067 N 
ATOM     16  H23 UNL     1      18.270  21.434  34.223  1.00  0.00     0.275 HD
ATOM     17  H22 UNL     1      16.736  21.240  34.314  1.00  0.00     0.275 HD
ATOM     18  H21 UNL     1      17.428  22.416  35.305  1.00  0.00     0.275 HD
ENDBRANCH  14  15
BRANCH  14  19
HETATM   19  C8  UNL     1      17.104  21.035  37.246  1.00  0.00     0.044 C 
BRANCH  19  20
HETATM   20  C9  UNL     1      16.081  20.092  37.800  1.00  0.00     0.030 C 
BRANCH  20  21
HETATM   21  C10 UNL     1      16.668  19.421  39.036  1.00  0.00     0.230 C 
BRANCH  21  22
HETATM   22  N3  UNL     1      17.693  20.294  39.554  1.00  0.00    -0.079 N 
ATOM     23  H33 UNL     1      17.368  21.251  39.692  1.00  0.00     0.274 HD
ATOM     24  H32 UNL     1      17.933  20.095  40.525  1.00  0.00     0.274 HD
ATOM     25  H31 UNL     1      18.494  20.232  38.925  1.00  0.00     0.274 HD
ENDBRANCH  21  22
ENDBRANCH  20  21
ENDBRANCH  19  20
ENDBRANCH  14  19
ENDBRANCH  11  14
ENDBRANCH   5  10
ENDBRANCH   1   5
BRANCH   1  26
HETATM   26  N5  UNL     1      22.893  18.047  35.258  1.00  0.00    -0.374 N 
ATOM     27  H5  UNL     1      23.824  18.160  34.856  1.00  0.00     0.161 HD
BRANCH  26  28
HETATM   28  C12 UNL     1      22.720  17.173  36.398  1.00  0.00     0.086 C 
HETATM   29  C13 UNL     1      22.998  15.730  36.052  1.00  0.00     0.055 C 
HETATM   30  C14 UNL     1      24.464  15.481  35.763  1.00  0.00     0.275 C 
HETATM   31  N6  UNL     1      25.347  16.356  36.503  1.00  0.00     0.096 N 
HETATM   32  C26 UNL     1      24.706  16.601  37.799  1.00  0.00     0.275 C 
HETATM   33  C27 UNL     1      23.599  17.620  37.513  1.00  0.00     0.055 C 
BRANCH  31  34
HETATM   34  C15 UNL     1      26.575  15.550  36.891  1.00  0.00     0.241 C 
HETATM   35  C16 UNL     1      26.880  14.834  35.535  1.00  0.00     0.047 C 
BRANCH  34  36
HETATM   36  C17 UNL     1      26.184  14.528  37.865  1.00  0.00     0.004 C 
HETATM   37  C18 UNL     1      26.779  13.221  38.038  1.00  0.00    -0.028 C 
BRANCH  37  38
HETATM   38  C19 UNL     1      26.984  12.166  37.058  1.00  0.00     0.033 C 
BRANCH  38  39
HETATM   39  C20 UNL     1      26.100  10.970  37.045  1.00  0.00     0.009 C 
HETATM   40  C21 UNL     1      24.683  11.380  36.604  1.00  0.00     0.026 C 
HETATM   41  C22 UNL     1      24.945  11.749  35.170  1.00  0.00     0.126 C 
HETATM   42  N7  UNL     1      26.007  10.856  34.734  1.00  0.00    -0.350 N 
HETATM   43  C23 UNL     1      26.466  10.753  33.396  1.00  0.00     0.248 C 
HETATM   44  C25 UNL     1      26.537  10.087  35.833  1.00  0.00     0.130 C 
HETATM   45  O2  UNL     1      27.393   9.958  33.066  1.00  0.00    -0.271 OA
BRANCH  43  46
HETATM   46  C24 UNL     1      25.879  11.577  32.297  1.00  0.00     0.325 C 
HETATM   47  F1  UNL     1      26.879  12.399  31.801  1.00  0.00    -0.246 F 
ENDBRANCH  43  46
ENDBRANCH  38  39
ENDBRANCH  37  38
ENDBRANCH  34  36
ENDBRANCH  31  34
ENDBRANCH  26  28
ENDBRANCH   1  26
TORSDOF 17
ENDMDL
MODEL 2
REMARK VINA RESULT: -8.994853666      2.438      3.399
REMARK  17 active torsions:
REMARK  status: ('A' for Active; 'I' for Inactive)
REMARK    1  A    between atoms: C2_2  and  C3_3 
REMARK    2  A    between atoms: C3_3  and  C5_5 
REMARK    3  A    between atoms: C5_5  and  N1_6 
REMARK    4  A    between atoms: C5_5  and  C11_22 
REMARK       I    between atoms: N1_6  and  C6_8 
REMARK    5  A    between atoms: C6_8  and  C7_10 
REMARK    6  A    between atoms: C7_10  and  N2_11 
REMARK    7  A    between atoms: C7_10  and  C8_15 
REMARK    8  A    between atoms: C8_15  and  C9_16 
REMARK    9  A    between atoms: C9_16  and  C10_17 
REMARK   10  A    between atoms: C10_17  and  N3_18 
REMARK   11  A    between atoms: C11_22  and  N5_26 
REMARK   12  A    between atoms: N5_26  and  C12_28 
REMARK   13  A    between atoms: N6_31  and  C15_32 
REMARK   14  A    between atoms: C15_32  and  C17_34 
REMARK   15  A    between atoms: C18_35  and  C19_36 
REMARK   16  A    between atoms: C19_36  and  C20_37 
REMARK       I    between atoms: N7_40  and  C23_41 
REMARK   17  A    between atoms: C23_41  and  C24_43 
ROOT
HETATM    1  C11 UNL     1      20.001  18.670  36.143  1.00  0.00     0.094 C 
HETATM    2  N4  UNL     1      19.559  17.771  35.349  1.00  0.00    -0.387 N 
ATOM      3  H41 UNL     1      20.085  16.921  35.143  1.00  0.00     0.157 HD
ATOM      4  H42 UNL     1      18.648  17.939  34.923  1.00  0.00     0.157 HD
ENDROOT
BRANCH   1   5
HETATM    5  C5  UNL     1      19.251  19.885  36.437  1.00  0.00     0.155 C 
BRANCH   5   6
HETATM    6  C3  UNL     1      19.362  21.034  35.515  1.00  0.00     0.011 C 
HETATM    7  C4  UNL     1      18.091  21.376  34.755  1.00  0.00     0.012 C 
BRANCH   6   8
HETATM    8  C2  UNL     1      20.581  21.141  34.668  1.00  0.00     0.002 C 
HETATM    9  C1  UNL     1      20.374  21.631  33.275  1.00  0.00     0.005 C 
ENDBRANCH   6   8
ENDBRANCH   5   6
BRANCH   5  10
HETATM   10  N1  UNL     1      17.832  19.639  36.669  1.00  0.00    -0.347 N 
HETATM   11  C6  UNL     1      17.201  19.915  37.903  1.00  0.00     0.248 C 
HETATM   12  O1  UNL     1      17.893  20.393  38.843  1.00  0.00    -0.271 OA
ATOM     13  H1  UNL     1      17.273  19.252  35.909  1.00  0.00     0.163 HD
BRANCH  11  14
HETATM   14  C7  UNL     1      15.754  19.634  38.041  1.00  0.00     0.274 C 
BRANCH  14  15
HETATM   15  N2  UNL     1      14.978  20.837  37.913  1.00  0.00    -0.067 N 
ATOM     16  H23 UNL     1      15.559  21.632  37.644  1.00  0.00     0.275 HD
ATOM     17  H22 UNL     1      14.368  20.806  37.095  1.00  0.00     0.275 HD
ATOM     18  H21 UNL     1      14.452  21.028  38.765  1.00  0.00     0.275 HD
ENDBRANCH  14  15
BRANCH  14  19
HETATM   19  C8  UNL     1      15.448  18.990  39.385  1.00  0.00     0.044 C 
BRANCH  19  20
HETATM   20  C9  UNL     1      14.802  17.651  39.214  1.00  0.00     0.030 C 
BRANCH  20  21
HETATM   21  C10 UNL     1      13.297  17.821  39.374  1.00  0.00     0.230 C 
BRANCH  21  22
HETATM   22  N3  UNL     1      12.986  17.620  40.768  1.00  0.00    -0.079 N 
ATOM     23  H33 UNL     1      12.057  17.956  41.022  1.00  0.00     0.274 HD
ATOM     24  H32 UNL     1      12.841  16.638  41.007  1.00  0.00     0.274 HD
ATOM     25  H31 UNL     1      13.730  18.056  41.313  1.00  0.00     0.274 HD
ENDBRANCH  21  22
ENDBRANCH  20  21
ENDBRANCH  19  20
ENDBRANCH  14  19
ENDBRANCH  11  14
ENDBRANCH   5  10
ENDBRANCH   1   5
BRANCH   1  26
HETATM   26  N5  UNL     1      21.280  18.434  36.741  1.00  0.00    -0.374 N 
ATOM     27  H5  UNL     1      21.343  18.339  37.755  1.00  0.00     0.161 HD
BRANCH  26  28
HETATM   28  C12 UNL     1      22.484  18.329  35.946  1.00  0.00     0.086 C 
HETATM   29  C13 UNL     1      23.446  19.459  36.220  1.00  0.00     0.055 C 
HETATM   30  C14 UNL     1      24.049  19.377  37.607  1.00  0.00     0.275 C 
HETATM   31  N6  UNL     1      24.184  18.020  38.090  1.00  0.00     0.096 N 
HETATM   32  C26 UNL     1      24.480  17.186  36.920  1.00  0.00     0.275 C 
HETATM   33  C27 UNL     1      23.139  17.015  36.200  1.00  0.00     0.055 C 
BRANCH  31  34
HETATM   34  C15 UNL     1      25.477  17.941  38.884  1.00  0.00     0.241 C 
HETATM   35  C16 UNL     1      26.420  17.290  37.821  1.00  0.00     0.047 C 
BRANCH  34  36
HETATM   36  C17 UNL     1      25.303  16.986  39.981  1.00  0.00     0.004 C 
HETATM   37  C18 UNL     1      25.674  15.588  39.982  1.00  0.00    -0.028 C 
BRANCH  37  38
HETATM   38  C19 UNL     1      25.301  14.537  39.047  1.00  0.00     0.033 C 
BRANCH  38  39
HETATM   39  C20 UNL     1      26.331  13.613  38.504  1.00  0.00     0.009 C 
HETATM   40  C21 UNL     1      25.766  12.181  38.455  1.00  0.00     0.026 C 
HETATM   41  C22 UNL     1      24.717  12.344  37.390  1.00  0.00     0.126 C 
HETATM   42  N7  UNL     1      25.255  13.337  36.472  1.00  0.00    -0.350 N 
HETATM   43  C23 UNL     1      24.660  13.687  35.234  1.00  0.00     0.248 C 
HETATM   44  C25 UNL     1      26.472  13.922  36.981  1.00  0.00     0.130 C 
HETATM   45  O2  UNL     1      25.169  14.557  34.470  1.00  0.00    -0.271 OA
BRANCH  43  46
HETATM   46  C24 UNL     1      23.396  13.048  34.759  1.00  0.00     0.325 C 
HETATM   47  F1  UNL     1      22.346  13.897  35.070  1.00  0.00    -0.246 F 
ENDBRANCH  43  46
ENDBRANCH  38  39
ENDBRANCH  37  38
ENDBRANCH  34  36
ENDBRANCH  31  34
ENDBRANCH  26  28
ENDBRANCH   1  26
TORSDOF 17
ENDMDL
MODEL 3
REMARK VINA RESULT: -8.972630747      2.782      4.075
REMARK  17 active torsions:
REMARK  status: ('A' for Active; 'I' for Inactive)
REMARK    1  A    between atoms: C2_2  and  C3_3 
REMARK    2  A    between atoms: C3_3  and  C5_5 
REMARK    3  A    between atoms: C5_5  and  N1_6 
REMARK    4  A    between atoms: C5_5  and  C11_22 
REMARK       I    between atoms: N1_6  and  C6_8 
REMARK    5  A    between atoms: C6_8  and  C7_10 
REMARK    6  A    between atoms: C7_10  and  N2_11 
REMARK    7  A    between atoms: C7_10  and  C8_15 
REMARK    8  A    between atoms: C8_15  and  C9_16 
REMARK    9  A    between atoms: C9_16  and  C10_17 
REMARK   10  A    between atoms: C10_17  and  N3_18 
REMARK   11  A    between atoms: C11_22  and  N5_26 
REMARK   12  A    between atoms: N5_26  and  C12_28 
REMARK   13  A    between atoms: N6_31  and  C15_32 
REMARK   14  A    between atoms: C15_32  and  C17_34 
REMARK   15  A    between atoms: C18_35  and  C19_36 
REMARK   16  A    between atoms: C19_36  and  C20_37 
REMARK       I    between atoms: N7_40  and  C23_41 
REMARK   17  A    between atoms: C23_41  and  C24_43 
ROOT
HETATM    1  C11 UNL     1      24.027  19.407  34.774  1.00  0.00     0.094 C 
HETATM    2  N4  UNL     1      24.346  20.638  34.641  1.00  0.00    -0.387 N 
ATOM      3  H41 UNL     1      25.282  20.930  34.358  1.00  0.00     0.157 HD
ATOM      4  H42 UNL     1      23.619  21.327  34.832  1.00  0.00     0.157 HD
ENDROOT
BRANCH   1   5
HETATM    5  C5  UNL     1      22.690  18.991  35.179  1.00  0.00     0.155 C 
BRANCH   5   6
HETATM    6  C3  UNL     1      22.485  18.481  36.550  1.00  0.00     0.011 C 
HETATM    7  C4  UNL     1      23.033  19.369  37.656  1.00  0.00     0.012 C 
BRANCH   6   8
HETATM    8  C2  UNL     1      22.724  17.035  36.807  1.00  0.00     0.002 C 
HETATM    9  C1  UNL     1      22.408  16.105  35.686  1.00  0.00     0.005 C 
ENDBRANCH   6   8
ENDBRANCH   5   6
BRANCH   5  10
HETATM   10  N1  UNL     1      21.673  20.006  34.927  1.00  0.00    -0.347 N 
HETATM   11  C6  UNL     1      20.726  19.896  33.884  1.00  0.00     0.248 C 
HETATM   12  O1  UNL     1      20.761  18.879  33.139  1.00  0.00    -0.271 OA
ATOM     13  H1  UNL     1      21.645  20.829  35.529  1.00  0.00     0.163 HD
BRANCH  11  14
HETATM   14  C7  UNL     1      19.730  20.978  33.709  1.00  0.00     0.274 C 
BRANCH  14  15
HETATM   15  N2  UNL     1      20.300  22.098  33.010  1.00  0.00    -0.067 N 
ATOM     16  H23 UNL     1      20.947  21.795  32.281  1.00  0.00     0.275 HD
ATOM     17  H22 UNL     1      19.609  22.565  32.423  1.00  0.00     0.275 HD
ATOM     18  H21 UNL     1      20.743  22.748  33.658  1.00  0.00     0.275 HD
ENDBRANCH  14  15
BRANCH  14  19
HETATM   19  C8  UNL     1      19.198  21.454  35.052  1.00  0.00     0.044 C 
BRANCH  19  20
HETATM   20  C9  UNL     1      17.779  21.023  35.260  1.00  0.00     0.030 C 
BRANCH  20  21
HETATM   21  C10 UNL     1      17.573  20.755  36.746  1.00  0.00     0.230 C 
BRANCH  21  22
HETATM   22  N3  UNL     1      16.272  21.269  37.099  1.00  0.00    -0.079 N 
ATOM     23  H33 UNL     1      16.290  22.254  37.362  1.00  0.00     0.274 HD
ATOM     24  H32 UNL     1      15.647  21.358  36.298  1.00  0.00     0.274 HD
ATOM     25  H31 UNL     1      15.895  20.668  37.833  1.00  0.00     0.274 HD
ENDBRANCH  21  22
ENDBRANCH  20  21
ENDBRANCH  19  20
ENDBRANCH  14  19
ENDBRANCH  11  14
ENDBRANCH   5  10
ENDBRANCH   1   5
BRANCH   1  26
HETATM   26  N5  UNL     1      25.047  18.441  34.505  1.00  0.00    -0.374 N 
ATOM     27  H5  UNL     1      24.984  17.875  33.659  1.00  0.00     0.161 HD
BRANCH  26  28
HETATM   28  C12 UNL     1      26.165  18.245  35.402  1.00  0.00     0.086 C 
HETATM   29  C13 UNL     1      26.085  16.923  36.127  1.00  0.00     0.055 C 
HETATM   30  C14 UNL     1      26.295  15.745  35.199  1.00  0.00     0.275 C 
HETATM   31  N6  UNL     1      27.171  16.045  34.087  1.00  0.00     0.096 N 
HETATM   32  C26 UNL     1      28.169  16.999  34.585  1.00  0.00     0.275 C 
HETATM   33  C27 UNL     1      27.442  18.345  34.642  1.00  0.00     0.055 C 
BRANCH  31  34
HETATM   34  C15 UNL     1      28.009  14.807  33.814  1.00  0.00     0.241 C 
HETATM   35  C16 UNL     1      28.739  15.245  32.504  1.00  0.00     0.047 C 
BRANCH  34  36
HETATM   36  C17 UNL     1      27.116  13.693  33.484  1.00  0.00     0.004 C 
HETATM   37  C18 UNL     1      26.573  12.715  34.401  1.00  0.00    -0.028 C 
BRANCH  37  38
HETATM   38  C19 UNL     1      27.270  11.841  35.333  1.00  0.00     0.033 C 
BRANCH  38  39
HETATM   39  C20 UNL     1      26.505  10.950  36.244  1.00  0.00     0.009 C 
HETATM   40  C21 UNL     1      27.351  10.638  37.492  1.00  0.00     0.026 C 
HETATM   41  C22 UNL     1      27.390  11.996  38.136  1.00  0.00     0.126 C 
HETATM   42  N7  UNL     1      26.112  12.610  37.810  1.00  0.00    -0.350 N 
HETATM   43  C23 UNL     1      25.658  13.842  38.344  1.00  0.00     0.248 C 
HETATM   44  C25 UNL     1      25.362  11.807  36.875  1.00  0.00     0.130 C 
HETATM   45  O2  UNL     1      24.535  14.334  38.030  1.00  0.00    -0.271 OA
BRANCH  43  46
HETATM   46  C24 UNL     1      26.479  14.633  39.309  1.00  0.00     0.325 C 
HETATM   47  F1  UNL     1      26.003  15.934  39.308  1.00  0.00    -0.246 F 
ENDBRANCH  43  46
ENDBRANCH  38  39
ENDBRANCH  37  38
ENDBRANCH  34  36
ENDBRANCH  31  34
ENDBRANCH  26  28
ENDBRANCH   1  26
TORSDOF 17
ENDMDL
MODEL 4
REMARK VINA RESULT: -8.924384083      1.642      2.423
REMARK  17 active torsions:
REMARK  status: ('A' for Active; 'I' for Inactive)
REMARK    1  A    between atoms: C2_2  and  C3_3 
REMARK    2  A    between atoms: C3_3  and  C5_5 
REMARK    3  A    between atoms: C5_5  and  N1_6 
REMARK    4  A    between atoms: C5_5  and  C11_22 
REMARK       I    between atoms: N1_6  and  C6_8 
REMARK    5  A    between atoms: C6_8  and  C7_10 
REMARK    6  A    between atoms: C7_10  and  N2_11 
REMARK    7  A    between atoms: C7_10  and  C8_15 
REMARK    8  A    between atoms: C8_15  and  C9_16 
REMARK    9  A    between atoms: C9_16  and  C10_17 
REMARK   10  A    between atoms: C10_17  and  N3_18 
REMARK   11  A    between atoms: C11_22  and  N5_26 
REMARK   12  A    between atoms: N5_26  and  C12_28 
REMARK   13  A    between atoms: N6_31  and  C15_32 
REMARK   14  A    between atoms: C15_32  and  C17_34 
REMARK   15  A    between atoms: C18_35  and  C19_36 
REMARK   16  A    between atoms: C19_36  and  C20_37 
REMARK       I    between atoms: N7_40  and  C23_41 
REMARK   17  A    between atoms: C23_41  and  C24_43 
ROOT
HETATM    1  C11 UNL     1      21.553  18.841  34.653  1.00  0.00     0.094 C 
HETATM    2  N4  UNL     1      20.858  18.256  33.753  1.00  0.00    -0.387 N 
ATOM      3  H41 UNL     1      21.088  17.323  33.409  1.00  0.00     0.157 HD
ATOM      4  H42 UNL     1      20.055  18.767  33.385  1.00  0.00     0.157 HD
ENDROOT
BRANCH   1   5
HETATM    5  C5  UNL     1      21.225  20.174  35.144  1.00  0.00     0.155 C 
BRANCH   5   6
HETATM    6  C3  UNL     1      21.939  21.338  34.579  1.00  0.00     0.011 C 
HETATM    7  C4  UNL     1      21.257  22.000  33.393  1.00  0.00     0.012 C 
BRANCH   6   8
HETATM    8  C2  UNL     1      23.415  21.245  34.410  1.00  0.00     0.002 C 
HETATM    9  C1  UNL     1      24.226  21.292  35.661  1.00  0.00     0.005 C 
ENDBRANCH   6   8
ENDBRANCH   5   6
BRANCH   5  10
HETATM   10  N1  UNL     1      19.797  20.466  35.098  1.00  0.00    -0.347 N 
HETATM   11  C6  UNL     1      18.937  20.244  36.198  1.00  0.00     0.248 C 
HETATM   12  O1  UNL     1      19.424  19.773  37.262  1.00  0.00    -0.271 OA
ATOM     13  H1  UNL     1      19.403  20.846  34.238  1.00  0.00     0.163 HD
BRANCH  11  14
HETATM   14  C7  UNL     1      17.501  20.574  36.057  1.00  0.00     0.274 C 
BRANCH  14  15
HETATM   15  N2  UNL     1      17.301  21.605  35.074  1.00  0.00    -0.067 N 
ATOM     16  H23 UNL     1      18.188  21.977  34.735  1.00  0.00     0.275 HD
ATOM     17  H22 UNL     1      16.946  21.223  34.197  1.00  0.00     0.275 HD
ATOM     18  H21 UNL     1      16.696  22.343  35.434  1.00  0.00     0.275 HD
ENDBRANCH  14  15
BRANCH  14  19
HETATM   19  C8  UNL     1      16.913  21.035  37.381  1.00  0.00     0.044 C 
BRANCH  19  20
HETATM   20  C9  UNL     1      15.904  20.058  37.900  1.00  0.00     0.030 C 
BRANCH  20  21
HETATM   21  C10 UNL     1      16.503  19.346  39.106  1.00  0.00     0.230 C 
BRANCH  21  22
HETATM   22  N3  UNL     1      17.535  20.200  39.641  1.00  0.00    -0.079 N 
ATOM     23  H33 UNL     1      17.884  20.876  38.963  1.00  0.00     0.274 HD
ATOM     24  H32 UNL     1      17.184  20.869  40.326  1.00  0.00     0.274 HD
ATOM     25  H31 UNL     1      18.267  19.596  40.015  1.00  0.00     0.274 HD
ENDBRANCH  21  22
ENDBRANCH  20  21
ENDBRANCH  19  20
ENDBRANCH  14  19
ENDBRANCH  11  14
ENDBRANCH   5  10
ENDBRANCH   1   5
BRANCH   1  26
HETATM   26  N5  UNL     1      22.679  18.125  35.169  1.00  0.00    -0.374 N 
ATOM     27  H5  UNL     1      23.603  18.302  34.775  1.00  0.00     0.161 HD
BRANCH  26  28
HETATM   28  C12 UNL     1      22.541  17.157  36.236  1.00  0.00     0.086 C 
HETATM   29  C13 UNL     1      22.618  15.738  35.727  1.00  0.00     0.055 C 
HETATM   30  C14 UNL     1      24.004  15.378  35.235  1.00  0.00     0.275 C 
HETATM   31  N6  UNL     1      25.057  16.080  35.936  1.00  0.00     0.096 N 
HETATM   32  C26 UNL     1      24.600  16.249  37.319  1.00  0.00     0.275 C 
HETATM   33  C27 UNL     1      23.587  17.397  37.269  1.00  0.00     0.055 C 
BRANCH  31  34
HETATM   34  C15 UNL     1      26.225  15.120  36.091  1.00  0.00     0.241 C 
HETATM   35  C16 UNL     1      26.818  15.618  37.449  1.00  0.00     0.047 C 
BRANCH  34  36
HETATM   36  C17 UNL     1      27.209  15.394  35.040  1.00  0.00     0.004 C 
HETATM   37  C18 UNL     1      27.460  14.599  33.858  1.00  0.00    -0.028 C 
BRANCH  37  38
HETATM   38  C19 UNL     1      27.787  13.185  33.753  1.00  0.00     0.033 C 
BRANCH  38  39
HETATM   39  C20 UNL     1      26.858  12.247  33.070  1.00  0.00     0.009 C 
HETATM   40  C21 UNL     1      27.359  10.803  33.247  1.00  0.00     0.026 C 
HETATM   41  C22 UNL     1      27.152  10.627  34.725  1.00  0.00     0.126 C 
HETATM   42  N7  UNL     1      25.973  11.419  35.043  1.00  0.00    -0.350 N 
HETATM   43  C23 UNL     1      25.327  11.421  36.305  1.00  0.00     0.248 C 
HETATM   44  C25 UNL     1      25.543  12.204  33.911  1.00  0.00     0.130 C 
HETATM   45  O2  UNL     1      24.303  12.127  36.531  1.00  0.00    -0.271 OA
BRANCH  43  46
HETATM   46  C24 UNL     1      25.819  10.587  37.443  1.00  0.00     0.325 C 
HETATM   47  F1  UNL     1      25.380  11.172  38.620  1.00  0.00    -0.246 F 
ENDBRANCH  43  46
ENDBRANCH  38  39
ENDBRANCH  37  38
ENDBRANCH  34  36
ENDBRANCH  31  34
ENDBRANCH  26  28
ENDBRANCH   1  26
TORSDOF 17
ENDMDL
MODEL 5
REMARK VINA RESULT: -8.893545284      4.099      5.991
REMARK  17 active torsions:
REMARK  status: ('A' for Active; 'I' for Inactive)
REMARK    1  A    between atoms: C2_2  and  C3_3 
REMARK    2  A    between atoms: C3_3  and  C5_5 
REMARK    3  A    between atoms: C5_5  and  N1_6 
REMARK    4  A    between atoms: C5_5  and  C11_22 
REMARK       I    between atoms: N1_6  and  C6_8 
REMARK    5  A    between atoms: C6_8  and  C7_10 
REMARK    6  A    between atoms: C7_10  and  N2_11 
REMARK    7  A    between atoms: C7_10  and  C8_15 
REMARK    8  A    between atoms: C8_15  and  C9_16 
REMARK    9  A    between atoms: C9_16  and  C10_17 
REMARK   10  A    between atoms: C10_17  and  N3_18 
REMARK   11  A    between atoms: C11_22  and  N5_26 
REMARK   12  A    between atoms: N5_26  and  C12_28 
REMARK   13  A    between atoms: N6_31  and  C15_32 
REMARK   14  A    between atoms: C15_32  and  C17_34 
REMARK   15  A    between atoms: C18_35  and  C19_36 
REMARK   16  A    between atoms: C19_36  and  C20_37 
REMARK       I    between atoms: N7_40  and  C23_41 
REMARK   17  A    between atoms: C23_41  and  C24_43 
ROOT
HETATM    1  C11 UNL     1      20.704  17.752  35.403  1.00  0.00     0.094 C 
HETATM    2  N4  UNL     1      19.757  17.086  34.860  1.00  0.00    -0.387 N 
ATOM      3  H41 UNL     1      19.796  16.073  34.753  1.00  0.00     0.157 HD
ATOM      4  H42 UNL     1      18.949  17.616  34.532  1.00  0.00     0.157 HD
ENDROOT
BRANCH   1   5
HETATM    5  C5  UNL     1      20.648  19.201  35.556  1.00  0.00     0.155 C 
BRANCH   5   6
HETATM    6  C3  UNL     1      21.536  20.041  34.726  1.00  0.00     0.011 C 
HETATM    7  C4  UNL     1      22.807  20.511  35.413  1.00  0.00     0.012 C 
BRANCH   6   8
HETATM    8  C2  UNL     1      20.917  21.100  33.883  1.00  0.00     0.002 C 
HETATM    9  C1  UNL     1      21.684  22.372  33.755  1.00  0.00     0.005 C 
ENDBRANCH   6   8
ENDBRANCH   5   6
BRANCH   5  10
HETATM   10  N1  UNL     1      19.297  19.736  35.441  1.00  0.00    -0.347 N 
HETATM   11  C6  UNL     1      18.488  20.016  36.567  1.00  0.00     0.248 C 
HETATM   12  O1  UNL     1      18.954  19.791  37.718  1.00  0.00    -0.271 OA
ATOM     13  H1  UNL     1      18.920  19.917  34.511  1.00  0.00     0.163 HD
BRANCH  11  14
HETATM   14  C7  UNL     1      17.129  20.561  36.349  1.00  0.00     0.274 C 
BRANCH  14  15
HETATM   15  N2  UNL     1      17.168  21.734  35.519  1.00  0.00    -0.067 N 
ATOM     16  H23 UNL     1      17.575  22.530  36.013  1.00  0.00     0.275 HD
ATOM     17  H22 UNL     1      17.858  21.644  34.774  1.00  0.00     0.275 HD
ATOM     18  H21 UNL     1      16.244  21.955  35.151  1.00  0.00     0.275 HD
ENDBRANCH  14  15
BRANCH  14  19
HETATM   19  C8  UNL     1      16.463  20.913  37.671  1.00  0.00     0.044 C 
BRANCH  19  20
HETATM   20  C9  UNL     1      15.368  19.948  38.004  1.00  0.00     0.030 C 
BRANCH  20  21
HETATM   21  C10 UNL     1      15.755  19.205  39.277  1.00  0.00     0.230 C 
BRANCH  21  22
HETATM   22  N3  UNL     1      16.974  19.801  39.769  1.00  0.00    -0.079 N 
ATOM     23  H33 UNL     1      17.747  19.729  39.108  1.00  0.00     0.274 HD
ATOM     24  H32 UNL     1      16.931  20.819  39.812  1.00  0.00     0.274 HD
ATOM     25  H31 UNL     1      17.180  19.372  40.672  1.00  0.00     0.274 HD
ENDBRANCH  21  22
ENDBRANCH  20  21
ENDBRANCH  19  20
ENDBRANCH  14  19
ENDBRANCH  11  14
ENDBRANCH   5  10
ENDBRANCH   1   5
BRANCH   1  26
HETATM   26  N5  UNL     1      21.837  17.009  35.863  1.00  0.00    -0.374 N 
ATOM     27  H5  UNL     1      22.044  16.986  36.862  1.00  0.00     0.161 HD
BRANCH  26  28
HETATM   28  C12 UNL     1      22.697  16.289  34.949  1.00  0.00     0.086 C 
HETATM   29  C13 UNL     1      23.914  17.093  34.562  1.00  0.00     0.055 C 
HETATM   30  C14 UNL     1      24.872  17.278  35.720  1.00  0.00     0.275 C 
HETATM   31  N6  UNL     1      24.854  16.175  36.656  1.00  0.00     0.096 N 
HETATM   32  C26 UNL     1      24.602  14.962  35.870  1.00  0.00     0.275 C 
HETATM   33  C27 UNL     1      23.103  14.991  35.558  1.00  0.00     0.055 C 
BRANCH  31  34
HETATM   34  C15 UNL     1      26.278  15.960  37.142  1.00  0.00     0.241 C 
HETATM   35  C16 UNL     1      26.834  15.059  35.993  1.00  0.00     0.047 C 
BRANCH  34  36
HETATM   36  C17 UNL     1      26.246  15.161  38.370  1.00  0.00     0.004 C 
HETATM   37  C18 UNL     1      25.309  15.290  39.464  1.00  0.00    -0.028 C 
BRANCH  37  38
HETATM   38  C19 UNL     1      24.973  16.464  40.255  1.00  0.00     0.033 C 
BRANCH  38  39
HETATM   39  C20 UNL     1      25.755  17.719  40.108  1.00  0.00     0.009 C 
HETATM   40  C21 UNL     1      24.966  18.722  39.248  1.00  0.00     0.026 C 
HETATM   41  C22 UNL     1      23.820  19.025  40.172  1.00  0.00     0.126 C 
HETATM   42  N7  UNL     1      24.379  18.941  41.513  1.00  0.00    -0.350 N 
HETATM   43  C23 UNL     1      23.682  19.303  42.694  1.00  0.00     0.248 C 
HETATM   44  C25 UNL     1      25.732  18.442  41.492  1.00  0.00     0.130 C 
HETATM   45  O2  UNL     1      24.213  19.213  43.838  1.00  0.00    -0.271 OA
BRANCH  43  46
HETATM   46  C24 UNL     1      22.278  19.813  42.655  1.00  0.00     0.325 C 
HETATM   47  F1  UNL     1      21.830  19.926  43.961  1.00  0.00    -0.246 F 
ENDBRANCH  43  46
ENDBRANCH  38  39
ENDBRANCH  37  38
ENDBRANCH  34  36
ENDBRANCH  31  34
ENDBRANCH  26  28
ENDBRANCH   1  26
TORSDOF 17
ENDMDL
