MODEL 1
REMARK VINA RESULT: -9.484837797      0.000      0.000
REMARK  17 active torsions:
REMARK  status: ('A' for Active; 'I' for Inactive)
REMARK    1  A    between atoms: C2_2  and  N1_3 
REMARK    2  A    between atoms: N1_3  and  C3_5 
REMARK    3  A    between atoms: C3_5  and  N2_7 
REMARK    4  A    between atoms: N2_7  and  N3_9 
REMARK       I    between atoms: N3_9  and  C4_11 
REMARK    5  A    between atoms: C4_11  and  C5_13 
REMARK    6  A    between atoms: C5_13  and  N4_14 
REMARK    7  A    between atoms: C5_13  and  C20_36 
REMARK    8  A    between atoms: N4_14  and  S2_16 
REMARK    9  A    between atoms: S2_16  and  C6_19 
REMARK   10  A    between atoms: C6_19  and  C7_20 
REMARK   11  A    between atoms: C7_20  and  C8_21 
REMARK   12  A    between atoms: C8_21  and  C9_22 
REMARK   13  A    between atoms: C9_22  and  C10_23 
REMARK   14  A    between atoms: C10_23  and  C11_24 
REMARK   15  A    between atoms: C11_24  and  N5_25 
REMARK       I    between atoms: N5_25  and  C12_27 
REMARK   16  A    between atoms: C12_27  and  C13_29 
REMARK   17  A    between atoms: C13_29  and  C14_30 
ROOT
HETATM    1  S2  UNL     1      20.847  20.895  33.582  1.00  0.00     0.227 S 
HETATM    2  O2  UNL     1      20.134  21.803  32.622  1.00  0.00    -0.206 OA
HETATM    3  O3  UNL     1      20.879  19.480  33.016  1.00  0.00    -0.206 OA
ENDROOT
BRANCH   1   4
HETATM    4  N4  UNL     1      20.278  20.947  35.158  1.00  0.00    -0.305 N 
ATOM      5  H4  UNL     1      20.626  21.632  35.828  1.00  0.00     0.173 HD
BRANCH   4   6
HETATM    6  C5  UNL     1      19.268  19.973  35.524  1.00  0.00     0.189 C 
BRANCH   6   7
HETATM    7  C4  UNL     1      18.170  20.611  36.224  1.00  0.00     0.259 C 
HETATM    8  N3  UNL     1      16.870  20.134  36.495  1.00  0.00    -0.266 N 
ATOM      9  H3  UNL     1      16.621  19.194  36.187  1.00  0.00     0.190 HD
HETATM   10  O1  UNL     1      18.396  21.801  36.670  1.00  0.00    -0.269 OA
BRANCH   8  11
HETATM   11  N2  UNL     1      15.916  20.888  37.160  1.00  0.00    -0.274 N 
ATOM     12  H2  UNL     1      15.711  21.777  36.705  1.00  0.00     0.189 HD
BRANCH  11  13
HETATM   13  C3  UNL     1      15.185  20.679  38.317  1.00  0.00     0.186 C 
HETATM   14  S1  UNL     1      15.904  21.308  39.713  1.00  0.00    -0.040 SA
BRANCH  13  15
HETATM   15  N1  UNL     1      13.971  20.045  38.556  1.00  0.00    -0.366 N 
ATOM     16  H1  UNL     1      13.194  20.637  38.852  1.00  0.00     0.161 HD
BRANCH  15  17
HETATM   17  C2  UNL     1      13.703  18.656  38.430  1.00  0.00     0.117 C 
HETATM   18  C1  UNL     1      14.585  17.814  39.340  1.00  0.00     0.026 C 
ENDBRANCH  15  17
ENDBRANCH  13  15
ENDBRANCH  11  13
ENDBRANCH   8  11
ENDBRANCH   6   7
BRANCH   6  19
HETATM   19  C20 UNL     1      19.902  18.840  36.312  1.00  0.00     0.010 C 
HETATM   20  C21 UNL     1      21.298  19.272  36.796  1.00  0.00     0.012 C 
HETATM   21  C22 UNL     1      20.164  17.600  35.466  1.00  0.00     0.012 C 
ENDBRANCH   6  19
ENDBRANCH   4   6
ENDBRANCH   1   4
BRANCH   1  22
HETATM   22  C6  UNL     1      22.579  21.415  33.512  1.00  0.00     0.166 C 
BRANCH  22  23
HETATM   23  C7  UNL     1      23.218  21.413  34.840  1.00  0.00     0.043 C 
BRANCH  23  24
HETATM   24  C8  UNL     1      24.605  20.915  34.882  1.00  0.00    -0.030 C 
BRANCH  24  25
HETATM   25  C9  UNL     1      24.988  19.584  35.321  1.00  0.00    -0.029 C 
BRANCH  25  26
HETATM   26  C10 UNL     1      24.325  18.363  34.825  1.00  0.00     0.046 C 
BRANCH  26  27
HETATM   27  C11 UNL     1      25.030  17.104  35.370  1.00  0.00     0.126 C 
BRANCH  27  28
HETATM   28  N5  UNL     1      24.778  16.846  36.736  1.00  0.00    -0.361 N 
HETATM   29  C12 UNL     1      25.739  17.029  37.753  1.00  0.00     0.217 C 
HETATM   30  O4  UNL     1      26.915  17.439  37.557  1.00  0.00    -0.274 OA
ATOM     31  H5  UNL     1      23.853  16.508  37.001  1.00  0.00     0.162 HD
BRANCH  29  32
HETATM   32  C13 UNL     1      25.359  16.725  39.167  1.00  0.00     0.107 C 
BRANCH  32  33
HETATM   33  C14 UNL     1      25.363  17.993  39.980  1.00  0.00    -0.006 C 
HETATM   34  C15 UNL     1      24.734  17.774  41.330  1.00  0.00     0.005 C 
HETATM   35  C16 UNL     1      24.857  19.067  42.122  1.00  0.00     0.000 C 
HETATM   36  C17 UNL     1      23.884  20.035  41.483  1.00  0.00     0.000 C 
HETATM   37  C18 UNL     1      23.509  19.607  40.100  1.00  0.00     0.000 C 
HETATM   38  C19 UNL     1      24.668  19.123  39.279  1.00  0.00     0.005 C 
ENDBRANCH  32  33
ENDBRANCH  29  32
ENDBRANCH  27  28
ENDBRANCH  26  27
ENDBRANCH  25  26
ENDBRANCH  24  25
ENDBRANCH  23  24
ENDBRANCH  22  23
ENDBRANCH   1  22
TORSDOF 17
ENDMDL
MODEL 2
REMARK VINA RESULT: -9.307313081      1.956      3.835
REMARK  17 active torsions:
REMARK  status: ('A' for Active; 'I' for Inactive)
REMARK    1  A    between atoms: C2_2  and  N1_3 
REMARK    2  A    between atoms: N1_3  and  C3_5 
REMARK    3  A    between atoms: C3_5  and  N2_7 
REMARK    4  A    between atoms: N2_7  and  N3_9 
REMARK       I    between atoms: N3_9  and  C4_11 
REMARK    5  A    between atoms: C4_11  and  C5_13 
REMARK    6  A    between atoms: C5_13  and  N4_14 
REMARK    7  A    between atoms: C5_13  and  C20_36 
REMARK    8  A    between atoms: N4_14  and  S2_16 
REMARK    9  A    between atoms: S2_16  and  C6_19 
REMARK   10  A    between atoms: C6_19  and  C7_20 
REMARK   11  A    between atoms: C7_20  and  C8_21 
REMARK   12  A    between atoms: C8_21  and  C9_22 
REMARK   13  A    between atoms: C9_22  and  C10_23 
REMARK   14  A    between atoms: C10_23  and  C11_24 
REMARK   15  A    between atoms: C11_24  and  N5_25 
REMARK       I    between atoms: N5_25  and  C12_27 
REMARK   16  A    between atoms: C12_27  and  C13_29 
REMARK   17  A    between atoms: C13_29  and  C14_30 
ROOT
HETATM    1  S2  UNL     1      21.146  17.948  34.424  1.00  0.00     0.227 S 
HETATM    2  O2  UNL     1      22.519  17.977  33.816  1.00  0.00    -0.206 OA
HETATM    3  O3  UNL     1      20.460  16.633  34.069  1.00  0.00    -0.206 OA
ENDROOT
BRANCH   1   4
HETATM    4  N4  UNL     1      20.194  19.284  34.082  1.00  0.00    -0.305 N 
ATOM      5  H4  UNL     1      19.640  19.340  33.227  1.00  0.00     0.173 HD
BRANCH   4   6
HETATM    6  C5  UNL     1      20.194  20.358  35.057  1.00  0.00     0.189 C 
BRANCH   6   7
HETATM    7  C4  UNL     1      18.848  20.628  35.522  1.00  0.00     0.259 C 
HETATM    8  N3  UNL     1      18.389  20.991  36.806  1.00  0.00    -0.266 N 
ATOM      9  H3  UNL     1      19.073  21.112  37.553  1.00  0.00     0.190 HD
HETATM   10  O1  UNL     1      17.910  20.520  34.641  1.00  0.00    -0.269 OA
BRANCH   8  11
HETATM   11  N2  UNL     1      17.048  21.190  37.098  1.00  0.00    -0.274 N 
ATOM     12  H2  UNL     1      16.651  22.011  36.642  1.00  0.00     0.189 HD
BRANCH  11  13
HETATM   13  C3  UNL     1      16.139  20.500  37.881  1.00  0.00     0.186 C 
HETATM   14  S1  UNL     1      16.027  21.067  39.471  1.00  0.00    -0.040 SA
BRANCH  13  15
HETATM   15  N1  UNL     1      15.300  19.424  37.616  1.00  0.00    -0.366 N 
ATOM     16  H1  UNL     1      15.516  18.866  36.789  1.00  0.00     0.161 HD
BRANCH  15  17
HETATM   17  C2  UNL     1      14.174  19.022  38.381  1.00  0.00     0.117 C 
HETATM   18  C1  UNL     1      14.394  17.686  39.075  1.00  0.00     0.026 C 
ENDBRANCH  15  17
ENDBRANCH  13  15
ENDBRANCH  11  13
ENDBRANCH   8  11
ENDBRANCH   6   7
BRANCH   6  19
HETATM   19  C20 UNL     1      20.886  21.581  34.482  1.00  0.00     0.010 C 
HETATM   20  C21 UNL     1      20.532  21.714  32.989  1.00  0.00     0.012 C 
HETATM   21  C22 UNL     1      22.405  21.471  34.500  1.00  0.00     0.012 C 
ENDBRANCH   6  19
ENDBRANCH   4   6
ENDBRANCH   1   4
BRANCH   1  22
HETATM   22  C6  UNL     1      21.430  17.807  36.205  1.00  0.00     0.166 C 
BRANCH  22  23
HETATM   23  C7  UNL     1      22.739  18.351  36.609  1.00  0.00     0.043 C 
BRANCH  23  24
HETATM   24  C8  UNL     1      22.704  19.400  37.645  1.00  0.00    -0.030 C 
BRANCH  24  25
HETATM   25  C9  UNL     1      23.853  19.817  38.431  1.00  0.00    -0.029 C 
BRANCH  25  26
HETATM   26  C10 UNL     1      23.764  20.104  39.875  1.00  0.00     0.046 C 
BRANCH  26  27
HETATM   27  C11 UNL     1      24.566  19.064  40.684  1.00  0.00     0.126 C 
BRANCH  27  28
HETATM   28  N5  UNL     1      25.098  18.012  39.907  1.00  0.00    -0.361 N 
HETATM   29  C12 UNL     1      25.375  16.726  40.421  1.00  0.00     0.217 C 
HETATM   30  O4  UNL     1      25.178  16.381  41.617  1.00  0.00    -0.274 OA
ATOM     31  H5  UNL     1      25.294  18.190  38.922  1.00  0.00     0.162 HD
BRANCH  29  32
HETATM   32  C13 UNL     1      25.935  15.688  39.503  1.00  0.00     0.107 C 
BRANCH  32  33
HETATM   33  C14 UNL     1      25.465  15.944  38.095  1.00  0.00    -0.006 C 
HETATM   34  C15 UNL     1      24.719  14.756  37.548  1.00  0.00     0.005 C 
HETATM   35  C16 UNL     1      24.200  15.123  36.166  1.00  0.00     0.000 C 
HETATM   36  C17 UNL     1      25.417  15.162  35.266  1.00  0.00     0.000 C 
HETATM   37  C18 UNL     1      26.680  15.300  36.054  1.00  0.00     0.000 C 
HETATM   38  C19 UNL     1      26.593  16.298  37.171  1.00  0.00     0.005 C 
ENDBRANCH  32  33
ENDBRANCH  29  32
ENDBRANCH  27  28
ENDBRANCH  26  27
ENDBRANCH  25  26
ENDBRANCH  24  25
ENDBRANCH  23  24
ENDBRANCH  22  23
ENDBRANCH   1  22
TORSDOF 17
ENDMDL
MODEL 3
REMARK VINA RESULT: -9.196229755      1.630      3.032
REMARK  17 active torsions:
REMARK  status: ('A' for Active; 'I' for Inactive)
REMARK    1  A    between atoms: C2_2  and  N1_3 
REMARK    2  A    between atoms: N1_3  and  C3_5 
REMARK    3  A    between atoms: C3_5  and  N2_7 
REMARK    4  A    between atoms: N2_7  and  N3_9 
REMARK       I    between atoms: N3_9  and  C4_11 
REMARK    5  A    between atoms: C4_11  and  C5_13 
REMARK    6  A    between atoms: C5_13  and  N4_14 
REMARK    7  A    between atoms: C5_13  and  C20_36 
REMARK    8  A    between atoms: N4_14  and  S2_16 
REMARK    9  A    between atoms: S2_16  and  C6_19 
REMARK   10  A    between atoms: C6_19  and  C7_20 
REMARK   11  A    between atoms: C7_20  and  C8_21 
REMARK   12  A    between atoms: C8_21  and  C9_22 
REMARK   13  A    between atoms: C9_22  and  C10_23 
REMARK   14  A    between atoms: C10_23  and  C11_24 
REMARK   15  A    between atoms: C11_24  and  N5_25 
REMARK       I    between atoms: N5_25  and  C12_27 
REMARK   16  A    between atoms: C12_27  and  C13_29 
REMARK   17  A    between atoms: C13_29  and  C14_30 
ROOT
HETATM    1  S2  UNL     1      21.297  21.823  33.818  1.00  0.00     0.227 S 
HETATM    2  O2  UNL     1      21.661  23.273  33.680  1.00  0.00    -0.206 OA
HETATM    3  O3  UNL     1      20.725  21.313  32.500  1.00  0.00    -0.206 OA
ENDROOT
BRANCH   1   4
HETATM    4  N4  UNL     1      20.315  21.464  35.129  1.00  0.00    -0.305 N 
ATOM      5  H4  UNL     1      20.455  21.907  36.037  1.00  0.00     0.173 HD
BRANCH   4   6
HETATM    6  C5  UNL     1      19.258  20.496  34.911  1.00  0.00     0.189 C 
BRANCH   6   7
HETATM    7  C4  UNL     1      18.017  20.948  35.511  1.00  0.00     0.259 C 
HETATM    8  N3  UNL     1      17.434  20.608  36.750  1.00  0.00    -0.266 N 
ATOM      9  H3  UNL     1      17.932  19.962  37.363  1.00  0.00     0.190 HD
HETATM   10  O1  UNL     1      17.323  21.786  34.816  1.00  0.00    -0.269 OA
BRANCH   8  11
HETATM   11  N2  UNL     1      16.214  21.113  37.171  1.00  0.00    -0.274 N 
ATOM     12  H2  UNL     1      15.899  21.919  36.630  1.00  0.00     0.189 HD
BRANCH  11  13
HETATM   13  C3  UNL     1      15.335  20.747  38.175  1.00  0.00     0.186 C 
HETATM   14  S1  UNL     1      15.723  21.375  39.697  1.00  0.00    -0.040 SA
BRANCH  13  15
HETATM   15  N1  UNL     1      14.193  19.954  38.178  1.00  0.00    -0.366 N 
ATOM     16  H1  UNL     1      13.297  20.440  38.229  1.00  0.00     0.161 HD
BRANCH  15  17
HETATM   17  C2  UNL     1      14.147  18.537  38.117  1.00  0.00     0.117 C 
HETATM   18  C1  UNL     1      13.906  17.908  39.482  1.00  0.00     0.026 C 
ENDBRANCH  15  17
ENDBRANCH  13  15
ENDBRANCH  11  13
ENDBRANCH   8  11
ENDBRANCH   6   7
BRANCH   6  19
HETATM   19  C20 UNL     1      19.697  19.128  35.404  1.00  0.00     0.010 C 
HETATM   20  C21 UNL     1      20.782  19.299  36.485  1.00  0.00     0.012 C 
HETATM   21  C22 UNL     1      20.371  18.293  34.324  1.00  0.00     0.012 C 
ENDBRANCH   6  19
ENDBRANCH   4   6
ENDBRANCH   1   4
BRANCH   1  22
HETATM   22  C6  UNL     1      22.880  20.958  33.953  1.00  0.00     0.166 C 
BRANCH  22  23
HETATM   23  C7  UNL     1      23.559  21.228  35.233  1.00  0.00     0.043 C 
BRANCH  23  24
HETATM   24  C8  UNL     1      24.408  20.139  35.749  1.00  0.00    -0.030 C 
BRANCH  24  25
HETATM   25  C9  UNL     1      24.327  19.602  37.097  1.00  0.00    -0.029 C 
BRANCH  25  26
HETATM   26  C10 UNL     1      24.162  20.461  38.285  1.00  0.00     0.046 C 
BRANCH  26  27
HETATM   27  C11 UNL     1      24.144  19.609  39.571  1.00  0.00     0.126 C 
BRANCH  27  28
HETATM   28  N5  UNL     1      24.527  18.263  39.379  1.00  0.00    -0.361 N 
HETATM   29  C12 UNL     1      25.320  17.540  40.296  1.00  0.00     0.217 C 
HETATM   30  O4  UNL     1      25.769  18.012  41.376  1.00  0.00    -0.274 OA
ATOM     31  H5  UNL     1      24.214  17.788  38.532  1.00  0.00     0.162 HD
BRANCH  29  32
HETATM   32  C13 UNL     1      25.661  16.118  39.989  1.00  0.00     0.107 C 
BRANCH  32  33
HETATM   33  C14 UNL     1      25.346  15.817  38.548  1.00  0.00    -0.006 C 
HETATM   34  C15 UNL     1      25.112  14.344  38.339  1.00  0.00     0.005 C 
HETATM   35  C16 UNL     1      24.712  14.133  36.887  1.00  0.00     0.000 C 
HETATM   36  C17 UNL     1      25.970  14.363  36.075  1.00  0.00     0.000 C 
HETATM   37  C18 UNL     1      26.990  15.135  36.848  1.00  0.00     0.000 C 
HETATM   38  C19 UNL     1      26.422  16.292  37.617  1.00  0.00     0.005 C 
ENDBRANCH  32  33
ENDBRANCH  29  32
ENDBRANCH  27  28
ENDBRANCH  26  27
ENDBRANCH  25  26
ENDBRANCH  24  25
ENDBRANCH  23  24
ENDBRANCH  22  23
ENDBRANCH   1  22
TORSDOF 17
ENDMDL
MODEL 4
REMARK VINA RESULT: -9.185684022      1.967      3.299
REMARK  17 active torsions:
REMARK  status: ('A' for Active; 'I' for Inactive)
REMARK    1  A    between atoms: C2_2  and  N1_3 
REMARK    2  A    between atoms: N1_3  and  C3_5 
REMARK    3  A    between atoms: C3_5  and  N2_7 
REMARK    4  A    between atoms: N2_7  and  N3_9 
REMARK       I    between atoms: N3_9  and  C4_11 
REMARK    5  A    between atoms: C4_11  and  C5_13 
REMARK    6  A    between atoms: C5_13  and  N4_14 
REMARK    7  A    between atoms: C5_13  and  C20_36 
REMARK    8  A    between atoms: N4_14  and  S2_16 
REMARK    9  A    between atoms: S2_16  and  C6_19 
REMARK   10  A    between atoms: C6_19  and  C7_20 
REMARK   11  A    between atoms: C7_20  and  C8_21 
REMARK   12  A    between atoms: C8_21  and  C9_22 
REMARK   13  A    between atoms: C9_22  and  C10_23 
REMARK   14  A    between atoms: C10_23  and  C11_24 
REMARK   15  A    between atoms: C11_24  and  N5_25 
REMARK       I    between atoms: N5_25  and  C12_27 
REMARK   16  A    between atoms: C12_27  and  C13_29 
REMARK   17  A    between atoms: C13_29  and  C14_30 
ROOT
HETATM    1  S2  UNL     1      21.314  21.713  33.897  1.00  0.00     0.227 S 
HETATM    2  O2  UNL     1      21.580  23.183  33.744  1.00  0.00    -0.206 OA
HETATM    3  O3  UNL     1      20.793  21.152  32.578  1.00  0.00    -0.206 OA
ENDROOT
BRANCH   1   4
HETATM    4  N4  UNL     1      20.344  21.303  35.200  1.00  0.00    -0.305 N 
ATOM      5  H4  UNL     1      20.497  21.704  36.126  1.00  0.00     0.173 HD
BRANCH   4   6
HETATM    6  C5  UNL     1      19.277  20.354  34.952  1.00  0.00     0.189 C 
BRANCH   6   7
HETATM    7  C4  UNL     1      18.033  20.815  35.538  1.00  0.00     0.259 C 
HETATM    8  N3  UNL     1      17.362  20.378  36.700  1.00  0.00    -0.266 N 
ATOM      9  H3  UNL     1      17.787  19.637  37.259  1.00  0.00     0.190 HD
HETATM   10  O1  UNL     1      17.429  21.768  34.911  1.00  0.00    -0.269 OA
BRANCH   8  11
HETATM   11  N2  UNL     1      16.152  20.910  37.115  1.00  0.00    -0.274 N 
ATOM     12  H2  UNL     1      15.798  21.643  36.500  1.00  0.00     0.189 HD
BRANCH  11  13
HETATM   13  C3  UNL     1      15.326  20.651  38.195  1.00  0.00     0.186 C 
HETATM   14  S1  UNL     1      15.856  21.332  39.651  1.00  0.00    -0.040 SA
BRANCH  13  15
HETATM   15  N1  UNL     1      14.143  19.931  38.319  1.00  0.00    -0.366 N 
ATOM     16  H1  UNL     1      13.289  20.472  38.459  1.00  0.00     0.161 HD
BRANCH  15  17
HETATM   17  C2  UNL     1      14.003  18.520  38.268  1.00  0.00     0.117 C 
HETATM   18  C1  UNL     1      14.111  17.879  39.644  1.00  0.00     0.026 C 
ENDBRANCH  15  17
ENDBRANCH  13  15
ENDBRANCH  11  13
ENDBRANCH   8  11
ENDBRANCH   6   7
BRANCH   6  19
HETATM   19  C20 UNL     1      19.688  18.973  35.432  1.00  0.00     0.010 C 
HETATM   20  C21 UNL     1      20.740  19.113  36.549  1.00  0.00     0.012 C 
HETATM   21  C22 UNL     1      20.389  18.152  34.357  1.00  0.00     0.012 C 
ENDBRANCH   6  19
ENDBRANCH   4   6
ENDBRANCH   1   4
BRANCH   1  22
HETATM   22  C6  UNL     1      22.951  20.960  34.058  1.00  0.00     0.166 C 
BRANCH  22  23
HETATM   23  C7  UNL     1      23.633  21.362  35.301  1.00  0.00     0.043 C 
BRANCH  23  24
HETATM   24  C8  UNL     1      23.826  20.295  36.300  1.00  0.00    -0.030 C 
BRANCH  24  25
HETATM   25  C9  UNL     1      24.096  20.527  37.709  1.00  0.00    -0.029 C 
BRANCH  25  26
HETATM   26  C10 UNL     1      23.698  19.571  38.760  1.00  0.00     0.046 C 
BRANCH  26  27
HETATM   27  C11 UNL     1      24.833  18.562  39.032  1.00  0.00     0.126 C 
BRANCH  27  28
HETATM   28  N5  UNL     1      24.833  17.445  38.167  1.00  0.00    -0.361 N 
HETATM   29  C12 UNL     1      25.977  17.001  37.469  1.00  0.00     0.217 C 
HETATM   30  O4  UNL     1      27.111  17.546  37.541  1.00  0.00    -0.274 OA
ATOM     31  H5  UNL     1      23.960  16.933  38.039  1.00  0.00     0.162 HD
BRANCH  29  32
HETATM   32  C13 UNL     1      25.860  15.803  36.581  1.00  0.00     0.107 C 
BRANCH  32  33
HETATM   33  C14 UNL     1      25.233  14.664  37.341  1.00  0.00    -0.006 C 
HETATM   34  C15 UNL     1      26.283  13.750  37.913  1.00  0.00     0.005 C 
HETATM   35  C16 UNL     1      25.579  12.683  38.737  1.00  0.00     0.000 C 
HETATM   36  C17 UNL     1      24.893  11.775  37.738  1.00  0.00     0.000 C 
HETATM   37  C18 UNL     1      24.733  12.442  36.409  1.00  0.00     0.000 C 
HETATM   38  C19 UNL     1      24.281  13.870  36.496  1.00  0.00     0.005 C 
ENDBRANCH  32  33
ENDBRANCH  29  32
ENDBRANCH  27  28
ENDBRANCH  26  27
ENDBRANCH  25  26
ENDBRANCH  24  25
ENDBRANCH  23  24
ENDBRANCH  22  23
ENDBRANCH   1  22
TORSDOF 17
ENDMDL
MODEL 5
REMARK VINA RESULT: -9.166420506      1.984      3.375
REMARK  17 active torsions:
REMARK  status: ('A' for Active; 'I' for Inactive)
REMARK    1  A    between atoms: C2_2  and  N1_3 
REMARK    2  A    between atoms: N1_3  and  C3_5 
REMARK    3  A    between atoms: C3_5  and  N2_7 
REMARK    4  A    between atoms: N2_7  and  N3_9 
REMARK       I    between atoms: N3_9  and  C4_11 
REMARK    5  A    between atoms: C4_11  and  C5_13 
REMARK    6  A    between atoms: C5_13  and  N4_14 
REMARK    7  A    between atoms: C5_13  and  C20_36 
REMARK    8  A    between atoms: N4_14  and  S2_16 
REMARK    9  A    between atoms: S2_16  and  C6_19 
REMARK   10  A    between atoms: C6_19  and  C7_20 
REMARK   11  A    between atoms: C7_20  and  C8_21 
REMARK   12  A    between atoms: C8_21  and  C9_22 
REMARK   13  A    between atoms: C9_22  and  C10_23 
REMARK   14  A    between atoms: C10_23  and  C11_24 
REMARK   15  A    between atoms: C11_24  and  N5_25 
REMARK       I    between atoms: N5_25  and  C12_27 
REMARK   16  A    between atoms: C12_27  and  C13_29 
REMARK   17  A    between atoms: C13_29  and  C14_30 
ROOT
HETATM    1  S2  UNL     1      21.089  17.509  34.131  1.00  0.00     0.227 S 
HETATM    2  O2  UNL     1      22.040  16.883  33.152  1.00  0.00    -0.206 OA
HETATM    3  O3  UNL     1      19.800  16.695  34.179  1.00  0.00    -0.206 OA
ENDROOT
BRANCH   1   4
HETATM    4  N4  UNL     1      20.811  19.145  33.898  1.00  0.00    -0.305 N 
ATOM      5  H4  UNL     1      20.663  19.533  32.966  1.00  0.00     0.173 HD
BRANCH   4   6
HETATM    6  C5  UNL     1      20.788  19.983  35.081  1.00  0.00     0.189 C 
BRANCH   6   7
HETATM    7  C4  UNL     1      19.424  20.282  35.472  1.00  0.00     0.259 C 
HETATM    8  N3  UNL     1      18.894  20.596  36.742  1.00  0.00    -0.266 N 
ATOM      9  H3  UNL     1      19.531  20.650  37.536  1.00  0.00     0.190 HD
HETATM   10  O1  UNL     1      18.545  20.258  34.527  1.00  0.00    -0.269 OA
BRANCH   8  11
HETATM   11  N2  UNL     1      17.545  20.833  36.956  1.00  0.00    -0.274 N 
ATOM     12  H2  UNL     1      17.168  21.586  36.380  1.00  0.00     0.189 HD
BRANCH  11  13
HETATM   13  C3  UNL     1      16.605  20.255  37.792  1.00  0.00     0.186 C 
HETATM   14  S1  UNL     1      16.731  20.736  39.409  1.00  0.00    -0.040 SA
BRANCH  13  15
HETATM   15  N1  UNL     1      15.577  19.348  37.561  1.00  0.00    -0.366 N 
ATOM     16  H1  UNL     1      15.698  18.707  36.776  1.00  0.00     0.161 HD
BRANCH  15  17
HETATM   17  C2  UNL     1      14.377  19.224  38.308  1.00  0.00     0.117 C 
HETATM   18  C1  UNL     1      14.143  17.801  38.792  1.00  0.00     0.026 C 
ENDBRANCH  15  17
ENDBRANCH  13  15
ENDBRANCH  11  13
ENDBRANCH   8  11
ENDBRANCH   6   7
BRANCH   6  19
HETATM   19  C20 UNL     1      21.632  21.225  34.854  1.00  0.00     0.010 C 
HETATM   20  C21 UNL     1      21.488  21.679  33.389  1.00  0.00     0.012 C 
HETATM   21  C22 UNL     1      23.124  20.971  35.024  1.00  0.00     0.012 C 
ENDBRANCH   6  19
ENDBRANCH   4   6
ENDBRANCH   1   4
BRANCH   1  22
HETATM   22  C6  UNL     1      21.833  17.214  35.754  1.00  0.00     0.166 C 
BRANCH  22  23
HETATM   23  C7  UNL     1      22.747  16.058  35.750  1.00  0.00     0.043 C 
BRANCH  23  24
HETATM   24  C8  UNL     1      24.041  16.262  36.426  1.00  0.00    -0.030 C 
BRANCH  24  25
HETATM   25  C9  UNL     1      24.562  15.406  37.479  1.00  0.00    -0.029 C 
BRANCH  25  26
HETATM   26  C10 UNL     1      25.261  15.942  38.663  1.00  0.00     0.046 C 
BRANCH  26  27
HETATM   27  C11 UNL     1      25.832  17.344  38.366  1.00  0.00     0.126 C 
BRANCH  27  28
HETATM   28  N5  UNL     1      25.468  18.329  39.310  1.00  0.00    -0.361 N 
HETATM   29  C12 UNL     1      24.324  19.146  39.181  1.00  0.00     0.217 C 
HETATM   30  O4  UNL     1      23.512  19.087  38.220  1.00  0.00    -0.274 OA
ATOM     31  H5  UNL     1      26.063  18.457  40.129  1.00  0.00     0.162 HD
BRANCH  29  32
HETATM   32  C13 UNL     1      24.036  20.155  40.246  1.00  0.00     0.107 C 
BRANCH  32  33
HETATM   33  C14 UNL     1      23.431  19.474  41.445  1.00  0.00    -0.006 C 
HETATM   34  C15 UNL     1      22.294  20.281  42.013  1.00  0.00     0.005 C 
HETATM   35  C16 UNL     1      21.680  19.489  43.157  1.00  0.00     0.000 C 
HETATM   36  C17 UNL     1      22.689  19.544  44.285  1.00  0.00     0.000 C 
HETATM   37  C18 UNL     1      24.051  19.906  43.787  1.00  0.00     0.000 C 
HETATM   38  C19 UNL     1      24.442  19.204  42.520  1.00  0.00     0.005 C 
ENDBRANCH  32  33
ENDBRANCH  29  32
ENDBRANCH  27  28
ENDBRANCH  26  27
ENDBRANCH  25  26
ENDBRANCH  24  25
ENDBRANCH  23  24
ENDBRANCH  22  23
ENDBRANCH   1  22
TORSDOF 17
ENDMDL
