MODEL 1
REMARK VINA RESULT: -10.186306568      0.000      0.000
REMARK  6 active torsions:
REMARK  status: ('A' for Active; 'I' for Inactive)
REMARK    1  A    between atoms: O1_2  and  C2_3 
REMARK    2  A    between atoms: C2_3  and  C3_4 
REMARK    3  A    between atoms: C13_22  and  N5_23 
REMARK    4  A    between atoms: N5_23  and  C14_25 
REMARK    5  A    between atoms: C18_31  and  C19_32 
REMARK    6  A    between atoms: C19_32  and  O2_33 
ROOT
HETATM    1  C3  UNL     1      17.805  10.144  13.564  1.00  0.00    -0.003 A 
HETATM    2  C4  UNL     1      17.627  10.592  12.246  1.00  0.00     0.100 A 
HETATM    3  N1  UNL     1      16.603   9.962  11.679  1.00  0.00    -0.351 N 
ATOM      4  H1  UNL     1      16.272  10.111  10.726  1.00  0.00     0.166 HD
HETATM    5  C5  UNL     1      16.072   9.098  12.560  1.00  0.00     0.119 A 
HETATM    6  N2  UNL     1      15.023   8.266  12.482  1.00  0.00    -0.338 N 
ATOM      7  H2  UNL     1      14.484   8.191  11.620  1.00  0.00     0.168 HD
HETATM    8  C6  UNL     1      14.695   7.535  13.554  1.00  0.00     0.182 A 
HETATM    9  N3  UNL     1      15.367   7.595  14.701  1.00  0.00    -0.351 N 
ATOM     10  H3  UNL     1      15.073   7.016  15.488  1.00  0.00     0.166 HD
HETATM   11  C7  UNL     1      16.457   8.432  14.839  1.00  0.00     0.058 A 
HETATM   12  C8  UNL     1      17.111   8.480  16.124  1.00  0.00    -0.006 A 
HETATM   13  C9  UNL     1      18.334   7.945  16.394  1.00  0.00     0.015 A 
HETATM   14  C10 UNL     1      18.962   7.990  17.623  1.00  0.00     0.016 A 
HETATM   15  C11 UNL     1      18.305   8.621  18.657  1.00  0.00     0.007 A 
HETATM   16  C12 UNL     1      18.909   8.680  19.896  1.00  0.00     0.120 A 
HETATM   17  N4  UNL     1      18.248   9.306  20.902  1.00  0.00    -0.201 N 
ATOM     18  H4  UNL     1      18.680   9.359  21.824  1.00  0.00     0.183 HD
HETATM   19  C13 UNL     1      17.040   9.858  20.714  1.00  0.00     0.683 A 
HETATM   20  N6  UNL     1      16.473   9.785  19.491  1.00  0.00    -0.191 N 
ATOM     21  H6  UNL     1      15.554  10.206  19.357  1.00  0.00     0.184 HD
HETATM   22  C21 UNL     1      17.060   9.183  18.441  1.00  0.00     0.061 A 
HETATM   23  C22 UNL     1      16.478   9.113  17.202  1.00  0.00     0.044 A 
HETATM   24  C23 UNL     1      16.817   9.196  13.755  1.00  0.00     0.045 A 
ENDROOT
BRANCH   1  25
HETATM   25  C2  UNL     1      18.856  10.535  14.500  1.00  0.00     0.208 C 
BRANCH  25  26
HETATM   26  O1  UNL     1      18.396  11.653  15.244  1.00  0.00    -0.391 OA
HETATM   27  C1  UNL     1      19.042  11.727  16.462  1.00  0.00     0.201 C 
ENDBRANCH  25  26
ENDBRANCH   1  25
BRANCH  19  28
HETATM   28  N5  UNL     1      16.435  10.442  21.674  1.00  0.00    -0.189 N 
ATOM     29  H5  UNL     1      16.622  10.151  22.634  1.00  0.00     0.184 HD
BRANCH  28  30
HETATM   30  C14 UNL     1      15.505  11.493  21.432  1.00  0.00     0.091 A 
HETATM   31  C15 UNL     1      15.900  12.661  20.815  1.00  0.00     0.078 A 
HETATM   32  C16 UNL     1      14.958  13.642  20.606  1.00  0.00     0.157 A 
HETATM   33  F1  UNL     1      15.323  14.797  20.002  1.00  0.00    -0.203 F 
HETATM   34  C17 UNL     1      13.646  13.438  21.016  1.00  0.00     0.166 A 
HETATM   35  F2  UNL     1      12.744  14.413  20.800  1.00  0.00    -0.202 F 
HETATM   36  C18 UNL     1      13.253  12.273  21.631  1.00  0.00     0.048 A 
HETATM   37  C20 UNL     1      14.188  11.294  21.840  1.00  0.00     0.155 A 
HETATM   38  F3  UNL     1      13.848  10.128  22.443  1.00  0.00    -0.203 F 
BRANCH  36  39
HETATM   39  C19 UNL     1      11.848  12.054  22.071  1.00  0.00     0.209 C 
BRANCH  39  40
HETATM   40  O2  UNL     1      11.066  11.654  21.006  1.00  0.00    -0.396 OA
ATOM     41  H2  UNL     1      10.251  12.143  20.990  1.00  0.00     0.209 HD
ENDBRANCH  39  40
ENDBRANCH  36  39
ENDBRANCH  28  30
ENDBRANCH  19  28
TORSDOF 6
ENDMDL
MODEL 2
REMARK VINA RESULT: -9.550094179      2.255      3.825
REMARK  6 active torsions:
REMARK  status: ('A' for Active; 'I' for Inactive)
REMARK    1  A    between atoms: O1_2  and  C2_3 
REMARK    2  A    between atoms: C2_3  and  C3_4 
REMARK    3  A    between atoms: C13_22  and  N5_23 
REMARK    4  A    between atoms: N5_23  and  C14_25 
REMARK    5  A    between atoms: C18_31  and  C19_32 
REMARK    6  A    between atoms: C19_32  and  O2_33 
ROOT
HETATM    1  C3  UNL     1      17.198   7.908  13.644  1.00  0.00    -0.003 A 
HETATM    2  C4  UNL     1      16.901   6.698  12.998  1.00  0.00     0.100 A 
HETATM    3  N1  UNL     1      17.573   5.698  13.563  1.00  0.00    -0.351 N 
ATOM      4  H1  UNL     1      17.529   4.721  13.275  1.00  0.00     0.166 HD
HETATM    5  C5  UNL     1      18.318   6.179  14.571  1.00  0.00     0.119 A 
HETATM    6  N2  UNL     1      19.132   5.579  15.453  1.00  0.00    -0.338 N 
ATOM      7  H2  UNL     1      19.295   4.574  15.406  1.00  0.00     0.168 HD
HETATM    8  C6  UNL     1      19.726   6.321  16.394  1.00  0.00     0.182 A 
HETATM    9  N3  UNL     1      19.548   7.635  16.497  1.00  0.00    -0.351 N 
ATOM     10  H3  UNL     1      20.026   8.152  17.235  1.00  0.00     0.166 HD
HETATM   11  C7  UNL     1      18.723   8.307  15.616  1.00  0.00     0.058 A 
HETATM   12  C8  UNL     1      18.539   9.724  15.814  1.00  0.00    -0.006 A 
HETATM   13  C9  UNL     1      19.064  10.694  15.014  1.00  0.00     0.015 A 
HETATM   14  C10 UNL     1      18.889  12.052  15.201  1.00  0.00     0.016 A 
HETATM   15  C11 UNL     1      18.130  12.460  16.276  1.00  0.00     0.007 A 
HETATM   16  C12 UNL     1      17.939  13.809  16.486  1.00  0.00     0.120 A 
HETATM   17  N4  UNL     1      17.187  14.193  17.549  1.00  0.00    -0.201 N 
ATOM     18  H4  UNL     1      17.037  15.187  17.720  1.00  0.00     0.183 HD
HETATM   19  C13 UNL     1      16.637  13.296  18.382  1.00  0.00     0.683 A 
HETATM   20  N6  UNL     1      16.840  11.982  18.151  1.00  0.00    -0.191 N 
ATOM     21  H6  UNL     1      16.419  11.307  18.789  1.00  0.00     0.184 HD
HETATM   22  C21 UNL     1      17.571  11.519  17.122  1.00  0.00     0.061 A 
HETATM   23  C22 UNL     1      17.773  10.181  16.894  1.00  0.00     0.044 A 
HETATM   24  C23 UNL     1      18.097   7.572  14.639  1.00  0.00     0.045 A 
ENDROOT
BRANCH   1  25
HETATM   25  C2  UNL     1      16.722   9.243  13.289  1.00  0.00     0.208 C 
BRANCH  25  26
HETATM   26  O1  UNL     1      16.833   9.395  11.882  1.00  0.00    -0.391 OA
HETATM   27  C1  UNL     1      17.190  10.689  11.558  1.00  0.00     0.201 C 
ENDBRANCH  25  26
ENDBRANCH   1  25
BRANCH  19  28
HETATM   28  N5  UNL     1      15.933  13.678  19.376  1.00  0.00    -0.189 N 
ATOM     29  H5  UNL     1      15.739  14.672  19.499  1.00  0.00     0.184 HD
BRANCH  28  30
HETATM   30  C14 UNL     1      15.414  12.744  20.316  1.00  0.00     0.091 A 
HETATM   31  C15 UNL     1      16.213  11.755  20.848  1.00  0.00     0.078 A 
HETATM   32  C16 UNL     1      15.657  10.879  21.753  1.00  0.00     0.157 A 
HETATM   33  F1  UNL     1      16.423   9.900  22.289  1.00  0.00    -0.203 F 
HETATM   34  C17 UNL     1      14.320  11.009  22.107  1.00  0.00     0.166 A 
HETATM   35  F2  UNL     1      13.800  10.141  22.995  1.00  0.00    -0.202 F 
HETATM   36  C18 UNL     1      13.523  11.997  21.576  1.00  0.00     0.048 A 
HETATM   37  C20 UNL     1      14.074  12.870  20.676  1.00  0.00     0.155 A 
HETATM   38  F3  UNL     1      13.328  13.859  20.124  1.00  0.00    -0.203 F 
BRANCH  36  39
HETATM   39  C19 UNL     1      12.090  12.136  21.955  1.00  0.00     0.209 C 
BRANCH  39  40
HETATM   40  O2  UNL     1      11.277  11.654  20.950  1.00  0.00    -0.396 OA
ATOM     41  H2  UNL     1      10.469  12.153  20.908  1.00  0.00     0.209 HD
ENDBRANCH  39  40
ENDBRANCH  36  39
ENDBRANCH  28  30
ENDBRANCH  19  28
TORSDOF 6
ENDMDL
MODEL 3
REMARK VINA RESULT: -9.307042640      1.737      2.151
REMARK  6 active torsions:
REMARK  status: ('A' for Active; 'I' for Inactive)
REMARK    1  A    between atoms: O1_2  and  C2_3 
REMARK    2  A    between atoms: C2_3  and  C3_4 
REMARK    3  A    between atoms: C13_22  and  N5_23 
REMARK    4  A    between atoms: N5_23  and  C14_25 
REMARK    5  A    between atoms: C18_31  and  C19_32 
REMARK    6  A    between atoms: C19_32  and  O2_33 
ROOT
HETATM    1  C3  UNL     1      17.202   7.214  14.144  1.00  0.00    -0.003 A 
HETATM    2  C4  UNL     1      16.799   7.106  12.804  1.00  0.00     0.100 A 
HETATM    3  N1  UNL     1      15.948   6.094  12.660  1.00  0.00    -0.351 N 
ATOM      4  H1  UNL     1      15.512   5.810  11.783  1.00  0.00     0.166 HD
HETATM    5  C5  UNL     1      15.754   5.505  13.851  1.00  0.00     0.119 A 
HETATM    6  N2  UNL     1      14.974   4.481  14.231  1.00  0.00    -0.338 N 
ATOM      7  H2  UNL     1      14.409   3.979  13.547  1.00  0.00     0.168 HD
HETATM    8  C6  UNL     1      14.952   4.129  15.522  1.00  0.00     0.182 A 
HETATM    9  N3  UNL     1      15.672   4.750  16.452  1.00  0.00    -0.351 N 
ATOM     10  H3  UNL     1      15.617   4.441  17.422  1.00  0.00     0.166 HD
HETATM   11  C7  UNL     1      16.494   5.810  16.119  1.00  0.00     0.058 A 
HETATM   12  C8  UNL     1      17.211   6.466  17.185  1.00  0.00    -0.006 A 
HETATM   13  C9  UNL     1      18.553   6.364  17.396  1.00  0.00     0.015 A 
HETATM   14  C10 UNL     1      19.241   6.992  18.416  1.00  0.00     0.016 A 
HETATM   15  C11 UNL     1      18.522   7.780  19.287  1.00  0.00     0.007 A 
HETATM   16  C12 UNL     1      19.184   8.419  20.314  1.00  0.00     0.120 A 
HETATM   17  N4  UNL     1      18.459   9.192  21.162  1.00  0.00    -0.201 N 
ATOM     18  H4  UNL     1      18.933   9.670  21.927  1.00  0.00     0.183 HD
HETATM   19  C13 UNL     1      17.134   9.342  21.018  1.00  0.00     0.683 A 
HETATM   20  N6  UNL     1      16.512   8.705  20.004  1.00  0.00    -0.191 N 
ATOM     21  H6  UNL     1      15.504   8.824  19.902  1.00  0.00     0.184 HD
HETATM   22  C21 UNL     1      17.155   7.922  19.121  1.00  0.00     0.061 A 
HETATM   23  C22 UNL     1      16.517   7.278  18.092  1.00  0.00     0.044 A 
HETATM   24  C23 UNL     1      16.536   6.196  14.801  1.00  0.00     0.045 A 
ENDROOT
BRANCH   1  25
HETATM   25  C2  UNL     1      18.175   8.148  14.705  1.00  0.00     0.208 C 
BRANCH  25  26
HETATM   26  O1  UNL     1      17.483   9.317  15.118  1.00  0.00    -0.391 OA
HETATM   27  C1  UNL     1      18.191   9.981  16.101  1.00  0.00     0.201 C 
ENDBRANCH  25  26
ENDBRANCH   1  25
BRANCH  19  28
HETATM   28  N5  UNL     1      16.471  10.073  21.827  1.00  0.00    -0.189 N 
ATOM     29  H5  UNL     1      16.510   9.876  22.827  1.00  0.00     0.184 HD
BRANCH  28  30
HETATM   30  C14 UNL     1      15.678  11.160  21.361  1.00  0.00     0.091 A 
HETATM   31  C15 UNL     1      16.216  12.128  20.539  1.00  0.00     0.078 A 
HETATM   32  C16 UNL     1      15.402  13.156  20.119  1.00  0.00     0.157 A 
HETATM   33  F1  UNL     1      15.908  14.118  19.311  1.00  0.00    -0.203 F 
HETATM   34  C17 UNL     1      14.075  13.196  20.525  1.00  0.00     0.166 A 
HETATM   35  F2  UNL     1      13.300  14.211  20.100  1.00  0.00    -0.202 F 
HETATM   36  C18 UNL     1      13.539  12.230  21.344  1.00  0.00     0.048 A 
HETATM   37  C20 UNL     1      14.345  11.206  21.764  1.00  0.00     0.155 A 
HETATM   38  F3  UNL     1      13.863  10.230  22.574  1.00  0.00    -0.203 F 
BRANCH  36  39
HETATM   39  C19 UNL     1      12.116  12.272  21.780  1.00  0.00     0.209 C 
BRANCH  39  40
HETATM   40  O2  UNL     1      11.320  11.574  20.896  1.00  0.00    -0.396 OA
ATOM     41  H2  UNL     1      10.876  12.171  20.306  1.00  0.00     0.209 HD
ENDBRANCH  39  40
ENDBRANCH  36  39
ENDBRANCH  28  30
ENDBRANCH  19  28
TORSDOF 6
ENDMDL
MODEL 4
REMARK VINA RESULT: -9.137874080      5.192      8.167
REMARK  6 active torsions:
REMARK  status: ('A' for Active; 'I' for Inactive)
REMARK    1  A    between atoms: O1_2  and  C2_3 
REMARK    2  A    between atoms: C2_3  and  C3_4 
REMARK    3  A    between atoms: C13_22  and  N5_23 
REMARK    4  A    between atoms: N5_23  and  C14_25 
REMARK    5  A    between atoms: C18_31  and  C19_32 
REMARK    6  A    between atoms: C19_32  and  O2_33 
ROOT
HETATM    1  C3  UNL     1      19.022   2.164  15.685  1.00  0.00    -0.003 A 
HETATM    2  C4  UNL     1      19.907   1.158  16.104  1.00  0.00     0.100 A 
HETATM    3  N1  UNL     1      20.324   0.448  15.060  1.00  0.00    -0.351 N 
ATOM      4  H1  UNL     1      20.972  -0.339  15.102  1.00  0.00     0.166 HD
HETATM    5  C5  UNL     1      19.758   0.930  13.941  1.00  0.00     0.119 A 
HETATM    6  N2  UNL     1      19.881   0.584  12.651  1.00  0.00    -0.338 N 
ATOM      7  H2  UNL     1      20.476  -0.198  12.379  1.00  0.00     0.168 HD
HETATM    8  C6  UNL     1      19.211   1.282  11.727  1.00  0.00     0.182 A 
HETATM    9  N3  UNL     1      18.422   2.309  12.030  1.00  0.00    -0.351 N 
ATOM     10  H3  UNL     1      17.934   2.806  11.286  1.00  0.00     0.166 HD
HETATM   11  C7  UNL     1      18.255   2.708  13.342  1.00  0.00     0.058 A 
HETATM   12  C8  UNL     1      17.421   3.858  13.594  1.00  0.00    -0.006 A 
HETATM   13  C9  UNL     1      16.180   3.809  14.156  1.00  0.00     0.015 A 
HETATM   14  C10 UNL     1      15.380   4.909  14.398  1.00  0.00     0.016 A 
HETATM   15  C11 UNL     1      15.867   6.149  14.048  1.00  0.00     0.007 A 
HETATM   16  C12 UNL     1      15.089   7.263  14.279  1.00  0.00     0.120 A 
HETATM   17  N4  UNL     1      15.586   8.476  13.927  1.00  0.00    -0.201 N 
ATOM     18  H4  UNL     1      15.023   9.311  14.091  1.00  0.00     0.183 HD
HETATM   19  C13 UNL     1      16.799   8.605  13.370  1.00  0.00     0.683 A 
HETATM   20  N6  UNL     1      17.539   7.497  13.156  1.00  0.00    -0.191 N 
ATOM     21  H6  UNL     1      18.460   7.604  12.731  1.00  0.00     0.184 HD
HETATM   22  C21 UNL     1      17.122   6.259  13.474  1.00  0.00     0.061 A 
HETATM   23  C22 UNL     1      17.879   5.137  13.253  1.00  0.00     0.044 A 
HETATM   24  C23 UNL     1      18.932   2.012  14.314  1.00  0.00     0.045 A 
ENDROOT
BRANCH   1  25
HETATM   25  C2  UNL     1      18.294   3.111  16.525  1.00  0.00     0.208 C 
BRANCH  25  26
HETATM   26  O1  UNL     1      19.058   4.304  16.615  1.00  0.00    -0.391 OA
HETATM   27  C1  UNL     1      18.256   5.370  16.977  1.00  0.00     0.201 C 
ENDBRANCH  25  26
ENDBRANCH   1  25
BRANCH  19  28
HETATM   28  N5  UNL     1      17.248   9.756  13.047  1.00  0.00    -0.189 N 
ATOM     29  H5  UNL     1      17.029  10.137  12.127  1.00  0.00     0.184 HD
BRANCH  28  30
HETATM   30  C14 UNL     1      18.047  10.517  13.946  1.00  0.00     0.091 A 
HETATM   31  C15 UNL     1      17.880  10.406  15.311  1.00  0.00     0.078 A 
HETATM   32  C16 UNL     1      18.681  11.166  16.132  1.00  0.00     0.157 A 
HETATM   33  F1  UNL     1      18.536  11.074  17.475  1.00  0.00    -0.203 F 
HETATM   34  C17 UNL     1      19.629  12.017  15.577  1.00  0.00     0.166 A 
HETATM   35  F2  UNL     1      20.400  12.750  16.402  1.00  0.00    -0.202 F 
HETATM   36  C18 UNL     1      19.795  12.126  14.217  1.00  0.00     0.048 A 
HETATM   37  C20 UNL     1      19.000  11.372  13.396  1.00  0.00     0.155 A 
HETATM   38  F3  UNL     1      19.126  11.446  12.048  1.00  0.00    -0.203 F 
BRANCH  36  39
HETATM   39  C19 UNL     1      20.810  13.039  13.622  1.00  0.00     0.209 C 
BRANCH  39  40
HETATM   40  O2  UNL     1      22.050  12.433  13.601  1.00  0.00    -0.396 OA
ATOM     41  H2  UNL     1      22.716  13.029  13.923  1.00  0.00     0.209 HD
ENDBRANCH  39  40
ENDBRANCH  36  39
ENDBRANCH  28  30
ENDBRANCH  19  28
TORSDOF 6
ENDMDL
MODEL 5
REMARK VINA RESULT: -8.929381611      5.413      9.242
REMARK  6 active torsions:
REMARK  status: ('A' for Active; 'I' for Inactive)
REMARK    1  A    between atoms: O1_2  and  C2_3 
REMARK    2  A    between atoms: C2_3  and  C3_4 
REMARK    3  A    between atoms: C13_22  and  N5_23 
REMARK    4  A    between atoms: N5_23  and  C14_25 
REMARK    5  A    between atoms: C18_31  and  C19_32 
REMARK    6  A    between atoms: C19_32  and  O2_33 
ROOT
HETATM    1  C3  UNL     1      16.587  12.453  18.683  1.00  0.00    -0.003 A 
HETATM    2  C4  UNL     1      16.178  13.779  18.899  1.00  0.00     0.100 A 
HETATM    3  N1  UNL     1      15.385  13.848  19.964  1.00  0.00    -0.351 N 
ATOM      4  H1  UNL     1      14.958  14.700  20.327  1.00  0.00     0.166 HD
HETATM    5  C5  UNL     1      15.235  12.620  20.486  1.00  0.00     0.119 A 
HETATM    6  N2  UNL     1      14.570  12.176  21.563  1.00  0.00    -0.338 N 
ATOM      7  H2  UNL     1      14.027  12.819  22.138  1.00  0.00     0.168 HD
HETATM    8  C6  UNL     1      14.631  10.875  21.871  1.00  0.00     0.182 A 
HETATM    9  N3  UNL     1      15.324   9.995  21.153  1.00  0.00    -0.351 N 
ATOM     10  H3  UNL     1      15.337   9.015  21.433  1.00  0.00     0.166 HD
HETATM   11  C7  UNL     1      16.027  10.395  20.032  1.00  0.00     0.058 A 
HETATM   12  C8  UNL     1      16.793   9.396  19.328  1.00  0.00    -0.006 A 
HETATM   13  C9  UNL     1      16.462   8.878  18.112  1.00  0.00     0.015 A 
HETATM   14  C10 UNL     1      17.195   7.923  17.435  1.00  0.00     0.016 A 
HETATM   15  C11 UNL     1      18.346   7.454  18.030  1.00  0.00     0.007 A 
HETATM   16  C12 UNL     1      19.096   6.500  17.377  1.00  0.00     0.120 A 
HETATM   17  N4  UNL     1      20.227   6.050  17.979  1.00  0.00    -0.201 N 
ATOM     18  H4  UNL     1      20.793   5.344  17.509  1.00  0.00     0.183 HD
HETATM   19  C13 UNL     1      20.618   6.512  19.175  1.00  0.00     0.683 A 
HETATM   20  N6  UNL     1      19.864   7.447  19.792  1.00  0.00    -0.191 N 
ATOM     21  H6  UNL     1      20.169   7.792  20.702  1.00  0.00     0.184 HD
HETATM   22  C21 UNL     1      18.731   7.944  19.266  1.00  0.00     0.061 A 
HETATM   23  C22 UNL     1      17.970   8.894  19.898  1.00  0.00     0.044 A 
HETATM   24  C23 UNL     1      15.984  11.725  19.692  1.00  0.00     0.045 A 
ENDROOT
BRANCH   1  25
HETATM   25  C2  UNL     1      17.405  11.945  17.584  1.00  0.00     0.208 C 
BRANCH  25  26
HETATM   26  O1  UNL     1      18.014  13.051  16.936  1.00  0.00    -0.391 OA
HETATM   27  C1  UNL     1      19.138  12.648  16.240  1.00  0.00     0.201 C 
ENDBRANCH  25  26
ENDBRANCH   1  25
BRANCH  19  28
HETATM   28  N5  UNL     1      21.685   6.076  19.723  1.00  0.00    -0.189 N 
ATOM     29  H5  UNL     1      22.168   6.657  20.410  1.00  0.00     0.184 HD
BRANCH  28  30
HETATM   30  C14 UNL     1      22.215   4.796  19.396  1.00  0.00     0.091 A 
HETATM   31  C15 UNL     1      21.523   3.643  19.701  1.00  0.00     0.078 A 
HETATM   32  C16 UNL     1      22.083   2.433  19.360  1.00  0.00     0.157 A 
HETATM   33  F1  UNL     1      21.421   1.288  19.649  1.00  0.00    -0.203 F 
HETATM   34  C17 UNL     1      23.318   2.399  18.725  1.00  0.00     0.166 A 
HETATM   35  F2  UNL     1      23.844   1.203  18.402  1.00  0.00    -0.202 F 
HETATM   36  C18 UNL     1      24.008   3.549  18.421  1.00  0.00     0.048 A 
HETATM   37  C20 UNL     1      23.453   4.755  18.758  1.00  0.00     0.155 A 
HETATM   38  F3  UNL     1      24.095   5.916  18.480  1.00  0.00    -0.203 F 
BRANCH  36  39
HETATM   39  C19 UNL     1      25.331   3.512  17.741  1.00  0.00     0.209 C 
BRANCH  39  40
HETATM   40  O2  UNL     1      25.169   3.500  16.370  1.00  0.00    -0.396 OA
ATOM     41  H2  UNL     1      25.395   4.346  16.002  1.00  0.00     0.209 HD
ENDBRANCH  39  40
ENDBRANCH  36  39
ENDBRANCH  28  30
ENDBRANCH  19  28
TORSDOF 6
ENDMDL
