MODEL 1
REMARK VINA RESULT: -8.731945934      0.000      0.000
REMARK  4 active torsions:
REMARK  status: ('A' for Active; 'I' for Inactive)
REMARK    1  A    between atoms: C5_11  and  N3_12 
REMARK    2  A    between atoms: N4_14  and  C6_16 
REMARK    3  A    between atoms: N5_22  and  C11_23 
REMARK    4  A    between atoms: C11_23  and  C12_24 
ROOT
HETATM    1  C6  UNL     1      17.171  11.303  18.360  1.00  0.00     0.124 A 
HETATM    2  C7  UNL     1      16.259  12.204  18.864  1.00  0.00     0.071 A 
HETATM    3  C8  UNL     1      16.450  13.414  18.257  1.00  0.00     0.037 A 
HETATM    4 BR1  UNL     1      15.481  15.051  18.547  1.00  0.00    -0.049 Br
HETATM    5  C9  UNL     1      17.501  13.226  17.371  1.00  0.00     0.027 A 
HETATM    6  C10 UNL     1      18.034  14.315  16.498  1.00  0.00     0.070 C 
HETATM    7  N5  UNL     1      17.920  11.950  17.450  1.00  0.00    -0.329 N 
ENDROOT
BRANCH   1   8
HETATM    8  N4  UNL     1      17.283   9.920  18.755  1.00  0.00    -0.285 N 
HETATM    9  N3  UNL     1      16.295   9.360  19.351  1.00  0.00    -0.292 N 
ATOM     10  H3  UNL     1      15.459   9.916  19.528  1.00  0.00     0.187 HD
ATOM     11  H4  UNL     1      18.137   9.395  18.562  1.00  0.00     0.188 HD
BRANCH   9  12
HETATM   12  C5  UNL     1      16.307   8.027  19.773  1.00  0.00     0.139 A 
HETATM   13  C2  UNL     1      16.286   7.709  21.106  1.00  0.00     0.043 A 
HETATM   14  C1  UNL     1      16.251   8.792  22.103  1.00  0.00     0.071 C 
HETATM   15  N1  UNL     1      16.299   6.393  21.474  1.00  0.00    -0.310 N 
HETATM   16  C3  UNL     1      16.330   5.428  20.551  1.00  0.00     0.327 A 
ATOM     17  H1  UNL     1      16.284   6.145  22.463  1.00  0.00     0.170 HD
HETATM   18  O1  UNL     1      16.341   4.235  20.926  1.00  0.00    -0.247 OA
HETATM   19  N2  UNL     1      16.351   5.730  19.242  1.00  0.00    -0.273 N 
HETATM   20  C4  UNL     1      16.340   7.013  18.856  1.00  0.00     0.279 A 
ATOM     21  H2  UNL     1      16.376   4.985  18.545  1.00  0.00     0.173 HD
HETATM   22  O2  UNL     1      16.359   7.316  17.637  1.00  0.00    -0.265 OA
ENDBRANCH   9  12
ENDBRANCH   1   8
BRANCH   7  23
HETATM   23  C11 UNL     1      18.991  11.346  16.695  1.00  0.00     0.187 C 
BRANCH  23  24
HETATM   24  C12 UNL     1      18.484  10.639  15.483  1.00  0.00     0.030 A 
HETATM   25  C13 UNL     1      18.420   9.253  15.306  1.00  0.00     0.054 A 
HETATM   26  C14 UNL     1      17.895   8.984  14.061  1.00  0.00     0.074 A 
HETATM   27 CL1  UNL     1      17.614   7.411  13.363  1.00  0.00    -0.081 Cl
HETATM   28  C15 UNL     1      17.638  10.195  13.477  1.00  0.00     0.125 A 
HETATM   29 CL2  UNL     1      16.951  10.432  11.860  1.00  0.00    -0.063 Cl
HETATM   30  N6  UNL     1      17.996  11.155  14.344  1.00  0.00    -0.347 N 
ATOM     31  H6  UNL     1      17.909  12.154  14.160  1.00  0.00     0.167 HD
ENDBRANCH  23  24
ENDBRANCH   7  23
TORSDOF 4
ENDMDL
MODEL 2
REMARK VINA RESULT: -8.655619914      3.948      7.154
REMARK  4 active torsions:
REMARK  status: ('A' for Active; 'I' for Inactive)
REMARK    1  A    between atoms: C5_11  and  N3_12 
REMARK    2  A    between atoms: N4_14  and  C6_16 
REMARK    3  A    between atoms: N5_22  and  C11_23 
REMARK    4  A    between atoms: C11_23  and  C12_24 
ROOT
HETATM    1  C6  UNL     1      17.752   8.469  18.179  1.00  0.00     0.124 A 
HETATM    2  C7  UNL     1      17.304   7.215  17.824  1.00  0.00     0.071 A 
HETATM    3  C8  UNL     1      16.524   6.721  18.833  1.00  0.00     0.037 A 
HETATM    4 BR1  UNL     1      15.622   5.024  18.911  1.00  0.00    -0.049 Br
HETATM    5  C9  UNL     1      16.509   7.706  19.810  1.00  0.00     0.027 A 
HETATM    6  C10 UNL     1      15.762   7.566  21.096  1.00  0.00     0.070 C 
HETATM    7  N5  UNL     1      17.254   8.748  19.396  1.00  0.00    -0.329 N 
ENDROOT
BRANCH   1   8
HETATM    8  N4  UNL     1      18.602   9.310  17.372  1.00  0.00    -0.285 N 
HETATM    9  N3  UNL     1      18.081   9.987  16.416  1.00  0.00    -0.292 N 
ATOM     10  H3  UNL     1      17.077   9.907  16.256  1.00  0.00     0.187 HD
ATOM     11  H4  UNL     1      19.603   9.365  17.560  1.00  0.00     0.188 HD
BRANCH   9  12
HETATM   12  C5  UNL     1      18.820  10.830  15.579  1.00  0.00     0.139 A 
HETATM   13  C2  UNL     1      18.951  10.557  14.241  1.00  0.00     0.043 A 
HETATM   14  C1  UNL     1      18.301   9.359  13.685  1.00  0.00     0.071 C 
HETATM   15  N1  UNL     1      19.682  11.407  13.461  1.00  0.00    -0.310 N 
HETATM   16  C3  UNL     1      20.262  12.489  13.988  1.00  0.00     0.327 A 
ATOM     17  H1  UNL     1      19.786  11.214  12.465  1.00  0.00     0.170 HD
HETATM   18  O1  UNL     1      20.924  13.243  13.242  1.00  0.00    -0.247 OA
HETATM   19  N2  UNL     1      20.140  12.764  15.297  1.00  0.00    -0.273 N 
HETATM   20  C4  UNL     1      19.428  11.945  16.085  1.00  0.00     0.279 A 
ATOM     21  H2  UNL     1      20.587  13.592  15.690  1.00  0.00     0.173 HD
HETATM   22  O2  UNL     1      19.302  12.185  17.311  1.00  0.00    -0.265 OA
ENDBRANCH   9  12
ENDBRANCH   1   8
BRANCH   7  23
HETATM   23  C11 UNL     1      17.496   9.975  20.116  1.00  0.00     0.187 C 
BRANCH  23  24
HETATM   24  C12 UNL     1      16.624  11.083  19.630  1.00  0.00     0.030 A 
HETATM   25  C13 UNL     1      15.235  11.162  19.778  1.00  0.00     0.054 A 
HETATM   26  C14 UNL     1      14.789  12.330  19.201  1.00  0.00     0.074 A 
HETATM   27 CL1  UNL     1      13.140  12.893  19.119  1.00  0.00    -0.081 Cl
HETATM   28  C15 UNL     1      15.894  12.966  18.702  1.00  0.00     0.125 A 
HETATM   29 CL2  UNL     1      15.890  14.520  17.852  1.00  0.00    -0.063 Cl
HETATM   30  N6  UNL     1      16.964  12.202  18.972  1.00  0.00    -0.347 N 
ATOM     31  H6  UNL     1      17.920  12.443  18.710  1.00  0.00     0.167 HD
ENDBRANCH  23  24
ENDBRANCH   7  23
TORSDOF 4
ENDMDL
MODEL 3
REMARK VINA RESULT: -8.612974579      1.162      1.765
REMARK  4 active torsions:
REMARK  status: ('A' for Active; 'I' for Inactive)
REMARK    1  A    between atoms: C5_11  and  N3_12 
REMARK    2  A    between atoms: N4_14  and  C6_16 
REMARK    3  A    between atoms: N5_22  and  C11_23 
REMARK    4  A    between atoms: C11_23  and  C12_24 
ROOT
HETATM    1  C6  UNL     1      16.925  11.365  18.919  1.00  0.00     0.124 A 
HETATM    2  C7  UNL     1      15.973  12.299  19.265  1.00  0.00     0.071 A 
HETATM    3  C8  UNL     1      16.164  13.427  18.515  1.00  0.00     0.037 A 
HETATM    4 BR1  UNL     1      15.150  15.061  18.552  1.00  0.00    -0.049 Br
HETATM    5  C9  UNL     1      17.257  13.155  17.704  1.00  0.00     0.027 A 
HETATM    6  C10 UNL     1      17.805  14.137  16.721  1.00  0.00     0.070 C 
HETATM    7  N5  UNL     1      17.699  11.911  17.964  1.00  0.00    -0.329 N 
ENDROOT
BRANCH   1   8
HETATM    8  N4  UNL     1      17.049  10.048  19.492  1.00  0.00    -0.285 N 
HETATM    9  N3  UNL     1      16.243   9.125  19.113  1.00  0.00    -0.292 N 
ATOM     10  H3  UNL     1      15.536   9.356  18.414  1.00  0.00     0.187 HD
ATOM     11  H4  UNL     1      17.767   9.853  20.190  1.00  0.00     0.188 HD
BRANCH   9  12
HETATM   12  C5  UNL     1      16.282   7.818  19.609  1.00  0.00     0.139 A 
HETATM   13  C2  UNL     1      16.437   6.748  18.766  1.00  0.00     0.043 A 
HETATM   14  C1  UNL     1      16.563   6.986  17.319  1.00  0.00     0.071 C 
HETATM   15  N1  UNL     1      16.469   5.489  19.294  1.00  0.00    -0.310 N 
HETATM   16  C3  UNL     1      16.353   5.297  20.611  1.00  0.00     0.327 A 
ATOM     17  H1  UNL     1      16.583   4.685  18.676  1.00  0.00     0.170 HD
HETATM   18  O1  UNL     1      16.387   4.130  21.057  1.00  0.00    -0.247 OA
HETATM   19  N2  UNL     1      16.201   6.340  21.445  1.00  0.00    -0.273 N 
HETATM   20  C4  UNL     1      16.165   7.586  20.952  1.00  0.00     0.279 A 
ATOM     21  H2  UNL     1      16.113   6.183  22.449  1.00  0.00     0.173 HD
HETATM   22  O2  UNL     1      16.024   8.574  21.715  1.00  0.00    -0.265 OA
ENDBRANCH   9  12
ENDBRANCH   1   8
BRANCH   7  23
HETATM   23  C11 UNL     1      18.815  11.244  17.337  1.00  0.00     0.187 C 
BRANCH  23  24
HETATM   24  C12 UNL     1      18.521  10.888  15.919  1.00  0.00     0.030 A 
HETATM   25  C13 UNL     1      17.655   9.877  15.487  1.00  0.00     0.054 A 
HETATM   26  C14 UNL     1      17.646   9.853  14.110  1.00  0.00     0.074 A 
HETATM   27 CL1  UNL     1      16.730   8.775  13.089  1.00  0.00    -0.081 Cl
HETATM   28  C15 UNL     1      18.499  10.841  13.697  1.00  0.00     0.125 A 
HETATM   29 CL2  UNL     1      18.862  11.247  12.011  1.00  0.00    -0.063 Cl
HETATM   30  N6  UNL     1      19.000  11.435  14.791  1.00  0.00    -0.347 N 
ATOM     31  H6  UNL     1      19.664  12.208  14.768  1.00  0.00     0.167 HD
ENDBRANCH  23  24
ENDBRANCH   7  23
TORSDOF 4
ENDMDL
MODEL 4
REMARK VINA RESULT: -8.602119495      3.942      6.857
REMARK  4 active torsions:
REMARK  status: ('A' for Active; 'I' for Inactive)
REMARK    1  A    between atoms: C5_11  and  N3_12 
REMARK    2  A    between atoms: N4_14  and  C6_16 
REMARK    3  A    between atoms: N5_22  and  C11_23 
REMARK    4  A    between atoms: C11_23  and  C12_24 
ROOT
HETATM    1  C6  UNL     1      16.720   8.547  18.784  1.00  0.00     0.124 A 
HETATM    2  C7  UNL     1      16.260   7.261  18.960  1.00  0.00     0.071 A 
HETATM    3  C8  UNL     1      16.171   7.001  20.300  1.00  0.00     0.037 A 
HETATM    4 BR1  UNL     1      15.593   5.378  21.157  1.00  0.00    -0.049 Br
HETATM    5  C9  UNL     1      16.589   8.161  20.934  1.00  0.00     0.027 A 
HETATM    6  C10 UNL     1      16.645   8.303  22.420  1.00  0.00     0.070 C 
HETATM    7  N5  UNL     1      16.915   9.078  20.004  1.00  0.00    -0.329 N 
ENDROOT
BRANCH   1   8
HETATM    8  N4  UNL     1      16.945   9.186  17.511  1.00  0.00    -0.285 N 
HETATM    9  N3  UNL     1      18.131   9.206  17.024  1.00  0.00    -0.292 N 
ATOM     10  H3  UNL     1      18.881   8.766  17.558  1.00  0.00     0.187 HD
ATOM     11  H4  UNL     1      16.171   9.616  17.004  1.00  0.00     0.188 HD
BRANCH   9  12
HETATM   12  C5  UNL     1      18.450   9.800  15.799  1.00  0.00     0.139 A 
HETATM   13  C2  UNL     1      18.712   9.035  14.692  1.00  0.00     0.043 A 
HETATM   14  C1  UNL     1      18.655   7.568  14.802  1.00  0.00     0.071 C 
HETATM   15  N1  UNL     1      19.020   9.656  13.515  1.00  0.00    -0.310 N 
HETATM   16  C3  UNL     1      19.065  10.989  13.439  1.00  0.00     0.327 A 
ATOM     17  H1  UNL     1      19.218   9.097  12.685  1.00  0.00     0.170 HD
HETATM   18  O1  UNL     1      19.351  11.522  12.345  1.00  0.00    -0.247 OA
HETATM   19  N2  UNL     1      18.810  11.747  14.519  1.00  0.00    -0.273 N 
HETATM   20  C4  UNL     1      18.506  11.161  15.686  1.00  0.00     0.279 A 
ATOM     21  H2  UNL     1      18.848  12.764  14.451  1.00  0.00     0.173 HD
HETATM   22  O2  UNL     1      18.264  11.852  16.706  1.00  0.00    -0.265 OA
ENDBRANCH   9  12
ENDBRANCH   1   8
BRANCH   7  23
HETATM   23  C11 UNL     1      17.395  10.418  20.245  1.00  0.00     0.187 C 
BRANCH  23  24
HETATM   24  C12 UNL     1      16.432  11.447  19.756  1.00  0.00     0.030 A 
HETATM   25  C13 UNL     1      15.049  11.447  19.971  1.00  0.00     0.054 A 
HETATM   26  C14 UNL     1      14.503  12.557  19.368  1.00  0.00     0.074 A 
HETATM   27 CL1  UNL     1      12.818  13.013  19.346  1.00  0.00    -0.081 Cl
HETATM   28  C15 UNL     1      15.540  13.237  18.787  1.00  0.00     0.125 A 
HETATM   29 CL2  UNL     1      15.396  14.748  17.873  1.00  0.00    -0.063 Cl
HETATM   30  N6  UNL     1      16.668  12.554  19.035  1.00  0.00    -0.347 N 
ATOM     31  H6  UNL     1      17.592  12.841  18.715  1.00  0.00     0.167 HD
ENDBRANCH  23  24
ENDBRANCH   7  23
TORSDOF 4
ENDMDL
MODEL 5
REMARK VINA RESULT: -8.554951522      3.916      6.982
REMARK  4 active torsions:
REMARK  status: ('A' for Active; 'I' for Inactive)
REMARK    1  A    between atoms: C5_11  and  N3_12 
REMARK    2  A    between atoms: N4_14  and  C6_16 
REMARK    3  A    between atoms: N5_22  and  C11_23 
REMARK    4  A    between atoms: C11_23  and  C12_24 
ROOT
HETATM    1  C6  UNL     1      16.775   8.529  18.609  1.00  0.00     0.124 A 
HETATM    2  C7  UNL     1      16.357   7.239  18.851  1.00  0.00     0.071 A 
HETATM    3  C8  UNL     1      16.243   7.056  20.202  1.00  0.00     0.037 A 
HETATM    4 BR1  UNL     1      15.701   5.467  21.142  1.00  0.00    -0.049 Br
HETATM    5  C9  UNL     1      16.602   8.268  20.774  1.00  0.00     0.027 A 
HETATM    6  C10 UNL     1      16.614   8.500  22.249  1.00  0.00     0.070 C 
HETATM    7  N5  UNL     1      16.919   9.139  19.798  1.00  0.00    -0.329 N 
ENDROOT
BRANCH   1   8
HETATM    8  N4  UNL     1      17.010   9.099  17.304  1.00  0.00    -0.285 N 
HETATM    9  N3  UNL     1      18.209   9.396  16.961  1.00  0.00    -0.292 N 
ATOM     10  H3  UNL     1      18.961   9.219  17.627  1.00  0.00     0.187 HD
ATOM     11  H4  UNL     1      16.232   9.263  16.664  1.00  0.00     0.188 HD
BRANCH   9  12
HETATM   12  C5  UNL     1      18.539   9.952  15.721  1.00  0.00     0.139 A 
HETATM   13  C2  UNL     1      18.799  11.292  15.596  1.00  0.00     0.043 A 
HETATM   14  C1  UNL     1      18.729  12.153  16.788  1.00  0.00     0.071 C 
HETATM   15  N1  UNL     1      19.117  11.793  14.365  1.00  0.00    -0.310 N 
HETATM   16  C3  UNL     1      19.175  10.993  13.297  1.00  0.00     0.327 A 
ATOM     17  H1  UNL     1      19.311  12.789  14.260  1.00  0.00     0.170 HD
HETATM   18  O1  UNL     1      19.468  11.487  12.187  1.00  0.00    -0.247 OA
HETATM   19  N2  UNL     1      18.921   9.678  13.410  1.00  0.00    -0.273 N 
HETATM   20  C4  UNL     1      18.606   9.162  14.607  1.00  0.00     0.279 A 
ATOM     21  H2  UNL     1      18.967   9.075  12.588  1.00  0.00     0.173 HD
HETATM   22  O2  UNL     1      18.366   7.936  14.733  1.00  0.00    -0.265 OA
ENDBRANCH   9  12
ENDBRANCH   1   8
BRANCH   7  23
HETATM   23  C11 UNL     1      17.343  10.508  19.968  1.00  0.00     0.187 C 
BRANCH  23  24
HETATM   24  C12 UNL     1      16.200  11.459  19.865  1.00  0.00     0.030 A 
HETATM   25  C13 UNL     1      16.257  12.764  19.363  1.00  0.00     0.054 A 
HETATM   26  C14 UNL     1      15.002  13.326  19.430  1.00  0.00     0.074 A 
HETATM   27 CL1  UNL     1      14.548  14.934  18.929  1.00  0.00    -0.081 Cl
HETATM   28  C15 UNL     1      14.177  12.375  19.970  1.00  0.00     0.125 A 
HETATM   29 CL2  UNL     1      12.444  12.573  20.279  1.00  0.00    -0.063 Cl
HETATM   30  N6  UNL     1      14.916  11.282  20.216  1.00  0.00    -0.347 N 
ATOM     31  H6  UNL     1      14.547  10.421  20.619  1.00  0.00     0.167 HD
ENDBRANCH  23  24
ENDBRANCH   7  23
TORSDOF 4
ENDMDL
