MODEL 1
REMARK VINA RESULT: -10.898564029      0.000      0.000
REMARK  4 active torsions:
REMARK  status: ('A' for Active; 'I' for Inactive)
REMARK    1  A    between atoms: O1_2  and  C2_3 
REMARK    2  A    between atoms: C4_5  and  C5_6 
REMARK    3  A    between atoms: C8_11  and  C9_12 
REMARK    4  A    between atoms: C18_27  and  C19_28 
ROOT
HETATM    1  C5  UNL     1      16.470  10.417  19.940  1.00  0.00     0.065 A 
HETATM    2  N1  UNL     1      17.037   9.232  20.315  1.00  0.00    -0.364 N 
ATOM      3  H1  UNL     1      16.629   8.729  21.103  1.00  0.00     0.165 HD
HETATM    4  C6  UNL     1      18.093   8.700  19.708  1.00  0.00     0.089 A 
HETATM    5  C7  UNL     1      18.704   9.333  18.622  1.00  0.00     0.031 A 
HETATM    6  C8  UNL     1      18.157  10.529  18.219  1.00  0.00     0.002 A 
HETATM    7  C15 UNL     1      17.064  11.049  18.873  1.00  0.00     0.083 A 
HETATM    8  C16 UNL     1      16.527  12.324  18.462  1.00  0.00     0.102 C 
HETATM    9  N2  UNL     1      16.110  13.370  18.144  1.00  0.00    -0.191 NA
ENDROOT
BRANCH   1  10
HETATM   10  C4  UNL     1      15.323  10.922  20.668  1.00  0.00     0.010 A 
HETATM   11  C3  UNL     1      14.553  11.990  20.268  1.00  0.00     0.054 A 
HETATM   12  C2  UNL     1      13.466  12.418  21.040  1.00  0.00     0.096 A 
HETATM   13  C18 UNL     1      13.143  11.784  22.215  1.00  0.00     0.077 A 
HETATM   14  N3  UNL     1      13.915  10.725  22.601  1.00  0.00    -0.362 N 
HETATM   15  C17 UNL     1      14.949  10.313  21.872  1.00  0.00     0.102 A 
ATOM     16  H3  UNL     1      13.693  10.238  23.470  1.00  0.00     0.165 HD
BRANCH  12  17
HETATM   17  O1  UNL     1      12.723  13.482  20.611  1.00  0.00    -0.354 OA
HETATM   18  C1  UNL     1      12.968  14.190  19.411  1.00  0.00     0.210 C 
ENDBRANCH  12  17
BRANCH  13  19
HETATM   19  C19 UNL     1      12.012  12.230  23.000  1.00  0.00     0.011 A 
HETATM   20  C20 UNL     1      10.807  12.558  22.417  1.00  0.00     0.103 A 
HETATM   21  N4  UNL     1       9.744  12.968  23.138  1.00  0.00    -0.350 N 
HETATM   22  C21 UNL     1       9.893  13.048  24.468  1.00  0.00     0.123 A 
ATOM     23  H4  UNL     1       8.860  13.207  22.689  1.00  0.00     0.166 HD
HETATM   24  N5  UNL     1       8.896  13.438  25.190  1.00  0.00    -0.384 N 
HETATM   25  C22 UNL     1      11.053  12.741  25.130  1.00  0.00     0.090 A 
ATOM     26  H52 UNL     1       8.033  13.666  24.697  1.00  0.00     0.157 HD
ATOM     27  H51 UNL     1       9.009  13.499  26.202  1.00  0.00     0.157 HD
HETATM   28  N6  UNL     1      11.159  12.844  26.543  1.00  0.00    -0.098 NA
HETATM   29  C23 UNL     1      12.135  12.321  24.366  1.00  0.00     0.045 A 
ENDBRANCH  13  19
ENDBRANCH   1  10
BRANCH   6  30
HETATM   30  C9  UNL     1      18.748  11.202  17.078  1.00  0.00     0.016 A 
HETATM   31  C10 UNL     1      19.729  12.150  17.150  1.00  0.00     0.042 A 
HETATM   32  C11 UNL     1      20.246  12.777  16.009  1.00  0.00     0.073 A 
HETATM   33 CL1  UNL     1      21.503  13.984  16.170  1.00  0.00    -0.081 Cl
HETATM   34  C12 UNL     1      19.728  12.406  14.788  1.00  0.00     0.141 A 
HETATM   35  F1  UNL     1      20.222  13.008  13.681  1.00  0.00    -0.204 F 
HETATM   36  C13 UNL     1      18.746  11.462  14.675  1.00  0.00     0.087 A 
HETATM   37  C14 UNL     1      18.258  10.862  15.820  1.00  0.00     0.130 A 
HETATM   38  F2  UNL     1      17.277   9.913  15.675  1.00  0.00    -0.205 F 
ENDBRANCH   6  30
TORSDOF 4
ENDMDL
MODEL 2
REMARK VINA RESULT: -10.456649127      2.226      3.430
REMARK  4 active torsions:
REMARK  status: ('A' for Active; 'I' for Inactive)
REMARK    1  A    between atoms: O1_2  and  C2_3 
REMARK    2  A    between atoms: C4_5  and  C5_6 
REMARK    3  A    between atoms: C8_11  and  C9_12 
REMARK    4  A    between atoms: C18_27  and  C19_28 
ROOT
HETATM    1  C5  UNL     1      15.948  11.981  19.054  1.00  0.00     0.065 A 
HETATM    2  N1  UNL     1      16.399  13.143  18.497  1.00  0.00    -0.364 N 
ATOM      3  H1  UNL     1      15.987  14.022  18.810  1.00  0.00     0.165 HD
HETATM    4  C6  UNL     1      17.349  13.190  17.567  1.00  0.00     0.089 A 
HETATM    5  C7  UNL     1      17.960  12.027  17.091  1.00  0.00     0.031 A 
HETATM    6  C8  UNL     1      17.527  10.838  17.632  1.00  0.00     0.002 A 
HETATM    7  C15 UNL     1      16.541  10.830  18.592  1.00  0.00     0.083 A 
HETATM    8  C16 UNL     1      16.072   9.572  19.121  1.00  0.00     0.102 C 
HETATM    9  N2  UNL     1      15.675   8.548  19.528  1.00  0.00    -0.191 NA
ENDROOT
BRANCH   1  10
HETATM   10  C4  UNL     1      14.902  12.028  20.057  1.00  0.00     0.010 A 
HETATM   11  C3  UNL     1      14.922  11.325  21.239  1.00  0.00     0.054 A 
HETATM   12  C2  UNL     1      13.862  11.422  22.148  1.00  0.00     0.096 A 
HETATM   13  C18 UNL     1      12.777  12.222  21.883  1.00  0.00     0.077 A 
HETATM   14  N3  UNL     1      12.770  12.916  20.707  1.00  0.00    -0.362 N 
HETATM   15  C17 UNL     1      13.774  12.827  19.838  1.00  0.00     0.102 A 
ATOM     16  H3  UNL     1      11.974  13.518  20.489  1.00  0.00     0.165 HD
BRANCH  12  17
HETATM   17  O1  UNL     1      13.916  10.709  23.313  1.00  0.00    -0.354 OA
HETATM   18  C1  UNL     1      14.845   9.673  23.567  1.00  0.00     0.210 C 
ENDBRANCH  12  17
BRANCH  13  19
HETATM   19  C19 UNL     1      11.691  12.322  22.835  1.00  0.00     0.011 A 
HETATM   20  C20 UNL     1      10.376  12.157  22.457  1.00  0.00     0.103 A 
HETATM   21  N4  UNL     1       9.357  12.241  23.335  1.00  0.00    -0.350 N 
HETATM   22  C21 UNL     1       9.663  12.496  24.615  1.00  0.00     0.123 A 
ATOM     23  H4  UNL     1       8.389  12.117  23.037  1.00  0.00     0.166 HD
HETATM   24  N5  UNL     1       8.712  12.584  25.484  1.00  0.00    -0.384 N 
HETATM   25  C22 UNL     1      10.941  12.673  25.078  1.00  0.00     0.090 A 
ATOM     26  H52 UNL     1       7.761  12.452  25.139  1.00  0.00     0.157 HD
ATOM     27  H51 UNL     1       8.945  12.778  26.458  1.00  0.00     0.157 HD
HETATM   28  N6  UNL     1      11.212  12.942  26.446  1.00  0.00    -0.098 NA
HETATM   29  C23 UNL     1      11.975  12.582  24.154  1.00  0.00     0.045 A 
ENDBRANCH  13  19
ENDBRANCH   1  10
BRANCH   6  30
HETATM   30  C9  UNL     1      18.156   9.612  17.182  1.00  0.00     0.016 A 
HETATM   31  C10 UNL     1      18.637   8.631  18.003  1.00  0.00     0.042 A 
HETATM   32  C11 UNL     1      19.251   7.475  17.505  1.00  0.00     0.073 A 
HETATM   33 CL1  UNL     1      19.846   6.257  18.610  1.00  0.00    -0.081 Cl
HETATM   34  C12 UNL     1      19.361   7.350  16.138  1.00  0.00     0.141 A 
HETATM   35  F1  UNL     1      19.954   6.236  15.648  1.00  0.00    -0.204 F 
HETATM   36  C13 UNL     1      18.892   8.309  15.284  1.00  0.00     0.087 A 
HETATM   37  C14 UNL     1      18.290   9.437  15.808  1.00  0.00     0.130 A 
HETATM   38  F2  UNL     1      17.823  10.380  14.924  1.00  0.00    -0.205 F 
ENDBRANCH   6  30
TORSDOF 4
ENDMDL
MODEL 3
REMARK VINA RESULT: -10.258780387      2.458      3.567
REMARK  4 active torsions:
REMARK  status: ('A' for Active; 'I' for Inactive)
REMARK    1  A    between atoms: O1_2  and  C2_3 
REMARK    2  A    between atoms: C4_5  and  C5_6 
REMARK    3  A    between atoms: C8_11  and  C9_12 
REMARK    4  A    between atoms: C18_27  and  C19_28 
ROOT
HETATM    1  C5  UNL     1      15.957  11.949  18.997  1.00  0.00     0.065 A 
HETATM    2  N1  UNL     1      16.436  13.110  18.459  1.00  0.00    -0.364 N 
ATOM      3  H1  UNL     1      16.045  13.993  18.788  1.00  0.00     0.165 HD
HETATM    4  C6  UNL     1      17.384  13.149  17.528  1.00  0.00     0.089 A 
HETATM    5  C7  UNL     1      17.965  11.980  17.030  1.00  0.00     0.031 A 
HETATM    6  C8  UNL     1      17.505  10.793  17.551  1.00  0.00     0.002 A 
HETATM    7  C15 UNL     1      16.522  10.792  18.514  1.00  0.00     0.083 A 
HETATM    8  C16 UNL     1      16.023   9.537  19.022  1.00  0.00     0.102 C 
HETATM    9  N2  UNL     1      15.602   8.517  19.412  1.00  0.00    -0.191 NA
ENDROOT
BRANCH   1  10
HETATM   10  C4  UNL     1      14.916  12.005  20.004  1.00  0.00     0.010 A 
HETATM   11  C3  UNL     1      14.939  11.308  21.190  1.00  0.00     0.054 A 
HETATM   12  C2  UNL     1      13.881  11.413  22.102  1.00  0.00     0.096 A 
HETATM   13  C18 UNL     1      12.797  12.212  21.836  1.00  0.00     0.077 A 
HETATM   14  N3  UNL     1      12.786  12.899  20.655  1.00  0.00    -0.362 N 
HETATM   15  C17 UNL     1      13.787  12.804  19.783  1.00  0.00     0.102 A 
ATOM     16  H3  UNL     1      11.991  13.500  20.436  1.00  0.00     0.165 HD
BRANCH  12  17
HETATM   17  O1  UNL     1      13.939  10.707  23.271  1.00  0.00    -0.354 OA
HETATM   18  C1  UNL     1      14.855   9.659  23.522  1.00  0.00     0.210 C 
ENDBRANCH  12  17
BRANCH  13  19
HETATM   19  C19 UNL     1      11.715  12.321  22.790  1.00  0.00     0.011 A 
HETATM   20  C20 UNL     1      10.398  12.160  22.417  1.00  0.00     0.103 A 
HETATM   21  N4  UNL     1       9.381  12.251  23.299  1.00  0.00    -0.350 N 
HETATM   22  C21 UNL     1       9.693  12.508  24.577  1.00  0.00     0.123 A 
ATOM     23  H4  UNL     1       8.412  12.130  23.004  1.00  0.00     0.166 HD
HETATM   24  N5  UNL     1       8.746  12.604  25.449  1.00  0.00    -0.384 N 
HETATM   25  C22 UNL     1      10.973  12.682  25.035  1.00  0.00     0.090 A 
ATOM     26  H52 UNL     1       7.792  12.475  25.107  1.00  0.00     0.157 HD
ATOM     27  H51 UNL     1       8.982  12.799  26.422  1.00  0.00     0.157 HD
HETATM   28  N6  UNL     1      11.250  12.954  26.402  1.00  0.00    -0.098 NA
HETATM   29  C23 UNL     1      12.004  12.583  24.108  1.00  0.00     0.045 A 
ENDBRANCH  13  19
ENDBRANCH   1  10
BRANCH   6  30
HETATM   30  C9  UNL     1      18.103   9.560  17.078  1.00  0.00     0.016 A 
HETATM   31  C10 UNL     1      17.988   9.070  15.808  1.00  0.00     0.042 A 
HETATM   32  C11 UNL     1      18.576   7.861  15.418  1.00  0.00     0.073 A 
HETATM   33 CL1  UNL     1      18.391   7.289  13.775  1.00  0.00    -0.081 Cl
HETATM   34  C12 UNL     1      19.289   7.163  16.368  1.00  0.00     0.141 A 
HETATM   35  F1  UNL     1      19.860   5.993  15.999  1.00  0.00    -0.204 F 
HETATM   36  C13 UNL     1      19.427   7.620  17.648  1.00  0.00     0.087 A 
HETATM   37  C14 UNL     1      18.835   8.818  18.001  1.00  0.00     0.130 A 
HETATM   38  F2  UNL     1      18.996   9.254  19.293  1.00  0.00    -0.205 F 
ENDBRANCH   6  30
TORSDOF 4
ENDMDL
MODEL 4
REMARK VINA RESULT: -9.920142972      4.745      9.763
REMARK  4 active torsions:
REMARK  status: ('A' for Active; 'I' for Inactive)
REMARK    1  A    between atoms: O1_2  and  C2_3 
REMARK    2  A    between atoms: C4_5  and  C5_6 
REMARK    3  A    between atoms: C8_11  and  C9_12 
REMARK    4  A    between atoms: C18_27  and  C19_28 
ROOT
HETATM    1  C5  UNL     1      14.703  11.611  19.895  1.00  0.00     0.065 A 
HETATM    2  N1  UNL     1      14.510  12.468  18.849  1.00  0.00    -0.364 N 
ATOM      3  H1  UNL     1      15.094  12.358  18.019  1.00  0.00     0.165 HD
HETATM    4  C6  UNL     1      13.602  13.439  18.855  1.00  0.00     0.089 A 
HETATM    5  C7  UNL     1      12.767  13.648  19.956  1.00  0.00     0.031 A 
HETATM    6  C8  UNL     1      12.936  12.802  21.027  1.00  0.00     0.002 A 
HETATM    7  C15 UNL     1      13.888  11.809  20.984  1.00  0.00     0.083 A 
HETATM    8  C16 UNL     1      14.079  10.955  22.131  1.00  0.00     0.102 C 
HETATM    9  N2  UNL     1      14.249  10.281  23.073  1.00  0.00    -0.191 NA
ENDROOT
BRANCH   1  10
HETATM   10  C4  UNL     1      15.724  10.586  19.800  1.00  0.00     0.010 A 
HETATM   11  C3  UNL     1      15.612   9.322  20.328  1.00  0.00     0.054 A 
HETATM   12  C2  UNL     1      16.655   8.396  20.199  1.00  0.00     0.096 A 
HETATM   13  C18 UNL     1      17.815   8.729  19.541  1.00  0.00     0.077 A 
HETATM   14  N3  UNL     1      17.913   9.987  19.020  1.00  0.00    -0.362 N 
HETATM   15  C17 UNL     1      16.926  10.872  19.140  1.00  0.00     0.102 A 
ATOM     16  H3  UNL     1      18.765  10.256  18.526  1.00  0.00     0.165 HD
BRANCH  12  17
HETATM   17  O1  UNL     1      16.508   7.148  20.736  1.00  0.00    -0.354 OA
HETATM   18  C1  UNL     1      15.504   6.230  20.350  1.00  0.00     0.210 C 
ENDBRANCH  12  17
BRANCH  13  19
HETATM   19  C19 UNL     1      18.882   7.761  19.405  1.00  0.00     0.011 A 
HETATM   20  C20 UNL     1      20.046   7.855  20.136  1.00  0.00     0.103 A 
HETATM   21  N4  UNL     1      21.045   6.956  20.023  1.00  0.00    -0.350 N 
HETATM   22  C21 UNL     1      20.871   5.945  19.160  1.00  0.00     0.123 A 
ATOM     23  H4  UNL     1      21.900   7.043  20.572  1.00  0.00     0.166 HD
HETATM   24  N5  UNL     1      21.807   5.066  19.025  1.00  0.00    -0.384 N 
HETATM   25  C22 UNL     1      19.747   5.774  18.395  1.00  0.00     0.090 A 
ATOM     26  H52 UNL     1      22.643   5.193  19.595  1.00  0.00     0.157 HD
ATOM     27  H51 UNL     1      21.674   4.295  18.369  1.00  0.00     0.157 HD
HETATM   28  N6  UNL     1      19.613   4.683  17.494  1.00  0.00    -0.098 NA
HETATM   29  C23 UNL     1      18.731   6.713  18.529  1.00  0.00     0.045 A 
ENDBRANCH  13  19
ENDBRANCH   1  10
BRANCH   6  30
HETATM   30  C9  UNL     1      12.070  12.972  22.177  1.00  0.00     0.016 A 
HETATM   31  C10 UNL     1      11.038  12.140  22.510  1.00  0.00     0.042 A 
HETATM   32  C11 UNL     1      10.226  12.370  23.627  1.00  0.00     0.073 A 
HETATM   33 CL1  UNL     1       8.919  11.267  23.999  1.00  0.00    -0.081 Cl
HETATM   34  C12 UNL     1      10.499  13.478  24.398  1.00  0.00     0.141 A 
HETATM   35  F1  UNL     1       9.718  13.707  25.479  1.00  0.00    -0.204 F 
HETATM   36  C13 UNL     1      11.523  14.332  24.098  1.00  0.00     0.087 A 
HETATM   37  C14 UNL     1      12.306  14.077  22.989  1.00  0.00     0.130 A 
HETATM   38  F2  UNL     1      13.331  14.950  22.717  1.00  0.00    -0.205 F 
ENDBRANCH   6  30
TORSDOF 4
ENDMDL
MODEL 5
REMARK VINA RESULT: -9.864722731      2.854      4.073
REMARK  4 active torsions:
REMARK  status: ('A' for Active; 'I' for Inactive)
REMARK    1  A    between atoms: O1_2  and  C2_3 
REMARK    2  A    between atoms: C4_5  and  C5_6 
REMARK    3  A    between atoms: C8_11  and  C9_12 
REMARK    4  A    between atoms: C18_27  and  C19_28 
ROOT
HETATM    1  C5  UNL     1      16.648  10.416  19.090  1.00  0.00     0.065 A 
HETATM    2  N1  UNL     1      17.462  11.340  18.500  1.00  0.00    -0.364 N 
ATOM      3  H1  UNL     1      17.246  12.329  18.630  1.00  0.00     0.165 HD
HETATM    4  C6  UNL     1      18.521  11.020  17.763  1.00  0.00     0.089 A 
HETATM    5  C7  UNL     1      18.878   9.686  17.542  1.00  0.00     0.031 A 
HETATM    6  C8  UNL     1      18.078   8.730  18.123  1.00  0.00     0.002 A 
HETATM    7  C15 UNL     1      16.989   9.101  18.878  1.00  0.00     0.083 A 
HETATM    8  C16 UNL     1      16.137   8.085  19.448  1.00  0.00     0.102 C 
HETATM    9  N2  UNL     1      15.433   7.258  19.886  1.00  0.00    -0.191 NA
ENDROOT
BRANCH   1  10
HETATM   10  C4  UNL     1      15.510  10.861  19.870  1.00  0.00     0.010 A 
HETATM   11  C3  UNL     1      14.645  11.861  19.488  1.00  0.00     0.054 A 
HETATM   12  C2  UNL     1      13.575  12.235  20.311  1.00  0.00     0.096 A 
HETATM   13  C18 UNL     1      13.363  11.613  21.518  1.00  0.00     0.077 A 
HETATM   14  N3  UNL     1      14.228  10.622  21.884  1.00  0.00    -0.362 N 
HETATM   15  C17 UNL     1      15.247  10.262  21.108  1.00  0.00     0.102 A 
ATOM     16  H3  UNL     1      14.089  10.145  22.776  1.00  0.00     0.165 HD
BRANCH  12  17
HETATM   17  O1  UNL     1      12.736  13.232  19.899  1.00  0.00    -0.354 OA
HETATM   18  C1  UNL     1      13.154  14.375  19.179  1.00  0.00     0.210 C 
ENDBRANCH  12  17
BRANCH  13  19
HETATM   19  C19 UNL     1      12.248  12.001  22.355  1.00  0.00     0.011 A 
HETATM   20  C20 UNL     1      10.964  12.084  21.862  1.00  0.00     0.103 A 
HETATM   21  N4  UNL     1       9.916  12.438  22.633  1.00  0.00    -0.350 N 
HETATM   22  C21 UNL     1      10.162  12.712  23.922  1.00  0.00     0.123 A 
ATOM     23  H4  UNL     1       8.972  12.495  22.250  1.00  0.00     0.166 HD
HETATM   24  N5  UNL     1       9.182  13.055  24.690  1.00  0.00    -0.384 N 
HETATM   25  C22 UNL     1      11.406  12.654  24.495  1.00  0.00     0.090 A 
ATOM     26  H52 UNL     1       8.257  13.098  24.263  1.00  0.00     0.157 HD
ATOM     27  H51 UNL     1       9.369  13.263  25.671  1.00  0.00     0.157 HD
HETATM   28  N6  UNL     1      11.613  12.956  25.868  1.00  0.00    -0.098 NA
HETATM   29  C23 UNL     1      12.470  12.287  23.680  1.00  0.00     0.045 A 
ENDBRANCH  13  19
ENDBRANCH   1  10
BRANCH   6  30
HETATM   30  C9  UNL     1      18.432   7.337  17.938  1.00  0.00     0.016 A 
HETATM   31  C10 UNL     1      19.379   6.666  18.660  1.00  0.00     0.042 A 
HETATM   32  C11 UNL     1      19.686   5.321  18.419  1.00  0.00     0.073 A 
HETATM   33 CL1  UNL     1      20.910   4.520  19.380  1.00  0.00    -0.081 Cl
HETATM   34  C12 UNL     1      18.997   4.679  17.415  1.00  0.00     0.141 A 
HETATM   35  F1  UNL     1      19.289   3.379  17.176  1.00  0.00    -0.204 F 
HETATM   36  C13 UNL     1      18.042   5.315  16.672  1.00  0.00     0.087 A 
HETATM   37  C14 UNL     1      17.762   6.642  16.935  1.00  0.00     0.130 A 
HETATM   38  F2  UNL     1      16.794   7.253  16.175  1.00  0.00    -0.205 F 
ENDBRANCH   6  30
TORSDOF 4
ENDMDL
