MODEL 1
REMARK VINA RESULT: -9.867291225      0.000      0.000
REMARK  5 active torsions:
REMARK  status: ('A' for Active; 'I' for Inactive)
REMARK    1  A    between atoms: O1_2  and  C2_3 
REMARK    2  A    between atoms: C7_10  and  N2_11 
REMARK    3  A    between atoms: N2_11  and  C8_13 
REMARK    4  A    between atoms: N5_19  and  C10_21 
REMARK    5  A    between atoms: C10_21  and  C11_22 
ROOT
HETATM    1  C8  UNL     1      18.399  10.233  16.975  1.00  0.00     0.726 A 
HETATM    2  N3  UNL     1      18.921   9.186  17.775  1.00  0.00    -0.117 N 
ATOM      3  H3  UNL     1      19.161   9.272  18.762  1.00  0.00     0.206 HD
HETATM    4  N4  UNL     1      19.047   8.137  17.094  1.00  0.00    -0.117 N 
ATOM      5  H4  UNL     1      19.408   7.254  17.453  1.00  0.00     0.206 HD
HETATM    6  C9  UNL     1      18.618   8.347  15.765  1.00  0.00     0.708 A 
HETATM    7  N5  UNL     1      18.654   7.431  14.957  1.00  0.00    -0.220 N 
ATOM      8  H5  UNL     1      19.005   6.582  15.402  1.00  0.00     0.178 HD
HETATM    9  N6  UNL     1      18.251   9.647  15.830  1.00  0.00    -0.019 N 
ATOM     10  H6  UNL     1      17.876  10.140  15.019  1.00  0.00     0.203 HD
ENDROOT
BRANCH   1  11
HETATM   11  N2  UNL     1      18.216  11.462  17.651  1.00  0.00    -0.019 N 
ATOM     12  H2  UNL     1      18.854  12.243  17.493  1.00  0.00     0.203 HD
BRANCH  11  13
HETATM   13  C7  UNL     1      17.176  11.583  18.510  1.00  0.00     0.712 A 
HETATM   14  N1  UNL     1      16.630  12.834  18.630  1.00  0.00    -0.187 N 
HETATM   15  C6  UNL     1      15.545  12.916  19.505  1.00  0.00     0.083 A 
ATOM     16  H1  UNL     1      16.987  13.642  18.120  1.00  0.00     0.184 HD
HETATM   17  C4  UNL     1      14.877  14.128  19.666  1.00  0.00    -0.030 A 
HETATM   18  C17 UNL     1      15.099  11.806  20.180  1.00  0.00     0.079 A 
HETATM   19  C3  UNL     1      13.787  14.201  20.495  1.00  0.00     0.045 A 
HETATM   20  C5  UNL     1      15.369  15.316  18.908  1.00  0.00     0.050 C 
HETATM   21  C2  UNL     1      13.334  13.103  21.186  1.00  0.00     0.071 A 
HETATM   22  C18 UNL     1      13.970  11.925  21.044  1.00  0.00     0.070 A 
HETATM   23  N8  UNL     1      15.657  10.602  20.049  1.00  0.00    -0.284 N 
HETATM   24  N7  UNL     1      16.742  10.567  19.162  1.00  0.00    -0.131 N 
ATOM     25  H8  UNL     1      15.324   9.778  20.550  1.00  0.00     0.187 HD
ATOM     26  H7  UNL     1      17.218   9.676  19.026  1.00  0.00     0.205 HD
BRANCH  21  27
HETATM   27  O1  UNL     1      12.207  13.237  22.039  1.00  0.00    -0.356 OA
HETATM   28  C1  UNL     1      12.124  14.407  22.872  1.00  0.00     0.210 C 
ENDBRANCH  21  27
ENDBRANCH  11  13
ENDBRANCH   1  11
BRANCH   7  29
HETATM   29  C10 UNL     1      18.362   7.187  13.611  1.00  0.00     0.180 C 
BRANCH  29  30
HETATM   30  C11 UNL     1      16.839   6.924  13.614  1.00  0.00     0.004 A 
HETATM   31  C12 UNL     1      15.993   7.968  13.267  1.00  0.00     0.045 A 
HETATM   32 CL1  UNL     1      16.716   9.492  12.721  1.00  0.00    -0.084 Cl
HETATM   33  C13 UNL     1      14.617   7.819  13.295  1.00  0.00     0.048 A 
HETATM   34  C14 UNL     1      14.123   6.601  13.679  1.00  0.00     0.037 A 
HETATM   35 CL2  UNL     1      12.387   6.291  13.729  1.00  0.00    -0.084 Cl
HETATM   36  C15 UNL     1      14.965   5.559  14.030  1.00  0.00     0.048 A 
HETATM   37  C16 UNL     1      16.342   5.710  14.003  1.00  0.00     0.045 A 
HETATM   38 CL3  UNL     1      17.378   4.387  14.548  1.00  0.00    -0.084 Cl
ENDBRANCH  29  30
ENDBRANCH   7  29
TORSDOF 5
ENDMDL
MODEL 2
REMARK VINA RESULT: -9.831338000      0.085      1.662
REMARK  5 active torsions:
REMARK  status: ('A' for Active; 'I' for Inactive)
REMARK    1  A    between atoms: O1_2  and  C2_3 
REMARK    2  A    between atoms: C7_10  and  N2_11 
REMARK    3  A    between atoms: N2_11  and  C8_13 
REMARK    4  A    between atoms: N5_19  and  C10_21 
REMARK    5  A    between atoms: C10_21  and  C11_22 
ROOT
HETATM    1  C8  UNL     1      18.417  10.239  16.916  1.00  0.00     0.726 A 
HETATM    2  N3  UNL     1      18.995   9.218  17.711  1.00  0.00    -0.117 N 
ATOM      3  H3  UNL     1      19.259   9.322  18.690  1.00  0.00     0.206 HD
HETATM    4  N4  UNL     1      19.136   8.166  17.038  1.00  0.00    -0.117 N 
ATOM      5  H4  UNL     1      19.536   7.299  17.395  1.00  0.00     0.206 HD
HETATM    6  C9  UNL     1      18.664   8.347  15.719  1.00  0.00     0.708 A 
HETATM    7  N5  UNL     1      18.707   7.424  14.919  1.00  0.00    -0.220 N 
ATOM      8  H5  UNL     1      19.098   6.592  15.363  1.00  0.00     0.178 HD
HETATM    9  N6  UNL     1      18.256   9.636  15.781  1.00  0.00    -0.019 N 
ATOM     10  H6  UNL     1      17.843  10.107  14.976  1.00  0.00     0.203 HD
ENDROOT
BRANCH   1  11
HETATM   11  N2  UNL     1      18.212  11.469  17.583  1.00  0.00    -0.019 N 
ATOM     12  H2  UNL     1      18.833  12.261  17.415  1.00  0.00     0.203 HD
BRANCH  11  13
HETATM   13  C7  UNL     1      17.177  11.573  18.450  1.00  0.00     0.712 A 
HETATM   14  N1  UNL     1      16.629  12.822  18.593  1.00  0.00    -0.187 N 
HETATM   15  C6  UNL     1      15.549  12.887  19.475  1.00  0.00     0.083 A 
ATOM     16  H1  UNL     1      16.983  13.638  18.095  1.00  0.00     0.184 HD
HETATM   17  C4  UNL     1      14.880  14.096  19.660  1.00  0.00    -0.030 A 
HETATM   18  C17 UNL     1      15.108  11.766  20.134  1.00  0.00     0.079 A 
HETATM   19  C3  UNL     1      13.795  14.152  20.495  1.00  0.00     0.045 A 
HETATM   20  C5  UNL     1      15.366  15.297  18.919  1.00  0.00     0.050 C 
HETATM   21  C2  UNL     1      13.346  13.042  21.170  1.00  0.00     0.071 A 
HETATM   22  C18 UNL     1      13.983  11.869  21.006  1.00  0.00     0.070 A 
HETATM   23  N8  UNL     1      15.668  10.564  19.981  1.00  0.00    -0.284 N 
HETATM   24  N7  UNL     1      16.748  10.547  19.088  1.00  0.00    -0.131 N 
ATOM     25  H8  UNL     1      15.339   9.732  20.470  1.00  0.00     0.187 HD
ATOM     26  H7  UNL     1      17.225   9.658  18.935  1.00  0.00     0.205 HD
BRANCH  21  27
HETATM   27  O1  UNL     1      12.224  13.161  22.031  1.00  0.00    -0.356 OA
HETATM   28  C1  UNL     1      12.094  14.362  22.813  1.00  0.00     0.210 C 
ENDBRANCH  21  27
ENDBRANCH  11  13
ENDBRANCH   1  11
BRANCH   7  29
HETATM   29  C10 UNL     1      18.387   7.156  13.585  1.00  0.00     0.180 C 
BRANCH  29  30
HETATM   30  C11 UNL     1      16.849   7.003  13.607  1.00  0.00     0.004 A 
HETATM   31  C12 UNL     1      16.317   5.780  13.992  1.00  0.00     0.045 A 
HETATM   32 CL1  UNL     1      17.428   4.518  14.553  1.00  0.00    -0.084 Cl
HETATM   33  C13 UNL     1      14.950   5.556  13.989  1.00  0.00     0.048 A 
HETATM   34  C14 UNL     1      14.144   6.589  13.591  1.00  0.00     0.037 A 
HETATM   35 CL2  UNL     1      12.388   6.424  13.570  1.00  0.00    -0.084 Cl
HETATM   36  C15 UNL     1      14.673   7.808  13.203  1.00  0.00     0.048 A 
HETATM   37  C16 UNL     1      16.040   8.031  13.205  1.00  0.00     0.045 A 
HETATM   38 CL3  UNL     1      16.678   9.569  12.613  1.00  0.00    -0.084 Cl
ENDBRANCH  29  30
ENDBRANCH   7  29
TORSDOF 5
ENDMDL
MODEL 3
REMARK VINA RESULT: -9.751559679      1.009      1.885
REMARK  5 active torsions:
REMARK  status: ('A' for Active; 'I' for Inactive)
REMARK    1  A    between atoms: O1_2  and  C2_3 
REMARK    2  A    between atoms: C7_10  and  N2_11 
REMARK    3  A    between atoms: N2_11  and  C8_13 
REMARK    4  A    between atoms: N5_19  and  C10_21 
REMARK    5  A    between atoms: C10_21  and  C11_22 
ROOT
HETATM    1  C8  UNL     1      18.697  10.863  16.228  1.00  0.00     0.726 A 
HETATM    2  N3  UNL     1      18.911   9.946  17.288  1.00  0.00    -0.117 N 
ATOM      3  H3  UNL     1      19.111  10.209  18.252  1.00  0.00     0.206 HD
HETATM    4  N4  UNL     1      18.821   8.765  16.870  1.00  0.00    -0.117 N 
ATOM      5  H4  UNL     1      18.943   7.934  17.449  1.00  0.00     0.206 HD
HETATM    6  C9  UNL     1      18.526   8.742  15.488  1.00  0.00     0.708 A 
HETATM    7  N5  UNL     1      18.387   7.676  14.908  1.00  0.00    -0.220 N 
ATOM      8  H5  UNL     1      18.502   6.902  15.562  1.00  0.00     0.178 HD
HETATM    9  N6  UNL     1      18.475  10.069  15.228  1.00  0.00    -0.019 N 
ATOM     10  H6  UNL     1      18.272  10.426  14.294  1.00  0.00     0.203 HD
ENDROOT
BRANCH   1  11
HETATM   11  N2  UNL     1      18.774  12.226  16.596  1.00  0.00    -0.019 N 
ATOM     12  H2  UNL     1      19.561  12.802  16.294  1.00  0.00     0.203 HD
BRANCH  11  13
HETATM   13  C7  UNL     1      17.784  12.752  17.355  1.00  0.00     0.712 A 
HETATM   14  N1  UNL     1      17.332  11.971  18.387  1.00  0.00    -0.187 N 
HETATM   15  C6  UNL     1      16.329  12.555  19.164  1.00  0.00     0.083 A 
ATOM     16  H1  UNL     1      17.699  11.037  18.573  1.00  0.00     0.184 HD
HETATM   17  C4  UNL     1      15.829  11.873  20.272  1.00  0.00    -0.030 A 
HETATM   18  C17 UNL     1      15.856  13.811  18.876  1.00  0.00     0.079 A 
HETATM   19  C3  UNL     1      14.873  12.462  21.059  1.00  0.00     0.045 A 
HETATM   20  C5  UNL     1      16.372  10.517  20.576  1.00  0.00     0.050 C 
HETATM   21  C2  UNL     1      14.381  13.714  20.779  1.00  0.00     0.071 A 
HETATM   22  C18 UNL     1      14.850  14.383  19.711  1.00  0.00     0.070 A 
HETATM   23  N8  UNL     1      16.310  14.544  17.858  1.00  0.00    -0.284 N 
HETATM   24  N7  UNL     1      17.314  13.919  17.106  1.00  0.00    -0.131 N 
ATOM     25  H8  UNL     1      15.958  15.477  17.646  1.00  0.00     0.187 HD
ATOM     26  H7  UNL     1      17.696  14.425  16.308  1.00  0.00     0.205 HD
BRANCH  21  27
HETATM   27  O1  UNL     1      13.383  14.270  21.622  1.00  0.00    -0.356 OA
HETATM   28  C1  UNL     1      12.418  13.379  22.209  1.00  0.00     0.210 C 
ENDBRANCH  21  27
ENDBRANCH  11  13
ENDBRANCH   1  11
BRANCH   7  29
HETATM   29  C10 UNL     1      18.118   7.190  13.624  1.00  0.00     0.180 C 
BRANCH  29  30
HETATM   30  C11 UNL     1      16.601   6.897  13.660  1.00  0.00     0.004 A 
HETATM   31  C12 UNL     1      15.734   7.864  13.169  1.00  0.00     0.045 A 
HETATM   32 CL1  UNL     1      16.428   9.312  12.418  1.00  0.00    -0.084 Cl
HETATM   33  C13 UNL     1      14.362   7.690  13.214  1.00  0.00     0.048 A 
HETATM   34  C14 UNL     1      13.892   6.526  13.763  1.00  0.00     0.037 A 
HETATM   35 CL2  UNL     1      12.162   6.188  13.852  1.00  0.00    -0.084 Cl
HETATM   36  C15 UNL     1      14.754   5.563  14.257  1.00  0.00     0.048 A 
HETATM   37  C16 UNL     1      16.128   5.738  14.213  1.00  0.00     0.045 A 
HETATM   38 CL3  UNL     1      17.189   4.527  14.940  1.00  0.00    -0.084 Cl
ENDBRANCH  29  30
ENDBRANCH   7  29
TORSDOF 5
ENDMDL
MODEL 4
REMARK VINA RESULT: -9.729403612      2.121      3.416
REMARK  5 active torsions:
REMARK  status: ('A' for Active; 'I' for Inactive)
REMARK    1  A    between atoms: O1_2  and  C2_3 
REMARK    2  A    between atoms: C7_10  and  N2_11 
REMARK    3  A    between atoms: N2_11  and  C8_13 
REMARK    4  A    between atoms: N5_19  and  C10_21 
REMARK    5  A    between atoms: C10_21  and  C11_22 
ROOT
HETATM    1  C8  UNL     1      18.587  11.167  15.393  1.00  0.00     0.726 A 
HETATM    2  N3  UNL     1      19.443  10.932  14.288  1.00  0.00    -0.117 N 
ATOM      3  H3  UNL     1      20.245  11.510  14.039  1.00  0.00     0.206 HD
HETATM    4  N4  UNL     1      19.073   9.909  13.658  1.00  0.00    -0.117 N 
ATOM      5  H4  UNL     1      19.532   9.546  12.822  1.00  0.00     0.206 HD
HETATM    6  C9  UNL     1      17.936   9.330  14.263  1.00  0.00     0.708 A 
HETATM    7  N5  UNL     1      17.441   8.315  13.795  1.00  0.00    -0.220 N 
ATOM      8  H5  UNL     1      17.972   8.009  12.980  1.00  0.00     0.178 HD
HETATM    9  N6  UNL     1      17.750  10.182  15.298  1.00  0.00    -0.019 N 
ATOM     10  H6  UNL     1      16.992  10.056  15.968  1.00  0.00     0.203 HD
ENDROOT
BRANCH   1  11
HETATM   11  N2  UNL     1      18.920  12.298  16.173  1.00  0.00    -0.019 N 
ATOM     12  H2  UNL     1      19.852  12.711  16.119  1.00  0.00     0.203 HD
BRANCH  11  13
HETATM   13  C7  UNL     1      17.979  12.821  16.995  1.00  0.00     0.712 A 
HETATM   14  N1  UNL     1      17.555  12.018  18.021  1.00  0.00    -0.187 N 
HETATM   15  C6  UNL     1      16.604  12.599  18.861  1.00  0.00     0.083 A 
ATOM     16  H1  UNL     1      17.907  11.070  18.160  1.00  0.00     0.184 HD
HETATM   17  C4  UNL     1      16.138  11.893  19.969  1.00  0.00    -0.030 A 
HETATM   18  C17 UNL     1      16.149  13.875  18.636  1.00  0.00     0.079 A 
HETATM   19  C3  UNL     1      15.233  12.478  20.818  1.00  0.00     0.045 A 
HETATM   20  C5  UNL     1      16.660  10.515  20.204  1.00  0.00     0.050 C 
HETATM   21  C2  UNL     1      14.761  13.750  20.601  1.00  0.00     0.071 A 
HETATM   22  C18 UNL     1      15.197  14.443  19.534  1.00  0.00     0.070 A 
HETATM   23  N8  UNL     1      16.575  14.630  17.622  1.00  0.00    -0.284 N 
HETATM   24  N7  UNL     1      17.528  14.007  16.805  1.00  0.00    -0.131 N 
ATOM     25  H8  UNL     1      16.238  15.578  17.456  1.00  0.00     0.187 HD
ATOM     26  H7  UNL     1      17.886  14.530  16.006  1.00  0.00     0.205 HD
BRANCH  21  27
HETATM   27  O1  UNL     1      13.816  14.302  21.507  1.00  0.00    -0.356 OA
HETATM   28  C1  UNL     1      12.695  13.488  21.894  1.00  0.00     0.210 C 
ENDBRANCH  21  27
ENDBRANCH  11  13
ENDBRANCH   1  11
BRANCH   7  29
HETATM   29  C10 UNL     1      16.372   7.445  14.033  1.00  0.00     0.180 C 
BRANCH  29  30
HETATM   30  C11 UNL     1      17.039   6.237  14.729  1.00  0.00     0.004 A 
HETATM   31  C12 UNL     1      17.438   5.165  13.943  1.00  0.00     0.045 A 
HETATM   32 CL1  UNL     1      17.274   5.305  12.183  1.00  0.00    -0.084 Cl
HETATM   33  C13 UNL     1      17.997   4.030  14.503  1.00  0.00     0.048 A 
HETATM   34  C14 UNL     1      18.140   4.005  15.865  1.00  0.00     0.037 A 
HETATM   35 CL2  UNL     1      18.861   2.619  16.685  1.00  0.00    -0.084 Cl
HETATM   36  C15 UNL     1      17.739   5.071  16.652  1.00  0.00     0.048 A 
HETATM   37  C16 UNL     1      17.178   6.207  16.090  1.00  0.00     0.045 A 
HETATM   38 CL3  UNL     1      16.594   7.505  17.137  1.00  0.00    -0.084 Cl
ENDBRANCH  29  30
ENDBRANCH   7  29
TORSDOF 5
ENDMDL
MODEL 5
REMARK VINA RESULT: -9.698020145      3.500      5.273
REMARK  5 active torsions:
REMARK  status: ('A' for Active; 'I' for Inactive)
REMARK    1  A    between atoms: O1_2  and  C2_3 
REMARK    2  A    between atoms: C7_10  and  N2_11 
REMARK    3  A    between atoms: N2_11  and  C8_13 
REMARK    4  A    between atoms: N5_19  and  C10_21 
REMARK    5  A    between atoms: C10_21  and  C11_22 
ROOT
HETATM    1  C8  UNL     1      18.602   8.267  18.320  1.00  0.00     0.726 A 
HETATM    2  N3  UNL     1      19.225   7.332  17.456  1.00  0.00    -0.117 N 
ATOM      3  H3  UNL     1      19.579   6.420  17.744  1.00  0.00     0.206 HD
HETATM    4  N4  UNL     1      19.280   7.786  16.286  1.00  0.00    -0.117 N 
ATOM      5  H4  UNL     1      19.691   7.295  15.492  1.00  0.00     0.206 HD
HETATM    6  C9  UNL     1      18.696   9.070  16.218  1.00  0.00     0.708 A 
HETATM    7  N5  UNL     1      18.646   9.666  15.152  1.00  0.00    -0.220 N 
ATOM      8  H5  UNL     1      19.055   9.097  14.411  1.00  0.00     0.178 HD
HETATM    9  N6  UNL     1      18.326   9.238  17.508  1.00  0.00    -0.019 N 
ATOM     10  H6  UNL     1      17.853  10.085  17.826  1.00  0.00     0.203 HD
ENDROOT
BRANCH   1  11
HETATM   11  N2  UNL     1      18.487   7.848  19.666  1.00  0.00    -0.019 N 
ATOM     12  H2  UNL     1      19.102   7.125  20.040  1.00  0.00     0.203 HD
BRANCH  11  13
HETATM   13  C7  UNL     1      17.545   8.426  20.448  1.00  0.00     0.712 A 
HETATM   14  N1  UNL     1      16.945   9.551  19.944  1.00  0.00    -0.187 N 
HETATM   15  C6  UNL     1      15.961  10.105  20.766  1.00  0.00     0.083 A 
ATOM     16  H1  UNL     1      17.197   9.951  19.040  1.00  0.00     0.184 HD
HETATM   17  C4  UNL     1      15.248  11.221  20.332  1.00  0.00    -0.030 A 
HETATM   18  C17 UNL     1      15.657   9.541  21.980  1.00  0.00     0.079 A 
HETATM   19  C3  UNL     1      14.255  11.743  21.121  1.00  0.00     0.045 A 
HETATM   20  C5  UNL     1      15.584  11.806  19.001  1.00  0.00     0.050 C 
HETATM   21  C2  UNL     1      13.944  11.197  22.343  1.00  0.00     0.071 A 
HETATM   22  C18 UNL     1      14.626  10.121  22.778  1.00  0.00     0.070 A 
HETATM   23  N8  UNL     1      16.265   8.449  22.448  1.00  0.00    -0.284 N 
HETATM   24  N7  UNL     1      17.244   7.929  21.591  1.00  0.00    -0.131 N 
ATOM     25  H8  UNL     1      16.038   8.031  23.349  1.00  0.00     0.187 HD
ATOM     26  H7  UNL     1      17.752   7.099  21.897  1.00  0.00     0.205 HD
BRANCH  21  27
HETATM   27  O1  UNL     1      12.913  11.784  23.123  1.00  0.00    -0.356 OA
HETATM   28  C1  UNL     1      11.823  12.422  22.434  1.00  0.00     0.210 C 
ENDBRANCH  21  27
ENDBRANCH  11  13
ENDBRANCH   1  11
BRANCH   7  29
HETATM   29  C10 UNL     1      18.200  10.887  14.635  1.00  0.00     0.180 C 
BRANCH  29  30
HETATM   30  C11 UNL     1      19.447  11.795  14.729  1.00  0.00     0.004 A 
HETATM   31  C12 UNL     1      20.320  11.825  13.650  1.00  0.00     0.045 A 
HETATM   32 CL1  UNL     1      19.883  10.920  12.189  1.00  0.00    -0.084 Cl
HETATM   33  C13 UNL     1      21.481  12.577  13.684  1.00  0.00     0.048 A 
HETATM   34  C14 UNL     1      21.735  13.292  14.824  1.00  0.00     0.037 A 
HETATM   35 CL2  UNL     1      23.173  14.303  14.969  1.00  0.00    -0.084 Cl
HETATM   36  C15 UNL     1      20.868  13.261  15.903  1.00  0.00     0.048 A 
HETATM   37  C16 UNL     1      19.707  12.506  15.869  1.00  0.00     0.045 A 
HETATM   38 CL3  UNL     1      18.677  12.420  17.302  1.00  0.00    -0.084 Cl
ENDBRANCH  29  30
ENDBRANCH   7  29
TORSDOF 5
ENDMDL
