MODEL 1
REMARK VINA RESULT: -8.630501298      0.000      0.000
REMARK  6 active torsions:
REMARK  status: ('A' for Active; 'I' for Inactive)
REMARK    1  A    between atoms: O1_2  and  C2_3 
REMARK    2  A    between atoms: C5_6  and  N1_7 
REMARK    3  A    between atoms: N1_7  and  C6_9 
REMARK    4  A    between atoms: C9_14  and  N3_15 
REMARK    5  A    between atoms: N3_15  and  C10_17 
REMARK    6  A    between atoms: C17_27  and  O2_28 
ROOT
HETATM    1  C6  UNL     1      -0.048 -13.017 -23.853  1.00  0.00     0.122 A 
HETATM    2  C7  UNL     1      -0.984 -12.843 -22.853  1.00  0.00     0.066 A 
HETATM    3  C8  UNL     1      -2.041 -11.974 -23.054  1.00  0.00     0.110 A 
HETATM    4  N2  UNL     1      -2.182 -11.287 -24.208  1.00  0.00    -0.202 N 
ATOM      5  H2  UNL     1      -2.965 -10.648 -24.345  1.00  0.00     0.183 HD
HETATM    6  C9  UNL     1      -1.262 -11.468 -25.171  1.00  0.00     0.684 A 
HETATM    7  N4  UNL     1      -0.230 -12.312 -24.983  1.00  0.00    -0.176 N 
ATOM      8  H4  UNL     1       0.448 -12.422 -25.737  1.00  0.00     0.186 HD
ENDROOT
BRANCH   1   9
HETATM    9  N1  UNL     1       0.971 -13.828 -23.713  1.00  0.00    -0.342 N 
ATOM     10  H1  UNL     1       0.840 -14.792 -23.405  1.00  0.00     0.167 HD
BRANCH   9  11
HETATM   11  C5  UNL     1       2.262 -13.322 -24.006  1.00  0.00     0.036 A 
HETATM   12  C4  UNL     1       2.664 -12.042 -23.601  1.00  0.00     0.032 A 
HETATM   13  C3  UNL     1       3.955 -11.606 -23.925  1.00  0.00     0.042 A 
HETATM   14  C2  UNL     1       4.810 -12.416 -24.625  1.00  0.00     0.101 A 
HETATM   15  C17 UNL     1       4.370 -13.678 -25.006  1.00  0.00     0.103 A 
HETATM   16  C16 UNL     1       3.120 -14.133 -24.707  1.00  0.00     0.069 A 
BRANCH  14  17
HETATM   17  O1  UNL     1       6.085 -11.999 -24.950  1.00  0.00    -0.353 OA
HETATM   18  C1  UNL     1       7.151 -12.003 -24.031  1.00  0.00     0.210 C 
ENDBRANCH  14  17
BRANCH  15  19
HETATM   19  O2  UNL     1       5.264 -14.467 -25.712  1.00  0.00    -0.353 OA
HETATM   20  C18 UNL     1       5.042 -15.843 -25.821  1.00  0.00     0.210 C 
ENDBRANCH  15  19
ENDBRANCH   9  11
ENDBRANCH   1   9
BRANCH   6  21
HETATM   21  N3  UNL     1      -1.358 -10.829 -26.293  1.00  0.00    -0.192 N 
ATOM     22  H3  UNL     1      -2.142 -11.054 -26.907  1.00  0.00     0.184 HD
BRANCH  21  23
HETATM   23  C10 UNL     1      -0.451  -9.847 -26.715  1.00  0.00     0.049 A 
HETATM   24  C11 UNL     1      -0.672  -9.179 -27.897  1.00  0.00     0.031 A 
HETATM   25  C12 UNL     1       0.182  -8.204 -28.363  1.00  0.00     0.021 A 
HETATM   26  C13 UNL     1       1.289  -7.905 -27.599  1.00  0.00     0.011 A 
HETATM   27 BR1  UNL     1       2.477  -6.556 -28.236  1.00  0.00    -0.051 Br
HETATM   28  C14 UNL     1       1.535  -8.555 -26.414  1.00  0.00     0.021 A 
HETATM   29  C15 UNL     1       0.662  -9.523 -25.978  1.00  0.00     0.031 A 
ENDBRANCH  21  23
ENDBRANCH   6  21
TORSDOF 6
ENDMDL
MODEL 2
REMARK VINA RESULT: -8.507837363      3.140      6.061
REMARK  6 active torsions:
REMARK  status: ('A' for Active; 'I' for Inactive)
REMARK    1  A    between atoms: O1_2  and  C2_3 
REMARK    2  A    between atoms: C5_6  and  N1_7 
REMARK    3  A    between atoms: N1_7  and  C6_9 
REMARK    4  A    between atoms: C9_14  and  N3_15 
REMARK    5  A    between atoms: N3_15  and  C10_17 
REMARK    6  A    between atoms: C17_27  and  O2_28 
ROOT
HETATM    1  C6  UNL     1      -0.610 -10.754 -25.382  1.00  0.00     0.122 A 
HETATM    2  C7  UNL     1      -1.739 -11.332 -24.836  1.00  0.00     0.066 A 
HETATM    3  C8  UNL     1      -1.612 -12.197 -23.765  1.00  0.00     0.110 A 
HETATM    4  N2  UNL     1      -0.405 -12.493 -23.236  1.00  0.00    -0.202 N 
ATOM      5  H2  UNL     1      -0.322 -13.133 -22.446  1.00  0.00     0.183 HD
HETATM    6  C9  UNL     1       0.684 -11.921 -23.778  1.00  0.00     0.684 A 
HETATM    7  N4  UNL     1       0.568 -11.079 -24.821  1.00  0.00    -0.176 N 
ATOM      8  H4  UNL     1       1.418 -10.666 -25.205  1.00  0.00     0.186 HD
ENDROOT
BRANCH   1   9
HETATM    9  N1  UNL     1      -0.676  -9.928 -26.396  1.00  0.00    -0.342 N 
ATOM     10  H1  UNL     1      -1.289 -10.115 -27.190  1.00  0.00     0.167 HD
BRANCH   9  11
HETATM   11  C5  UNL     1       0.133  -8.765 -26.353  1.00  0.00     0.036 A 
HETATM   12  C4  UNL     1       0.009  -7.814 -25.331  1.00  0.00     0.032 A 
HETATM   13  C3  UNL     1       0.842  -6.689 -25.352  1.00  0.00     0.042 A 
HETATM   14  C2  UNL     1       1.762  -6.520 -26.352  1.00  0.00     0.101 A 
HETATM   15  C17 UNL     1       1.852  -7.488 -27.345  1.00  0.00     0.103 A 
HETATM   16  C16 UNL     1       1.056  -8.595 -27.356  1.00  0.00     0.069 A 
BRANCH  14  17
HETATM   17  O1  UNL     1       2.590  -5.416 -26.385  1.00  0.00    -0.353 OA
HETATM   18  C1  UNL     1       3.509  -5.117 -25.362  1.00  0.00     0.210 C 
ENDBRANCH  14  17
BRANCH  15  19
HETATM   19  O2  UNL     1       2.796  -7.281 -28.340  1.00  0.00    -0.353 OA
HETATM   20  C18 UNL     1       2.575  -7.789 -29.624  1.00  0.00     0.210 C 
ENDBRANCH  15  19
ENDBRANCH   9  11
ENDBRANCH   1   9
BRANCH   6  21
HETATM   21  N3  UNL     1       1.860 -12.178 -23.301  1.00  0.00    -0.192 N 
ATOM     22  H3  UNL     1       2.063 -11.891 -22.343  1.00  0.00     0.184 HD
BRANCH  21  23
HETATM   23  C10 UNL     1       2.872 -12.826 -24.023  1.00  0.00     0.049 A 
HETATM   24  C11 UNL     1       2.643 -14.081 -24.541  1.00  0.00     0.031 A 
HETATM   25  C12 UNL     1       3.597 -14.767 -25.259  1.00  0.00     0.021 A 
HETATM   26  C13 UNL     1       4.816 -14.154 -25.452  1.00  0.00     0.011 A 
HETATM   27 BR1  UNL     1       6.143 -15.098 -26.445  1.00  0.00    -0.051 Br
HETATM   28  C14 UNL     1       5.073 -12.903 -24.947  1.00  0.00     0.021 A 
HETATM   29  C15 UNL     1       4.099 -12.246 -24.235  1.00  0.00     0.031 A 
ENDBRANCH  21  23
ENDBRANCH   6  21
TORSDOF 6
ENDMDL
MODEL 3
REMARK VINA RESULT: -8.408430200      0.988      2.093
REMARK  6 active torsions:
REMARK  status: ('A' for Active; 'I' for Inactive)
REMARK    1  A    between atoms: O1_2  and  C2_3 
REMARK    2  A    between atoms: C5_6  and  N1_7 
REMARK    3  A    between atoms: N1_7  and  C6_9 
REMARK    4  A    between atoms: C9_14  and  N3_15 
REMARK    5  A    between atoms: N3_15  and  C10_17 
REMARK    6  A    between atoms: C17_27  and  O2_28 
ROOT
HETATM    1  C6  UNL     1       0.029 -12.967 -23.953  1.00  0.00     0.122 A 
HETATM    2  C7  UNL     1      -0.897 -12.876 -22.933  1.00  0.00     0.066 A 
HETATM    3  C8  UNL     1      -1.986 -12.036 -23.074  1.00  0.00     0.110 A 
HETATM    4  N2  UNL     1      -2.169 -11.297 -24.190  1.00  0.00    -0.202 N 
ATOM      5  H2  UNL     1      -2.976 -10.680 -24.282  1.00  0.00     0.183 HD
HETATM    6  C9  UNL     1      -1.259 -11.398 -25.174  1.00  0.00     0.684 A 
HETATM    7  N4  UNL     1      -0.197 -12.213 -25.044  1.00  0.00    -0.176 N 
ATOM      8  H4  UNL     1       0.472 -12.261 -25.812  1.00  0.00     0.186 HD
ENDROOT
BRANCH   1   9
HETATM    9  N1  UNL     1       1.077 -13.748 -23.870  1.00  0.00    -0.342 N 
ATOM     10  H1  UNL     1       0.976 -14.753 -23.725  1.00  0.00     0.167 HD
BRANCH   9  11
HETATM   11  C5  UNL     1       2.356 -13.149 -23.989  1.00  0.00     0.036 A 
HETATM   12  C4  UNL     1       3.392 -13.754 -24.712  1.00  0.00     0.032 A 
HETATM   13  C3  UNL     1       4.630 -13.104 -24.788  1.00  0.00     0.042 A 
HETATM   14  C2  UNL     1       4.827 -11.900 -24.166  1.00  0.00     0.101 A 
HETATM   15  C17 UNL     1       3.771 -11.335 -23.459  1.00  0.00     0.103 A 
HETATM   16  C16 UNL     1       2.552 -11.941 -23.365  1.00  0.00     0.069 A 
BRANCH  14  17
HETATM   17  O1  UNL     1       6.042 -11.250 -24.232  1.00  0.00    -0.353 OA
HETATM   18  C1  UNL     1       7.240 -11.814 -23.757  1.00  0.00     0.210 C 
ENDBRANCH  14  17
BRANCH  15  19
HETATM   19  O2  UNL     1       4.009 -10.117 -22.844  1.00  0.00    -0.353 OA
HETATM   20  C18 UNL     1       3.538  -8.938 -23.431  1.00  0.00     0.210 C 
ENDBRANCH  15  19
ENDBRANCH   9  11
ENDBRANCH   1   9
BRANCH   6  21
HETATM   21  N3  UNL     1      -1.396 -10.707 -26.260  1.00  0.00    -0.192 N 
ATOM     22  H3  UNL     1      -2.231 -10.864 -26.826  1.00  0.00     0.184 HD
BRANCH  21  23
HETATM   23  C10 UNL     1      -0.466  -9.757 -26.706  1.00  0.00     0.049 A 
HETATM   24  C11 UNL     1      -0.675  -9.108 -27.902  1.00  0.00     0.031 A 
HETATM   25  C12 UNL     1       0.201  -8.165 -28.390  1.00  0.00     0.021 A 
HETATM   26  C13 UNL     1       1.319  -7.879 -27.637  1.00  0.00     0.011 A 
HETATM   27 BR1  UNL     1       2.538  -6.574 -28.307  1.00  0.00    -0.051 Br
HETATM   28  C14 UNL     1       1.553  -8.511 -26.440  1.00  0.00     0.021 A 
HETATM   29  C15 UNL     1       0.658  -9.446 -25.981  1.00  0.00     0.031 A 
ENDBRANCH  21  23
ENDBRANCH   6  21
TORSDOF 6
ENDMDL
MODEL 4
REMARK VINA RESULT: -8.383090891      3.236      6.269
REMARK  6 active torsions:
REMARK  status: ('A' for Active; 'I' for Inactive)
REMARK    1  A    between atoms: O1_2  and  C2_3 
REMARK    2  A    between atoms: C5_6  and  N1_7 
REMARK    3  A    between atoms: N1_7  and  C6_9 
REMARK    4  A    between atoms: C9_14  and  N3_15 
REMARK    5  A    between atoms: N3_15  and  C10_17 
REMARK    6  A    between atoms: C17_27  and  O2_28 
ROOT
HETATM    1  C6  UNL     1      -0.921 -11.727 -24.570  1.00  0.00     0.122 A 
HETATM    2  C7  UNL     1      -1.611 -12.394 -23.577  1.00  0.00     0.066 A 
HETATM    3  C8  UNL     1      -0.917 -12.930 -22.507  1.00  0.00     0.110 A 
HETATM    4  N2  UNL     1       0.425 -12.818 -22.408  1.00  0.00    -0.202 N 
ATOM      5  H2  UNL     1       0.927 -13.219 -21.615  1.00  0.00     0.183 HD
HETATM    6  C9  UNL     1       1.082 -12.166 -23.383  1.00  0.00     0.684 A 
HETATM    7  N4  UNL     1       0.414 -11.642 -24.427  1.00  0.00    -0.176 N 
ATOM      8  H4  UNL     1       0.948 -11.155 -25.147  1.00  0.00     0.186 HD
ENDROOT
BRANCH   1   9
HETATM    9  N1  UNL     1      -1.530 -11.201 -25.603  1.00  0.00    -0.342 N 
ATOM     10  H1  UNL     1      -2.390 -11.607 -25.971  1.00  0.00     0.167 HD
BRANCH   9  11
HETATM   11  C5  UNL     1      -0.952 -10.049 -26.192  1.00  0.00     0.036 A 
HETATM   12  C4  UNL     1      -0.765  -9.940 -27.576  1.00  0.00     0.032 A 
HETATM   13  C3  UNL     1      -0.189  -8.771 -28.089  1.00  0.00     0.042 A 
HETATM   14  C2  UNL     1       0.187  -7.753 -27.254  1.00  0.00     0.101 A 
HETATM   15  C17 UNL     1      -0.017  -7.903 -25.887  1.00  0.00     0.103 A 
HETATM   16  C16 UNL     1      -0.576  -9.027 -25.354  1.00  0.00     0.069 A 
BRANCH  14  17
HETATM   17  O1  UNL     1       0.756  -6.596 -27.746  1.00  0.00    -0.353 OA
HETATM   18  C1  UNL     1       2.051  -6.553 -28.297  1.00  0.00     0.210 C 
ENDBRANCH  14  17
BRANCH  15  19
HETATM   19  O2  UNL     1       0.376  -6.851 -25.075  1.00  0.00    -0.353 OA
HETATM   20  C18 UNL     1       0.935  -7.112 -23.821  1.00  0.00     0.210 C 
ENDBRANCH  15  19
ENDBRANCH   9  11
ENDBRANCH   1   9
BRANCH   6  21
HETATM   21  N3  UNL     1       2.369 -12.036 -23.327  1.00  0.00    -0.192 N 
ATOM     22  H3  UNL     1       2.756 -11.374 -22.653  1.00  0.00     0.184 HD
BRANCH  21  23
HETATM   23  C10 UNL     1       3.263 -12.750 -24.137  1.00  0.00     0.049 A 
HETATM   24  C11 UNL     1       4.462 -12.178 -24.497  1.00  0.00     0.031 A 
HETATM   25  C12 UNL     1       5.381 -12.830 -25.288  1.00  0.00     0.021 A 
HETATM   26  C13 UNL     1       5.066 -14.099 -25.723  1.00  0.00     0.011 A 
HETATM   27 BR1  UNL     1       6.332 -15.009 -26.820  1.00  0.00    -0.051 Br
HETATM   28  C14 UNL     1       3.876 -14.694 -25.380  1.00  0.00     0.021 A 
HETATM   29  C15 UNL     1       2.982 -14.017 -24.588  1.00  0.00     0.031 A 
ENDBRANCH  21  23
ENDBRANCH   6  21
TORSDOF 6
ENDMDL
MODEL 5
REMARK VINA RESULT: -8.353601202      3.310      6.490
REMARK  6 active torsions:
REMARK  status: ('A' for Active; 'I' for Inactive)
REMARK    1  A    between atoms: O1_2  and  C2_3 
REMARK    2  A    between atoms: C5_6  and  N1_7 
REMARK    3  A    between atoms: N1_7  and  C6_9 
REMARK    4  A    between atoms: C9_14  and  N3_15 
REMARK    5  A    between atoms: N3_15  and  C10_17 
REMARK    6  A    between atoms: C17_27  and  O2_28 
ROOT
HETATM    1  C6  UNL     1      -0.344  -9.926 -24.714  1.00  0.00     0.122 A 
HETATM    2  C7  UNL     1      -1.372 -10.822 -24.934  1.00  0.00     0.066 A 
HETATM    3  C8  UNL     1      -1.184 -12.160 -24.640  1.00  0.00     0.110 A 
HETATM    4  N2  UNL     1      -0.016 -12.617 -24.140  1.00  0.00    -0.202 N 
ATOM      5  H2  UNL     1       0.112 -13.606 -23.927  1.00  0.00     0.183 HD
HETATM    6  C9  UNL     1       0.974 -11.732 -23.931  1.00  0.00     0.684 A 
HETATM    7  N4  UNL     1       0.800 -10.428 -24.215  1.00  0.00    -0.176 N 
ATOM      8  H4  UNL     1       1.575  -9.788 -24.043  1.00  0.00     0.186 HD
ENDROOT
BRANCH   1   9
HETATM    9  N1  UNL     1      -0.470  -8.649 -24.975  1.00  0.00    -0.342 N 
ATOM     10  H1  UNL     1      -1.074  -8.052 -24.410  1.00  0.00     0.167 HD
BRANCH   9  11
HETATM   11  C5  UNL     1       0.262  -8.125 -26.070  1.00  0.00     0.036 A 
HETATM   12  C4  UNL     1       0.047  -8.566 -27.383  1.00  0.00     0.032 A 
HETATM   13  C3  UNL     1       0.806  -8.003 -28.416  1.00  0.00     0.042 A 
HETATM   14  C2  UNL     1       1.742  -7.040 -28.150  1.00  0.00     0.101 A 
HETATM   15  C17 UNL     1       1.923  -6.632 -26.834  1.00  0.00     0.103 A 
HETATM   16  C16 UNL     1       1.201  -7.159 -25.804  1.00  0.00     0.069 A 
BRANCH  14  17
HETATM   17  O1  UNL     1       2.497  -6.477 -29.159  1.00  0.00    -0.353 OA
HETATM   18  C1  UNL     1       3.509  -7.178 -29.841  1.00  0.00     0.210 C 
ENDBRANCH  14  17
BRANCH  15  19
HETATM   19  O2  UNL     1       2.879  -5.655 -26.605  1.00  0.00    -0.353 OA
HETATM   20  C18 UNL     1       2.824  -4.888 -25.438  1.00  0.00     0.210 C 
ENDBRANCH  15  19
ENDBRANCH   9  11
ENDBRANCH   1   9
BRANCH   6  21
HETATM   21  N3  UNL     1       2.111 -12.127 -23.453  1.00  0.00    -0.192 N 
ATOM     22  H3  UNL     1       2.313 -11.933 -22.472  1.00  0.00     0.184 HD
BRANCH  21  23
HETATM   23  C10 UNL     1       3.081 -12.807 -24.203  1.00  0.00     0.049 A 
HETATM   24  C11 UNL     1       4.255 -12.169 -24.536  1.00  0.00     0.031 A 
HETATM   25  C12 UNL     1       5.245 -12.785 -25.270  1.00  0.00     0.021 A 
HETATM   26  C13 UNL     1       5.029 -14.085 -25.671  1.00  0.00     0.011 A 
HETATM   27 BR1  UNL     1       6.395 -14.944 -26.687  1.00  0.00    -0.051 Br
HETATM   28  C14 UNL     1       3.868 -14.746 -25.353  1.00  0.00     0.021 A 
HETATM   29  C15 UNL     1       2.900 -14.103 -24.620  1.00  0.00     0.031 A 
ENDBRANCH  21  23
ENDBRANCH   6  21
TORSDOF 6
ENDMDL
