MODEL 1
REMARK VINA RESULT: -9.430415702      0.000      0.000
REMARK  5 active torsions:
REMARK  status: ('A' for Active; 'I' for Inactive)
REMARK       I    between atoms: C2_4  and  N2_5 
REMARK       I    between atoms: C2_4  and  N4_14 
REMARK    1  A    between atoms: N2_5  and  C3_7 
REMARK    2  A    between atoms: N4_14  and  C8_16 
REMARK    3  A    between atoms: C9_19  and  C10_20 
REMARK    4  A    between atoms: C10_20  and  C12_25 
REMARK    5  A    between atoms: N6_21  and  O1_23 
ROOT
HETATM    1  C8  UNL     1       5.727 -14.231 -25.388  1.00  0.00     0.164 A 
HETATM    2  N5  UNL     1       5.139 -13.153 -24.913  1.00  0.00    -0.334 N 
ATOM      3  H5  UNL     1       5.684 -12.305 -24.765  1.00  0.00     0.168 HD
HETATM    4  C9  UNL     1       3.871 -13.160 -24.633  1.00  0.00     0.070 A 
HETATM    5  C18 UNL     1       3.192 -14.331 -24.852  1.00  0.00     0.085 A 
HETATM    6  S1  UNL     1       4.441 -15.351 -25.456  1.00  0.00    -0.063 SA
ENDROOT
BRANCH   1   7
HETATM    7  N4  UNL     1       7.096 -14.428 -25.756  1.00  0.00    -0.170 N 
HETATM    8  C2  UNL     1       8.009 -13.364 -25.622  1.00  0.00     0.681 C 
HETATM    9  N1  UNL     1       7.949 -12.616 -24.582  1.00  0.00    -0.230 N 
HETATM   10  N2  UNL     1       8.980 -13.123 -26.619  1.00  0.00    -0.177 N 
HETATM   11  C1  UNL     1       8.828 -11.500 -24.336  1.00  0.00     0.165 C 
ATOM     12  H1  UNL     1       7.233 -12.823 -23.885  1.00  0.00     0.177 HD
ATOM     13  H2  UNL     1       8.725 -12.549 -27.423  1.00  0.00     0.186 HD
ATOM     14  H4  UNL     1       7.408 -15.331 -26.112  1.00  0.00     0.186 HD
BRANCH  10  15
HETATM   15  C3  UNL     1      10.177 -13.601 -26.551  1.00  0.00     0.120 A 
HETATM   16  C4  UNL     1      10.702 -14.183 -27.701  1.00  0.00     0.049 A 
HETATM   17  C5  UNL     1      11.970 -14.713 -27.703  1.00  0.00     0.005 A 
HETATM   18  C6  UNL     1      12.700 -14.649 -26.534  1.00  0.00     0.017 A 
HETATM   19  C7  UNL     1      12.149 -14.066 -25.420  1.00  0.00     0.089 A 
HETATM   20  N3  UNL     1      10.906 -13.552 -25.434  1.00  0.00    -0.352 N 
ATOM     21  H3  UNL     1      10.521 -13.124 -24.591  1.00  0.00     0.166 HD
ENDBRANCH  10  15
ENDBRANCH   1   7
BRANCH   4  22
HETATM   22  C10 UNL     1       3.204 -12.003 -23.938  1.00  0.00     0.093 C 
HETATM   23  N6  UNL     1       3.982 -11.196 -23.336  1.00  0.00    -0.264 N 
ATOM     24  H6  UNL     1       4.954 -11.490 -23.434  1.00  0.00     0.194 HD
BRANCH  23  25
HETATM   25  O1  UNL     1       3.898 -10.106 -22.631  1.00  0.00    -0.285 OA
HETATM   26  C11 UNL     1       4.254  -8.811 -23.078  1.00  0.00     0.237 C 
ENDBRANCH  23  25
BRANCH  22  27
HETATM   27  C12 UNL     1       1.778 -11.849 -23.850  1.00  0.00     0.017 A 
HETATM   28  C13 UNL     1       1.080 -12.740 -22.992  1.00  0.00     0.015 A 
HETATM   29  C14 UNL     1      -0.292 -12.799 -23.005  1.00  0.00     0.001 A 
HETATM   30  C15 UNL     1      -1.075 -12.025 -23.819  1.00  0.00     0.002 A 
HETATM   31  C16 UNL     1      -0.428 -11.152 -24.657  1.00  0.00     0.025 A 
HETATM   32  C17 UNL     1       0.963 -11.093 -24.640  1.00  0.00     0.046 A 
HETATM   33 CL1  UNL     1       1.707  -9.761 -25.561  1.00  0.00    -0.083 Cl
ENDBRANCH  22  27
ENDBRANCH   4  22
TORSDOF 5
ENDMDL
MODEL 2
REMARK VINA RESULT: -9.244631428      1.209      2.740
REMARK  5 active torsions:
REMARK  status: ('A' for Active; 'I' for Inactive)
REMARK       I    between atoms: C2_4  and  N2_5 
REMARK       I    between atoms: C2_4  and  N4_14 
REMARK    1  A    between atoms: N2_5  and  C3_7 
REMARK    2  A    between atoms: N4_14  and  C8_16 
REMARK    3  A    between atoms: C9_19  and  C10_20 
REMARK    4  A    between atoms: C10_20  and  C12_25 
REMARK    5  A    between atoms: N6_21  and  O1_23 
ROOT
HETATM    1  C8  UNL     1       6.097 -14.591 -25.598  1.00  0.00     0.164 A 
HETATM    2  N5  UNL     1       5.466 -13.551 -25.095  1.00  0.00    -0.334 N 
ATOM      3  H5  UNL     1       5.984 -12.695 -24.893  1.00  0.00     0.168 HD
HETATM    4  C9  UNL     1       4.192 -13.603 -24.853  1.00  0.00     0.070 A 
HETATM    5  C18 UNL     1       3.551 -14.781 -25.142  1.00  0.00     0.085 A 
HETATM    6  S1  UNL     1       4.844 -15.739 -25.752  1.00  0.00    -0.063 SA
ENDROOT
BRANCH   1   7
HETATM    7  N4  UNL     1       7.481 -14.735 -25.933  1.00  0.00    -0.170 N 
HETATM    8  C2  UNL     1       8.338 -13.622 -25.830  1.00  0.00     0.681 C 
HETATM    9  N1  UNL     1       8.221 -12.834 -24.826  1.00  0.00    -0.230 N 
HETATM   10  N2  UNL     1       9.315 -13.377 -26.820  1.00  0.00    -0.177 N 
HETATM   11  C1  UNL     1       9.041 -11.666 -24.614  1.00  0.00     0.165 C 
ATOM     12  H1  UNL     1       7.503 -13.046 -24.132  1.00  0.00     0.177 HD
ATOM     13  H2  UNL     1       9.049 -12.852 -27.653  1.00  0.00     0.186 HD
ATOM     14  H4  UNL     1       7.844 -15.636 -26.244  1.00  0.00     0.186 HD
BRANCH  10  15
HETATM   15  C3  UNL     1      10.532 -13.791 -26.710  1.00  0.00     0.120 A 
HETATM   16  C4  UNL     1      11.183 -14.186 -27.876  1.00  0.00     0.049 A 
HETATM   17  C5  UNL     1      12.481 -14.638 -27.835  1.00  0.00     0.005 A 
HETATM   18  C6  UNL     1      13.112 -14.688 -26.610  1.00  0.00     0.017 A 
HETATM   19  C7  UNL     1      12.437 -14.291 -25.482  1.00  0.00     0.089 A 
HETATM   20  N3  UNL     1      11.167 -13.849 -25.537  1.00  0.00    -0.352 N 
ATOM     21  H3  UNL     1      10.690 -13.559 -24.683  1.00  0.00     0.166 HD
ENDBRANCH  10  15
ENDBRANCH   1   7
BRANCH   4  22
HETATM   22  C10 UNL     1       3.473 -12.496 -24.128  1.00  0.00     0.093 C 
HETATM   23  N6  UNL     1       2.336 -12.800 -23.643  1.00  0.00    -0.264 N 
ATOM     24  H6  UNL     1       2.106 -13.773 -23.841  1.00  0.00     0.194 HD
BRANCH  23  25
HETATM   25  O1  UNL     1       1.382 -12.229 -22.968  1.00  0.00    -0.285 OA
HETATM   26  C11 UNL     1       0.020 -12.613 -22.987  1.00  0.00     0.237 C 
ENDBRANCH  23  25
BRANCH  22  27
HETATM   27  C12 UNL     1       3.960 -11.146 -24.062  1.00  0.00     0.017 A 
HETATM   28  C13 UNL     1       5.202 -10.934 -23.407  1.00  0.00     0.015 A 
HETATM   29  C14 UNL     1       5.638  -9.664 -23.119  1.00  0.00     0.001 A 
HETATM   30  C15 UNL     1       4.933  -8.533 -23.432  1.00  0.00     0.002 A 
HETATM   31  C16 UNL     1       3.730  -8.706 -24.068  1.00  0.00     0.025 A 
HETATM   32  C17 UNL     1       3.291  -9.995 -24.361  1.00  0.00     0.046 A 
HETATM   33 CL1  UNL     1       1.857 -10.120 -25.411  1.00  0.00    -0.083 Cl
ENDBRANCH  22  27
ENDBRANCH   4  22
TORSDOF 5
ENDMDL
MODEL 3
REMARK VINA RESULT: -9.002212947      1.048      1.288
REMARK  5 active torsions:
REMARK  status: ('A' for Active; 'I' for Inactive)
REMARK       I    between atoms: C2_4  and  N2_5 
REMARK       I    between atoms: C2_4  and  N4_14 
REMARK    1  A    between atoms: N2_5  and  C3_7 
REMARK    2  A    between atoms: N4_14  and  C8_16 
REMARK    3  A    between atoms: C9_19  and  C10_20 
REMARK    4  A    between atoms: C10_20  and  C12_25 
REMARK    5  A    between atoms: N6_21  and  O1_23 
ROOT
HETATM    1  C8  UNL     1       6.590 -13.970 -24.951  1.00  0.00     0.164 A 
HETATM    2  N5  UNL     1       5.924 -12.920 -24.518  1.00  0.00    -0.334 N 
ATOM      3  H5  UNL     1       6.433 -12.093 -24.208  1.00  0.00     0.168 HD
HETATM    4  C9  UNL     1       4.626 -12.927 -24.483  1.00  0.00     0.070 A 
HETATM    5  C18 UNL     1       3.998 -14.069 -24.911  1.00  0.00     0.085 A 
HETATM    6  S1  UNL     1       5.337 -15.061 -25.343  1.00  0.00    -0.063 SA
ENDROOT
BRANCH   1   7
HETATM    7  N4  UNL     1       8.003 -14.161 -25.069  1.00  0.00    -0.170 N 
HETATM    8  C2  UNL     1       8.626 -13.970 -26.317  1.00  0.00     0.681 C 
HETATM    9  N1  UNL     1       8.266 -12.982 -27.051  1.00  0.00    -0.230 N 
HETATM   10  N2  UNL     1       9.637 -14.853 -26.755  1.00  0.00    -0.177 N 
HETATM   11  C1  UNL     1       8.831 -12.687 -28.344  1.00  0.00     0.165 C 
ATOM     12  H1  UNL     1       7.532 -12.367 -26.698  1.00  0.00     0.177 HD
ATOM     13  H2  UNL     1       9.365 -15.709 -27.239  1.00  0.00     0.186 HD
ATOM     14  H4  UNL     1       8.554 -14.433 -24.255  1.00  0.00     0.186 HD
BRANCH  10  15
HETATM   15  C3  UNL     1      10.892 -14.618 -26.568  1.00  0.00     0.120 A 
HETATM   16  C4  UNL     1      11.751 -14.817 -27.646  1.00  0.00     0.049 A 
HETATM   17  C5  UNL     1      13.100 -14.586 -27.520  1.00  0.00     0.005 A 
HETATM   18  C6  UNL     1      13.572 -14.156 -26.297  1.00  0.00     0.017 A 
HETATM   19  C7  UNL     1      12.695 -13.972 -25.257  1.00  0.00     0.089 A 
HETATM   20  N3  UNL     1      11.377 -14.201 -25.396  1.00  0.00    -0.352 N 
ATOM     21  H3  UNL     1      10.747 -14.055 -24.606  1.00  0.00     0.166 HD
ENDBRANCH  10  15
ENDBRANCH   1   7
BRANCH   4  22
HETATM   22  C10 UNL     1       3.842 -11.813 -23.842  1.00  0.00     0.093 C 
HETATM   23  N6  UNL     1       4.525 -10.957 -23.193  1.00  0.00    -0.264 N 
ATOM     24  H6  UNL     1       5.517 -11.189 -23.223  1.00  0.00     0.194 HD
BRANCH  23  25
HETATM   25  O1  UNL     1       4.325  -9.873 -22.503  1.00  0.00    -0.285 OA
HETATM   26  C11 UNL     1       4.710  -8.568 -22.895  1.00  0.00     0.237 C 
ENDBRANCH  23  25
BRANCH  22  27
HETATM   27  C12 UNL     1       2.406 -11.748 -23.852  1.00  0.00     0.017 A 
HETATM   28  C13 UNL     1       1.707 -12.723 -23.092  1.00  0.00     0.015 A 
HETATM   29  C14 UNL     1       0.345 -12.862 -23.209  1.00  0.00     0.001 A 
HETATM   30  C15 UNL     1      -0.424 -12.094 -24.042  1.00  0.00     0.002 A 
HETATM   31  C16 UNL     1       0.224 -11.142 -24.787  1.00  0.00     0.025 A 
HETATM   32  C17 UNL     1       1.604 -11.002 -24.664  1.00  0.00     0.046 A 
HETATM   33 CL1  UNL     1       2.326  -9.582 -25.462  1.00  0.00    -0.083 Cl
ENDBRANCH  22  27
ENDBRANCH   4  22
TORSDOF 5
ENDMDL
MODEL 4
REMARK VINA RESULT: -9.000062890      1.532      3.103
REMARK  5 active torsions:
REMARK  status: ('A' for Active; 'I' for Inactive)
REMARK       I    between atoms: C2_4  and  N2_5 
REMARK       I    between atoms: C2_4  and  N4_14 
REMARK    1  A    between atoms: N2_5  and  C3_7 
REMARK    2  A    between atoms: N4_14  and  C8_16 
REMARK    3  A    between atoms: C9_19  and  C10_20 
REMARK    4  A    between atoms: C10_20  and  C12_25 
REMARK    5  A    between atoms: N6_21  and  O1_23 
ROOT
HETATM    1  C8  UNL     1       6.759 -14.310 -25.094  1.00  0.00     0.164 A 
HETATM    2  N5  UNL     1       6.056 -13.285 -24.659  1.00  0.00    -0.334 N 
ATOM      3  H5  UNL     1       6.535 -12.444 -24.339  1.00  0.00     0.168 HD
HETATM    4  C9  UNL     1       4.759 -13.335 -24.633  1.00  0.00     0.070 A 
HETATM    5  C18 UNL     1       4.172 -14.494 -25.074  1.00  0.00     0.085 A 
HETATM    6  S1  UNL     1       5.546 -15.439 -25.502  1.00  0.00    -0.063 SA
ENDROOT
BRANCH   1   7
HETATM    7  N4  UNL     1       8.179 -14.453 -25.202  1.00  0.00    -0.170 N 
HETATM    8  C2  UNL     1       8.815 -14.147 -26.420  1.00  0.00     0.681 C 
HETATM    9  N1  UNL     1       8.438 -13.114 -27.080  1.00  0.00    -0.230 N 
HETATM   10  N2  UNL     1       9.856 -14.965 -26.909  1.00  0.00    -0.177 N 
HETATM   11  C1  UNL     1       9.015 -12.702 -28.335  1.00  0.00     0.165 C 
ATOM     12  H1  UNL     1       7.683 -12.548 -26.692  1.00  0.00     0.177 HD
ATOM     13  H2  UNL     1       9.616 -15.787 -27.463  1.00  0.00     0.186 HD
ATOM     14  H4  UNL     1       8.725 -14.774 -24.403  1.00  0.00     0.186 HD
BRANCH  10  15
HETATM   15  C3  UNL     1      11.102 -14.713 -26.682  1.00  0.00     0.120 A 
HETATM   16  C4  UNL     1      11.986 -14.833 -27.750  1.00  0.00     0.049 A 
HETATM   17  C5  UNL     1      13.327 -14.580 -27.582  1.00  0.00     0.005 A 
HETATM   18  C6  UNL     1      13.764 -14.207 -26.329  1.00  0.00     0.017 A 
HETATM   19  C7  UNL     1      12.862 -14.099 -25.299  1.00  0.00     0.089 A 
HETATM   20  N3  UNL     1      11.552 -14.349 -25.479  1.00  0.00    -0.352 N 
ATOM     21  H3  UNL     1      10.903 -14.260 -24.696  1.00  0.00     0.166 HD
ENDBRANCH  10  15
ENDBRANCH   1   7
BRANCH   4  22
HETATM   22  C10 UNL     1       3.933 -12.252 -23.992  1.00  0.00     0.093 C 
HETATM   23  N6  UNL     1       2.781 -12.605 -23.581  1.00  0.00    -0.264 N 
ATOM     24  H6  UNL     1       2.617 -13.594 -23.769  1.00  0.00     0.194 HD
BRANCH  23  25
HETATM   25  O1  UNL     1       1.752 -12.071 -22.991  1.00  0.00    -0.285 OA
HETATM   26  C11 UNL     1       0.441 -12.605 -22.984  1.00  0.00     0.237 C 
ENDBRANCH  23  25
BRANCH  22  27
HETATM   27  C12 UNL     1       4.343 -10.876 -23.927  1.00  0.00     0.017 A 
HETATM   28  C13 UNL     1       5.523 -10.584 -23.192  1.00  0.00     0.015 A 
HETATM   29  C14 UNL     1       5.871  -9.286 -22.908  1.00  0.00     0.001 A 
HETATM   30  C15 UNL     1       5.132  -8.202 -23.299  1.00  0.00     0.002 A 
HETATM   31  C16 UNL     1       3.988  -8.453 -24.013  1.00  0.00     0.025 A 
HETATM   32  C17 UNL     1       3.639  -9.771 -24.303  1.00  0.00     0.046 A 
HETATM   33 CL1  UNL     1       2.292  -9.995 -25.447  1.00  0.00    -0.083 Cl
ENDBRANCH  22  27
ENDBRANCH   4  22
TORSDOF 5
ENDMDL
MODEL 5
REMARK VINA RESULT: -8.829413660      1.028      1.442
REMARK  5 active torsions:
REMARK  status: ('A' for Active; 'I' for Inactive)
REMARK       I    between atoms: C2_4  and  N2_5 
REMARK       I    between atoms: C2_4  and  N4_14 
REMARK    1  A    between atoms: N2_5  and  C3_7 
REMARK    2  A    between atoms: N4_14  and  C8_16 
REMARK    3  A    between atoms: C9_19  and  C10_20 
REMARK    4  A    between atoms: C10_20  and  C12_25 
REMARK    5  A    between atoms: N6_21  and  O1_23 
ROOT
HETATM    1  C8  UNL     1       5.742 -14.150 -25.423  1.00  0.00     0.164 A 
HETATM    2  N5  UNL     1       5.149 -13.033 -25.056  1.00  0.00    -0.334 N 
ATOM      3  H5  UNL     1       5.688 -12.168 -25.011  1.00  0.00     0.168 HD
HETATM    4  C9  UNL     1       3.888 -13.021 -24.751  1.00  0.00     0.070 A 
HETATM    5  C18 UNL     1       3.218 -14.216 -24.829  1.00  0.00     0.085 A 
HETATM    6  S1  UNL     1       4.467 -15.282 -25.345  1.00  0.00    -0.063 SA
ENDROOT
BRANCH   1   7
HETATM    7  N4  UNL     1       7.106 -14.371 -25.796  1.00  0.00    -0.170 N 
HETATM    8  C2  UNL     1       8.041 -13.329 -25.649  1.00  0.00     0.681 C 
HETATM    9  N1  UNL     1       7.999 -12.594 -24.600  1.00  0.00    -0.230 N 
HETATM   10  N2  UNL     1       9.016 -13.097 -26.644  1.00  0.00    -0.177 N 
HETATM   11  C1  UNL     1       8.903 -11.501 -24.341  1.00  0.00     0.165 C 
ATOM     12  H1  UNL     1       7.280 -12.794 -23.904  1.00  0.00     0.177 HD
ATOM     13  H2  UNL     1       8.774 -12.508 -27.441  1.00  0.00     0.186 HD
ATOM     14  H4  UNL     1       7.397 -15.276 -26.164  1.00  0.00     0.186 HD
BRANCH  10  15
HETATM   15  C3  UNL     1      10.202 -13.602 -26.584  1.00  0.00     0.120 A 
HETATM   16  C4  UNL     1      10.719 -14.169 -27.746  1.00  0.00     0.049 A 
HETATM   17  C5  UNL     1      11.976 -14.725 -27.756  1.00  0.00     0.005 A 
HETATM   18  C6  UNL     1      12.703 -14.704 -26.584  1.00  0.00     0.017 A 
HETATM   19  C7  UNL     1      12.161 -14.136 -25.458  1.00  0.00     0.089 A 
HETATM   20  N3  UNL     1      10.929 -13.594 -25.464  1.00  0.00    -0.352 N 
ATOM     21  H3  UNL     1      10.550 -13.178 -24.613  1.00  0.00     0.166 HD
ENDBRANCH  10  15
ENDBRANCH   1   7
BRANCH   4  22
HETATM   22  C10 UNL     1       3.220 -11.803 -24.171  1.00  0.00     0.093 C 
HETATM   23  N6  UNL     1       3.893 -11.165 -23.300  1.00  0.00    -0.264 N 
ATOM     24  H6  UNL     1       4.797 -11.611 -23.143  1.00  0.00     0.194 HD
BRANCH  23  25
HETATM   25  O1  UNL     1       3.764 -10.110 -22.550  1.00  0.00    -0.285 OA
HETATM   26  C11 UNL     1       4.139  -8.794 -22.913  1.00  0.00     0.237 C 
ENDBRANCH  23  25
BRANCH  22  27
HETATM   27  C12 UNL     1       1.870 -11.418 -24.479  1.00  0.00     0.017 A 
HETATM   28  C13 UNL     1       1.692 -10.393 -25.446  1.00  0.00     0.015 A 
HETATM   29  C14 UNL     1       0.458  -9.824 -25.648  1.00  0.00     0.001 A 
HETATM   30  C15 UNL     1      -0.666 -10.189 -24.957  1.00  0.00     0.002 A 
HETATM   31  C16 UNL     1      -0.525 -11.180 -24.018  1.00  0.00     0.025 A 
HETATM   32  C17 UNL     1       0.727 -11.757 -23.817  1.00  0.00     0.046 A 
HETATM   33 CL1  UNL     1       0.770 -13.202 -22.776  1.00  0.00    -0.083 Cl
ENDBRANCH  22  27
ENDBRANCH   4  22
TORSDOF 5
ENDMDL
