MODEL 1
REMARK VINA RESULT: -9.630023373      0.000      0.000
REMARK  6 active torsions:
REMARK  status: ('A' for Active; 'I' for Inactive)
REMARK    1  A    between atoms: N1_2  and  C2_4 
REMARK    2  A    between atoms: C4_8  and  N3_9 
REMARK    3  A    between atoms: N3_9  and  C5_11 
REMARK    4  A    between atoms: C5_11  and  C6_12 
REMARK    5  A    between atoms: C6_12  and  C7_13 
REMARK    6  A    between atoms: C13_22  and  C14_23 
ROOT
HETATM    1  C2  UNL     1      -1.691 -11.761 -23.953  1.00  0.00     0.146 A 
HETATM    2  N2  UNL     1      -0.429 -11.351 -23.833  1.00  0.00    -0.331 N 
ATOM      3  H2  UNL     1       0.134 -11.639 -23.033  1.00  0.00     0.168 HD
HETATM    4  C3  UNL     1       0.077 -10.571 -24.760  1.00  0.00     0.113 A 
HETATM    5  C4  UNL     1       1.375 -10.028 -24.827  1.00  0.00     0.133 A 
HETATM    6  N4  UNL     1       1.700  -9.251 -25.862  1.00  0.00    -0.325 N 
ATOM      7  H4  UNL     1       2.650  -8.879 -25.874  1.00  0.00     0.169 HD
HETATM    8  C13 UNL     1       0.910  -8.911 -26.883  1.00  0.00     0.135 A 
HETATM    9  N6  UNL     1      -0.333  -9.419 -26.839  1.00  0.00    -0.333 N 
ATOM     10  H6  UNL     1      -0.989  -9.201 -27.588  1.00  0.00     0.168 HD
HETATM   11  C19 UNL     1      -0.736 -10.225 -25.804  1.00  0.00     0.110 A 
HETATM   12  S1  UNL     1      -2.198 -11.037 -25.411  1.00  0.00    -0.034 SA
ENDROOT
BRANCH   5  13
HETATM   13  N3  UNL     1       2.215 -10.296 -23.889  1.00  0.00    -0.374 N 
ATOM     14  H3  UNL     1       1.946 -10.043 -22.938  1.00  0.00     0.161 HD
BRANCH  13  15
HETATM   15  C5  UNL     1       3.481 -10.912 -24.064  1.00  0.00     0.126 C 
BRANCH  15  16
HETATM   16  C6  UNL     1       3.264 -12.414 -24.164  1.00  0.00     0.058 C 
BRANCH  16  17
HETATM   17  C7  UNL     1       4.520 -13.110 -24.531  1.00  0.00    -0.057 A 
HETATM   18  C8  UNL     1       5.701 -12.406 -24.476  1.00  0.00     0.009 A 
HETATM   19  C9  UNL     1       6.875 -13.063 -24.823  1.00  0.00     0.024 A 
HETATM   20  C10 UNL     1       6.861 -14.383 -25.211  1.00  0.00     0.034 A 
HETATM   21 CL1  UNL     1       8.363 -15.185 -25.641  1.00  0.00    -0.084 Cl
HETATM   22  C11 UNL     1       5.684 -15.058 -25.257  1.00  0.00     0.024 A 
HETATM   23  C12 UNL     1       4.496 -14.425 -24.917  1.00  0.00     0.009 A 
ENDBRANCH  16  17
ENDBRANCH  15  16
ENDBRANCH  13  15
ENDBRANCH   5  13
BRANCH   8  24
HETATM   24  C14 UNL     1       1.349  -8.052 -27.979  1.00  0.00     0.076 A 
HETATM   25  C15 UNL     1       2.308  -7.081 -27.778  1.00  0.00     0.033 A 
HETATM   26  C16 UNL     1       2.748  -6.260 -28.766  1.00  0.00     0.004 A 
HETATM   27  C17 UNL     1       2.210  -6.405 -30.027  1.00  0.00     0.017 A 
HETATM   28  C18 UNL     1       1.250  -7.376 -30.225  1.00  0.00     0.088 A 
HETATM   29  N5  UNL     1       0.844  -8.170 -29.215  1.00  0.00    -0.363 N 
ATOM     30  H5  UNL     1       0.133  -8.880 -29.395  1.00  0.00     0.165 HD
ENDBRANCH   8  24
BRANCH   1  31
HETATM   31  N1  UNL     1      -2.359 -12.540 -23.126  1.00  0.00    -0.375 N 
HETATM   32  C1  UNL     1      -1.733 -12.850 -21.879  1.00  0.00     0.148 C 
ATOM     33  H1  UNL     1      -3.281 -12.905 -23.365  1.00  0.00     0.161 HD
ENDBRANCH   1  31
TORSDOF 6
ENDMDL
MODEL 2
REMARK VINA RESULT: -9.584950334      1.240      1.516
REMARK  6 active torsions:
REMARK  status: ('A' for Active; 'I' for Inactive)
REMARK    1  A    between atoms: N1_2  and  C2_4 
REMARK    2  A    between atoms: C4_8  and  N3_9 
REMARK    3  A    between atoms: N3_9  and  C5_11 
REMARK    4  A    between atoms: C5_11  and  C6_12 
REMARK    5  A    between atoms: C6_12  and  C7_13 
REMARK    6  A    between atoms: C13_22  and  C14_23 
ROOT
HETATM    1  C2  UNL     1      -1.499 -11.135 -24.715  1.00  0.00     0.146 A 
HETATM    2  N2  UNL     1      -0.309 -10.559 -24.551  1.00  0.00    -0.331 N 
ATOM      3  H2  UNL     1       0.194 -10.653 -23.669  1.00  0.00     0.168 HD
HETATM    4  C3  UNL     1       0.204  -9.868 -25.542  1.00  0.00     0.113 A 
HETATM    5  C4  UNL     1       1.435  -9.185 -25.581  1.00  0.00     0.133 A 
HETATM    6  N4  UNL     1       1.782  -8.535 -26.694  1.00  0.00    -0.325 N 
ATOM      7  H4  UNL     1       2.681  -8.054 -26.682  1.00  0.00     0.169 HD
HETATM    8  C13 UNL     1       1.072  -8.450 -27.822  1.00  0.00     0.135 A 
HETATM    9  N6  UNL     1      -0.106  -9.096 -27.806  1.00  0.00    -0.333 N 
ATOM     10  H6  UNL     1      -0.699  -9.074 -28.636  1.00  0.00     0.168 HD
HETATM   11  C19 UNL     1      -0.527  -9.784 -26.696  1.00  0.00     0.110 A 
HETATM   12  S1  UNL     1      -1.924 -10.704 -26.308  1.00  0.00    -0.034 SA
ENDROOT
BRANCH   5  13
HETATM   13  N3  UNL     1       2.195  -9.205 -24.543  1.00  0.00    -0.374 N 
ATOM     14  H3  UNL     1       1.795  -8.867 -23.667  1.00  0.00     0.161 HD
BRANCH  13  15
HETATM   15  C5  UNL     1       3.540  -9.656 -24.511  1.00  0.00     0.126 C 
BRANCH  15  16
HETATM   16  C6  UNL     1       3.661 -10.698 -23.409  1.00  0.00     0.058 C 
BRANCH  16  17
HETATM   17  C7  UNL     1       3.973 -12.033 -23.973  1.00  0.00    -0.057 A 
HETATM   18  C8  UNL     1       5.291 -12.357 -24.204  1.00  0.00     0.009 A 
HETATM   19  C9  UNL     1       5.577 -13.609 -24.733  1.00  0.00     0.024 A 
HETATM   20  C10 UNL     1       4.572 -14.505 -25.019  1.00  0.00     0.034 A 
HETATM   21 CL1  UNL     1       4.969 -16.081 -25.686  1.00  0.00    -0.084 Cl
HETATM   22  C11 UNL     1       3.280 -14.164 -24.782  1.00  0.00     0.024 A 
HETATM   23  C12 UNL     1       2.965 -12.919 -24.254  1.00  0.00     0.009 A 
ENDBRANCH  16  17
ENDBRANCH  15  16
ENDBRANCH  13  15
ENDBRANCH   5  13
BRANCH   8  24
HETATM   24  C14 UNL     1       1.528  -7.715 -28.998  1.00  0.00     0.076 A 
HETATM   25  C15 UNL     1       2.821  -7.240 -29.080  1.00  0.00     0.033 A 
HETATM   26  C16 UNL     1       3.290  -6.552 -30.152  1.00  0.00     0.004 A 
HETATM   27  C17 UNL     1       2.433  -6.319 -31.207  1.00  0.00     0.017 A 
HETATM   28  C18 UNL     1       1.141  -6.795 -31.122  1.00  0.00     0.088 A 
HETATM   29  N5  UNL     1       0.718  -7.474 -30.038  1.00  0.00    -0.363 N 
ATOM     30  H5  UNL     1      -0.244  -7.813 -30.008  1.00  0.00     0.165 HD
ENDBRANCH   8  24
BRANCH   1  31
HETATM   31  N1  UNL     1      -2.162 -11.860 -23.836  1.00  0.00    -0.375 N 
HETATM   32  C1  UNL     1      -1.388 -12.623 -22.908  1.00  0.00     0.148 C 
ATOM     33  H1  UNL     1      -3.182 -11.876 -23.819  1.00  0.00     0.161 HD
ENDBRANCH   1  31
TORSDOF 6
ENDMDL
MODEL 3
REMARK VINA RESULT: -9.292316364      4.143      6.542
REMARK  6 active torsions:
REMARK  status: ('A' for Active; 'I' for Inactive)
REMARK    1  A    between atoms: N1_2  and  C2_4 
REMARK    2  A    between atoms: C4_8  and  N3_9 
REMARK    3  A    between atoms: N3_9  and  C5_11 
REMARK    4  A    between atoms: C5_11  and  C6_12 
REMARK    5  A    between atoms: C6_12  and  C7_13 
REMARK    6  A    between atoms: C13_22  and  C14_23 
ROOT
HETATM    1  C2  UNL     1       5.921  -6.406 -23.222  1.00  0.00     0.146 A 
HETATM    2  N2  UNL     1       6.504  -7.573 -23.493  1.00  0.00    -0.331 N 
ATOM      3  H2  UNL     1       7.515  -7.629 -23.618  1.00  0.00     0.168 HD
HETATM    4  C3  UNL     1       5.758  -8.648 -23.596  1.00  0.00     0.113 A 
HETATM    5  C4  UNL     1       6.166  -9.967 -23.873  1.00  0.00     0.133 A 
HETATM    6  N4  UNL     1       5.245 -10.931 -23.936  1.00  0.00    -0.325 N 
ATOM      7  H4  UNL     1       5.581 -11.873 -24.138  1.00  0.00     0.169 HD
HETATM    8  C13 UNL     1       3.929 -10.789 -23.762  1.00  0.00     0.135 A 
HETATM    9  N6  UNL     1       3.519  -9.538 -23.495  1.00  0.00    -0.333 N 
ATOM     10  H6  UNL     1       2.525  -9.359 -23.349  1.00  0.00     0.168 HD
HETATM   11  C19 UNL     1       4.410  -8.498 -23.416  1.00  0.00     0.110 A 
HETATM   12  S1  UNL     1       4.270  -6.814 -23.105  1.00  0.00    -0.034 SA
ENDROOT
BRANCH   5  13
HETATM   13  N3  UNL     1       7.416 -10.210 -24.058  1.00  0.00    -0.374 N 
ATOM     14  H3  UNL     1       7.979  -9.465 -24.470  1.00  0.00     0.161 HD
BRANCH  13  15
HETATM   15  C5  UNL     1       8.079 -11.423 -23.739  1.00  0.00     0.126 C 
BRANCH  15  16
HETATM   16  C6  UNL     1       8.494 -12.090 -25.042  1.00  0.00     0.058 C 
BRANCH  16  17
HETATM   17  C7  UNL     1       7.525 -13.141 -25.433  1.00  0.00    -0.057 A 
HETATM   18  C8  UNL     1       7.259 -14.155 -24.542  1.00  0.00     0.009 A 
HETATM   19  C9  UNL     1       6.350 -15.138 -24.915  1.00  0.00     0.024 A 
HETATM   20  C10 UNL     1       5.729 -15.100 -26.142  1.00  0.00     0.034 A 
HETATM   21 CL1  UNL     1       4.584 -16.357 -26.582  1.00  0.00    -0.084 Cl
HETATM   22  C11 UNL     1       6.006 -14.090 -27.006  1.00  0.00     0.024 A 
HETATM   23  C12 UNL     1       6.911 -13.096 -26.659  1.00  0.00     0.009 A 
ENDBRANCH  16  17
ENDBRANCH  15  16
ENDBRANCH  13  15
ENDBRANCH   5  13
BRANCH   8  24
HETATM   24  C14 UNL     1       2.989 -11.903 -23.848  1.00  0.00     0.076 A 
HETATM   25  C15 UNL     1       3.357 -13.099 -24.430  1.00  0.00     0.033 A 
HETATM   26  C16 UNL     1       2.518 -14.161 -24.532  1.00  0.00     0.004 A 
HETATM   27  C17 UNL     1       1.240 -14.038 -24.031  1.00  0.00     0.017 A 
HETATM   28  C18 UNL     1       0.874 -12.841 -23.451  1.00  0.00     0.088 A 
HETATM   29  N5  UNL     1       1.740 -11.812 -23.370  1.00  0.00    -0.363 N 
ATOM     30  H5  UNL     1       1.437 -10.940 -22.933  1.00  0.00     0.165 HD
ENDBRANCH   8  24
BRANCH   1  31
HETATM   31  N1  UNL     1       6.507  -5.234 -23.085  1.00  0.00    -0.375 N 
HETATM   32  C1  UNL     1       5.682  -4.140 -22.678  1.00  0.00     0.148 C 
ATOM     33  H1  UNL     1       7.505  -5.112 -23.260  1.00  0.00     0.161 HD
ENDBRANCH   1  31
TORSDOF 6
ENDMDL
MODEL 4
REMARK VINA RESULT: -9.225622471      3.771      5.973
REMARK  6 active torsions:
REMARK  status: ('A' for Active; 'I' for Inactive)
REMARK    1  A    between atoms: N1_2  and  C2_4 
REMARK    2  A    between atoms: C4_8  and  N3_9 
REMARK    3  A    between atoms: N3_9  and  C5_11 
REMARK    4  A    between atoms: C5_11  and  C6_12 
REMARK    5  A    between atoms: C6_12  and  C7_13 
REMARK    6  A    between atoms: C13_22  and  C14_23 
ROOT
HETATM    1  C2  UNL     1       4.779  -4.672 -22.381  1.00  0.00     0.146 A 
HETATM    2  N2  UNL     1       5.207  -5.925 -22.528  1.00  0.00    -0.331 N 
ATOM      3  H2  UNL     1       6.181  -6.165 -22.341  1.00  0.00     0.168 HD
HETATM    4  C3  UNL     1       4.356  -6.846 -22.917  1.00  0.00     0.113 A 
HETATM    5  C4  UNL     1       4.596  -8.217 -23.133  1.00  0.00     0.133 A 
HETATM    6  N4  UNL     1       3.588  -8.997 -23.531  1.00  0.00    -0.325 N 
ATOM      7  H4  UNL     1       3.802  -9.984 -23.675  1.00  0.00     0.169 HD
HETATM    8  C13 UNL     1       2.328  -8.617 -23.759  1.00  0.00     0.135 A 
HETATM    9  N6  UNL     1       2.078  -7.313 -23.558  1.00  0.00    -0.333 N 
ATOM     10  H6  UNL     1       1.135  -6.955 -23.712  1.00  0.00     0.168 HD
HETATM   11  C19 UNL     1       3.066  -6.453 -23.149  1.00  0.00     0.110 A 
HETATM   12  S1  UNL     1       3.130  -4.773 -22.798  1.00  0.00    -0.034 SA
ENDROOT
BRANCH   5  13
HETATM   13  N3  UNL     1       5.779  -8.683 -22.941  1.00  0.00    -0.374 N 
ATOM     14  H3  UNL     1       6.560  -8.039 -23.070  1.00  0.00     0.161 HD
BRANCH  13  15
HETATM   15  C5  UNL     1       6.092 -10.016 -22.566  1.00  0.00     0.126 C 
BRANCH  15  16
HETATM   16  C6  UNL     1       6.981 -10.612 -23.648  1.00  0.00     0.058 C 
BRANCH  16  17
HETATM   17  C7  UNL     1       6.466 -11.929 -24.092  1.00  0.00    -0.057 A 
HETATM   18  C8  UNL     1       5.105 -12.103 -24.192  1.00  0.00     0.009 A 
HETATM   19  C9  UNL     1       4.628 -13.340 -24.607  1.00  0.00     0.024 A 
HETATM   20  C10 UNL     1       5.493 -14.367 -24.913  1.00  0.00     0.034 A 
HETATM   21 CL1  UNL     1       4.857 -15.919 -25.437  1.00  0.00    -0.084 Cl
HETATM   22  C11 UNL     1       6.832 -14.173 -24.807  1.00  0.00     0.024 A 
HETATM   23  C12 UNL     1       7.335 -12.946 -24.393  1.00  0.00     0.009 A 
ENDBRANCH  16  17
ENDBRANCH  15  16
ENDBRANCH  13  15
ENDBRANCH   5  13
BRANCH   8  24
HETATM   24  C14 UNL     1       1.284  -9.541 -24.194  1.00  0.00     0.076 A 
HETATM   25  C15 UNL     1       1.466 -10.906 -24.113  1.00  0.00     0.033 A 
HETATM   26  C16 UNL     1       0.524 -11.802 -24.504  1.00  0.00     0.004 A 
HETATM   27  C17 UNL     1      -0.668 -11.324 -25.005  1.00  0.00     0.017 A 
HETATM   28  C18 UNL     1      -0.847  -9.958 -25.086  1.00  0.00     0.088 A 
HETATM   29  N5  UNL     1       0.115  -9.104 -24.685  1.00  0.00    -0.363 N 
ATOM     30  H5  UNL     1      -0.050  -8.100 -24.757  1.00  0.00     0.165 HD
ENDBRANCH   8  24
BRANCH   1  31
HETATM   31  N1  UNL     1       5.487  -3.627 -22.002  1.00  0.00    -0.375 N 
HETATM   32  C1  UNL     1       6.792  -3.488 -22.568  1.00  0.00     0.148 C 
ATOM     33  H1  UNL     1       5.120  -2.947 -21.335  1.00  0.00     0.161 HD
ENDBRANCH   1  31
TORSDOF 6
ENDMDL
MODEL 5
REMARK VINA RESULT: -9.224365864      1.377      5.748
REMARK  6 active torsions:
REMARK  status: ('A' for Active; 'I' for Inactive)
REMARK    1  A    between atoms: N1_2  and  C2_4 
REMARK    2  A    between atoms: C4_8  and  N3_9 
REMARK    3  A    between atoms: N3_9  and  C5_11 
REMARK    4  A    between atoms: C5_11  and  C6_12 
REMARK    5  A    between atoms: C6_12  and  C7_13 
REMARK    6  A    between atoms: C13_22  and  C14_23 
ROOT
HETATM    1  C2  UNL     1      -0.016  -8.937 -28.013  1.00  0.00     0.146 A 
HETATM    2  N2  UNL     1       0.699  -8.982 -26.890  1.00  0.00    -0.331 N 
ATOM      3  H2  UNL     1       1.550  -8.428 -26.795  1.00  0.00     0.168 HD
HETATM    4  C3  UNL     1       0.290  -9.751 -25.907  1.00  0.00     0.113 A 
HETATM    5  C4  UNL     1       0.889  -9.945 -24.647  1.00  0.00     0.133 A 
HETATM    6  N4  UNL     1       0.313 -10.776 -23.776  1.00  0.00    -0.325 N 
ATOM      7  H4  UNL     1       0.777 -10.888 -22.875  1.00  0.00     0.169 HD
HETATM    8  C13 UNL     1      -0.809 -11.476 -23.964  1.00  0.00     0.135 A 
HETATM    9  N6  UNL     1      -1.397 -11.305 -25.160  1.00  0.00    -0.333 N 
ATOM     10  H6  UNL     1      -2.259 -11.808 -25.370  1.00  0.00     0.168 HD
HETATM   11  C19 UNL     1      -0.860 -10.466 -26.104  1.00  0.00     0.110 A 
HETATM   12  S1  UNL     1      -1.308 -10.003 -27.696  1.00  0.00    -0.034 SA
ENDROOT
BRANCH   5  13
HETATM   13  N3  UNL     1       1.976  -9.316 -24.368  1.00  0.00    -0.374 N 
ATOM     14  H3  UNL     1       1.884  -8.403 -23.920  1.00  0.00     0.161 HD
BRANCH  13  15
HETATM   15  C5  UNL     1       3.291  -9.782 -24.627  1.00  0.00     0.126 C 
BRANCH  15  16
HETATM   16  C6  UNL     1       3.686 -10.728 -23.503  1.00  0.00     0.058 C 
BRANCH  16  17
HETATM   17  C7  UNL     1       4.013 -12.073 -24.031  1.00  0.00    -0.057 A 
HETATM   18  C8  UNL     1       5.336 -12.395 -24.235  1.00  0.00     0.009 A 
HETATM   19  C9  UNL     1       5.637 -13.657 -24.732  1.00  0.00     0.024 A 
HETATM   20  C10 UNL     1       4.641 -14.565 -25.012  1.00  0.00     0.034 A 
HETATM   21 CL1  UNL     1       5.056 -16.153 -25.637  1.00  0.00    -0.084 Cl
HETATM   22  C11 UNL     1       3.344 -14.226 -24.802  1.00  0.00     0.024 A 
HETATM   23  C12 UNL     1       3.015 -12.971 -24.308  1.00  0.00     0.009 A 
ENDBRANCH  16  17
ENDBRANCH  15  16
ENDBRANCH  13  15
ENDBRANCH   5  13
BRANCH   8  24
HETATM   24  C14 UNL     1      -1.371 -12.366 -22.953  1.00  0.00     0.076 A 
HETATM   25  C15 UNL     1      -0.639 -12.730 -21.841  1.00  0.00     0.033 A 
HETATM   26  C16 UNL     1      -1.121 -13.554 -20.875  1.00  0.00     0.004 A 
HETATM   27  C17 UNL     1      -2.400 -14.048 -21.013  1.00  0.00     0.017 A 
HETATM   28  C18 UNL     1      -3.130 -13.683 -22.126  1.00  0.00     0.088 A 
HETATM   29  N5  UNL     1      -2.612 -12.862 -23.061  1.00  0.00    -0.363 N 
ATOM     30  H5  UNL     1      -3.179 -12.611 -23.871  1.00  0.00     0.165 HD
ENDBRANCH   8  24
BRANCH   1  31
HETATM   31  N1  UNL     1       0.241  -8.228 -29.094  1.00  0.00    -0.375 N 
HETATM   32  C1  UNL     1       1.113  -7.106 -28.942  1.00  0.00     0.148 C 
ATOM     33  H1  UNL     1      -0.165  -8.468 -29.999  1.00  0.00     0.161 HD
ENDBRANCH   1  31
TORSDOF 6
ENDMDL
