MODEL 1
REMARK VINA RESULT: -8.589755427      0.000      0.000
REMARK  5 active torsions:
REMARK  status: ('A' for Active; 'I' for Inactive)
REMARK    1  A    between atoms: N1_2  and  C1_4 
REMARK    2  A    between atoms: C3_8  and  N3_9 
REMARK    3  A    between atoms: N3_9  and  C4_11 
REMARK    4  A    between atoms: C4_11  and  C5_12 
REMARK    5  A    between atoms: N5_22  and  C12_24 
ROOT
HETATM    1  C1  UNL     1      -0.163 -11.874 -24.238  1.00  0.00     0.163 A 
HETATM    2  C2  UNL     1      -0.002 -13.232 -23.892  1.00  0.00     0.146 A 
HETATM    3  N2  UNL     1       1.177 -13.825 -23.872  1.00  0.00    -0.199 N 
ATOM      4  H2  UNL     1       1.274 -14.808 -23.618  1.00  0.00     0.183 HD
HETATM    5  C3  UNL     1       2.239 -13.084 -24.198  1.00  0.00     0.679 A 
HETATM    6  N4  UNL     1       2.156 -11.809 -24.530  1.00  0.00    -0.174 N 
ATOM      7  H4  UNL     1       3.010 -11.304 -24.767  1.00  0.00     0.186 HD
HETATM    8  C11 UNL     1       0.940 -11.130 -24.568  1.00  0.00     0.157 A 
HETATM    9  N5  UNL     1       1.004  -9.970 -24.850  1.00  0.00    -0.320 N 
ATOM     10  H5  UNL     1       2.004  -9.856 -25.016  1.00  0.00     0.169 HD
ENDROOT
BRANCH   5  11
HETATM   11  N3  UNL     1       3.391 -13.677 -24.177  1.00  0.00    -0.222 N 
ATOM     12  H3  UNL     1       4.022 -13.463 -23.404  1.00  0.00     0.178 HD
BRANCH  11  13
HETATM   13  C4  UNL     1       3.839 -14.615 -25.167  1.00  0.00     0.176 C 
BRANCH  13  14
HETATM   14  C5  UNL     1       5.294 -14.340 -25.380  1.00  0.00    -0.039 A 
HETATM   15  C6  UNL     1       6.098 -15.146 -26.171  1.00  0.00     0.009 A 
HETATM   16  C7  UNL     1       7.429 -14.903 -26.372  1.00  0.00     0.002 A 
HETATM   17  C8  UNL     1       8.027 -13.822 -25.781  1.00  0.00     0.019 A 
HETATM   18  C9  UNL     1       7.262 -13.000 -24.989  1.00  0.00     0.011 A 
HETATM   19 BR1  UNL     1       8.028 -11.476 -24.132  1.00  0.00    -0.051 Br
HETATM   20  C10 UNL     1       5.912 -13.256 -24.792  1.00  0.00     0.027 A 
ENDBRANCH  13  14
ENDBRANCH  11  13
ENDBRANCH   5  11
BRANCH   1  21
HETATM   21  N1  UNL     1      -1.460 -11.355 -24.218  1.00  0.00    -0.110 N 
HETATM   22  O1  UNL     1      -2.145 -11.516 -23.160  1.00  0.00    -0.532 OA
HETATM   23  O2  UNL     1      -2.053 -10.694 -25.215  1.00  0.00    -0.532 OA
ENDBRANCH   1  21
BRANCH   9  24
HETATM   24  C12 UNL     1       0.556  -8.740 -25.077  1.00  0.00     0.148 A 
HETATM   25  C13 UNL     1       0.063  -8.231 -26.310  1.00  0.00     0.058 A 
HETATM   26  C14 UNL     1      -0.295  -6.932 -26.131  1.00  0.00     0.029 A 
HETATM   27  C15 UNL     1      -0.026  -6.649 -24.812  1.00  0.00     0.144 A 
HETATM   28  O3  UNL     1       0.461  -7.700 -24.229  1.00  0.00    -0.306 OA
ENDBRANCH   9  24
TORSDOF 5
ENDMDL
MODEL 2
REMARK VINA RESULT: -8.478964427      1.127      1.630
REMARK  5 active torsions:
REMARK  status: ('A' for Active; 'I' for Inactive)
REMARK    1  A    between atoms: N1_2  and  C1_4 
REMARK    2  A    between atoms: C3_8  and  N3_9 
REMARK    3  A    between atoms: N3_9  and  C4_11 
REMARK    4  A    between atoms: C4_11  and  C5_12 
REMARK    5  A    between atoms: N5_22  and  C12_24 
ROOT
HETATM    1  C1  UNL     1      -0.056 -11.680 -24.607  1.00  0.00     0.163 A 
HETATM    2  C2  UNL     1       0.187 -12.979 -24.113  1.00  0.00     0.146 A 
HETATM    3  N2  UNL     1       1.403 -13.426 -23.859  1.00  0.00    -0.199 N 
ATOM      4  H2  UNL     1       1.559 -14.369 -23.501  1.00  0.00     0.183 HD
HETATM    5  C3  UNL     1       2.421 -12.593 -24.088  1.00  0.00     0.679 A 
HETATM    6  N4  UNL     1       2.261 -11.366 -24.548  1.00  0.00    -0.174 N 
ATOM      7  H4  UNL     1       3.085 -10.784 -24.699  1.00  0.00     0.186 HD
HETATM    8  C11 UNL     1       1.003 -10.839 -24.835  1.00  0.00     0.157 A 
HETATM    9  N5  UNL     1       0.991  -9.705 -25.212  1.00  0.00    -0.320 N 
ATOM     10  H5  UNL     1       1.987  -9.487 -25.233  1.00  0.00     0.169 HD
ENDROOT
BRANCH   5  11
HETATM   11  N3  UNL     1       3.610 -13.044 -23.836  1.00  0.00    -0.222 N 
ATOM     12  H3  UNL     1       3.985 -12.896 -22.899  1.00  0.00     0.178 HD
BRANCH  11  13
HETATM   13  C4  UNL     1       4.433 -13.736 -24.787  1.00  0.00     0.176 C 
BRANCH  13  14
HETATM   14  C5  UNL     1       5.787 -13.102 -24.710  1.00  0.00    -0.039 A 
HETATM   15  C6  UNL     1       6.073 -12.054 -23.850  1.00  0.00     0.009 A 
HETATM   16  C7  UNL     1       7.307 -11.469 -23.772  1.00  0.00     0.002 A 
HETATM   17  C8  UNL     1       8.329 -11.914 -24.567  1.00  0.00     0.019 A 
HETATM   18  C9  UNL     1       8.084 -12.952 -25.434  1.00  0.00     0.011 A 
HETATM   19 BR1  UNL     1       9.460 -13.623 -26.572  1.00  0.00    -0.051 Br
HETATM   20  C10 UNL     1       6.828 -13.538 -25.503  1.00  0.00     0.027 A 
ENDBRANCH  13  14
ENDBRANCH  11  13
ENDBRANCH   5  11
BRANCH   1  21
HETATM   21  N1  UNL     1      -1.385 -11.317 -24.833  1.00  0.00    -0.110 N 
HETATM   22  O1  UNL     1      -2.124 -11.117 -23.820  1.00  0.00    -0.532 OA
HETATM   23  O2  UNL     1      -1.959 -11.154 -26.029  1.00  0.00    -0.532 OA
ENDBRANCH   1  21
BRANCH   9  24
HETATM   24  C12 UNL     1       0.460  -8.557 -25.620  1.00  0.00     0.148 A 
HETATM   25  C13 UNL     1       0.009  -8.251 -26.933  1.00  0.00     0.058 A 
HETATM   26  C14 UNL     1      -0.464  -6.976 -26.942  1.00  0.00     0.029 A 
HETATM   27  C15 UNL     1      -0.304  -6.510 -25.658  1.00  0.00     0.144 A 
HETATM   28  O3  UNL     1       0.227  -7.432 -24.919  1.00  0.00    -0.306 OA
ENDBRANCH   9  24
TORSDOF 5
ENDMDL
MODEL 3
REMARK VINA RESULT: -8.416331272      1.038      1.333
REMARK  5 active torsions:
REMARK  status: ('A' for Active; 'I' for Inactive)
REMARK    1  A    between atoms: N1_2  and  C1_4 
REMARK    2  A    between atoms: C3_8  and  N3_9 
REMARK    3  A    between atoms: N3_9  and  C4_11 
REMARK    4  A    between atoms: C4_11  and  C5_12 
REMARK    5  A    between atoms: N5_22  and  C12_24 
ROOT
HETATM    1  C1  UNL     1      -0.337 -11.608 -24.681  1.00  0.00     0.163 A 
HETATM    2  C2  UNL     1      -0.150 -12.873 -24.084  1.00  0.00     0.146 A 
HETATM    3  N2  UNL     1       1.045 -13.346 -23.781  1.00  0.00    -0.199 N 
ATOM      4  H2  UNL     1       1.160 -14.262 -23.348  1.00  0.00     0.183 HD
HETATM    5  C3  UNL     1       2.097 -12.574 -24.065  1.00  0.00     0.679 A 
HETATM    6  N4  UNL     1       1.990 -11.383 -24.622  1.00  0.00    -0.174 N 
ATOM      7  H4  UNL     1       2.839 -10.848 -24.810  1.00  0.00     0.186 HD
HETATM    8  C11 UNL     1       0.757 -10.831 -24.964  1.00  0.00     0.157 A 
HETATM    9  N5  UNL     1       0.794  -9.730 -25.430  1.00  0.00    -0.320 N 
ATOM     10  H5  UNL     1       1.798  -9.555 -25.457  1.00  0.00     0.169 HD
ENDROOT
BRANCH   5  11
HETATM   11  N3  UNL     1       3.265 -13.051 -23.765  1.00  0.00    -0.222 N 
ATOM     12  H3  UNL     1       3.303 -13.962 -23.309  1.00  0.00     0.178 HD
BRANCH  11  13
HETATM   13  C4  UNL     1       4.506 -12.381 -24.031  1.00  0.00     0.176 C 
BRANCH  13  14
HETATM   14  C5  UNL     1       5.364 -13.362 -24.768  1.00  0.00    -0.039 A 
HETATM   15  C6  UNL     1       4.951 -14.657 -25.040  1.00  0.00     0.009 A 
HETATM   16  C7  UNL     1       5.727 -15.560 -25.714  1.00  0.00     0.002 A 
HETATM   17  C8  UNL     1       6.972 -15.201 -26.154  1.00  0.00     0.019 A 
HETATM   18  C9  UNL     1       7.417 -13.926 -25.904  1.00  0.00     0.011 A 
HETATM   19 BR1  UNL     1       9.142 -13.357 -26.487  1.00  0.00    -0.051 Br
HETATM   20  C10 UNL     1       6.621 -13.017 -25.219  1.00  0.00     0.027 A 
ENDBRANCH  13  14
ENDBRANCH  11  13
ENDBRANCH   5  11
BRANCH   1  21
HETATM   21  N1  UNL     1      -1.648 -11.212 -24.950  1.00  0.00    -0.110 N 
HETATM   22  O1  UNL     1      -2.401 -10.949 -23.961  1.00  0.00    -0.532 OA
HETATM   23  O2  UNL     1      -2.191 -11.077 -26.163  1.00  0.00    -0.532 OA
ENDBRANCH   1  21
BRANCH   9  24
HETATM   24  C12 UNL     1       0.313  -8.599 -25.933  1.00  0.00     0.148 A 
HETATM   25  C13 UNL     1       0.035  -8.330 -27.301  1.00  0.00     0.058 A 
HETATM   26  C14 UNL     1      -0.441  -7.061 -27.405  1.00  0.00     0.029 A 
HETATM   27  C15 UNL     1      -0.454  -6.561 -26.124  1.00  0.00     0.144 A 
HETATM   28  O3  UNL     1      -0.018  -7.460 -25.298  1.00  0.00    -0.306 OA
ENDBRANCH   9  24
TORSDOF 5
ENDMDL
MODEL 4
REMARK VINA RESULT: -8.384335190      2.576      3.689
REMARK  5 active torsions:
REMARK  status: ('A' for Active; 'I' for Inactive)
REMARK    1  A    between atoms: N1_2  and  C1_4 
REMARK    2  A    between atoms: C3_8  and  N3_9 
REMARK    3  A    between atoms: N3_9  and  C4_11 
REMARK    4  A    between atoms: C4_11  and  C5_12 
REMARK    5  A    between atoms: N5_22  and  C12_24 
ROOT
HETATM    1  C1  UNL     1       0.550  -8.294 -25.790  1.00  0.00     0.163 A 
HETATM    2  C2  UNL     1       0.096  -8.992 -24.651  1.00  0.00     0.146 A 
HETATM    3  N2  UNL     1       0.786  -9.970 -24.095  1.00  0.00    -0.199 N 
ATOM      4  H2  UNL     1       0.442 -10.462 -23.271  1.00  0.00     0.183 HD
HETATM    5  C3  UNL     1       1.955 -10.288 -24.657  1.00  0.00     0.679 A 
HETATM    6  N4  UNL     1       2.437  -9.674 -25.721  1.00  0.00    -0.174 N 
ATOM      7  H4  UNL     1       3.338  -9.970 -26.096  1.00  0.00     0.186 HD
HETATM    8  C11 UNL     1       1.754  -8.635 -26.351  1.00  0.00     0.157 A 
HETATM    9  N5  UNL     1       2.313  -8.140 -27.284  1.00  0.00    -0.320 N 
ATOM     10  H5  UNL     1       3.159  -8.707 -27.339  1.00  0.00     0.169 HD
ENDROOT
BRANCH   5  11
HETATM   11  N3  UNL     1       2.623 -11.251 -24.102  1.00  0.00    -0.222 N 
ATOM     12  H3  UNL     1       3.470 -11.007 -23.587  1.00  0.00     0.178 HD
BRANCH  11  13
HETATM   13  C4  UNL     1       2.253 -12.636 -24.165  1.00  0.00     0.176 C 
BRANCH  13  14
HETATM   14  C5  UNL     1       3.493 -13.387 -24.539  1.00  0.00    -0.039 A 
HETATM   15  C6  UNL     1       3.462 -14.689 -25.014  1.00  0.00     0.009 A 
HETATM   16  C7  UNL     1       4.589 -15.383 -25.359  1.00  0.00     0.002 A 
HETATM   17  C8  UNL     1       5.820 -14.796 -25.241  1.00  0.00     0.019 A 
HETATM   18  C9  UNL     1       5.891 -13.506 -24.773  1.00  0.00     0.011 A 
HETATM   19 BR1  UNL     1       7.573 -12.625 -24.581  1.00  0.00    -0.051 Br
HETATM   20  C10 UNL     1       4.741 -12.811 -24.426  1.00  0.00     0.027 A 
ENDBRANCH  13  14
ENDBRANCH  11  13
ENDBRANCH   5  11
BRANCH   1  21
HETATM   21  N1  UNL     1      -0.265  -7.275 -26.287  1.00  0.00    -0.110 N 
HETATM   22  O1  UNL     1      -0.637  -6.369 -25.478  1.00  0.00    -0.532 OA
HETATM   23  O2  UNL     1      -0.691  -7.157 -27.547  1.00  0.00    -0.532 OA
ENDBRANCH   1  21
BRANCH   9  24
HETATM   24  C12 UNL     1       2.494  -7.295 -28.293  1.00  0.00     0.148 A 
HETATM   25  C13 UNL     1       2.796  -7.635 -29.641  1.00  0.00     0.058 A 
HETATM   26  C14 UNL     1       2.906  -6.488 -30.363  1.00  0.00     0.029 A 
HETATM   27  C15 UNL     1       2.678  -5.464 -29.474  1.00  0.00     0.144 A 
HETATM   28  O3  UNL     1       2.444  -5.950 -28.295  1.00  0.00    -0.306 OA
ENDBRANCH   9  24
TORSDOF 5
ENDMDL
MODEL 5
REMARK VINA RESULT: -8.371063180      4.036      7.123
REMARK  5 active torsions:
REMARK  status: ('A' for Active; 'I' for Inactive)
REMARK    1  A    between atoms: N1_2  and  C1_4 
REMARK    2  A    between atoms: C3_8  and  N3_9 
REMARK    3  A    between atoms: N3_9  and  C4_11 
REMARK    4  A    between atoms: C4_11  and  C5_12 
REMARK    5  A    between atoms: N5_22  and  C12_24 
ROOT
HETATM    1  C1  UNL     1       5.651 -13.777 -24.822  1.00  0.00     0.163 A 
HETATM    2  C2  UNL     1       4.899 -14.873 -25.297  1.00  0.00     0.146 A 
HETATM    3  N2  UNL     1       3.586 -14.941 -25.172  1.00  0.00    -0.199 N 
ATOM      4  H2  UNL     1       3.059 -15.740 -25.524  1.00  0.00     0.183 HD
HETATM    5  C3  UNL     1       2.977 -13.919 -24.566  1.00  0.00     0.679 A 
HETATM    6  N4  UNL     1       3.622 -12.866 -24.100  1.00  0.00    -0.174 N 
ATOM      7  H4  UNL     1       3.090 -12.121 -23.648  1.00  0.00     0.186 HD
HETATM    8  C11 UNL     1       5.006 -12.738 -24.203  1.00  0.00     0.157 A 
HETATM    9  N5  UNL     1       5.464 -11.721 -23.773  1.00  0.00    -0.320 N 
ATOM     10  H5  UNL     1       4.630 -11.258 -23.413  1.00  0.00     0.169 HD
ENDROOT
BRANCH   5  11
HETATM   11  N3  UNL     1       1.688 -13.998 -24.448  1.00  0.00    -0.222 N 
ATOM     12  H3  UNL     1       1.174 -14.494 -25.175  1.00  0.00     0.178 HD
BRANCH  11  13
HETATM   13  C4  UNL     1       0.938 -13.435 -23.362  1.00  0.00     0.176 C 
BRANCH  13  14
HETATM   14  C5  UNL     1       0.086 -12.355 -23.954  1.00  0.00    -0.039 A 
HETATM   15  C6  UNL     1      -1.295 -12.346 -23.838  1.00  0.00     0.009 A 
HETATM   16  C7  UNL     1      -2.082 -11.364 -24.375  1.00  0.00     0.002 A 
HETATM   17  C8  UNL     1      -1.511 -10.328 -25.065  1.00  0.00     0.019 A 
HETATM   18  C9  UNL     1      -0.144 -10.303 -25.201  1.00  0.00     0.011 A 
HETATM   19 BR1  UNL     1       0.719  -8.891 -26.150  1.00  0.00    -0.051 Br
HETATM   20  C10 UNL     1       0.644 -11.304 -24.652  1.00  0.00     0.027 A 
ENDBRANCH  13  14
ENDBRANCH  11  13
ENDBRANCH   5  11
BRANCH   1  21
HETATM   21  N1  UNL     1       7.033 -13.814 -25.016  1.00  0.00    -0.110 N 
HETATM   22  O1  UNL     1       7.675 -14.790 -24.517  1.00  0.00    -0.532 OA
HETATM   23  O2  UNL     1       7.752 -12.911 -25.689  1.00  0.00    -0.532 OA
ENDBRANCH   1  21
BRANCH   9  24
HETATM   24  C12 UNL     1       6.407 -10.832 -23.482  1.00  0.00     0.148 A 
HETATM   25  C13 UNL     1       7.309 -10.880 -22.383  1.00  0.00     0.058 A 
HETATM   26  C14 UNL     1       8.115  -9.787 -22.435  1.00  0.00     0.029 A 
HETATM   27  C15 UNL     1       7.714  -9.081 -23.545  1.00  0.00     0.144 A 
HETATM   28  O3  UNL     1       6.735  -9.698 -24.128  1.00  0.00    -0.306 OA
ENDBRANCH   9  24
TORSDOF 5
ENDMDL
