MODEL 1
REMARK VINA RESULT: -8.576729440      0.000      0.000
REMARK  4 active torsions:
REMARK  status: ('A' for Active; 'I' for Inactive)
REMARK    1  A    between atoms: O1_2  and  C2_3 
REMARK    2  A    between atoms: C7_8  and  C8_9 
REMARK    3  A    between atoms: C8_9  and  N1_10 
REMARK    4  A    between atoms: N5_19  and  C11_21 
ROOT
HETATM    1  N1  UNL     1       6.542 -11.145 -23.518  1.00  0.00    -0.228 N 
HETATM    2  N2  UNL     1       6.291 -10.907 -22.242  1.00  0.00    -0.265 N 
ATOM      3  H2  UNL     1       6.558 -11.530 -21.479  1.00  0.00     0.190 HD
HETATM    4  C9  UNL     1       5.642  -9.751 -22.074  1.00  0.00     0.168 A 
HETATM    5  N3  UNL     1       5.087  -8.892 -21.186  1.00  0.00    -0.281 N 
ATOM      6  H3  UNL     1       5.064  -9.025 -20.176  1.00  0.00     0.188 HD
HETATM    7  N4  UNL     1       4.573  -7.844 -21.837  1.00  0.00    -0.282 N 
ATOM      8  H4  UNL     1       4.096  -7.047 -21.416  1.00  0.00     0.188 HD
HETATM    9  C10 UNL     1       4.802  -8.033 -23.149  1.00  0.00     0.153 A 
HETATM   10  N5  UNL     1       4.480  -7.271 -24.148  1.00  0.00    -0.338 N 
ATOM     11  H5  UNL     1       4.721  -7.544 -25.100  1.00  0.00     0.167 HD
HETATM   12  C17 UNL     1       5.476  -9.228 -23.347  1.00  0.00     0.142 A 
HETATM   13  N6  UNL     1       6.035 -10.103 -24.184  1.00  0.00    -0.277 N 
ATOM     14  H6  UNL     1       6.070  -9.991 -25.198  1.00  0.00     0.189 HD
ENDROOT
BRANCH   1  15
HETATM   15  C8  UNL     1       7.224 -12.287 -24.123  1.00  0.00     0.211 C 
BRANCH  15  16
HETATM   16  C7  UNL     1       6.227 -13.308 -24.532  1.00  0.00    -0.004 A 
HETATM   17  C2  UNL     1       6.627 -14.546 -24.996  1.00  0.00     0.076 A 
HETATM   18  C3  UNL     1       5.709 -15.510 -25.377  1.00  0.00     0.037 A 
HETATM   19  C4  UNL     1       4.355 -15.249 -25.301  1.00  0.00     0.003 A 
HETATM   20  C5  UNL     1       3.939 -14.028 -24.844  1.00  0.00     0.001 A 
HETATM   21  C6  UNL     1       4.870 -13.075 -24.466  1.00  0.00     0.012 A 
BRANCH  17  22
HETATM   22  O1  UNL     1       7.986 -14.767 -25.057  1.00  0.00    -0.355 OA
HETATM   23  C1  UNL     1       8.768 -14.837 -26.210  1.00  0.00     0.210 C 
ENDBRANCH  17  22
ENDBRANCH  15  16
ENDBRANCH   1  15
BRANCH  10  24
HETATM   24  C11 UNL     1       3.791  -6.058 -23.905  1.00  0.00     0.051 A 
HETATM   25  C12 UNL     1       4.505  -4.926 -23.580  1.00  0.00     0.031 A 
HETATM   26  C13 UNL     1       3.811  -3.744 -23.345  1.00  0.00     0.002 A 
HETATM   27  C14 UNL     1       2.440  -3.662 -23.426  1.00  0.00     0.002 A 
HETATM   28  C15 UNL     1       1.741  -4.805 -23.755  1.00  0.00     0.021 A 
HETATM   29  C16 UNL     1       2.405  -5.988 -23.991  1.00  0.00     0.037 A 
HETATM   30 BR1  UNL     1       1.458  -7.572 -24.444  1.00  0.00    -0.049 Br
ENDBRANCH  10  24
TORSDOF 4
ENDMDL
MODEL 2
REMARK VINA RESULT: -8.515888816      1.129      1.475
REMARK  4 active torsions:
REMARK  status: ('A' for Active; 'I' for Inactive)
REMARK    1  A    between atoms: O1_2  and  C2_3 
REMARK    2  A    between atoms: C7_8  and  C8_9 
REMARK    3  A    between atoms: C8_9  and  N1_10 
REMARK    4  A    between atoms: N5_19  and  C11_21 
ROOT
HETATM    1  N1  UNL     1       6.525 -11.131 -23.507  1.00  0.00    -0.228 N 
HETATM    2  N2  UNL     1       6.238 -10.900 -22.237  1.00  0.00    -0.265 N 
ATOM      3  H2  UNL     1       6.485 -11.526 -21.471  1.00  0.00     0.190 HD
HETATM    4  C9  UNL     1       5.584  -9.745 -22.081  1.00  0.00     0.168 A 
HETATM    5  N3  UNL     1       5.005  -8.891 -21.205  1.00  0.00    -0.281 N 
ATOM      6  H3  UNL     1       4.955  -9.029 -20.196  1.00  0.00     0.188 HD
HETATM    7  N4  UNL     1       4.509  -7.839 -21.864  1.00  0.00    -0.282 N 
ATOM      8  H4  UNL     1       4.019  -7.044 -21.452  1.00  0.00     0.188 HD
HETATM    9  C10 UNL     1       4.774  -8.022 -23.170  1.00  0.00     0.153 A 
HETATM   10  N5  UNL     1       4.479  -7.255 -24.173  1.00  0.00    -0.338 N 
ATOM     11  H5  UNL     1       4.746  -7.522 -25.120  1.00  0.00     0.167 HD
HETATM   12  C17 UNL     1       5.453  -9.215 -23.356  1.00  0.00     0.142 A 
HETATM   13  N6  UNL     1       6.035 -10.085 -24.182  1.00  0.00    -0.277 N 
ATOM     14  H6  UNL     1       6.099  -9.968 -25.194  1.00  0.00     0.189 HD
ENDROOT
BRANCH   1  15
HETATM   15  C8  UNL     1       7.224 -12.269 -24.100  1.00  0.00     0.211 C 
BRANCH  15  16
HETATM   16  C7  UNL     1       6.240 -13.298 -24.522  1.00  0.00    -0.004 A 
HETATM   17  C2  UNL     1       6.656 -14.524 -25.001  1.00  0.00     0.076 A 
HETATM   18  C3  UNL     1       5.750 -15.495 -25.396  1.00  0.00     0.037 A 
HETATM   19  C4  UNL     1       4.393 -15.253 -25.317  1.00  0.00     0.003 A 
HETATM   20  C5  UNL     1       3.961 -14.043 -24.844  1.00  0.00     0.001 A 
HETATM   21  C6  UNL     1       4.880 -13.083 -24.454  1.00  0.00     0.012 A 
BRANCH  17  22
HETATM   22  O1  UNL     1       8.018 -14.727 -25.065  1.00  0.00    -0.355 OA
HETATM   23  C1  UNL     1       8.796 -14.802 -26.220  1.00  0.00     0.210 C 
ENDBRANCH  17  22
ENDBRANCH  15  16
ENDBRANCH   1  15
BRANCH  10  24
HETATM   24  C11 UNL     1       3.783  -6.043 -23.944  1.00  0.00     0.051 A 
HETATM   25  C12 UNL     1       2.409  -6.021 -24.045  1.00  0.00     0.031 A 
HETATM   26  C13 UNL     1       1.743  -4.821 -23.816  1.00  0.00     0.002 A 
HETATM   27  C14 UNL     1       2.402  -3.658 -23.493  1.00  0.00     0.002 A 
HETATM   28  C15 UNL     1       3.778  -3.699 -23.395  1.00  0.00     0.021 A 
HETATM   29  C16 UNL     1       4.461  -4.874 -23.617  1.00  0.00     0.037 A 
HETATM   30 BR1  UNL     1       6.356  -4.948 -23.486  1.00  0.00    -0.049 Br
ENDBRANCH  10  24
TORSDOF 4
ENDMDL
MODEL 3
REMARK VINA RESULT: -8.502377676      4.699      5.888
REMARK  4 active torsions:
REMARK  status: ('A' for Active; 'I' for Inactive)
REMARK    1  A    between atoms: O1_2  and  C2_3 
REMARK    2  A    between atoms: C7_8  and  C8_9 
REMARK    3  A    between atoms: C8_9  and  N1_10 
REMARK    4  A    between atoms: N5_19  and  C11_21 
ROOT
HETATM    1  N1  UNL     1       2.296  -9.743 -24.412  1.00  0.00    -0.228 N 
HETATM    2  N2  UNL     1       1.060  -9.278 -24.335  1.00  0.00    -0.265 N 
ATOM      3  H2  UNL     1       0.431  -9.449 -23.550  1.00  0.00     0.190 HD
HETATM    4  C9  UNL     1       0.737  -8.555 -25.412  1.00  0.00     0.168 A 
HETATM    5  N3  UNL     1      -0.221  -7.824 -26.029  1.00  0.00    -0.281 N 
ATOM      6  H3  UNL     1      -1.153  -7.644 -25.657  1.00  0.00     0.188 HD
HETATM    7  N4  UNL     1       0.241  -7.375 -27.200  1.00  0.00    -0.282 N 
ATOM      8  H4  UNL     1      -0.270  -6.800 -27.870  1.00  0.00     0.188 HD
HETATM    9  C10 UNL     1       1.503  -7.821 -27.331  1.00  0.00     0.153 A 
HETATM   10  N5  UNL     1       2.334  -7.628 -28.308  1.00  0.00    -0.338 N 
ATOM     11  H5  UNL     1       3.270  -8.030 -28.273  1.00  0.00     0.167 HD
HETATM   12  C17 UNL     1       1.861  -8.573 -26.224  1.00  0.00     0.142 A 
HETATM   13  N6  UNL     1       2.774  -9.300 -25.580  1.00  0.00    -0.277 N 
ATOM     14  H6  UNL     1       3.712  -9.493 -25.931  1.00  0.00     0.189 HD
ENDROOT
BRANCH   1  15
HETATM   15  C8  UNL     1       3.029 -10.568 -23.455  1.00  0.00     0.211 C 
BRANCH  15  16
HETATM   16  C7  UNL     1       3.143 -11.955 -23.972  1.00  0.00    -0.004 A 
HETATM   17  C2  UNL     1       2.059 -12.811 -23.955  1.00  0.00     0.076 A 
HETATM   18  C3  UNL     1       2.149 -14.106 -24.436  1.00  0.00     0.037 A 
HETATM   19  C4  UNL     1       3.342 -14.576 -24.950  1.00  0.00     0.003 A 
HETATM   20  C5  UNL     1       4.427 -13.743 -24.975  1.00  0.00     0.001 A 
HETATM   21  C6  UNL     1       4.321 -12.450 -24.490  1.00  0.00     0.012 A 
BRANCH  17  22
HETATM   22  O1  UNL     1       0.887 -12.305 -23.434  1.00  0.00    -0.355 OA
HETATM   23  C1  UNL     1      -0.407 -12.568 -23.884  1.00  0.00     0.210 C 
ENDBRANCH  17  22
ENDBRANCH  15  16
ENDBRANCH   1  15
BRANCH  10  24
HETATM   24  C11 UNL     1       1.932  -6.854 -29.424  1.00  0.00     0.051 A 
HETATM   25  C12 UNL     1       1.113  -7.416 -30.378  1.00  0.00     0.031 A 
HETATM   26  C13 UNL     1       0.729  -6.640 -31.467  1.00  0.00     0.002 A 
HETATM   27  C14 UNL     1       1.134  -5.335 -31.627  1.00  0.00     0.002 A 
HETATM   28  C15 UNL     1       1.954  -4.788 -30.661  1.00  0.00     0.021 A 
HETATM   29  C16 UNL     1       2.349  -5.535 -29.574  1.00  0.00     0.037 A 
HETATM   30 BR1  UNL     1       3.478  -4.799 -28.234  1.00  0.00    -0.049 Br
ENDBRANCH  10  24
TORSDOF 4
ENDMDL
MODEL 4
REMARK VINA RESULT: -8.409400588      4.375      5.322
REMARK  4 active torsions:
REMARK  status: ('A' for Active; 'I' for Inactive)
REMARK    1  A    between atoms: O1_2  and  C2_3 
REMARK    2  A    between atoms: C7_8  and  C8_9 
REMARK    3  A    between atoms: C8_9  and  N1_10 
REMARK    4  A    between atoms: N5_19  and  C11_21 
ROOT
HETATM    1  N1  UNL     1       2.317  -9.982 -24.379  1.00  0.00    -0.228 N 
HETATM    2  N2  UNL     1       1.058  -9.582 -24.331  1.00  0.00    -0.265 N 
ATOM      3  H2  UNL     1       0.413  -9.810 -23.574  1.00  0.00     0.190 HD
HETATM    4  C9  UNL     1       0.733  -8.844 -25.396  1.00  0.00     0.168 A 
HETATM    5  N3  UNL     1      -0.241  -8.143 -26.024  1.00  0.00    -0.281 N 
ATOM      6  H3  UNL     1      -1.192  -8.022 -25.679  1.00  0.00     0.188 HD
HETATM    7  N4  UNL     1       0.236  -7.634 -27.165  1.00  0.00    -0.282 N 
ATOM      8  H4  UNL     1      -0.282  -7.065 -27.834  1.00  0.00     0.188 HD
HETATM    9  C10 UNL     1       1.523  -8.011 -27.266  1.00  0.00     0.153 A 
HETATM   10  N5  UNL     1       2.375  -7.746 -28.207  1.00  0.00    -0.338 N 
ATOM     11  H5  UNL     1       3.329  -8.102 -28.151  1.00  0.00     0.167 HD
HETATM   12  C17 UNL     1       1.882  -8.779 -26.170  1.00  0.00     0.142 A 
HETATM   13  N6  UNL     1       2.810  -9.479 -25.516  1.00  0.00    -0.277 N 
ATOM     14  H6  UNL     1       3.768  -9.613 -25.841  1.00  0.00     0.189 HD
ENDROOT
BRANCH   1  15
HETATM   15  C8  UNL     1       3.060 -10.799 -23.422  1.00  0.00     0.211 C 
BRANCH  15  16
HETATM   16  C7  UNL     1       3.279 -12.156 -23.984  1.00  0.00    -0.004 A 
HETATM   17  C2  UNL     1       4.535 -12.561 -24.392  1.00  0.00     0.076 A 
HETATM   18  C3  UNL     1       4.755 -13.824 -24.916  1.00  0.00     0.037 A 
HETATM   19  C4  UNL     1       3.709 -14.716 -25.043  1.00  0.00     0.003 A 
HETATM   20  C5  UNL     1       2.457 -14.333 -24.645  1.00  0.00     0.001 A 
HETATM   21  C6  UNL     1       2.254 -13.066 -24.123  1.00  0.00     0.012 A 
BRANCH  17  22
HETATM   22  O1  UNL     1       5.552 -11.642 -24.249  1.00  0.00    -0.355 OA
HETATM   23  C1  UNL     1       6.800 -11.863 -23.667  1.00  0.00     0.210 C 
ENDBRANCH  17  22
ENDBRANCH  15  16
ENDBRANCH   1  15
BRANCH  10  24
HETATM   24  C11 UNL     1       1.970  -6.959 -29.312  1.00  0.00     0.051 A 
HETATM   25  C12 UNL     1       1.182  -7.521 -30.292  1.00  0.00     0.031 A 
HETATM   26  C13 UNL     1       0.795  -6.731 -31.370  1.00  0.00     0.002 A 
HETATM   27  C14 UNL     1       1.168  -5.414 -31.496  1.00  0.00     0.002 A 
HETATM   28  C15 UNL     1       1.958  -4.867 -30.505  1.00  0.00     0.021 A 
HETATM   29  C16 UNL     1       2.354  -5.627 -29.427  1.00  0.00     0.037 A 
HETATM   30 BR1  UNL     1       3.442  -4.891 -28.054  1.00  0.00    -0.049 Br
ENDBRANCH  10  24
TORSDOF 4
ENDMDL
MODEL 5
REMARK VINA RESULT: -8.326149367      1.715      2.102
REMARK  4 active torsions:
REMARK  status: ('A' for Active; 'I' for Inactive)
REMARK    1  A    between atoms: O1_2  and  C2_3 
REMARK    2  A    between atoms: C7_8  and  C8_9 
REMARK    3  A    between atoms: C8_9  and  N1_10 
REMARK    4  A    between atoms: N5_19  and  C11_21 
ROOT
HETATM    1  N1  UNL     1       6.592 -11.357 -23.732  1.00  0.00    -0.228 N 
HETATM    2  N2  UNL     1       6.484 -10.655 -22.616  1.00  0.00    -0.265 N 
ATOM      3  H2  UNL     1       7.094 -10.769 -21.806  1.00  0.00     0.190 HD
HETATM    4  C9  UNL     1       5.478  -9.778 -22.681  1.00  0.00     0.168 A 
HETATM    5  N3  UNL     1       4.791  -8.806 -22.036  1.00  0.00    -0.281 N 
ATOM      6  H3  UNL     1       4.989  -8.473 -21.093  1.00  0.00     0.188 HD
HETATM    7  N4  UNL     1       3.813  -8.348 -22.824  1.00  0.00    -0.282 N 
ATOM      8  H4  UNL     1       3.142  -7.616 -22.591  1.00  0.00     0.188 HD
HETATM    9  C10 UNL     1       3.876  -9.032 -23.981  1.00  0.00     0.153 A 
HETATM   10  N5  UNL     1       3.124  -8.920 -25.032  1.00  0.00    -0.338 N 
ATOM     11  H5  UNL     1       3.290  -9.510 -25.846  1.00  0.00     0.167 HD
HETATM   12  C17 UNL     1       4.914  -9.948 -23.936  1.00  0.00     0.142 A 
HETATM   13  N6  UNL     1       5.619 -10.910 -24.533  1.00  0.00    -0.277 N 
ATOM     14  H6  UNL     1       5.440 -11.258 -25.475  1.00  0.00     0.189 HD
ENDROOT
BRANCH   1  15
HETATM   15  C8  UNL     1       7.550 -12.408 -24.067  1.00  0.00     0.211 C 
BRANCH  15  16
HETATM   16  C7  UNL     1       6.884 -13.452 -24.886  1.00  0.00    -0.004 A 
HETATM   17  C2  UNL     1       7.415 -13.853 -26.096  1.00  0.00     0.076 A 
HETATM   18  C3  UNL     1       6.807 -14.827 -26.869  1.00  0.00     0.037 A 
HETATM   19  C4  UNL     1       5.638 -15.426 -26.441  1.00  0.00     0.003 A 
HETATM   20  C5  UNL     1       5.096 -15.042 -25.245  1.00  0.00     0.001 A 
HETATM   21  C6  UNL     1       5.717 -14.066 -24.483  1.00  0.00     0.012 A 
BRANCH  17  22
HETATM   22  O1  UNL     1       8.582 -13.232 -26.488  1.00  0.00    -0.355 OA
HETATM   23  C1  UNL     1       9.842 -13.819 -26.602  1.00  0.00     0.210 C 
ENDBRANCH  17  22
ENDBRANCH  15  16
ENDBRANCH   1  15
BRANCH  10  24
HETATM   24  C11 UNL     1       2.072  -7.972 -25.039  1.00  0.00     0.051 A 
HETATM   25  C12 UNL     1       2.369  -6.630 -25.117  1.00  0.00     0.031 A 
HETATM   26  C13 UNL     1       1.322  -5.714 -25.123  1.00  0.00     0.002 A 
HETATM   27  C14 UNL     1       0.003  -6.097 -25.054  1.00  0.00     0.002 A 
HETATM   28  C15 UNL     1      -0.277  -7.447 -24.977  1.00  0.00     0.021 A 
HETATM   29  C16 UNL     1       0.742  -8.373 -24.969  1.00  0.00     0.037 A 
HETATM   30 BR1  UNL     1       0.375 -10.235 -24.863  1.00  0.00    -0.049 Br
ENDBRANCH  10  24
TORSDOF 4
ENDMDL
