MODEL 1
REMARK VINA RESULT: -9.413532814      0.000      0.000
REMARK  5 active torsions:
REMARK  status: ('A' for Active; 'I' for Inactive)
REMARK    1  A    between atoms: O1_2  and  C2_3 
REMARK    2  A    between atoms: C5_6  and  N1_7 
REMARK    3  A    between atoms: N1_7  and  C6_9 
REMARK    4  A    between atoms: C7_12  and  O2_13 
REMARK    5  A    between atoms: O2_13  and  C8_14 
ROOT
HETATM    1  C2  UNL     1      -1.091 -11.852 -23.901  1.00  0.00     0.069 A 
HETATM    2  C3  UNL     1       0.160 -12.314 -23.542  1.00  0.00     0.039 A 
HETATM    3  C4  UNL     1       1.326 -11.621 -23.820  1.00  0.00     0.034 A 
HETATM    4  C5  UNL     1       1.249 -10.418 -24.482  1.00  0.00     0.070 A 
HETATM    5  C16 UNL     1      -0.008  -9.943 -24.849  1.00  0.00     0.074 A 
HETATM    6  C17 UNL     1      -0.136  -8.701 -25.537  1.00  0.00     0.102 C 
HETATM    7  N4  UNL     1      -0.244  -7.685 -26.082  1.00  0.00    -0.191 NA
HETATM    8  C18 UNL     1      -1.163 -10.648 -24.563  1.00  0.00     0.061 A 
ENDROOT
BRANCH   4   9
HETATM    9  N1  UNL     1       2.375  -9.648 -24.806  1.00  0.00    -0.190 N 
ATOM     10  H1  UNL     1       2.305  -8.960 -25.556  1.00  0.00     0.184 HD
BRANCH   9  11
HETATM   11  C6  UNL     1       3.500  -9.783 -24.181  1.00  0.00     0.684 A 
HETATM   12  N2  UNL     1       4.362 -10.746 -24.523  1.00  0.00    -0.169 N 
HETATM   13  C7  UNL     1       5.570 -10.927 -23.886  1.00  0.00     0.181 A 
ATOM     14  H2  UNL     1       4.115 -11.374 -25.288  1.00  0.00     0.186 HD
HETATM   15  C14 UNL     1       5.906 -10.089 -22.863  1.00  0.00     0.078 A 
HETATM   16 BR1  UNL     1       7.545 -10.229 -21.929  1.00  0.00    -0.045 Br
HETATM   17  C15 UNL     1       4.994  -9.090 -22.520  1.00  0.00     0.129 A 
HETATM   18  N3  UNL     1       3.853  -8.974 -23.173  1.00  0.00    -0.200 N 
ATOM     19  H3  UNL     1       3.209  -8.233 -22.897  1.00  0.00     0.183 HD
BRANCH  13  20
HETATM   20  O2  UNL     1       6.399 -11.960 -24.318  1.00  0.00    -0.292 OA
BRANCH  20  21
HETATM   21  C8  UNL     1       5.858 -13.201 -24.671  1.00  0.00     0.077 A 
HETATM   22  C9  UNL     1       4.507 -13.426 -24.637  1.00  0.00     0.037 A 
HETATM   23  C10 UNL     1       4.003 -14.681 -25.002  1.00  0.00     0.003 A 
HETATM   24  C11 UNL     1       4.882 -15.662 -25.388  1.00  0.00     0.000 A 
HETATM   25  C12 UNL     1       6.239 -15.442 -25.423  1.00  0.00     0.003 A 
HETATM   26  C13 UNL     1       6.747 -14.218 -25.068  1.00  0.00     0.037 A 
ENDBRANCH  20  21
ENDBRANCH  13  20
ENDBRANCH   9  11
ENDBRANCH   4   9
BRANCH   1  27
HETATM   27  O1  UNL     1      -2.246 -12.586 -23.600  1.00  0.00    -0.356 OA
HETATM   28  C1  UNL     1      -2.404 -13.153 -22.323  1.00  0.00     0.210 C 
ENDBRANCH   1  27
TORSDOF 5
ENDMDL
MODEL 2
REMARK VINA RESULT: -9.351619633      1.132      1.324
REMARK  5 active torsions:
REMARK  status: ('A' for Active; 'I' for Inactive)
REMARK    1  A    between atoms: O1_2  and  C2_3 
REMARK    2  A    between atoms: C5_6  and  N1_7 
REMARK    3  A    between atoms: N1_7  and  C6_9 
REMARK    4  A    between atoms: C7_12  and  O2_13 
REMARK    5  A    between atoms: O2_13  and  C8_14 
ROOT
HETATM    1  C2  UNL     1      -1.365 -12.488 -23.047  1.00  0.00     0.069 A 
HETATM    2  C3  UNL     1      -0.099 -12.802 -22.596  1.00  0.00     0.039 A 
HETATM    3  C4  UNL     1       1.053 -12.296 -23.176  1.00  0.00     0.034 A 
HETATM    4  C5  UNL     1       0.944 -11.443 -24.248  1.00  0.00     0.070 A 
HETATM    5  C16 UNL     1      -0.329 -11.120 -24.712  1.00  0.00     0.074 A 
HETATM    6  C17 UNL     1      -0.490 -10.240 -25.822  1.00  0.00     0.102 C 
HETATM    7  N4  UNL     1      -0.625  -9.513 -26.713  1.00  0.00    -0.191 NA
HETATM    8  C18 UNL     1      -1.469 -11.634 -24.122  1.00  0.00     0.061 A 
ENDROOT
BRANCH   4   9
HETATM    9  N1  UNL     1       2.053 -10.883 -24.898  1.00  0.00    -0.190 N 
ATOM     10  H1  UNL     1       1.962 -10.591 -25.871  1.00  0.00     0.184 HD
BRANCH   9  11
HETATM   11  C6  UNL     1       3.189 -10.724 -24.299  1.00  0.00     0.684 A 
HETATM   12  N2  UNL     1       4.122 -11.681 -24.334  1.00  0.00    -0.169 N 
HETATM   13  C7  UNL     1       5.344 -11.556 -23.712  1.00  0.00     0.181 A 
ATOM     14  H2  UNL     1       3.920 -12.542 -24.843  1.00  0.00     0.186 HD
HETATM   15  C14 UNL     1       5.621 -10.406 -23.031  1.00  0.00     0.078 A 
HETATM   16 BR1  UNL     1       7.272 -10.114 -22.155  1.00  0.00    -0.045 Br
HETATM   17  C15 UNL     1       4.636  -9.418 -23.005  1.00  0.00     0.129 A 
HETATM   18  N3  UNL     1       3.485  -9.605 -23.624  1.00  0.00    -0.200 N 
ATOM     19  H3  UNL     1       2.787  -8.863 -23.586  1.00  0.00     0.183 HD
BRANCH  13  20
HETATM   20  O2  UNL     1       6.249 -12.612 -23.808  1.00  0.00    -0.292 OA
BRANCH  20  21
HETATM   21  C8  UNL     1       6.223 -13.467 -24.914  1.00  0.00     0.077 A 
HETATM   22  C9  UNL     1       5.557 -14.664 -24.875  1.00  0.00     0.037 A 
HETATM   23  C10 UNL     1       5.551 -15.491 -26.006  1.00  0.00     0.003 A 
HETATM   24  C11 UNL     1       6.217 -15.079 -27.133  1.00  0.00     0.000 A 
HETATM   25  C12 UNL     1       6.887 -13.880 -27.178  1.00  0.00     0.003 A 
HETATM   26  C13 UNL     1       6.902 -13.059 -26.078  1.00  0.00     0.037 A 
ENDBRANCH  20  21
ENDBRANCH  13  20
ENDBRANCH   9  11
ENDBRANCH   4   9
BRANCH   1  27
HETATM   27  O1  UNL     1      -2.504 -13.023 -22.432  1.00  0.00    -0.356 OA
HETATM   28  C1  UNL     1      -2.402 -13.618 -21.161  1.00  0.00     0.210 C 
ENDBRANCH   1  27
TORSDOF 5
ENDMDL
MODEL 3
REMARK VINA RESULT: -9.178797507      2.668      7.295
REMARK  5 active torsions:
REMARK  status: ('A' for Active; 'I' for Inactive)
REMARK    1  A    between atoms: O1_2  and  C2_3 
REMARK    2  A    between atoms: C5_6  and  N1_7 
REMARK    3  A    between atoms: N1_7  and  C6_9 
REMARK    4  A    between atoms: C7_12  and  O2_13 
REMARK    5  A    between atoms: O2_13  and  C8_14 
ROOT
HETATM    1  C2  UNL     1       6.720 -14.043 -24.794  1.00  0.00     0.069 A 
HETATM    2  C3  UNL     1       5.392 -14.387 -24.947  1.00  0.00     0.039 A 
HETATM    3  C4  UNL     1       4.356 -13.482 -24.777  1.00  0.00     0.034 A 
HETATM    4  C5  UNL     1       4.651 -12.181 -24.444  1.00  0.00     0.070 A 
HETATM    5  C16 UNL     1       5.989 -11.824 -24.288  1.00  0.00     0.074 A 
HETATM    6  C17 UNL     1       6.341 -10.486 -23.942  1.00  0.00     0.102 C 
HETATM    7  N4  UNL     1       6.631  -9.397 -23.677  1.00  0.00    -0.191 NA
HETATM    8  C18 UNL     1       7.010 -12.740 -24.460  1.00  0.00     0.061 A 
ENDROOT
BRANCH   4   9
HETATM    9  N1  UNL     1       3.670 -11.198 -24.253  1.00  0.00    -0.190 N 
ATOM     10  H1  UNL     1       3.938 -10.215 -24.306  1.00  0.00     0.184 HD
BRANCH   9  11
HETATM   11  C6  UNL     1       2.435 -11.500 -24.013  1.00  0.00     0.684 A 
HETATM   12  N2  UNL     1       1.439 -10.863 -24.637  1.00  0.00    -0.169 N 
HETATM   13  C7  UNL     1       0.111 -11.152 -24.413  1.00  0.00     0.181 A 
ATOM     14  H2  UNL     1       1.673 -10.132 -25.309  1.00  0.00     0.186 HD
HETATM   15  C14 UNL     1      -0.206 -12.130 -23.516  1.00  0.00     0.078 A 
HETATM   16 BR1  UNL     1      -1.993 -12.626 -23.141  1.00  0.00    -0.045 Br
HETATM   17  C15 UNL     1       0.846 -12.784 -22.873  1.00  0.00     0.129 A 
HETATM   18  N3  UNL     1       2.097 -12.456 -23.137  1.00  0.00    -0.200 N 
ATOM     19  H3  UNL     1       2.842 -12.954 -22.650  1.00  0.00     0.183 HD
BRANCH  13  20
HETATM   20  O2  UNL     1      -0.852 -10.431 -25.115  1.00  0.00    -0.292 OA
BRANCH  20  21
HETATM   21  C8  UNL     1      -0.483  -9.328 -25.892  1.00  0.00     0.077 A 
HETATM   22  C9  UNL     1      -0.236  -8.106 -25.324  1.00  0.00     0.037 A 
HETATM   23  C10 UNL     1       0.136  -7.026 -26.135  1.00  0.00     0.003 A 
HETATM   24  C11 UNL     1       0.243  -7.220 -27.489  1.00  0.00     0.000 A 
HETATM   25  C12 UNL     1      -0.005  -8.443 -28.065  1.00  0.00     0.003 A 
HETATM   26  C13 UNL     1      -0.369  -9.510 -27.283  1.00  0.00     0.037 A 
ENDBRANCH  20  21
ENDBRANCH  13  20
ENDBRANCH   9  11
ENDBRANCH   4   9
BRANCH   1  27
HETATM   27  O1  UNL     1       7.737 -14.990 -24.974  1.00  0.00    -0.356 OA
HETATM   28  C1  UNL     1       8.607 -14.885 -26.073  1.00  0.00     0.210 C 
ENDBRANCH   1  27
TORSDOF 5
ENDMDL
MODEL 4
REMARK VINA RESULT: -9.176383209      2.719      7.316
REMARK  5 active torsions:
REMARK  status: ('A' for Active; 'I' for Inactive)
REMARK    1  A    between atoms: O1_2  and  C2_3 
REMARK    2  A    between atoms: C5_6  and  N1_7 
REMARK    3  A    between atoms: N1_7  and  C6_9 
REMARK    4  A    between atoms: C7_12  and  O2_13 
REMARK    5  A    between atoms: O2_13  and  C8_14 
ROOT
HETATM    1  C2  UNL     1       8.485 -12.880 -25.988  1.00  0.00     0.069 A 
HETATM    2  C3  UNL     1       7.215 -13.392 -26.168  1.00  0.00     0.039 A 
HETATM    3  C4  UNL     1       6.147 -13.059 -25.352  1.00  0.00     0.034 A 
HETATM    4  C5  UNL     1       6.346 -12.180 -24.314  1.00  0.00     0.070 A 
HETATM    5  C16 UNL     1       7.623 -11.657 -24.123  1.00  0.00     0.074 A 
HETATM    6  C17 UNL     1       7.876 -10.742 -23.059  1.00  0.00     0.102 C 
HETATM    7  N4  UNL     1       8.081  -9.987 -22.205  1.00  0.00    -0.191 NA
HETATM    8  C18 UNL     1       8.679 -12.001 -24.947  1.00  0.00     0.061 A 
ENDROOT
BRANCH   4   9
HETATM    9  N1  UNL     1       5.325 -11.784 -23.438  1.00  0.00    -0.190 N 
ATOM     10  H1  UNL     1       5.426 -11.977 -22.441  1.00  0.00     0.184 HD
BRANCH   9  11
HETATM   11  C6  UNL     1       4.258 -11.183 -23.856  1.00  0.00     0.684 A 
HETATM   12  N2  UNL     1       3.118 -11.856 -24.036  1.00  0.00    -0.169 N 
HETATM   13  C7  UNL     1       1.959 -11.257 -24.479  1.00  0.00     0.181 A 
ATOM     14  H2  UNL     1       3.104 -12.856 -23.836  1.00  0.00     0.186 HD
HETATM   15  C14 UNL     1       1.971  -9.918 -24.746  1.00  0.00     0.078 A 
HETATM   16 BR1  UNL     1       0.437  -8.985 -25.340  1.00  0.00    -0.045 Br
HETATM   17  C15 UNL     1       3.170  -9.232 -24.552  1.00  0.00     0.129 A 
HETATM   18  N3  UNL     1       4.245  -9.870 -24.125  1.00  0.00    -0.200 N 
ATOM     19  H3  UNL     1       5.105  -9.338 -23.994  1.00  0.00     0.183 HD
BRANCH  13  20
HETATM   20  O2  UNL     1       0.821 -12.046 -24.634  1.00  0.00    -0.292 OA
BRANCH  20  21
HETATM   21  C8  UNL     1       0.044 -12.393 -23.523  1.00  0.00     0.077 A 
HETATM   22  C9  UNL     1       0.612 -12.913 -22.390  1.00  0.00     0.037 A 
HETATM   23  C10 UNL     1      -0.200 -13.244 -21.297  1.00  0.00     0.003 A 
HETATM   24  C11 UNL     1      -1.553 -13.037 -21.390  1.00  0.00     0.000 A 
HETATM   25  C12 UNL     1      -2.128 -12.516 -22.524  1.00  0.00     0.003 A 
HETATM   26  C13 UNL     1      -1.346 -12.187 -23.602  1.00  0.00     0.037 A 
ENDBRANCH  20  21
ENDBRANCH  13  20
ENDBRANCH   9  11
ENDBRANCH   4   9
BRANCH   1  27
HETATM   27  O1  UNL     1       9.538 -13.245 -26.837  1.00  0.00    -0.356 OA
HETATM   28  C1  UNL     1      10.340 -14.356 -26.522  1.00  0.00     0.210 C 
ENDBRANCH   1  27
TORSDOF 5
ENDMDL
MODEL 5
REMARK VINA RESULT: -9.160714692      2.695      7.515
REMARK  5 active torsions:
REMARK  status: ('A' for Active; 'I' for Inactive)
REMARK    1  A    between atoms: O1_2  and  C2_3 
REMARK    2  A    between atoms: C5_6  and  N1_7 
REMARK    3  A    between atoms: N1_7  and  C6_9 
REMARK    4  A    between atoms: C7_12  and  O2_13 
REMARK    5  A    between atoms: O2_13  and  C8_14 
ROOT
HETATM    1  C2  UNL     1       8.816 -13.391 -26.331  1.00  0.00     0.069 A 
HETATM    2  C3  UNL     1       8.647 -12.406 -25.378  1.00  0.00     0.039 A 
HETATM    3  C4  UNL     1       7.514 -12.313 -24.587  1.00  0.00     0.034 A 
HETATM    4  C5  UNL     1       6.507 -13.235 -24.747  1.00  0.00     0.070 A 
HETATM    5  C16 UNL     1       6.668 -14.232 -25.706  1.00  0.00     0.074 A 
HETATM    6  C17 UNL     1       5.649 -15.210 -25.907  1.00  0.00     0.102 C 
HETATM    7  N4  UNL     1       4.831 -16.014 -26.062  1.00  0.00    -0.191 NA
HETATM    8  C18 UNL     1       7.806 -14.311 -26.488  1.00  0.00     0.061 A 
ENDROOT
BRANCH   4   9
HETATM    9  N1  UNL     1       5.326 -13.219 -23.992  1.00  0.00    -0.190 N 
ATOM     10  H1  UNL     1       5.159 -13.966 -23.318  1.00  0.00     0.184 HD
BRANCH   9  11
HETATM   11  C6  UNL     1       4.442 -12.283 -24.123  1.00  0.00     0.684 A 
HETATM   12  N2  UNL     1       3.150 -12.581 -24.299  1.00  0.00    -0.169 N 
HETATM   13  C7  UNL     1       2.175 -11.619 -24.443  1.00  0.00     0.181 A 
ATOM     14  H2  UNL     1       2.875 -13.562 -24.328  1.00  0.00     0.186 HD
HETATM   15  C14 UNL     1       2.538 -10.303 -24.403  1.00  0.00     0.078 A 
HETATM   16 BR1  UNL     1       1.285  -8.897 -24.570  1.00  0.00    -0.045 Br
HETATM   17  C15 UNL     1       3.890 -10.012 -24.219  1.00  0.00     0.129 A 
HETATM   18  N3  UNL     1       4.772 -10.985 -24.088  1.00  0.00    -0.200 N 
ATOM     19  H3  UNL     1       5.752 -10.737 -23.954  1.00  0.00     0.183 HD
BRANCH  13  20
HETATM   20  O2  UNL     1       0.857 -12.032 -24.621  1.00  0.00    -0.292 OA
BRANCH  20  21
HETATM   21  C8  UNL     1       0.072 -12.391 -23.520  1.00  0.00     0.077 A 
HETATM   22  C9  UNL     1       0.637 -12.884 -22.373  1.00  0.00     0.037 A 
HETATM   23  C10 UNL     1      -0.183 -13.228 -21.290  1.00  0.00     0.003 A 
HETATM   24  C11 UNL     1      -1.540 -13.060 -21.405  1.00  0.00     0.000 A 
HETATM   25  C12 UNL     1      -2.111 -12.566 -22.553  1.00  0.00     0.003 A 
HETATM   26  C13 UNL     1      -1.322 -12.225 -23.622  1.00  0.00     0.037 A 
ENDBRANCH  20  21
ENDBRANCH  13  20
ENDBRANCH   9  11
ENDBRANCH   4   9
BRANCH   1  27
HETATM   27  O1  UNL     1       9.979 -13.449 -27.111  1.00  0.00    -0.356 OA
HETATM   28  C1  UNL     1      10.903 -14.491 -26.917  1.00  0.00     0.210 C 
ENDBRANCH   1  27
TORSDOF 5
ENDMDL
