MODEL 1
REMARK VINA RESULT: -7.047529215      0.000      0.000
REMARK  6 active torsions:
REMARK  status: ('A' for Active; 'I' for Inactive)
REMARK    1  A    between atoms: O1_2  and  C2_3 
REMARK    2  A    between atoms: C2_3  and  C3_4 
REMARK    3  A    between atoms: C3_4  and  N1_5 
REMARK       I    between atoms: N1_5  and  C4_7 
REMARK    4  A    between atoms: C4_7  and  C5_9 
REMARK    5  A    between atoms: C6_10  and  C7_11 
REMARK    6  A    between atoms: N2_15  and  C10_16 
ROOT
HETATM    1  C5  UNL     1     -33.283 -17.054  16.006  1.00  0.00     0.068 A 
HETATM    2  C6  UNL     1     -33.227 -18.357  15.593  1.00  0.00     0.067 A 
HETATM    3  N3  UNL     1     -34.442 -18.873  15.957  1.00  0.00    -0.350 N 
ATOM      4  H3  UNL     1     -34.728 -19.837  15.788  1.00  0.00     0.166 HD
HETATM    5  C17 UNL     1     -35.208 -17.956  16.561  1.00  0.00     0.108 A 
HETATM    6  C18 UNL     1     -34.520 -16.772  16.620  1.00  0.00    -0.006 A 
HETATM    7  C19 UNL     1     -35.088 -15.520  17.203  1.00  0.00     0.062 C 
HETATM    8  C20 UNL     1     -36.202 -15.777  18.161  1.00  0.00     0.128 C 
HETATM    9  N4  UNL     1     -37.075 -16.844  17.722  1.00  0.00    -0.355 N 
ATOM     10  H4  UNL     1     -38.083 -16.742  17.839  1.00  0.00     0.162 HD
HETATM   11  C21 UNL     1     -36.561 -18.030  17.132  1.00  0.00     0.268 C 
HETATM   12  O5  UNL     1     -37.198 -19.105  17.081  1.00  0.00    -0.266 OA
ENDROOT
BRANCH   2  13
HETATM   13  C7  UNL     1     -32.226 -19.121  14.905  1.00  0.00     0.093 A 
HETATM   14  C8  UNL     1     -31.384 -20.066  15.477  1.00  0.00     0.091 A 
HETATM   15  C9  UNL     1     -31.328 -20.600  16.852  1.00  0.00     0.080 C 
HETATM   16  O3  UNL     1     -30.523 -20.507  14.550  1.00  0.00    -0.231 OA
HETATM   17  N2  UNL     1     -30.733 -19.925  13.417  1.00  0.00    -0.179 N 
HETATM   18  C16 UNL     1     -31.771 -19.071  13.615  1.00  0.00     0.287 A 
HETATM   19  O4  UNL     1     -32.183 -18.380  12.698  1.00  0.00    -0.265 OA
BRANCH  17  20
HETATM   20  C10 UNL     1     -29.999 -20.155  12.205  1.00  0.00     0.067 A 
HETATM   21  C11 UNL     1     -30.486 -20.972  11.205  1.00  0.00     0.035 A 
HETATM   22  C12 UNL     1     -29.814 -21.218  10.031  1.00  0.00     0.044 A 
HETATM   23  C13 UNL     1     -28.582 -20.623   9.824  1.00  0.00     0.116 A 
HETATM   24  F1  UNL     1     -27.914 -20.861   8.667  1.00  0.00    -0.206 F 
HETATM   25  C14 UNL     1     -28.075 -19.802  10.812  1.00  0.00     0.044 A 
HETATM   26  C15 UNL     1     -28.770 -19.562  11.999  1.00  0.00     0.035 A 
ENDBRANCH  17  20
ENDBRANCH   2  13
BRANCH   1  27
HETATM   27  C4  UNL     1     -32.340 -15.999  15.773  1.00  0.00     0.254 C 
HETATM   28  N1  UNL     1     -31.997 -15.124  16.830  1.00  0.00    -0.355 N 
ATOM     29  H1  UNL     1     -32.437 -15.289  17.735  1.00  0.00     0.162 HD
HETATM   30  O2  UNL     1     -31.775 -15.798  14.648  1.00  0.00    -0.268 OA
BRANCH  28  31
HETATM   31  C3  UNL     1     -31.073 -14.014  16.735  1.00  0.00     0.149 C 
BRANCH  31  32
HETATM   32  C2  UNL     1     -31.533 -12.824  17.516  1.00  0.00     0.186 C 
BRANCH  32  33
HETATM   33  O1  UNL     1     -32.559 -12.131  16.902  1.00  0.00    -0.394 OA
HETATM   34  C1  UNL     1     -32.165 -11.029  16.178  1.00  0.00     0.201 C 
ENDBRANCH  32  33
ENDBRANCH  31  32
ENDBRANCH  28  31
ENDBRANCH   1  27
TORSDOF 6
ENDMDL
MODEL 2
REMARK VINA RESULT: -6.786823173      1.575      1.740
REMARK  6 active torsions:
REMARK  status: ('A' for Active; 'I' for Inactive)
REMARK    1  A    between atoms: O1_2  and  C2_3 
REMARK    2  A    between atoms: C2_3  and  C3_4 
REMARK    3  A    between atoms: C3_4  and  N1_5 
REMARK       I    between atoms: N1_5  and  C4_7 
REMARK    4  A    between atoms: C4_7  and  C5_9 
REMARK    5  A    between atoms: C6_10  and  C7_11 
REMARK    6  A    between atoms: N2_15  and  C10_16 
ROOT
HETATM    1  C5  UNL     1     -33.584 -18.348  15.695  1.00  0.00     0.068 A 
HETATM    2  C6  UNL     1     -33.673 -19.421  14.852  1.00  0.00     0.067 A 
HETATM    3  N3  UNL     1     -34.996 -19.771  14.898  1.00  0.00    -0.350 N 
ATOM      4  H3  UNL     1     -35.402 -20.545  14.372  1.00  0.00     0.166 HD
HETATM    5  C17 UNL     1     -35.690 -18.973  15.718  1.00  0.00     0.108 A 
HETATM    6  C18 UNL     1     -34.840 -18.042  16.257  1.00  0.00    -0.006 A 
HETATM    7  C19 UNL     1     -35.285 -16.968  17.194  1.00  0.00     0.062 C 
HETATM    8  C20 UNL     1     -36.561 -17.297  17.893  1.00  0.00     0.128 C 
HETATM    9  N4  UNL     1     -37.514 -17.956  17.027  1.00  0.00    -0.355 N 
ATOM     10  H4  UNL     1     -38.499 -17.697  17.082  1.00  0.00     0.162 HD
HETATM   11  C21 UNL     1     -37.110 -18.957  16.101  1.00  0.00     0.268 C 
HETATM   12  O5  UNL     1     -37.895 -19.800  15.614  1.00  0.00    -0.266 OA
ENDROOT
BRANCH   2  13
HETATM   13  C7  UNL     1     -32.712 -20.099  14.030  1.00  0.00     0.093 A 
HETATM   14  C8  UNL     1     -32.340 -21.433  14.139  1.00  0.00     0.091 A 
HETATM   15  C9  UNL     1     -32.851 -22.507  15.013  1.00  0.00     0.080 C 
HETATM   16  O3  UNL     1     -31.357 -21.689  13.265  1.00  0.00    -0.231 OA
HETATM   17  N2  UNL     1     -31.054 -20.628  12.595  1.00  0.00    -0.179 N 
HETATM   18  C16 UNL     1     -31.872 -19.644  13.049  1.00  0.00     0.287 A 
HETATM   19  O4  UNL     1     -31.797 -18.517  12.585  1.00  0.00    -0.265 OA
BRANCH  17  20
HETATM   20  C10 UNL     1     -30.047 -20.537  11.575  1.00  0.00     0.067 A 
HETATM   21  C11 UNL     1     -30.249 -21.046  10.308  1.00  0.00     0.035 A 
HETATM   22  C12 UNL     1     -29.310 -20.979   9.305  1.00  0.00     0.044 A 
HETATM   23  C13 UNL     1     -28.093 -20.374   9.562  1.00  0.00     0.116 A 
HETATM   24  F1  UNL     1     -27.163 -20.305   8.577  1.00  0.00    -0.206 F 
HETATM   25  C14 UNL     1     -27.870 -19.859  10.824  1.00  0.00     0.044 A 
HETATM   26  C15 UNL     1     -28.833 -19.934  11.832  1.00  0.00     0.035 A 
ENDBRANCH  17  20
ENDBRANCH   2  13
BRANCH   1  27
HETATM   27  C4  UNL     1     -32.461 -17.491  15.939  1.00  0.00     0.254 C 
HETATM   28  N1  UNL     1     -32.232 -16.381  15.092  1.00  0.00    -0.355 N 
ATOM     29  H1  UNL     1     -32.895 -16.229  14.332  1.00  0.00     0.162 HD
HETATM   30  O2  UNL     1     -31.637 -17.667  16.897  1.00  0.00    -0.268 OA
BRANCH  28  31
HETATM   31  C3  UNL     1     -31.136 -15.444  15.214  1.00  0.00     0.149 C 
BRANCH  31  32
HETATM   32  C2  UNL     1     -31.497 -14.253  16.043  1.00  0.00     0.186 C 
BRANCH  32  33
HETATM   33  O1  UNL     1     -31.390 -14.481  17.402  1.00  0.00    -0.394 OA
HETATM   34  C1  UNL     1     -32.580 -14.451  18.093  1.00  0.00     0.201 C 
ENDBRANCH  32  33
ENDBRANCH  31  32
ENDBRANCH  28  31
ENDBRANCH   1  27
TORSDOF 6
ENDMDL
MODEL 3
REMARK VINA RESULT: -6.705464667      3.779      7.118
REMARK  6 active torsions:
REMARK  status: ('A' for Active; 'I' for Inactive)
REMARK    1  A    between atoms: O1_2  and  C2_3 
REMARK    2  A    between atoms: C2_3  and  C3_4 
REMARK    3  A    between atoms: C3_4  and  N1_5 
REMARK       I    between atoms: N1_5  and  C4_7 
REMARK    4  A    between atoms: C4_7  and  C5_9 
REMARK    5  A    between atoms: C6_10  and  C7_11 
REMARK    6  A    between atoms: N2_15  and  C10_16 
ROOT
HETATM    1  C5  UNL     1     -34.389 -21.125  14.751  1.00  0.00     0.068 A 
HETATM    2  C6  UNL     1     -33.162 -20.525  14.676  1.00  0.00     0.067 A 
HETATM    3  N3  UNL     1     -32.525 -21.198  13.669  1.00  0.00    -0.350 N 
ATOM      4  H3  UNL     1     -31.577 -20.993  13.353  1.00  0.00     0.166 HD
HETATM    5  C17 UNL     1     -33.299 -22.159  13.148  1.00  0.00     0.108 A 
HETATM    6  C18 UNL     1     -34.505 -22.159  13.800  1.00  0.00    -0.006 A 
HETATM    7  C19 UNL     1     -35.626 -23.083  13.455  1.00  0.00     0.062 C 
HETATM    8  C20 UNL     1     -35.169 -24.312  12.743  1.00  0.00     0.128 C 
HETATM    9  N4  UNL     1     -34.120 -24.040  11.785  1.00  0.00    -0.355 N 
ATOM     10  H4  UNL     1     -34.141 -24.508  10.879  1.00  0.00     0.162 HD
HETATM   11  C21 UNL     1     -33.061 -23.138  12.078  1.00  0.00     0.268 C 
HETATM   12  O5  UNL     1     -31.965 -23.145  11.474  1.00  0.00    -0.266 OA
ENDROOT
BRANCH   2  13
HETATM   13  C7  UNL     1     -32.566 -19.430  15.387  1.00  0.00     0.093 A 
HETATM   14  C8  UNL     1     -31.582 -19.530  16.362  1.00  0.00     0.091 A 
HETATM   15  C9  UNL     1     -30.839 -20.701  16.865  1.00  0.00     0.080 C 
HETATM   16  O3  UNL     1     -31.335 -18.311  16.864  1.00  0.00    -0.231 OA
HETATM   17  N2  UNL     1     -32.080 -17.424  16.295  1.00  0.00    -0.179 N 
HETATM   18  C16 UNL     1     -32.842 -18.090  15.388  1.00  0.00     0.287 A 
HETATM   19  O4  UNL     1     -33.651 -17.486  14.702  1.00  0.00    -0.265 OA
BRANCH  17  20
HETATM   20  C10 UNL     1     -32.081 -16.017  16.585  1.00  0.00     0.067 A 
HETATM   21  C11 UNL     1     -31.425 -15.110  15.778  1.00  0.00     0.035 A 
HETATM   22  C12 UNL     1     -31.402 -13.756  16.021  1.00  0.00     0.044 A 
HETATM   23  C13 UNL     1     -32.066 -13.261  17.128  1.00  0.00     0.116 A 
HETATM   24  F1  UNL     1     -32.048 -11.926  17.374  1.00  0.00    -0.206 F 
HETATM   25  C14 UNL     1     -32.730 -14.151  17.949  1.00  0.00     0.044 A 
HETATM   26  C15 UNL     1     -32.744 -15.523  17.689  1.00  0.00     0.035 A 
ENDBRANCH  17  20
ENDBRANCH   2  13
BRANCH   1  27
HETATM   27  C4  UNL     1     -35.524 -20.748  15.543  1.00  0.00     0.254 C 
HETATM   28  N1  UNL     1     -36.088 -19.460  15.387  1.00  0.00    -0.355 N 
ATOM     29  H1  UNL     1     -35.661 -18.844  14.696  1.00  0.00     0.162 HD
HETATM   30  O2  UNL     1     -36.072 -21.520  16.398  1.00  0.00    -0.268 OA
BRANCH  28  31
HETATM   31  C3  UNL     1     -37.221 -18.945  16.125  1.00  0.00     0.149 C 
BRANCH  31  32
HETATM   32  C2  UNL     1     -36.817 -18.325  17.425  1.00  0.00     0.186 C 
BRANCH  32  33
HETATM   33  O1  UNL     1     -35.469 -18.026  17.492  1.00  0.00    -0.394 OA
HETATM   34  C1  UNL     1     -34.811 -18.545  18.583  1.00  0.00     0.201 C 
ENDBRANCH  32  33
ENDBRANCH  31  32
ENDBRANCH  28  31
ENDBRANCH   1  27
TORSDOF 6
ENDMDL
MODEL 4
REMARK VINA RESULT: -6.611461091      3.245      5.752
REMARK  6 active torsions:
REMARK  status: ('A' for Active; 'I' for Inactive)
REMARK    1  A    between atoms: O1_2  and  C2_3 
REMARK    2  A    between atoms: C2_3  and  C3_4 
REMARK    3  A    between atoms: C3_4  and  N1_5 
REMARK       I    between atoms: N1_5  and  C4_7 
REMARK    4  A    between atoms: C4_7  and  C5_9 
REMARK    5  A    between atoms: C6_10  and  C7_11 
REMARK    6  A    between atoms: N2_15  and  C10_16 
ROOT
HETATM    1  C5  UNL     1     -32.472 -17.207  15.051  1.00  0.00     0.068 A 
HETATM    2  C6  UNL     1     -33.518 -17.907  15.586  1.00  0.00     0.067 A 
HETATM    3  N3  UNL     1     -33.960 -17.113  16.610  1.00  0.00    -0.350 N 
ATOM      4  H3  UNL     1     -34.744 -17.347  17.219  1.00  0.00     0.166 HD
HETATM    5  C17 UNL     1     -33.236 -15.991  16.713  1.00  0.00     0.108 A 
HETATM    6  C18 UNL     1     -32.270 -15.995  15.742  1.00  0.00    -0.006 A 
HETATM    7  C19 UNL     1     -31.299 -14.877  15.543  1.00  0.00     0.062 C 
HETATM    8  C20 UNL     1     -31.118 -14.040  16.764  1.00  0.00     0.128 C 
HETATM    9  N4  UNL     1     -32.359 -13.817  17.473  1.00  0.00    -0.355 N 
ATOM     10  H4  UNL     1     -32.553 -12.893  17.859  1.00  0.00     0.162 HD
HETATM   11  C21 UNL     1     -33.314 -14.856  17.645  1.00  0.00     0.268 C 
HETATM   12  O5  UNL     1     -34.194 -14.841  18.534  1.00  0.00    -0.266 OA
ENDROOT
BRANCH   2  13
HETATM   13  C7  UNL     1     -34.135 -19.157  15.242  1.00  0.00     0.093 A 
HETATM   14  C8  UNL     1     -35.494 -19.437  15.295  1.00  0.00     0.091 A 
HETATM   15  C9  UNL     1     -36.646 -18.570  15.612  1.00  0.00     0.080 C 
HETATM   16  O3  UNL     1     -35.689 -20.727  14.988  1.00  0.00    -0.231 OA
HETATM   17  N2  UNL     1     -34.566 -21.313  14.740  1.00  0.00    -0.179 N 
HETATM   18  C16 UNL     1     -33.602 -20.368  14.892  1.00  0.00     0.287 A 
HETATM   19  O4  UNL     1     -32.428 -20.652  14.719  1.00  0.00    -0.265 OA
BRANCH  17  20
HETATM   20  C10 UNL     1     -34.400 -22.692  14.378  1.00  0.00     0.067 A 
HETATM   21  C11 UNL     1     -34.403 -23.102  13.060  1.00  0.00     0.035 A 
HETATM   22  C12 UNL     1     -34.248 -24.412  12.673  1.00  0.00     0.044 A 
HETATM   23  C13 UNL     1     -34.078 -25.385  13.642  1.00  0.00     0.116 A 
HETATM   24  F1  UNL     1     -33.924 -26.679  13.266  1.00  0.00    -0.206 F 
HETATM   25  C14 UNL     1     -34.072 -24.996  14.967  1.00  0.00     0.044 A 
HETATM   26  C15 UNL     1     -34.231 -23.662  15.345  1.00  0.00     0.035 A 
ENDBRANCH  17  20
ENDBRANCH   2  13
BRANCH   1  27
HETATM   27  C4  UNL     1     -31.710 -17.497  13.872  1.00  0.00     0.254 C 
HETATM   28  N1  UNL     1     -30.440 -18.108  13.993  1.00  0.00    -0.355 N 
ATOM     29  H1  UNL     1     -30.116 -18.330  14.935  1.00  0.00     0.162 HD
HETATM   30  O2  UNL     1     -32.116 -17.236  12.691  1.00  0.00    -0.268 OA
BRANCH  28  31
HETATM   31  C3  UNL     1     -29.561 -18.445  12.893  1.00  0.00     0.149 C 
BRANCH  31  32
HETATM   32  C2  UNL     1     -29.683 -19.879  12.488  1.00  0.00     0.186 C 
BRANCH  32  33
HETATM   33  O1  UNL     1     -30.715 -20.110  11.598  1.00  0.00    -0.394 OA
HETATM   34  C1  UNL     1     -31.170 -21.408  11.556  1.00  0.00     0.201 C 
ENDBRANCH  32  33
ENDBRANCH  31  32
ENDBRANCH  28  31
ENDBRANCH   1  27
TORSDOF 6
ENDMDL
MODEL 5
REMARK VINA RESULT: -6.595967134      3.856      6.939
REMARK  6 active torsions:
REMARK  status: ('A' for Active; 'I' for Inactive)
REMARK    1  A    between atoms: O1_2  and  C2_3 
REMARK    2  A    between atoms: C2_3  and  C3_4 
REMARK    3  A    between atoms: C3_4  and  N1_5 
REMARK       I    between atoms: N1_5  and  C4_7 
REMARK    4  A    between atoms: C4_7  and  C5_9 
REMARK    5  A    between atoms: C6_10  and  C7_11 
REMARK    6  A    between atoms: N2_15  and  C10_16 
ROOT
HETATM    1  C5  UNL     1     -35.242 -21.202  14.635  1.00  0.00     0.068 A 
HETATM    2  C6  UNL     1     -35.307 -20.120  15.468  1.00  0.00     0.067 A 
HETATM    3  N3  UNL     1     -36.635 -20.027  15.788  1.00  0.00    -0.350 N 
ATOM      4  H3  UNL     1     -37.027 -19.315  16.405  1.00  0.00     0.166 HD
HETATM    5  C17 UNL     1     -37.356 -20.985  15.192  1.00  0.00     0.108 A 
HETATM    6  C18 UNL     1     -36.518 -21.768  14.441  1.00  0.00    -0.006 A 
HETATM    7  C19 UNL     1     -36.981 -22.956  13.663  1.00  0.00     0.062 C 
HETATM    8  C20 UNL     1     -38.437 -22.909  13.342  1.00  0.00     0.128 C 
HETATM    9  N4  UNL     1     -39.231 -22.394  14.436  1.00  0.00    -0.355 N 
ATOM     10  H4  UNL     1     -40.124 -22.836  14.655  1.00  0.00     0.162 HD
HETATM   11  C21 UNL     1     -38.794 -21.286  15.214  1.00  0.00     0.268 C 
HETATM   12  O5  UNL     1     -39.567 -20.579  15.897  1.00  0.00    -0.266 OA
ENDROOT
BRANCH   2  13
HETATM   13  C7  UNL     1     -34.310 -19.231  15.994  1.00  0.00     0.093 A 
HETATM   14  C8  UNL     1     -33.259 -19.587  16.829  1.00  0.00     0.091 A 
HETATM   15  C9  UNL     1     -32.825 -20.908  17.323  1.00  0.00     0.080 C 
HETATM   16  O3  UNL     1     -32.589 -18.483  17.187  1.00  0.00    -0.231 OA
HETATM   17  N2  UNL     1     -33.119 -17.434  16.654  1.00  0.00    -0.179 N 
HETATM   18  C16 UNL     1     -34.175 -17.871  15.920  1.00  0.00     0.287 A 
HETATM   19  O4  UNL     1     -34.868 -17.078  15.304  1.00  0.00    -0.265 OA
BRANCH  17  20
HETATM   20  C10 UNL     1     -32.659 -16.083  16.821  1.00  0.00     0.067 A 
HETATM   21  C11 UNL     1     -33.093 -15.293  17.866  1.00  0.00     0.035 A 
HETATM   22  C12 UNL     1     -32.678 -13.996  18.060  1.00  0.00     0.044 A 
HETATM   23  C13 UNL     1     -31.778 -13.438  17.170  1.00  0.00     0.116 A 
HETATM   24  F1  UNL     1     -31.364 -12.160  17.356  1.00  0.00    -0.206 F 
HETATM   25  C14 UNL     1     -31.331 -14.212  16.117  1.00  0.00     0.044 A 
HETATM   26  C15 UNL     1     -31.762 -15.527  15.933  1.00  0.00     0.035 A 
ENDBRANCH  17  20
ENDBRANCH   2  13
BRANCH   1  27
HETATM   27  C4  UNL     1     -34.081 -21.847  14.092  1.00  0.00     0.254 C 
HETATM   28  N1  UNL     1     -33.336 -21.203  13.076  1.00  0.00    -0.355 N 
ATOM     29  H1  UNL     1     -33.657 -20.284  12.773  1.00  0.00     0.162 HD
HETATM   30  O2  UNL     1     -33.666 -22.989  14.479  1.00  0.00    -0.268 OA
BRANCH  28  31
HETATM   31  C3  UNL     1     -32.156 -21.740  12.433  1.00  0.00     0.149 C 
BRANCH  31  32
HETATM   32  C2  UNL     1     -31.020 -20.767  12.428  1.00  0.00     0.186 C 
BRANCH  32  33
HETATM   33  O1  UNL     1     -31.431 -19.447  12.421  1.00  0.00    -0.394 OA
HETATM   34  C1  UNL     1     -31.016 -18.702  13.501  1.00  0.00     0.201 C 
ENDBRANCH  32  33
ENDBRANCH  31  32
ENDBRANCH  28  31
ENDBRANCH   1  27
TORSDOF 6
ENDMDL
