MODEL 1
REMARK VINA RESULT: -7.269366733      0.000      0.000
REMARK  8 active torsions:
REMARK  status: ('A' for Active; 'I' for Inactive)
REMARK    1  A    between atoms: C5_6  and  C6_7 
REMARK    2  A    between atoms: C7_10  and  C8_11 
REMARK    3  A    between atoms: C8_11  and  O2_12 
REMARK    4  A    between atoms: C8_11  and  N2_14 
REMARK    5  A    between atoms: N2_14  and  C9_16 
REMARK    6  A    between atoms: C19_27  and  C20_28 
REMARK    7  A    between atoms: C20_28  and  O3_29 
REMARK    8  A    between atoms: C21_33  and  O4_34 
ROOT
HETATM    1  C6  UNL     1     -34.094 -16.083  17.873  1.00  0.00     0.122 A 
HETATM    2  N1  UNL     1     -33.548 -16.588  16.765  1.00  0.00    -0.337 N 
ATOM      3  H1  UNL     1     -33.789 -17.488  16.350  1.00  0.00     0.168 HD
HETATM    4  C7  UNL     1     -32.609 -15.712  16.263  1.00  0.00     0.110 A 
HETATM    5  C19 UNL     1     -32.615 -14.649  17.119  1.00  0.00     0.066 A 
HETATM    6  N3  UNL     1     -33.534 -14.898  18.102  1.00  0.00    -0.341 N 
ATOM      7  H3  UNL     1     -33.753 -14.278  18.882  1.00  0.00     0.167 HD
ENDROOT
BRANCH   4   8
HETATM    8  C8  UNL     1     -31.818 -15.976  15.073  1.00  0.00     0.170 C 
BRANCH   8   9
HETATM    9  O2  UNL     1     -30.643 -15.418  15.081  1.00  0.00    -0.344 OA
ATOM     10  H2  UNL     1     -30.076 -15.696  14.371  1.00  0.00     0.219 HD
ENDBRANCH   8   9
BRANCH   8  11
HETATM   11  N2  UNL     1     -32.156 -16.729  13.956  1.00  0.00    -0.334 N 
ATOM     12  H2  UNL     1     -32.752 -16.255  13.278  1.00  0.00     0.168 HD
BRANCH  11  13
HETATM   13  C9  UNL     1     -31.796 -18.058  13.616  1.00  0.00     0.046 A 
HETATM   14  C10 UNL     1     -30.558 -18.334  13.101  1.00  0.00     0.054 A 
HETATM   15  C11 UNL     1     -30.226 -19.661  12.798  1.00  0.00     0.037 A 
HETATM   16 CL1  UNL     1     -28.639 -20.007  12.136  1.00  0.00    -0.084 Cl
HETATM   17  C12 UNL     1     -31.115 -20.675  13.012  1.00  0.00     0.036 A 
HETATM   18  C13 UNL     1     -32.365 -20.370  13.536  1.00  0.00    -0.022 A 
HETATM   19  C14 UNL     1     -33.282 -21.406  13.749  1.00  0.00     0.012 A 
HETATM   20  C18 UNL     1     -32.722 -19.080  13.843  1.00  0.00     0.001 A 
HETATM   21  C15 UNL     1     -34.539 -21.175  14.260  1.00  0.00     0.001 A 
HETATM   22  C16 UNL     1     -34.900 -19.886  14.568  1.00  0.00     0.001 A 
HETATM   23  C17 UNL     1     -33.986 -18.849  14.355  1.00  0.00     0.014 A 
ENDBRANCH  11  13
ENDBRANCH   8  11
ENDBRANCH   4   8
BRANCH   5  24
HETATM   24  C20 UNL     1     -31.806 -13.397  17.070  1.00  0.00     0.223 C 
BRANCH  24  25
HETATM   25  O3  UNL     1     -30.441 -13.730  17.250  1.00  0.00    -0.395 OA
ATOM     26  H3  UNL     1     -30.343 -14.166  18.089  1.00  0.00     0.209 HD
ENDBRANCH  24  25
ENDBRANCH   5  24
BRANCH   1  27
HETATM   27  C5  UNL     1     -35.148 -16.734  18.677  1.00  0.00     0.083 C 
HETATM   28  C4  UNL     1     -35.042 -17.946  19.461  1.00  0.00     0.166 C 
HETATM   29  C3  UNL     1     -36.253 -17.959  20.321  1.00  0.00     0.095 C 
HETATM   30  O1  UNL     1     -34.092 -18.767  19.373  1.00  0.00    -0.292 OA
HETATM   31  C2  UNL     1     -37.228 -17.124  19.537  1.00  0.00     0.046 C 
HETATM   32  C1  UNL     1     -38.134 -16.320  20.443  1.00  0.00     0.017 C 
HETATM   33  C21 UNL     1     -36.373 -16.253  18.708  1.00  0.00     0.065 C 
BRANCH  33  34
HETATM   34  O4  UNL     1     -36.839 -15.084  18.063  1.00  0.00    -0.363 OA
ATOM     35  H4  UNL     1     -37.337 -14.403  18.503  1.00  0.00     0.217 HD
ENDBRANCH  33  34
ENDBRANCH   1  27
TORSDOF 8
ENDMDL
MODEL 2
REMARK VINA RESULT: -7.131199958      4.223      8.043
REMARK  8 active torsions:
REMARK  status: ('A' for Active; 'I' for Inactive)
REMARK    1  A    between atoms: C5_6  and  C6_7 
REMARK    2  A    between atoms: C7_10  and  C8_11 
REMARK    3  A    between atoms: C8_11  and  O2_12 
REMARK    4  A    between atoms: C8_11  and  N2_14 
REMARK    5  A    between atoms: N2_14  and  C9_16 
REMARK    6  A    between atoms: C19_27  and  C20_28 
REMARK    7  A    between atoms: C20_28  and  O3_29 
REMARK    8  A    between atoms: C21_33  and  O4_34 
ROOT
HETATM    1  C6  UNL     1     -28.157 -20.091  15.243  1.00  0.00     0.122 A 
HETATM    2  N1  UNL     1     -28.734 -19.507  14.191  1.00  0.00    -0.337 N 
ATOM      3  H1  UNL     1     -28.253 -19.244  13.330  1.00  0.00     0.168 HD
HETATM    4  C7  UNL     1     -30.075 -19.310  14.439  1.00  0.00     0.110 A 
HETATM    5  C19 UNL     1     -30.285 -19.807  15.692  1.00  0.00     0.066 A 
HETATM    6  N3  UNL     1     -29.093 -20.281  16.169  1.00  0.00    -0.341 N 
ATOM      7  H3  UNL     1     -28.946 -20.709  17.083  1.00  0.00     0.167 HD
ENDROOT
BRANCH   4   8
HETATM    8  C8  UNL     1     -30.983 -18.675  13.498  1.00  0.00     0.170 C 
BRANCH   8   9
HETATM    9  O2  UNL     1     -31.125 -19.322  12.378  1.00  0.00    -0.344 OA
ATOM     10  H2  UNL     1     -30.334 -19.753  12.075  1.00  0.00     0.219 HD
ENDBRANCH   8   9
BRANCH   8  11
HETATM   11  N2  UNL     1     -31.697 -17.494  13.644  1.00  0.00    -0.334 N 
ATOM     12  H2  UNL     1     -31.435 -16.747  13.001  1.00  0.00     0.168 HD
BRANCH  11  13
HETATM   13  C9  UNL     1     -32.737 -17.169  14.552  1.00  0.00     0.046 A 
HETATM   14  C10 UNL     1     -33.897 -17.896  14.571  1.00  0.00     0.054 A 
HETATM   15  C11 UNL     1     -34.895 -17.564  15.496  1.00  0.00     0.037 A 
HETATM   16 CL1  UNL     1     -36.379 -18.498  15.513  1.00  0.00    -0.084 Cl
HETATM   17  C12 UNL     1     -34.724 -16.533  16.376  1.00  0.00     0.036 A 
HETATM   18  C13 UNL     1     -33.538 -15.811  16.338  1.00  0.00    -0.022 A 
HETATM   19  C14 UNL     1     -33.364 -14.748  17.232  1.00  0.00     0.012 A 
HETATM   20  C18 UNL     1     -32.541 -16.110  15.442  1.00  0.00     0.001 A 
HETATM   21  C15 UNL     1     -32.217 -13.987  17.245  1.00  0.00     0.001 A 
HETATM   22  C16 UNL     1     -31.217 -14.282  16.351  1.00  0.00     0.001 A 
HETATM   23  C17 UNL     1     -31.390 -15.344  15.457  1.00  0.00     0.014 A 
ENDBRANCH  11  13
ENDBRANCH   8  11
ENDBRANCH   4   8
BRANCH   5  24
HETATM   24  C20 UNL     1     -31.550 -19.871  16.480  1.00  0.00     0.223 C 
BRANCH  24  25
HETATM   25  O3  UNL     1     -31.555 -18.809  17.418  1.00  0.00    -0.395 OA
ATOM     26  H3  UNL     1     -32.029 -18.075  17.044  1.00  0.00     0.209 HD
ENDBRANCH  24  25
ENDBRANCH   5  24
BRANCH   1  27
HETATM   27  C5  UNL     1     -26.732 -20.469  15.334  1.00  0.00     0.083 C 
HETATM   28  C4  UNL     1     -25.938 -21.174  14.351  1.00  0.00     0.166 C 
HETATM   29  C3  UNL     1     -24.529 -20.987  14.784  1.00  0.00     0.095 C 
HETATM   30  O1  UNL     1     -26.415 -21.792  13.364  1.00  0.00    -0.292 OA
HETATM   31  C2  UNL     1     -24.664 -20.748  16.263  1.00  0.00     0.046 C 
HETATM   32  C1  UNL     1     -23.624 -19.772  16.771  1.00  0.00     0.017 C 
HETATM   33  C21 UNL     1     -26.031 -20.217  16.420  1.00  0.00     0.065 C 
BRANCH  33  34
HETATM   34  O4  UNL     1     -26.481 -19.543  17.579  1.00  0.00    -0.363 OA
ATOM     35  H4  UNL     1     -26.953 -18.718  17.558  1.00  0.00     0.217 HD
ENDBRANCH  33  34
ENDBRANCH   1  27
TORSDOF 8
ENDMDL
MODEL 3
REMARK VINA RESULT: -7.124286987      3.394      6.222
REMARK  8 active torsions:
REMARK  status: ('A' for Active; 'I' for Inactive)
REMARK    1  A    between atoms: C5_6  and  C6_7 
REMARK    2  A    between atoms: C7_10  and  C8_11 
REMARK    3  A    between atoms: C8_11  and  O2_12 
REMARK    4  A    between atoms: C8_11  and  N2_14 
REMARK    5  A    between atoms: N2_14  and  C9_16 
REMARK    6  A    between atoms: C19_27  and  C20_28 
REMARK    7  A    between atoms: C20_28  and  O3_29 
REMARK    8  A    between atoms: C21_33  and  O4_34 
ROOT
HETATM    1  C6  UNL     1     -37.408 -19.544  16.206  1.00  0.00     0.122 A 
HETATM    2  N1  UNL     1     -36.424 -18.643  16.252  1.00  0.00    -0.337 N 
ATOM      3  H1  UNL     1     -35.603 -18.640  15.646  1.00  0.00     0.168 HD
HETATM    4  C7  UNL     1     -36.681 -17.717  17.240  1.00  0.00     0.110 A 
HETATM    5  C19 UNL     1     -37.870 -18.097  17.789  1.00  0.00     0.066 A 
HETATM    6  N3  UNL     1     -38.299 -19.223  17.140  1.00  0.00    -0.341 N 
ATOM      7  H3  UNL     1     -39.161 -19.733  17.340  1.00  0.00     0.167 HD
ENDROOT
BRANCH   4   8
HETATM    8  C8  UNL     1     -35.790 -16.614  17.560  1.00  0.00     0.170 C 
BRANCH   8   9
HETATM    9  O2  UNL     1     -36.385 -15.462  17.661  1.00  0.00    -0.344 OA
ATOM     10  H2  UNL     1     -35.919 -14.745  17.246  1.00  0.00     0.219 HD
ENDBRANCH   8   9
BRANCH   8  11
HETATM   11  N2  UNL     1     -34.417 -16.639  17.764  1.00  0.00    -0.334 N 
ATOM     12  H2  UNL     1     -34.099 -17.266  18.503  1.00  0.00     0.168 HD
BRANCH  11  13
HETATM   13  C9  UNL     1     -33.388 -15.923  17.099  1.00  0.00     0.046 A 
HETATM   14  C10 UNL     1     -32.986 -14.697  17.556  1.00  0.00     0.054 A 
HETATM   15  C11 UNL     1     -31.952 -14.027  16.890  1.00  0.00     0.037 A 
HETATM   16 CL1  UNL     1     -31.443 -12.456  17.479  1.00  0.00    -0.084 Cl
HETATM   17  C12 UNL     1     -31.342 -14.580  15.799  1.00  0.00     0.036 A 
HETATM   18  C13 UNL     1     -31.768 -15.826  15.356  1.00  0.00    -0.022 A 
HETATM   19  C14 UNL     1     -31.151 -16.392  14.234  1.00  0.00     0.012 A 
HETATM   20  C18 UNL     1     -32.780 -16.508  15.986  1.00  0.00     0.001 A 
HETATM   21  C15 UNL     1     -31.527 -17.619  13.736  1.00  0.00     0.001 A 
HETATM   22  C16 UNL     1     -32.539 -18.305  14.363  1.00  0.00     0.001 A 
HETATM   23  C17 UNL     1     -33.156 -17.740  15.484  1.00  0.00     0.014 A 
ENDBRANCH  11  13
ENDBRANCH   8  11
ENDBRANCH   4   8
BRANCH   5  24
HETATM   24  C20 UNL     1     -38.643 -17.461  18.895  1.00  0.00     0.223 C 
BRANCH  24  25
HETATM   25  O3  UNL     1     -39.170 -16.230  18.432  1.00  0.00    -0.395 OA
ATOM     26  H3  UNL     1     -40.064 -16.372  18.142  1.00  0.00     0.209 HD
ENDBRANCH  24  25
ENDBRANCH   5  24
BRANCH   1  27
HETATM   27  C5  UNL     1     -37.482 -20.678  15.264  1.00  0.00     0.083 C 
HETATM   28  C4  UNL     1     -36.386 -21.454  14.724  1.00  0.00     0.166 C 
HETATM   29  C3  UNL     1     -37.021 -22.656  14.123  1.00  0.00     0.095 C 
HETATM   30  O1  UNL     1     -35.176 -21.115  14.789  1.00  0.00    -0.292 OA
HETATM   31  C2  UNL     1     -38.414 -22.178  13.814  1.00  0.00     0.046 C 
HETATM   32  C1  UNL     1     -39.437 -23.280  13.991  1.00  0.00     0.017 C 
HETATM   33  C21 UNL     1     -38.635 -21.072  14.765  1.00  0.00     0.065 C 
BRANCH  33  34
HETATM   34  O4  UNL     1     -39.912 -20.544  15.068  1.00  0.00    -0.363 OA
ATOM     35  H4  UNL     1     -40.251 -19.739  14.694  1.00  0.00     0.217 HD
ENDBRANCH  33  34
ENDBRANCH   1  27
TORSDOF 8
ENDMDL
MODEL 4
REMARK VINA RESULT: -7.122777220      3.143      5.219
REMARK  8 active torsions:
REMARK  status: ('A' for Active; 'I' for Inactive)
REMARK    1  A    between atoms: C5_6  and  C6_7 
REMARK    2  A    between atoms: C7_10  and  C8_11 
REMARK    3  A    between atoms: C8_11  and  O2_12 
REMARK    4  A    between atoms: C8_11  and  N2_14 
REMARK    5  A    between atoms: N2_14  and  C9_16 
REMARK    6  A    between atoms: C19_27  and  C20_28 
REMARK    7  A    between atoms: C20_28  and  O3_29 
REMARK    8  A    between atoms: C21_33  and  O4_34 
ROOT
HETATM    1  C6  UNL     1     -35.331 -18.429  20.466  1.00  0.00     0.122 A 
HETATM    2  N1  UNL     1     -35.182 -18.622  19.154  1.00  0.00    -0.337 N 
ATOM      3  H1  UNL     1     -34.547 -19.298  18.729  1.00  0.00     0.168 HD
HETATM    4  C7  UNL     1     -36.014 -17.771  18.457  1.00  0.00     0.110 A 
HETATM    5  C19 UNL     1     -36.677 -17.056  19.411  1.00  0.00     0.066 A 
HETATM    6  N3  UNL     1     -36.241 -17.474  20.638  1.00  0.00    -0.341 N 
ATOM      7  H3  UNL     1     -36.562 -17.114  21.538  1.00  0.00     0.167 HD
ENDROOT
BRANCH   4   8
HETATM    8  C8  UNL     1     -36.076 -17.718  17.006  1.00  0.00     0.170 C 
BRANCH   8   9
HETATM    9  O2  UNL     1     -36.719 -18.711  16.465  1.00  0.00    -0.344 OA
ATOM     10  H2  UNL     1     -37.475 -19.003  16.962  1.00  0.00     0.219 HD
ENDBRANCH   8   9
BRANCH   8  11
HETATM   11  N2  UNL     1     -35.546 -16.762  16.150  1.00  0.00    -0.334 N 
ATOM     12  H2  UNL     1     -36.198 -16.392  15.458  1.00  0.00     0.168 HD
BRANCH  11  13
HETATM   13  C9  UNL     1     -34.235 -16.224  16.092  1.00  0.00     0.046 A 
HETATM   14  C10 UNL     1     -33.867 -15.199  16.922  1.00  0.00     0.054 A 
HETATM   15  C11 UNL     1     -32.557 -14.706  16.856  1.00  0.00     0.037 A 
HETATM   16 CL1  UNL     1     -32.092 -13.391  17.920  1.00  0.00    -0.084 Cl
HETATM   17  C12 UNL     1     -31.650 -15.233  15.982  1.00  0.00     0.036 A 
HETATM   18  C13 UNL     1     -32.048 -16.272  15.151  1.00  0.00    -0.022 A 
HETATM   19  C14 UNL     1     -31.122 -16.809  14.248  1.00  0.00     0.012 A 
HETATM   20  C18 UNL     1     -33.324 -16.778  15.190  1.00  0.00     0.001 A 
HETATM   21  C15 UNL     1     -31.451 -17.836  13.391  1.00  0.00     0.001 A 
HETATM   22  C16 UNL     1     -32.726 -18.344  13.426  1.00  0.00     0.001 A 
HETATM   23  C17 UNL     1     -33.652 -17.808  14.328  1.00  0.00     0.014 A 
ENDBRANCH  11  13
ENDBRANCH   8  11
ENDBRANCH   4   8
BRANCH   5  24
HETATM   24  C20 UNL     1     -37.711 -15.994  19.242  1.00  0.00     0.223 C 
BRANCH  24  25
HETATM   25  O3  UNL     1     -37.246 -15.056  18.287  1.00  0.00    -0.395 OA
ATOM     26  H3  UNL     1     -37.820 -15.082  17.531  1.00  0.00     0.209 HD
ENDBRANCH  24  25
ENDBRANCH   5  24
BRANCH   1  27
HETATM   27  C5  UNL     1     -34.613 -19.169  21.523  1.00  0.00     0.083 C 
HETATM   28  C4  UNL     1     -33.380 -19.917  21.401  1.00  0.00     0.166 C 
HETATM   29  C3  UNL     1     -32.932 -20.159  22.796  1.00  0.00     0.095 C 
HETATM   30  O1  UNL     1     -32.860 -20.253  20.305  1.00  0.00    -0.292 OA
HETATM   31  C2  UNL     1     -34.217 -20.093  23.575  1.00  0.00     0.046 C 
HETATM   32  C1  UNL     1     -34.011 -19.495  24.950  1.00  0.00     0.017 C 
HETATM   33  C21 UNL     1     -35.101 -19.254  22.744  1.00  0.00     0.065 C 
BRANCH  33  34
HETATM   34  O4  UNL     1     -36.286 -18.649  23.225  1.00  0.00    -0.363 OA
ATOM     35  H4  UNL     1     -36.872 -18.136  22.680  1.00  0.00     0.217 HD
ENDBRANCH  33  34
ENDBRANCH   1  27
TORSDOF 8
ENDMDL
MODEL 5
REMARK VINA RESULT: -7.108502778      3.400      7.231
REMARK  8 active torsions:
REMARK  status: ('A' for Active; 'I' for Inactive)
REMARK    1  A    between atoms: C5_6  and  C6_7 
REMARK    2  A    between atoms: C7_10  and  C8_11 
REMARK    3  A    between atoms: C8_11  and  O2_12 
REMARK    4  A    between atoms: C8_11  and  N2_14 
REMARK    5  A    between atoms: N2_14  and  C9_16 
REMARK    6  A    between atoms: C19_27  and  C20_28 
REMARK    7  A    between atoms: C20_28  and  O3_29 
REMARK    8  A    between atoms: C21_33  and  O4_34 
ROOT
HETATM    1  C6  UNL     1     -31.709 -21.148  12.755  1.00  0.00     0.122 A 
HETATM    2  N1  UNL     1     -31.989 -19.865  12.991  1.00  0.00    -0.337 N 
ATOM      3  H1  UNL     1     -32.928 -19.470  13.048  1.00  0.00     0.168 HD
HETATM    4  C7  UNL     1     -30.820 -19.150  13.145  1.00  0.00     0.110 A 
HETATM    5  C19 UNL     1     -29.818 -20.063  12.996  1.00  0.00     0.066 A 
HETATM    6  N3  UNL     1     -30.386 -21.285  12.756  1.00  0.00    -0.341 N 
ATOM      7  H3  UNL     1     -29.878 -22.157  12.602  1.00  0.00     0.167 HD
ENDROOT
BRANCH   4   8
HETATM    8  C8  UNL     1     -30.780 -17.719  13.393  1.00  0.00     0.170 C 
BRANCH   8   9
HETATM    9  O2  UNL     1     -29.597 -17.190  13.268  1.00  0.00    -0.344 OA
ATOM     10  H2  UNL     1     -29.046 -17.618  12.623  1.00  0.00     0.219 HD
ENDBRANCH   8   9
BRANCH   8  11
HETATM   11  N2  UNL     1     -31.821 -16.868  13.740  1.00  0.00    -0.334 N 
ATOM     12  H2  UNL     1     -32.051 -16.159  13.044  1.00  0.00     0.168 HD
BRANCH  11  13
HETATM   13  C9  UNL     1     -32.613 -16.837  14.916  1.00  0.00     0.046 A 
HETATM   14  C10 UNL     1     -33.568 -17.794  15.137  1.00  0.00     0.054 A 
HETATM   15  C11 UNL     1     -34.317 -17.749  16.320  1.00  0.00     0.037 A 
HETATM   16 CL1  UNL     1     -35.539 -18.976  16.597  1.00  0.00    -0.084 Cl
HETATM   17  C12 UNL     1     -34.107 -16.770  17.249  1.00  0.00     0.036 A 
HETATM   18  C13 UNL     1     -33.132 -15.811  17.002  1.00  0.00    -0.022 A 
HETATM   19  C14 UNL     1     -32.920 -14.802  17.948  1.00  0.00     0.012 A 
HETATM   20  C18 UNL     1     -32.381 -15.827  15.852  1.00  0.00     0.001 A 
HETATM   21  C15 UNL     1     -31.976 -13.816  17.765  1.00  0.00     0.001 A 
HETATM   22  C16 UNL     1     -31.223 -13.828  16.616  1.00  0.00     0.001 A 
HETATM   23  C17 UNL     1     -31.434 -14.836  15.669  1.00  0.00     0.014 A 
ENDBRANCH  11  13
ENDBRANCH   8  11
ENDBRANCH   4   8
BRANCH   5  24
HETATM   24  C20 UNL     1     -28.341 -19.862  13.070  1.00  0.00     0.223 C 
BRANCH  24  25
HETATM   25  O3  UNL     1     -28.009 -19.419  14.374  1.00  0.00    -0.395 OA
ATOM     26  H3  UNL     1     -27.212 -19.856  14.650  1.00  0.00     0.209 HD
ENDBRANCH  24  25
ENDBRANCH   5  24
BRANCH   1  27
HETATM   27  C5  UNL     1     -32.709 -22.215  12.551  1.00  0.00     0.083 C 
HETATM   28  C4  UNL     1     -32.656 -23.311  11.607  1.00  0.00     0.166 C 
HETATM   29  C3  UNL     1     -33.714 -24.255  12.049  1.00  0.00     0.095 C 
HETATM   30  O1  UNL     1     -31.853 -23.376  10.640  1.00  0.00    -0.292 OA
HETATM   31  C2  UNL     1     -34.670 -23.363  12.791  1.00  0.00     0.046 C 
HETATM   32  C1  UNL     1     -35.309 -24.075  13.964  1.00  0.00     0.017 C 
HETATM   33  C21 UNL     1     -33.837 -22.228  13.231  1.00  0.00     0.065 C 
BRANCH  33  34
HETATM   34  O4  UNL     1     -34.228 -21.313  14.237  1.00  0.00    -0.363 OA
ATOM     35  H4  UNL     1     -33.668 -20.617  14.561  1.00  0.00     0.217 HD
ENDBRANCH  33  34
ENDBRANCH   1  27
TORSDOF 8
ENDMDL
