MODEL 1
REMARK VINA RESULT: -7.384004293      0.000      0.000
REMARK  16 active torsions:
REMARK  status: ('A' for Active; 'I' for Inactive)
REMARK    1  A    between atoms: C2_2  and  O1_3 
REMARK    2  A    between atoms: C2_2  and  C3_5 
REMARK    3  A    between atoms: C3_5  and  C4_6 
REMARK    4  A    between atoms: C3_5  and  C11_35 
REMARK    5  A    between atoms: C4_6  and  O2_7 
REMARK    6  A    between atoms: O2_7  and  S1_8 
REMARK    7  A    between atoms: S1_8  and  C6_11 
REMARK    8  A    between atoms: C7_15  and  N2_16 
REMARK    9  A    between atoms: C8_22  and  C9_23 
REMARK   10  A    between atoms: C9_23  and  O4_24 
REMARK   11  A    between atoms: C10_30  and  N6_31 
REMARK   12  A    between atoms: C11_35  and  C12_36 
REMARK   13  A    between atoms: C11_35  and  O6_39 
REMARK   14  A    between atoms: C12_36  and  O5_37 
REMARK   15  A    between atoms: O6_39  and  C13_40 
REMARK   16  A    between atoms: C16_45  and  O7_46 
ROOT
HETATM    1  S1  UNL     1      60.543  19.758  95.783  1.00  0.00     0.091 S 
HETATM    2  C5  UNL     1      58.754  20.258  95.503  1.00  0.00     0.146 C 
HETATM    3  O3  UNL     1      60.657  19.001  97.776  1.00  0.00    -0.241 OA
ENDROOT
BRANCH   1   4
HETATM    4  O2  UNL     1      61.923  19.887  95.015  1.00  0.00    -0.274 OA
BRANCH   4   5
HETATM    5  C4  UNL     1      62.509  21.105  94.694  1.00  0.00     0.166 C 
BRANCH   5   6
HETATM    6  C3  UNL     1      63.098  21.254  93.381  1.00  0.00     0.025 C 
BRANCH   6   7
HETATM    7  C2  UNL     1      62.886  22.231  92.551  1.00  0.00     0.050 C 
HETATM    8  C1  UNL     1      63.422  23.584  92.782  1.00  0.00     0.076 C 
BRANCH   7   9
HETATM    9  O1  UNL     1      62.131  22.059  91.366  1.00  0.00    -0.365 OA
ATOM     10  H1  UNL     1      62.603  21.707  90.621  1.00  0.00     0.217 HD
ENDBRANCH   7   9
ENDBRANCH   6   7
BRANCH   6  11
HETATM   11  C11 UNL     1      64.072  20.164  92.983  1.00  0.00     0.193 C 
BRANCH  11  12
HETATM   12  C12 UNL     1      65.052  19.829  94.083  1.00  0.00     0.201 C 
BRANCH  12  13
HETATM   13  O5  UNL     1      64.904  18.590  94.664  1.00  0.00    -0.398 OA
ATOM     14  H5  UNL     1      65.432  18.428  95.437  1.00  0.00     0.209 HD
ENDBRANCH  12  13
ENDBRANCH  11  12
BRANCH  11  15
HETATM   15  O6  UNL     1      63.461  19.039  92.451  1.00  0.00    -0.310 OA
BRANCH  15  16
HETATM   16  C13 UNL     1      63.280  18.752  91.119  1.00  0.00     0.218 C 
HETATM   17  N7  UNL     1      62.897  17.612  90.688  1.00  0.00    -0.348 N 
HETATM   18  C14 UNL     1      62.796  17.612  89.226  1.00  0.00     0.129 C 
ATOM     19  H7  UNL     1      62.690  16.809  91.282  1.00  0.00     0.163 HD
HETATM   20  C15 UNL     1      63.288  16.329  88.625  1.00  0.00     0.036 C 
HETATM   21  C16 UNL     1      63.725  18.780  88.861  1.00  0.00     0.243 C 
HETATM   22  N8  UNL     1      63.478  19.641  89.997  1.00  0.00    -0.328 N 
ATOM     23  H8  UNL     1      63.448  20.661  90.005  1.00  0.00     0.165 HD
BRANCH  21  24
HETATM   24  O7  UNL     1      63.333  19.363  87.664  1.00  0.00    -0.375 OA
ATOM     25  H7  UNL     1      63.930  20.060  87.419  1.00  0.00     0.212 HD
ENDBRANCH  21  24
ENDBRANCH  15  16
ENDBRANCH  11  15
ENDBRANCH   6  11
ENDBRANCH   5   6
ENDBRANCH   4   5
ENDBRANCH   1   4
BRANCH   1  26
HETATM   26  C6  UNL     1      60.297  17.933  95.417  1.00  0.00     0.347 C 
HETATM   27  N1  UNL     1      59.056  17.336  95.955  1.00  0.00    -0.009 N 
HETATM   28  C7  UNL     1      59.171  15.928  96.154  1.00  0.00     0.481 C 
ATOM     29  H12 UNL     1      58.762  17.806  96.811  1.00  0.00     0.283 HD
ATOM     30  H11 UNL     1      58.254  17.559  95.364  1.00  0.00     0.283 HD
HETATM   31  N3  UNL     1      60.099  15.263  95.309  1.00  0.00    -0.350 N 
HETATM   32  C8  UNL     1      59.708  15.063  93.960  1.00  0.00     0.219 C 
ATOM     33  H3  UNL     1      61.003  14.943  95.656  1.00  0.00     0.159 HD
HETATM   34  N4  UNL     1      58.701  15.897  93.452  1.00  0.00    -0.314 N 
HETATM   35  N5  UNL     1      58.851  17.241  93.519  1.00  0.00    -0.306 N 
ATOM     36  H4  UNL     1      57.862  15.494  93.035  1.00  0.00     0.182 HD
HETATM   37  C10 UNL     1      60.110  17.758  93.895  1.00  0.00     0.341 C 
ATOM     38  H5  UNL     1      58.073  17.865  93.304  1.00  0.00     0.182 HD
BRANCH  28  39
HETATM   39  N2  UNL     1      57.831  15.365  96.123  1.00  0.00    -0.033 N 
ATOM     40  H23 UNL     1      57.148  15.992  95.699  1.00  0.00     0.278 HD
ATOM     41  H22 UNL     1      57.739  14.597  95.458  1.00  0.00     0.278 HD
ATOM     42  H21 UNL     1      57.586  15.096  97.075  1.00  0.00     0.278 HD
ENDBRANCH  28  39
BRANCH  32  43
HETATM   43  C9  UNL     1      59.221  13.610  93.835  1.00  0.00     0.211 C 
BRANCH  43  44
HETATM   44  O4  UNL     1      59.233  13.234  92.475  1.00  0.00    -0.397 OA
ATOM     45  H4  UNL     1      60.009  12.714  92.302  1.00  0.00     0.209 HD
ENDBRANCH  43  44
ENDBRANCH  32  43
BRANCH  37  46
HETATM   46  N6  UNL     1      60.285  19.036  93.199  1.00  0.00    -0.054 N 
ATOM     47  H63 UNL     1      60.873  19.678  93.731  1.00  0.00     0.276 HD
ATOM     48  H62 UNL     1      60.875  18.937  92.372  1.00  0.00     0.276 HD
ATOM     49  H61 UNL     1      59.382  19.451  92.973  1.00  0.00     0.276 HD
ENDBRANCH  37  46
ENDBRANCH   1  26
TORSDOF 16
ENDMDL
MODEL 2
REMARK VINA RESULT: -7.257514132      2.401      3.708
REMARK  16 active torsions:
REMARK  status: ('A' for Active; 'I' for Inactive)
REMARK    1  A    between atoms: C2_2  and  O1_3 
REMARK    2  A    between atoms: C2_2  and  C3_5 
REMARK    3  A    between atoms: C3_5  and  C4_6 
REMARK    4  A    between atoms: C3_5  and  C11_35 
REMARK    5  A    between atoms: C4_6  and  O2_7 
REMARK    6  A    between atoms: O2_7  and  S1_8 
REMARK    7  A    between atoms: S1_8  and  C6_11 
REMARK    8  A    between atoms: C7_15  and  N2_16 
REMARK    9  A    between atoms: C8_22  and  C9_23 
REMARK   10  A    between atoms: C9_23  and  O4_24 
REMARK   11  A    between atoms: C10_30  and  N6_31 
REMARK   12  A    between atoms: C11_35  and  C12_36 
REMARK   13  A    between atoms: C11_35  and  O6_39 
REMARK   14  A    between atoms: C12_36  and  O5_37 
REMARK   15  A    between atoms: O6_39  and  C13_40 
REMARK   16  A    between atoms: C16_45  and  O7_46 
ROOT
HETATM    1  S1  UNL     1      63.333  19.662  92.727  1.00  0.00     0.091 S 
HETATM    2  C5  UNL     1      64.166  19.590  94.409  1.00  0.00     0.146 C 
HETATM    3  O3  UNL     1      63.809  17.833  91.734  1.00  0.00    -0.241 OA
ENDROOT
BRANCH   1   4
HETATM    4  O2  UNL     1      62.543  20.730  91.863  1.00  0.00    -0.274 OA
BRANCH   4   5
HETATM    5  C4  UNL     1      62.832  22.089  91.875  1.00  0.00     0.166 C 
BRANCH   5   6
HETATM    6  C3  UNL     1      64.163  22.507  91.492  1.00  0.00     0.025 C 
BRANCH   6   7
HETATM    7  C2  UNL     1      65.144  22.779  92.300  1.00  0.00     0.050 C 
HETATM    8  C1  UNL     1      64.981  23.680  93.454  1.00  0.00     0.076 C 
BRANCH   7   9
HETATM    9  O1  UNL     1      66.435  22.223  92.127  1.00  0.00    -0.365 OA
ATOM     10  H1  UNL     1      66.694  21.571  92.766  1.00  0.00     0.217 HD
ENDBRANCH   7   9
ENDBRANCH   6   7
BRANCH   6  11
HETATM   11  C11 UNL     1      64.407  22.596  90.000  1.00  0.00     0.193 C 
BRANCH  11  12
HETATM   12  C12 UNL     1      65.287  23.764  89.623  1.00  0.00     0.201 C 
BRANCH  12  13
HETATM   13  O5  UNL     1      66.568  23.450  89.227  1.00  0.00    -0.398 OA
ATOM     14  H5  UNL     1      67.268  23.846  89.731  1.00  0.00     0.209 HD
ENDBRANCH  12  13
ENDBRANCH  11  12
BRANCH  11  15
HETATM   15  O6  UNL     1      64.828  21.404  89.433  1.00  0.00    -0.310 OA
BRANCH  15  16
HETATM   16  C13 UNL     1      64.060  20.510  88.726  1.00  0.00     0.218 C 
HETATM   17  N7  UNL     1      63.704  19.371  89.179  1.00  0.00    -0.348 N 
HETATM   18  C14 UNL     1      62.893  18.646  88.197  1.00  0.00     0.129 C 
ATOM     19  H7  UNL     1      63.951  19.013  90.102  1.00  0.00     0.163 HD
HETATM   20  C15 UNL     1      63.222  17.183  88.161  1.00  0.00     0.036 C 
HETATM   21  C16 UNL     1      63.315  19.336  86.891  1.00  0.00     0.243 C 
HETATM   22  N8  UNL     1      63.529  20.677  87.392  1.00  0.00    -0.328 N 
ATOM     23  H8  UNL     1      63.343  21.555  86.907  1.00  0.00     0.165 HD
BRANCH  21  24
HETATM   24  O7  UNL     1      62.293  19.281  85.954  1.00  0.00    -0.375 OA
ATOM     25  H7  UNL     1      61.604  19.897  86.173  1.00  0.00     0.212 HD
ENDBRANCH  21  24
ENDBRANCH  15  16
ENDBRANCH  11  15
ENDBRANCH   6  11
ENDBRANCH   5   6
ENDBRANCH   4   5
ENDBRANCH   1   4
BRANCH   1  26
HETATM   26  C6  UNL     1      61.820  18.663  93.214  1.00  0.00     0.347 C 
HETATM   27  N1  UNL     1      62.095  17.387  93.909  1.00  0.00    -0.009 N 
HETATM   28  C7  UNL     1      61.036  16.443  93.752  1.00  0.00     0.481 C 
ATOM     29  H12 UNL     1      62.987  16.992  93.614  1.00  0.00     0.283 HD
ATOM     30  H11 UNL     1      62.305  17.543  94.895  1.00  0.00     0.283 HD
HETATM   31  N3  UNL     1      59.746  16.997  93.541  1.00  0.00    -0.350 N 
HETATM   32  C8  UNL     1      59.100  17.568  94.668  1.00  0.00     0.219 C 
ATOM     33  H3  UNL     1      59.304  16.985  92.622  1.00  0.00     0.159 HD
HETATM   34  N4  UNL     1      59.912  17.954  95.746  1.00  0.00    -0.314 N 
HETATM   35  N5  UNL     1      60.941  18.806  95.534  1.00  0.00    -0.306 N 
ATOM     36  H4  UNL     1      59.726  17.594  96.682  1.00  0.00     0.182 HD
HETATM   37  C10 UNL     1      61.031  19.452  94.281  1.00  0.00     0.341 C 
ATOM     38  H5  UNL     1      61.636  18.978  96.262  1.00  0.00     0.182 HD
BRANCH  28  39
HETATM   39  N2  UNL     1      61.106  15.511  94.865  1.00  0.00    -0.033 N 
ATOM     40  H23 UNL     1      61.794  14.773  94.721  1.00  0.00     0.278 HD
ATOM     41  H22 UNL     1      61.522  15.921  95.701  1.00  0.00     0.278 HD
ATOM     42  H21 UNL     1      60.166  15.150  95.027  1.00  0.00     0.278 HD
ENDBRANCH  28  39
BRANCH  32  43
HETATM   43  C9  UNL     1      58.090  16.533  95.189  1.00  0.00     0.211 C 
BRANCH  43  44
HETATM   44  O4  UNL     1      57.561  16.981  96.417  1.00  0.00    -0.397 OA
ATOM     45  H4  UNL     1      56.653  17.232  96.293  1.00  0.00     0.209 HD
ENDBRANCH  43  44
ENDBRANCH  32  43
BRANCH  37  46
HETATM   46  N6  UNL     1      61.636  20.767  94.507  1.00  0.00    -0.054 N 
ATOM     47  H63 UNL     1      60.936  21.469  94.748  1.00  0.00     0.276 HD
ATOM     48  H62 UNL     1      62.180  20.789  95.370  1.00  0.00     0.276 HD
ATOM     49  H61 UNL     1      62.194  21.052  93.702  1.00  0.00     0.276 HD
ENDBRANCH  37  46
ENDBRANCH   1  26
TORSDOF 16
ENDMDL
MODEL 3
REMARK VINA RESULT: -7.203663286      1.668      2.287
REMARK  16 active torsions:
REMARK  status: ('A' for Active; 'I' for Inactive)
REMARK    1  A    between atoms: C2_2  and  O1_3 
REMARK    2  A    between atoms: C2_2  and  C3_5 
REMARK    3  A    between atoms: C3_5  and  C4_6 
REMARK    4  A    between atoms: C3_5  and  C11_35 
REMARK    5  A    between atoms: C4_6  and  O2_7 
REMARK    6  A    between atoms: O2_7  and  S1_8 
REMARK    7  A    between atoms: S1_8  and  C6_11 
REMARK    8  A    between atoms: C7_15  and  N2_16 
REMARK    9  A    between atoms: C8_22  and  C9_23 
REMARK   10  A    between atoms: C9_23  and  O4_24 
REMARK   11  A    between atoms: C10_30  and  N6_31 
REMARK   12  A    between atoms: C11_35  and  C12_36 
REMARK   13  A    between atoms: C11_35  and  O6_39 
REMARK   14  A    between atoms: C12_36  and  O5_37 
REMARK   15  A    between atoms: O6_39  and  C13_40 
REMARK   16  A    between atoms: C16_45  and  O7_46 
ROOT
HETATM    1  S1  UNL     1      62.168  19.608  95.050  1.00  0.00     0.091 S 
HETATM    2  C5  UNL     1      60.542  20.311  95.675  1.00  0.00     0.146 C 
HETATM    3  O3  UNL     1      63.107  18.670  96.722  1.00  0.00    -0.241 OA
ENDROOT
BRANCH   1   4
HETATM    4  O2  UNL     1      63.025  19.660  93.718  1.00  0.00    -0.274 OA
BRANCH   4   5
HETATM    5  C4  UNL     1      64.357  20.052  93.682  1.00  0.00     0.166 C 
BRANCH   5   6
HETATM    6  C3  UNL     1      64.697  21.252  92.950  1.00  0.00     0.025 C 
BRANCH   6   7
HETATM    7  C2  UNL     1      65.832  21.883  92.995  1.00  0.00     0.050 C 
HETATM    8  C1  UNL     1      66.667  21.908  94.209  1.00  0.00     0.076 C 
BRANCH   7   9
HETATM    9  O1  UNL     1      66.346  22.585  91.878  1.00  0.00    -0.365 OA
ATOM     10  H1  UNL     1      66.235  22.161  91.035  1.00  0.00     0.217 HD
ENDBRANCH   7   9
ENDBRANCH   6   7
BRANCH   6  11
HETATM   11  C11 UNL     1      63.613  21.776  92.031  1.00  0.00     0.193 C 
BRANCH  11  12
HETATM   12  C12 UNL     1      62.962  23.033  92.557  1.00  0.00     0.201 C 
BRANCH  12  13
HETATM   13  O5  UNL     1      62.197  22.886  93.692  1.00  0.00    -0.398 OA
ATOM     14  H5  UNL     1      62.675  22.751  94.501  1.00  0.00     0.209 HD
ENDBRANCH  12  13
ENDBRANCH  11  12
BRANCH  11  15
HETATM   15  O6  UNL     1      64.013  21.894  90.709  1.00  0.00    -0.310 OA
BRANCH  15  16
HETATM   16  C13 UNL     1      63.750  21.013  89.686  1.00  0.00     0.218 C 
HETATM   17  N7  UNL     1      63.506  19.773  89.867  1.00  0.00    -0.348 N 
HETATM   18  C14 UNL     1      63.266  19.095  88.590  1.00  0.00     0.129 C 
ATOM     19  H7  UNL     1      63.482  19.315  90.778  1.00  0.00     0.163 HD
HETATM   20  C15 UNL     1      63.888  17.731  88.548  1.00  0.00     0.036 C 
HETATM   21  C16 UNL     1      63.966  20.048  87.608  1.00  0.00     0.243 C 
HETATM   22  N8  UNL     1      63.701  21.306  88.272  1.00  0.00    -0.328 N 
ATOM     23  H8  UNL     1      63.517  22.209  87.835  1.00  0.00     0.165 HD
BRANCH  21  24
HETATM   24  O7  UNL     1      63.376  19.980  86.354  1.00  0.00    -0.375 OA
ATOM     25  H7  UNL     1      63.940  20.370  85.697  1.00  0.00     0.212 HD
ENDBRANCH  21  24
ENDBRANCH  15  16
ENDBRANCH  11  15
ENDBRANCH   6  11
ENDBRANCH   5   6
ENDBRANCH   4   5
ENDBRANCH   1   4
BRANCH   1  26
HETATM   26  C6  UNL     1      61.539  17.857  94.796  1.00  0.00     0.347 C 
HETATM   27  N1  UNL     1      60.611  17.355  95.832  1.00  0.00    -0.009 N 
HETATM   28  C7  UNL     1      60.615  15.930  95.921  1.00  0.00     0.481 C 
ATOM     29  H12 UNL     1      60.807  17.781  96.738  1.00  0.00     0.283 HD
ATOM     30  H11 UNL     1      59.667  17.712  95.685  1.00  0.00     0.283 HD
HETATM   31  N3  UNL     1      60.956  15.242  94.727  1.00  0.00    -0.350 N 
HETATM   32  C8  UNL     1      59.971  15.199  93.707  1.00  0.00     0.219 C 
ATOM     33  H3  UNL     1      61.867  14.799  94.608  1.00  0.00     0.159 HD
HETATM   34  N4  UNL     1      58.965  16.176  93.744  1.00  0.00    -0.314 N 
HETATM   35  N5  UNL     1      59.308  17.485  93.766  1.00  0.00    -0.306 N 
ATOM     36  H4  UNL     1      57.982  15.902  93.753  1.00  0.00     0.182 HD
HETATM   37  C10 UNL     1      60.657  17.830  93.529  1.00  0.00     0.341 C 
ATOM     38  H5  UNL     1      58.609  18.206  93.950  1.00  0.00     0.182 HD
BRANCH  28  39
HETATM   39  N2  UNL     1      59.346  15.521  96.500  1.00  0.00    -0.033 N 
ATOM     40  H23 UNL     1      59.131  16.009  97.369  1.00  0.00     0.278 HD
ATOM     41  H22 UNL     1      58.542  15.843  95.962  1.00  0.00     0.278 HD
ATOM     42  H21 UNL     1      59.367  14.507  96.610  1.00  0.00     0.278 HD
ENDBRANCH  28  39
BRANCH  32  43
HETATM   43  C9  UNL     1      59.290  13.822  93.787  1.00  0.00     0.211 C 
BRANCH  43  44
HETATM   44  O4  UNL     1      59.246  13.253  92.497  1.00  0.00    -0.397 OA
ATOM     45  H4  UNL     1      59.290  12.307  92.572  1.00  0.00     0.209 HD
ENDBRANCH  43  44
ENDBRANCH  32  43
BRANCH  37  46
HETATM   46  N6  UNL     1      60.666  19.135  92.862  1.00  0.00    -0.054 N 
ATOM     47  H63 UNL     1      60.704  19.902  93.533  1.00  0.00     0.276 HD
ATOM     48  H62 UNL     1      61.549  19.307  92.381  1.00  0.00     0.276 HD
ATOM     49  H61 UNL     1      59.869  19.225  92.232  1.00  0.00     0.276 HD
ENDBRANCH  37  46
ENDBRANCH   1  26
TORSDOF 16
ENDMDL
MODEL 4
REMARK VINA RESULT: -7.173503861      1.426      1.963
REMARK  16 active torsions:
REMARK  status: ('A' for Active; 'I' for Inactive)
REMARK    1  A    between atoms: C2_2  and  O1_3 
REMARK    2  A    between atoms: C2_2  and  C3_5 
REMARK    3  A    between atoms: C3_5  and  C4_6 
REMARK    4  A    between atoms: C3_5  and  C11_35 
REMARK    5  A    between atoms: C4_6  and  O2_7 
REMARK    6  A    between atoms: O2_7  and  S1_8 
REMARK    7  A    between atoms: S1_8  and  C6_11 
REMARK    8  A    between atoms: C7_15  and  N2_16 
REMARK    9  A    between atoms: C8_22  and  C9_23 
REMARK   10  A    between atoms: C9_23  and  O4_24 
REMARK   11  A    between atoms: C10_30  and  N6_31 
REMARK   12  A    between atoms: C11_35  and  C12_36 
REMARK   13  A    between atoms: C11_35  and  O6_39 
REMARK   14  A    between atoms: C12_36  and  O5_37 
REMARK   15  A    between atoms: O6_39  and  C13_40 
REMARK   16  A    between atoms: C16_45  and  O7_46 
ROOT
HETATM    1  S1  UNL     1      61.632  19.643  95.333  1.00  0.00     0.091 S 
HETATM    2  C5  UNL     1      59.892  20.239  95.714  1.00  0.00     0.146 C 
HETATM    3  O3  UNL     1      62.383  18.771  97.131  1.00  0.00    -0.241 OA
ENDROOT
BRANCH   1   4
HETATM    4  O2  UNL     1      62.665  19.750  94.136  1.00  0.00    -0.274 OA
BRANCH   4   5
HETATM    5  C4  UNL     1      63.561  20.802  93.990  1.00  0.00     0.166 C 
BRANCH   5   6
HETATM    6  C3  UNL     1      63.159  21.935  93.187  1.00  0.00     0.025 C 
BRANCH   6   7
HETATM    7  C2  UNL     1      62.712  23.072  93.632  1.00  0.00     0.050 C 
HETATM    8  C1  UNL     1      63.160  24.360  93.075  1.00  0.00     0.076 C 
BRANCH   7   9
HETATM    9  O1  UNL     1      61.761  23.148  94.678  1.00  0.00    -0.365 OA
ATOM     10  H1  UNL     1      60.868  22.928  94.442  1.00  0.00     0.217 HD
ENDBRANCH   7   9
ENDBRANCH   6   7
BRANCH   6  11
HETATM   11  C11 UNL     1      63.314  21.754  91.691  1.00  0.00     0.193 C 
BRANCH  11  12
HETATM   12  C12 UNL     1      64.759  21.649  91.264  1.00  0.00     0.201 C 
BRANCH  12  13
HETATM   13  O5  UNL     1      65.016  21.911  89.937  1.00  0.00    -0.398 OA
ATOM     14  H5  UNL     1      65.043  21.156  89.362  1.00  0.00     0.209 HD
ENDBRANCH  12  13
ENDBRANCH  11  12
BRANCH  11  15
HETATM   15  O6  UNL     1      62.528  20.738  91.169  1.00  0.00    -0.310 OA
BRANCH  15  16
HETATM   16  C13 UNL     1      62.961  19.527  90.684  1.00  0.00     0.218 C 
HETATM   17  N7  UNL     1      63.087  19.269  89.440  1.00  0.00    -0.348 N 
HETATM   18  C14 UNL     1      63.567  17.900  89.234  1.00  0.00     0.129 C 
ATOM     19  H7  UNL     1      62.882  19.929  88.688  1.00  0.00     0.163 HD
HETATM   20  C15 UNL     1      62.893  17.232  88.072  1.00  0.00     0.036 C 
HETATM   21  C16 UNL     1      63.158  17.237  90.560  1.00  0.00     0.243 C 
HETATM   22  N8  UNL     1      63.340  18.363  91.451  1.00  0.00    -0.328 N 
ATOM     23  H8  UNL     1      63.668  18.339  92.416  1.00  0.00     0.165 HD
BRANCH  21  24
HETATM   24  O7  UNL     1      64.008  16.183  90.863  1.00  0.00    -0.375 OA
ATOM     25  H7  UNL     1      64.405  15.834  90.074  1.00  0.00     0.212 HD
ENDBRANCH  21  24
ENDBRANCH  15  16
ENDBRANCH  11  15
ENDBRANCH   6  11
ENDBRANCH   5   6
ENDBRANCH   4   5
ENDBRANCH   1   4
BRANCH   1  26
HETATM   26  C6  UNL     1      61.160  17.855  95.010  1.00  0.00     0.347 C 
HETATM   27  N1  UNL     1      60.210  17.261  95.976  1.00  0.00    -0.009 N 
HETATM   28  C7  UNL     1      60.319  15.840  96.043  1.00  0.00     0.481 C 
ATOM     29  H12 UNL     1      60.313  17.682  96.899  1.00  0.00     0.283 HD
ATOM     30  H11 UNL     1      59.253  17.547  95.772  1.00  0.00     0.283 HD
HETATM   31  N3  UNL     1      60.790  15.204  94.863  1.00  0.00    -0.350 N 
HETATM   32  C8  UNL     1      59.879  15.106  93.780  1.00  0.00     0.219 C 
ATOM     33  H3  UNL     1      61.739  14.835  94.798  1.00  0.00     0.159 HD
HETATM   34  N4  UNL     1      58.799  16.002  93.765  1.00  0.00    -0.314 N 
HETATM   35  N5  UNL     1      59.037  17.333  93.831  1.00  0.00    -0.306 N 
ATOM     36  H4  UNL     1      57.843  15.652  93.706  1.00  0.00     0.182 HD
HETATM   37  C10 UNL     1      60.367  17.786  93.688  1.00  0.00     0.341 C 
ATOM     38  H5  UNL     1      58.273  17.993  93.979  1.00  0.00     0.182 HD
BRANCH  28  39
HETATM   39  N2  UNL     1      59.052  15.321  96.530  1.00  0.00    -0.033 N 
ATOM     40  H23 UNL     1      59.021  15.242  97.546  1.00  0.00     0.278 HD
ATOM     41  H22 UNL     1      58.285  15.985  96.424  1.00  0.00     0.278 HD
ATOM     42  H21 UNL     1      58.877  14.435  96.058  1.00  0.00     0.278 HD
ENDBRANCH  28  39
BRANCH  32  43
HETATM   43  C9  UNL     1      59.304  13.680  93.794  1.00  0.00     0.211 C 
BRANCH  43  44
HETATM   44  O4  UNL     1      59.268  13.184  92.473  1.00  0.00    -0.397 OA
ATOM     45  H4  UNL     1      58.874  13.837  91.907  1.00  0.00     0.209 HD
ENDBRANCH  43  44
ENDBRANCH  32  43
BRANCH  37  46
HETATM   46  N6  UNL     1      60.317  19.101  93.043  1.00  0.00    -0.054 N 
ATOM     47  H63 UNL     1      59.471  19.216  92.485  1.00  0.00     0.276 HD
ATOM     48  H62 UNL     1      60.157  19.847  93.720  1.00  0.00     0.276 HD
ATOM     49  H61 UNL     1      61.158  19.265  92.490  1.00  0.00     0.276 HD
ENDBRANCH  37  46
ENDBRANCH   1  26
TORSDOF 16
ENDMDL
MODEL 5
REMARK VINA RESULT: -7.165974951      1.680      2.421
REMARK  16 active torsions:
REMARK  status: ('A' for Active; 'I' for Inactive)
REMARK    1  A    between atoms: C2_2  and  O1_3 
REMARK    2  A    between atoms: C2_2  and  C3_5 
REMARK    3  A    between atoms: C3_5  and  C4_6 
REMARK    4  A    between atoms: C3_5  and  C11_35 
REMARK    5  A    between atoms: C4_6  and  O2_7 
REMARK    6  A    between atoms: O2_7  and  S1_8 
REMARK    7  A    between atoms: S1_8  and  C6_11 
REMARK    8  A    between atoms: C7_15  and  N2_16 
REMARK    9  A    between atoms: C8_22  and  C9_23 
REMARK   10  A    between atoms: C9_23  and  O4_24 
REMARK   11  A    between atoms: C10_30  and  N6_31 
REMARK   12  A    between atoms: C11_35  and  C12_36 
REMARK   13  A    between atoms: C11_35  and  O6_39 
REMARK   14  A    between atoms: C12_36  and  O5_37 
REMARK   15  A    between atoms: O6_39  and  C13_40 
REMARK   16  A    between atoms: C16_45  and  O7_46 
ROOT
HETATM    1  S1  UNL     1      62.484  19.649  94.536  1.00  0.00     0.091 S 
HETATM    2  C5  UNL     1      60.985  20.429  95.356  1.00  0.00     0.146 C 
HETATM    3  O3  UNL     1      63.600  18.700  96.088  1.00  0.00    -0.241 OA
ENDROOT
BRANCH   1   4
HETATM    4  O2  UNL     1      63.158  19.645  93.102  1.00  0.00    -0.274 OA
BRANCH   4   5
HETATM    5  C4  UNL     1      64.176  20.516  92.733  1.00  0.00     0.166 C 
BRANCH   5   6
HETATM    6  C3  UNL     1      63.810  21.799  92.177  1.00  0.00     0.025 C 
BRANCH   6   7
HETATM    7  C2  UNL     1      63.496  22.866  92.850  1.00  0.00     0.050 C 
HETATM    8  C1  UNL     1      64.500  23.645  93.595  1.00  0.00     0.076 C 
BRANCH   7   9
HETATM    9  O1  UNL     1      62.168  23.355  92.905  1.00  0.00    -0.365 OA
ATOM     10  H1  UNL     1      61.536  22.789  93.330  1.00  0.00     0.217 HD
ENDBRANCH   7   9
ENDBRANCH   6   7
BRANCH   6  11
HETATM   11  C11 UNL     1      63.833  21.878  90.664  1.00  0.00     0.193 C 
BRANCH  11  12
HETATM   12  C12 UNL     1      64.494  23.138  90.157  1.00  0.00     0.201 C 
BRANCH  12  13
HETATM   13  O5  UNL     1      64.509  23.303  88.791  1.00  0.00    -0.398 OA
ATOM     14  H5  UNL     1      65.132  23.936  88.455  1.00  0.00     0.209 HD
ENDBRANCH  12  13
ENDBRANCH  11  12
BRANCH  11  15
HETATM   15  O6  UNL     1      64.326  20.735  90.056  1.00  0.00    -0.310 OA
BRANCH  15  16
HETATM   16  C13 UNL     1      63.694  19.969  89.104  1.00  0.00     0.218 C 
HETATM   17  N7  UNL     1      63.341  18.757  89.293  1.00  0.00    -0.348 N 
HETATM   18  C14 UNL     1      62.692  18.208  88.098  1.00  0.00     0.129 C 
ATOM     19  H7  UNL     1      63.490  18.239  90.159  1.00  0.00     0.163 HD
HETATM   20  C15 UNL     1      63.094  16.787  87.839  1.00  0.00     0.036 C 
HETATM   21  C16 UNL     1      63.238  19.141  87.005  1.00  0.00     0.243 C 
HETATM   22  N8  UNL     1      63.323  20.369  87.766  1.00  0.00    -0.328 N 
ATOM     23  H8  UNL     1      63.156  21.317  87.429  1.00  0.00     0.165 HD
BRANCH  21  24
HETATM   24  O7  UNL     1      62.342  19.236  85.950  1.00  0.00    -0.375 OA
ATOM     25  H7  UNL     1      62.141  20.146  85.762  1.00  0.00     0.212 HD
ENDBRANCH  21  24
ENDBRANCH  15  16
ENDBRANCH  11  15
ENDBRANCH   6  11
ENDBRANCH   5   6
ENDBRANCH   4   5
ENDBRANCH   1   4
BRANCH   1  26
HETATM   26  C6  UNL     1      61.759  17.923  94.404  1.00  0.00     0.347 C 
HETATM   27  N1  UNL     1      60.936  17.486  95.552  1.00  0.00    -0.009 N 
HETATM   28  C7  UNL     1      60.891  16.065  95.681  1.00  0.00     0.481 C 
ATOM     29  H12 UNL     1      61.251  17.924  96.418  1.00  0.00     0.283 HD
ATOM     30  H11 UNL     1      59.997  17.881  95.503  1.00  0.00     0.283 HD
HETATM   31  N3  UNL     1      61.065  15.334  94.476  1.00  0.00    -0.350 N 
HETATM   32  C8  UNL     1      59.969  15.311  93.575  1.00  0.00     0.219 C 
ATOM     33  H3  UNL     1      61.938  14.849  94.267  1.00  0.00     0.159 HD
HETATM   34  N4  UNL     1      59.015  16.332  93.697  1.00  0.00    -0.314 N 
HETATM   35  N5  UNL     1      59.412  17.625  93.644  1.00  0.00    -0.306 N 
ATOM     36  H4  UNL     1      58.030  16.102  93.825  1.00  0.00     0.182 HD
HETATM   37  C10 UNL     1      60.738  17.905  93.246  1.00  0.00     0.341 C 
ATOM     38  H5  UNL     1      58.769  18.380  93.885  1.00  0.00     0.182 HD
BRANCH  28  39
HETATM   39  N2  UNL     1      59.680  15.726  96.410  1.00  0.00    -0.033 N 
ATOM     40  H23 UNL     1      59.791  15.807  97.421  1.00  0.00     0.278 HD
ATOM     41  H22 UNL     1      58.942  16.421  96.299  1.00  0.00     0.278 HD
ATOM     42  H21 UNL     1      59.393  14.792  96.117  1.00  0.00     0.278 HD
ENDBRANCH  28  39
BRANCH  32  43
HETATM   43  C9  UNL     1      59.246  13.968  93.770  1.00  0.00     0.211 C 
BRANCH  43  44
HETATM   44  O4  UNL     1      59.247  13.261  92.549  1.00  0.00    -0.397 OA
ATOM     45  H4  UNL     1      58.441  12.764  92.477  1.00  0.00     0.209 HD
ENDBRANCH  43  44
ENDBRANCH  32  43
BRANCH  37  46
HETATM   46  N6  UNL     1      60.725  19.192  92.546  1.00  0.00    -0.054 N 
ATOM     47  H63 UNL     1      59.778  19.559  92.448  1.00  0.00     0.276 HD
ATOM     48  H62 UNL     1      61.120  19.937  93.119  1.00  0.00     0.276 HD
ATOM     49  H61 UNL     1      61.196  19.118  91.644  1.00  0.00     0.276 HD
ENDBRANCH  37  46
ENDBRANCH   1  26
TORSDOF 16
ENDMDL
