MODEL 1
REMARK VINA RESULT: -8.515416698      0.000      0.000
REMARK  17 active torsions:
REMARK  status: ('A' for Active; 'I' for Inactive)
REMARK    1  A    between atoms: N1_1  and  C1_4 
REMARK    2  A    between atoms: C2_7  and  N3_8 
REMARK       I    between atoms: N3_8  and  C3_10 
REMARK       I    between atoms: C3_10  and  N4_12 
REMARK    3  A    between atoms: N4_12  and  C4_14 
REMARK    4  A    between atoms: C4_14  and  C5_15 
REMARK    5  A    between atoms: C5_15  and  N5_16 
REMARK    6  A    between atoms: C6_21  and  C7_22 
REMARK    7  A    between atoms: C7_22  and  N8_23 
REMARK    8  A    between atoms: N8_23  and  C8_26 
REMARK    9  A    between atoms: C8_26  and  O2_27 
REMARK   10  A    between atoms: C8_26  and  C9_29 
REMARK   11  A    between atoms: C11_31  and  O3_32 
REMARK   12  A    between atoms: C12_35  and  C13_36 
REMARK   13  A    between atoms: C13_36  and  O5_37 
REMARK   14  A    between atoms: C13_36  and  O6_39 
REMARK   15  A    between atoms: C15_44  and  N10_45 
REMARK   16  A    between atoms: N11_47  and  N12_49 
REMARK   17  A    between atoms: N13_52  and  N14_53 
ROOT
HETATM    1  C5  UNL     1      61.917  21.143  95.765  1.00  0.00     0.191 C 
ENDROOT
BRANCH   1   2
HETATM    2  C4  UNL     1      61.773  19.704  95.261  1.00  0.00     0.147 C 
BRANCH   2   3
HETATM    3  N4  UNL     1      62.864  18.891  95.602  1.00  0.00    -0.341 N 
HETATM    4  C3  UNL     1      63.081  17.864  96.474  1.00  0.00     0.321 C 
HETATM    5  N3  UNL     1      61.413  17.811  97.032  1.00  0.00    -0.294 N 
HETATM    6  O1  UNL     1      63.266  16.983  97.220  1.00  0.00    -0.247 OA
ATOM      7  H3  UNL     1      61.009  18.289  97.837  1.00  0.00     0.172 HD
ATOM      8  H4  UNL     1      63.700  19.125  95.066  1.00  0.00     0.164 HD
BRANCH   5   9
HETATM    9  C2  UNL     1      60.835  17.058  96.220  1.00  0.00     0.128 A 
HETATM   10  N2  UNL     1      61.208  15.856  95.755  1.00  0.00    -0.175 N 
HETATM   11  C1  UNL     1      60.616  15.195  94.797  1.00  0.00     0.700 A 
ATOM     12  H2  UNL     1      62.024  15.421  96.187  1.00  0.00     0.186 HD
HETATM   13  N13 UNL     1      59.516  15.718  94.178  1.00  0.00    -0.075 N 
HETATM   14  C15 UNL     1      59.073  16.933  94.598  1.00  0.00     0.164 A 
HETATM   15  C14 UNL     1      59.709  17.596  95.594  1.00  0.00     0.101 A 
BRANCH  11  16
HETATM   16  N1  UNL     1      61.061  14.054  94.400  1.00  0.00    -0.233 N 
ATOM     17  H12 UNL     1      61.998  14.009  93.998  1.00  0.00     0.174 HD
ATOM     18  H11 UNL     1      60.502  13.207  94.497  1.00  0.00     0.174 HD
ENDBRANCH  11  16
BRANCH  13  19
HETATM   19  N14 UNL     1      58.865  15.043  93.171  1.00  0.00    -0.322 N 
ATOM     20 2H14 UNL     1      59.390  14.587  92.425  1.00  0.00     0.178 HD
ATOM     21 1H14 UNL     1      57.847  14.986  93.136  1.00  0.00     0.178 HD
ENDBRANCH  13  19
BRANCH  14  22
HETATM   22  N10 UNL     1      57.934  17.538  93.979  1.00  0.00    -0.269 N 
HETATM   23  N11 UNL     1      58.029  18.413  93.078  1.00  0.00    -0.248 N 
ATOM     24  H11 UNL     1      57.189  18.816  92.662  1.00  0.00     0.207 HD
ATOM     25  H10 UNL     1      57.003  17.248  94.280  1.00  0.00     0.190 HD
BRANCH  23  26
HETATM   26  N12 UNL     1      59.284  18.828  92.652  1.00  0.00    -0.331 N 
ATOM     27 2H12 UNL     1      60.112  18.341  92.995  1.00  0.00     0.178 HD
ATOM     28 1H12 UNL     1      59.364  19.612  92.004  1.00  0.00     0.178 HD
ENDBRANCH  23  26
ENDBRANCH  14  22
ENDBRANCH   5   9
ENDBRANCH   2   3
ENDBRANCH   1   2
BRANCH   1  29
HETATM   29  N5  UNL     1      62.139  22.042  94.630  1.00  0.00    -0.217 N 
HETATM   30  N6  UNL     1      61.950  23.300  94.461  1.00  0.00    -0.225 N 
HETATM   31  N7  UNL     1      62.362  23.691  93.234  1.00  0.00    -0.271 N 
ATOM     32  H6  UNL     1      61.543  23.923  95.159  1.00  0.00     0.210 HD
HETATM   33  C6  UNL     1      62.829  22.625  92.616  1.00  0.00     0.139 A 
ATOM     34  H7  UNL     1      62.319  24.637  92.856  1.00  0.00     0.190 HD
HETATM   35  N9  UNL     1      62.683  21.606  93.490  1.00  0.00    -0.269 N 
ATOM     36  H9  UNL     1      62.950  20.639  93.306  1.00  0.00     0.190 HD
BRANCH  33  37
HETATM   37  C7  UNL     1      63.527  22.425  91.299  1.00  0.00     0.314 C 
BRANCH  37  38
HETATM   38  N8  UNL     1      62.889  21.254  90.656  1.00  0.00    -0.038 N 
ATOM     39  H82 UNL     1      62.350  20.681  91.305  1.00  0.00     0.281 HD
ATOM     40  H81 UNL     1      62.118  21.502  90.037  1.00  0.00     0.281 HD
BRANCH  38  41
HETATM   41  C8  UNL     1      63.975  20.506  89.973  1.00  0.00     0.356 C 
BRANCH  41  42
HETATM   42  O2  UNL     1      64.271  21.163  88.792  1.00  0.00    -0.366 OA
ATOM     43  H2  UNL     1      65.029  21.715  88.944  1.00  0.00     0.212 HD
ENDBRANCH  41  42
BRANCH  41  44
HETATM   44  C9  UNL     1      63.453  19.133  89.699  1.00  0.00     0.037 A 
HETATM   45  C10 UNL     1      63.194  18.633  88.433  1.00  0.00     0.078 A 
HETATM   46  C11 UNL     1      62.880  17.311  88.582  1.00  0.00     0.183 A 
HETATM   47  O4  UNL     1      62.930  17.003  89.827  1.00  0.00    -0.287 OA
HETATM   48  C12 UNL     1      63.271  18.086  90.559  1.00  0.00     0.121 A 
BRANCH  46  49
HETATM   49  O3  UNL     1      62.549  16.411  87.538  1.00  0.00    -0.341 OA
ATOM     50  H3  UNL     1      62.613  15.465  87.577  1.00  0.00     0.220 HD
ENDBRANCH  46  49
BRANCH  48  51
HETATM   51  C13 UNL     1      63.367  17.999  92.011  1.00  0.00     0.313 C 
BRANCH  51  52
HETATM   52  O5  UNL     1      64.041  18.938  92.705  1.00  0.00    -0.365 OA
ATOM     53  H5  UNL     1      64.532  18.699  93.483  1.00  0.00     0.213 HD
ENDBRANCH  51  52
BRANCH  51  54
HETATM   54  O6  UNL     1      62.098  17.686  92.582  1.00  0.00    -0.365 OA
ATOM     55  H6  UNL     1      62.169  16.946  93.172  1.00  0.00     0.213 HD
ENDBRANCH  51  54
ENDBRANCH  48  51
ENDBRANCH  41  44
ENDBRANCH  38  41
ENDBRANCH  37  38
ENDBRANCH  33  37
ENDBRANCH   1  29
TORSDOF 17
ENDMDL
MODEL 2
REMARK VINA RESULT: -8.268681372      1.222      1.450
REMARK  17 active torsions:
REMARK  status: ('A' for Active; 'I' for Inactive)
REMARK    1  A    between atoms: N1_1  and  C1_4 
REMARK    2  A    between atoms: C2_7  and  N3_8 
REMARK       I    between atoms: N3_8  and  C3_10 
REMARK       I    between atoms: C3_10  and  N4_12 
REMARK    3  A    between atoms: N4_12  and  C4_14 
REMARK    4  A    between atoms: C4_14  and  C5_15 
REMARK    5  A    between atoms: C5_15  and  N5_16 
REMARK    6  A    between atoms: C6_21  and  C7_22 
REMARK    7  A    between atoms: C7_22  and  N8_23 
REMARK    8  A    between atoms: N8_23  and  C8_26 
REMARK    9  A    between atoms: C8_26  and  O2_27 
REMARK   10  A    between atoms: C8_26  and  C9_29 
REMARK   11  A    between atoms: C11_31  and  O3_32 
REMARK   12  A    between atoms: C12_35  and  C13_36 
REMARK   13  A    between atoms: C13_36  and  O5_37 
REMARK   14  A    between atoms: C13_36  and  O6_39 
REMARK   15  A    between atoms: C15_44  and  N10_45 
REMARK   16  A    between atoms: N11_47  and  N12_49 
REMARK   17  A    between atoms: N13_52  and  N14_53 
ROOT
HETATM    1  C5  UNL     1      62.655  18.925  94.604  1.00  0.00     0.191 C 
ENDROOT
BRANCH   1   2
HETATM    2  C4  UNL     1      62.299  18.965  96.093  1.00  0.00     0.147 C 
BRANCH   2   3
HETATM    3  N4  UNL     1      62.921  17.949  96.833  1.00  0.00    -0.341 N 
HETATM    4  C3  UNL     1      62.509  16.996  97.720  1.00  0.00     0.321 C 
HETATM    5  N3  UNL     1      60.806  17.415  97.581  1.00  0.00    -0.294 N 
HETATM    6  O1  UNL     1      62.157  16.180  98.478  1.00  0.00    -0.247 OA
ATOM      7  H3  UNL     1      60.272  18.059  98.164  1.00  0.00     0.172 HD
ATOM      8  H4  UNL     1      63.926  17.912  96.667  1.00  0.00     0.164 HD
BRANCH   5   9
HETATM    9  C2  UNL     1      60.398  16.747  96.607  1.00  0.00     0.128 A 
HETATM   10  N2  UNL     1      60.907  15.631  96.063  1.00  0.00    -0.175 N 
HETATM   11  C1  UNL     1      60.500  15.073  94.954  1.00  0.00     0.700 A 
ATOM     12  H2  UNL     1      61.677  15.181  96.556  1.00  0.00     0.186 HD
HETATM   13  N13 UNL     1      59.470  15.624  94.245  1.00  0.00    -0.075 N 
HETATM   14  C15 UNL     1      58.898  16.754  94.737  1.00  0.00     0.164 A 
HETATM   15  C14 UNL     1      59.342  17.312  95.889  1.00  0.00     0.101 A 
BRANCH  11  16
HETATM   16  N1  UNL     1      61.066  14.013  94.495  1.00  0.00    -0.233 N 
ATOM     17  H12 UNL     1      60.499  13.176  94.360  1.00  0.00     0.174 HD
ATOM     18  H11 UNL     1      62.057  14.006  94.253  1.00  0.00     0.174 HD
ENDBRANCH  11  16
BRANCH  13  19
HETATM   19  N14 UNL     1      59.013  15.055  93.078  1.00  0.00    -0.322 N 
ATOM     20 2H14 UNL     1      59.348  15.382  92.172  1.00  0.00     0.178 HD
ATOM     21 1H14 UNL     1      58.325  14.302  93.084  1.00  0.00     0.178 HD
ENDBRANCH  13  19
BRANCH  14  22
HETATM   22  N10 UNL     1      57.823  17.384  94.031  1.00  0.00    -0.269 N 
HETATM   23  N11 UNL     1      58.001  18.327  93.214  1.00  0.00    -0.248 N 
ATOM     24  H11 UNL     1      57.205  18.744  92.731  1.00  0.00     0.207 HD
ATOM     25  H10 UNL     1      56.872  17.055  94.196  1.00  0.00     0.190 HD
BRANCH  23  26
HETATM   26  N12 UNL     1      59.286  18.795  92.974  1.00  0.00    -0.331 N 
ATOM     27 2H12 UNL     1      59.914  18.246  92.386  1.00  0.00     0.178 HD
ATOM     28 1H12 UNL     1      59.587  19.678  93.386  1.00  0.00     0.178 HD
ENDBRANCH  23  26
ENDBRANCH  14  22
ENDBRANCH   5   9
ENDBRANCH   2   3
ENDBRANCH   1   2
BRANCH   1  29
HETATM   29  N5  UNL     1      62.585  20.277  94.045  1.00  0.00    -0.217 N 
HETATM   30  N6  UNL     1      61.958  21.339  94.399  1.00  0.00    -0.225 N 
HETATM   31  N7  UNL     1      62.255  22.373  93.581  1.00  0.00    -0.271 N 
ATOM     32  H6  UNL     1      61.319  21.395  95.193  1.00  0.00     0.210 HD
HETATM   33  C6  UNL     1      63.108  21.931  92.679  1.00  0.00     0.139 A 
ATOM     34  H7  UNL     1      61.887  23.322  93.649  1.00  0.00     0.190 HD
HETATM   35  N9  UNL     1      63.303  20.628  92.974  1.00  0.00    -0.269 N 
ATOM     36  H9  UNL     1      63.913  19.999  92.452  1.00  0.00     0.190 HD
BRANCH  33  37
HETATM   37  C7  UNL     1      63.891  22.608  91.588  1.00  0.00     0.314 C 
BRANCH  37  38
HETATM   38  N8  UNL     1      63.347  22.108  90.305  1.00  0.00    -0.038 N 
ATOM     39  H82 UNL     1      62.433  21.664  90.399  1.00  0.00     0.281 HD
ATOM     40  H81 UNL     1      63.059  22.853  89.670  1.00  0.00     0.281 HD
BRANCH  38  41
HETATM   41  C8  UNL     1      64.381  21.211  89.730  1.00  0.00     0.356 C 
BRANCH  41  42
HETATM   42  O2  UNL     1      65.262  21.986  88.996  1.00  0.00    -0.366 OA
ATOM     43  H2  UNL     1      66.146  21.734  89.235  1.00  0.00     0.212 HD
ENDBRANCH  41  42
BRANCH  41  44
HETATM   44  C9  UNL     1      63.671  20.236  88.847  1.00  0.00     0.037 A 
HETATM   45  C10 UNL     1      63.609  20.334  87.467  1.00  0.00     0.078 A 
HETATM   46  C11 UNL     1      63.012  19.191  87.013  1.00  0.00     0.183 A 
HETATM   47  O4  UNL     1      62.719  18.441  88.012  1.00  0.00    -0.287 OA
HETATM   48  C12 UNL     1      63.097  19.038  89.164  1.00  0.00     0.121 A 
BRANCH  46  49
HETATM   49  O3  UNL     1      62.752  18.871  85.656  1.00  0.00    -0.341 OA
ATOM     50  H3  UNL     1      62.045  18.322  85.339  1.00  0.00     0.220 HD
ENDBRANCH  46  49
BRANCH  48  51
HETATM   51  C13 UNL     1      62.846  18.394  90.449  1.00  0.00     0.313 C 
BRANCH  51  52
HETATM   52  O5  UNL     1      63.852  18.213  91.327  1.00  0.00    -0.365 OA
ATOM     53  H5  UNL     1      63.715  17.699  92.113  1.00  0.00     0.213 HD
ENDBRANCH  51  52
BRANCH  51  54
HETATM   54  O6  UNL     1      61.666  18.920  91.053  1.00  0.00    -0.365 OA
ATOM     55  H6  UNL     1      60.895  18.664  90.561  1.00  0.00     0.213 HD
ENDBRANCH  51  54
ENDBRANCH  48  51
ENDBRANCH  41  44
ENDBRANCH  38  41
ENDBRANCH  37  38
ENDBRANCH  33  37
ENDBRANCH   1  29
TORSDOF 17
ENDMDL
MODEL 3
REMARK VINA RESULT: -8.211902283      1.048      2.051
REMARK  17 active torsions:
REMARK  status: ('A' for Active; 'I' for Inactive)
REMARK    1  A    between atoms: N1_1  and  C1_4 
REMARK    2  A    between atoms: C2_7  and  N3_8 
REMARK       I    between atoms: N3_8  and  C3_10 
REMARK       I    between atoms: C3_10  and  N4_12 
REMARK    3  A    between atoms: N4_12  and  C4_14 
REMARK    4  A    between atoms: C4_14  and  C5_15 
REMARK    5  A    between atoms: C5_15  and  N5_16 
REMARK    6  A    between atoms: C6_21  and  C7_22 
REMARK    7  A    between atoms: C7_22  and  N8_23 
REMARK    8  A    between atoms: N8_23  and  C8_26 
REMARK    9  A    between atoms: C8_26  and  O2_27 
REMARK   10  A    between atoms: C8_26  and  C9_29 
REMARK   11  A    between atoms: C11_31  and  O3_32 
REMARK   12  A    between atoms: C12_35  and  C13_36 
REMARK   13  A    between atoms: C13_36  and  O5_37 
REMARK   14  A    between atoms: C13_36  and  O6_39 
REMARK   15  A    between atoms: C15_44  and  N10_45 
REMARK   16  A    between atoms: N11_47  and  N12_49 
REMARK   17  A    between atoms: N13_52  and  N14_53 
ROOT
HETATM    1  C5  UNL     1      62.078  21.036  95.751  1.00  0.00     0.191 C 
ENDROOT
BRANCH   1   2
HETATM    2  C4  UNL     1      61.964  19.620  95.176  1.00  0.00     0.147 C 
BRANCH   2   3
HETATM    3  N4  UNL     1      62.992  18.769  95.609  1.00  0.00    -0.341 N 
HETATM    4  C3  UNL     1      63.110  17.776  96.538  1.00  0.00     0.321 C 
HETATM    5  N3  UNL     1      61.417  17.840  97.014  1.00  0.00    -0.294 N 
HETATM    6  O1  UNL     1      63.211  16.925  97.334  1.00  0.00    -0.247 OA
ATOM      7  H3  UNL     1      61.002  18.378  97.775  1.00  0.00     0.172 HD
ATOM      8  H4  UNL     1      63.864  18.932  95.106  1.00  0.00     0.164 HD
BRANCH   5   9
HETATM    9  C2  UNL     1      60.838  17.079  96.211  1.00  0.00     0.128 A 
HETATM   10  N2  UNL     1      61.210  15.872  95.757  1.00  0.00    -0.175 N 
HETATM   11  C1  UNL     1      60.616  15.202  94.806  1.00  0.00     0.700 A 
ATOM     12  H2  UNL     1      62.025  15.441  96.191  1.00  0.00     0.186 HD
HETATM   13  N13 UNL     1      59.514  15.719  94.184  1.00  0.00    -0.075 N 
HETATM   14  C15 UNL     1      59.073  16.938  94.594  1.00  0.00     0.164 A 
HETATM   15  C14 UNL     1      59.711  17.611  95.581  1.00  0.00     0.101 A 
BRANCH  11  16
HETATM   16  N1  UNL     1      61.059  14.057  94.420  1.00  0.00    -0.233 N 
ATOM     17  H12 UNL     1      62.049  13.848  94.552  1.00  0.00     0.174 HD
ATOM     18  H11 UNL     1      60.438  13.363  94.006  1.00  0.00     0.174 HD
ENDBRANCH  11  16
BRANCH  13  19
HETATM   19  N14 UNL     1      58.862  15.034  93.185  1.00  0.00    -0.322 N 
ATOM     20 2H14 UNL     1      59.382  14.467  92.516  1.00  0.00     0.178 HD
ATOM     21 1H14 UNL     1      57.848  15.080  93.080  1.00  0.00     0.178 HD
ENDBRANCH  13  19
BRANCH  14  22
HETATM   22  N10 UNL     1      57.932  17.538  93.970  1.00  0.00    -0.269 N 
HETATM   23  N11 UNL     1      58.026  18.427  93.083  1.00  0.00    -0.248 N 
ATOM     24  H11 UNL     1      57.185  18.824  92.664  1.00  0.00     0.207 HD
ATOM     25  H10 UNL     1      57.002  17.231  94.257  1.00  0.00     0.190 HD
BRANCH  23  26
HETATM   26  N12 UNL     1      59.280  18.864  92.677  1.00  0.00    -0.331 N 
ATOM     27 2H12 UNL     1      60.093  18.274  92.854  1.00  0.00     0.178 HD
ATOM     28 1H12 UNL     1      59.374  19.765  92.209  1.00  0.00     0.178 HD
ENDBRANCH  23  26
ENDBRANCH  14  22
ENDBRANCH   5   9
ENDBRANCH   2   3
ENDBRANCH   1   2
BRANCH   1  29
HETATM   29  N5  UNL     1      62.215  22.001  94.658  1.00  0.00    -0.217 N 
HETATM   30  N6  UNL     1      61.872  23.231  94.529  1.00  0.00    -0.225 N 
HETATM   31  N7  UNL     1      62.264  23.720  93.332  1.00  0.00    -0.271 N 
ATOM     32  H6  UNL     1      61.369  23.768  95.237  1.00  0.00     0.210 HD
HETATM   33  C6  UNL     1      62.879  22.749  92.690  1.00  0.00     0.139 A 
ATOM     34  H7  UNL     1      62.111  24.668  92.988  1.00  0.00     0.190 HD
HETATM   35  N9  UNL     1      62.840  21.684  93.521  1.00  0.00    -0.269 N 
ATOM     36  H9  UNL     1      63.233  20.767  93.310  1.00  0.00     0.190 HD
BRANCH  33  37
HETATM   37  C7  UNL     1      63.633  22.693  91.390  1.00  0.00     0.314 C 
BRANCH  37  38
HETATM   38  N8  UNL     1      63.071  21.556  90.624  1.00  0.00    -0.038 N 
ATOM     39  H82 UNL     1      62.697  20.815  91.218  1.00  0.00     0.281 HD
ATOM     40  H81 UNL     1      62.201  21.783  90.143  1.00  0.00     0.281 HD
BRANCH  38  41
HETATM   41  C8  UNL     1      64.146  21.092  89.711  1.00  0.00     0.356 C 
BRANCH  41  42
HETATM   42  O2  UNL     1      64.198  21.959  88.634  1.00  0.00    -0.366 OA
ATOM     43  H2  UNL     1      63.620  21.624  87.958  1.00  0.00     0.212 HD
ENDBRANCH  41  42
BRANCH  41  44
HETATM   44  C9  UNL     1      63.774  19.715  89.265  1.00  0.00     0.037 A 
HETATM   45  C10 UNL     1      63.670  18.622  90.111  1.00  0.00     0.078 A 
HETATM   46  C11 UNL     1      63.167  17.590  89.369  1.00  0.00     0.183 A 
HETATM   47  O4  UNL     1      62.975  17.990  88.164  1.00  0.00    -0.287 OA
HETATM   48  C12 UNL     1      63.337  19.286  88.044  1.00  0.00     0.121 A 
BRANCH  46  49
HETATM   49  O3  UNL     1      62.895  16.281  89.840  1.00  0.00    -0.341 OA
ATOM     50  H3  UNL     1      62.997  15.478  89.344  1.00  0.00     0.220 HD
ENDBRANCH  46  49
BRANCH  48  51
HETATM   51  C13 UNL     1      63.240  19.966  86.757  1.00  0.00     0.313 C 
BRANCH  51  52
HETATM   52  O5  UNL     1      64.353  20.390  86.127  1.00  0.00    -0.365 OA
ATOM     53  H5  UNL     1      65.199  20.022  86.351  1.00  0.00     0.213 HD
ENDBRANCH  51  52
BRANCH  51  54
HETATM   54  O6  UNL     1      62.335  19.282  85.893  1.00  0.00    -0.365 OA
ATOM     55  H6  UNL     1      62.638  19.317  84.994  1.00  0.00     0.213 HD
ENDBRANCH  51  54
ENDBRANCH  48  51
ENDBRANCH  41  44
ENDBRANCH  38  41
ENDBRANCH  37  38
ENDBRANCH  33  37
ENDBRANCH   1  29
TORSDOF 17
ENDMDL
MODEL 4
REMARK VINA RESULT: -7.841148902      2.378      3.841
REMARK  17 active torsions:
REMARK  status: ('A' for Active; 'I' for Inactive)
REMARK    1  A    between atoms: N1_1  and  C1_4 
REMARK    2  A    between atoms: C2_7  and  N3_8 
REMARK       I    between atoms: N3_8  and  C3_10 
REMARK       I    between atoms: C3_10  and  N4_12 
REMARK    3  A    between atoms: N4_12  and  C4_14 
REMARK    4  A    between atoms: C4_14  and  C5_15 
REMARK    5  A    between atoms: C5_15  and  N5_16 
REMARK    6  A    between atoms: C6_21  and  C7_22 
REMARK    7  A    between atoms: C7_22  and  N8_23 
REMARK    8  A    between atoms: N8_23  and  C8_26 
REMARK    9  A    between atoms: C8_26  and  O2_27 
REMARK   10  A    between atoms: C8_26  and  C9_29 
REMARK   11  A    between atoms: C11_31  and  O3_32 
REMARK   12  A    between atoms: C12_35  and  C13_36 
REMARK   13  A    between atoms: C13_36  and  O5_37 
REMARK   14  A    between atoms: C13_36  and  O6_39 
REMARK   15  A    between atoms: C15_44  and  N10_45 
REMARK   16  A    between atoms: N11_47  and  N12_49 
REMARK   17  A    between atoms: N13_52  and  N14_53 
ROOT
HETATM    1  C5  UNL     1      63.902  18.880  94.410  1.00  0.00     0.191 C 
ENDROOT
BRANCH   1   2
HETATM    2  C4  UNL     1      62.898  18.667  95.548  1.00  0.00     0.147 C 
BRANCH   2   3
HETATM    3  N4  UNL     1      63.316  17.700  96.474  1.00  0.00    -0.341 N 
HETATM    4  C3  UNL     1      62.728  17.003  97.489  1.00  0.00     0.321 C 
HETATM    5  N3  UNL     1      61.131  17.684  97.208  1.00  0.00    -0.294 N 
HETATM    6  O1  UNL     1      62.224  16.405  98.358  1.00  0.00    -0.247 OA
ATOM      7  H3  UNL     1      60.714  18.503  97.651  1.00  0.00     0.172 HD
ATOM      8  H4  UNL     1      64.301  17.460  96.361  1.00  0.00     0.164 HD
BRANCH   5   9
HETATM    9  C2  UNL     1      60.621  16.940  96.344  1.00  0.00     0.128 A 
HETATM   10  N2  UNL     1      61.057  15.766  95.862  1.00  0.00    -0.175 N 
HETATM   11  C1  UNL     1      60.538  15.119  94.853  1.00  0.00     0.700 A 
ATOM     12  H2  UNL     1      61.863  15.343  96.322  1.00  0.00     0.186 HD
HETATM   13  N13 UNL     1      59.454  15.628  94.194  1.00  0.00    -0.075 N 
HETATM   14  C15 UNL     1      58.951  16.814  94.628  1.00  0.00     0.164 A 
HETATM   15  C14 UNL     1      59.512  17.463  95.676  1.00  0.00     0.101 A 
BRANCH  11  16
HETATM   16  N1  UNL     1      61.040  14.007  94.446  1.00  0.00    -0.233 N 
ATOM     17  H12 UNL     1      61.832  14.035  93.803  1.00  0.00     0.174 HD
ATOM     18  H11 UNL     1      60.670  13.112  94.766  1.00  0.00     0.174 HD
ENDBRANCH  11  16
BRANCH  13  19
HETATM   19  N14 UNL     1      58.879  14.967  93.133  1.00  0.00    -0.322 N 
ATOM     20 2H14 UNL     1      59.441  14.374  92.522  1.00  0.00     0.178 HD
ATOM     21 1H14 UNL     1      57.885  15.055  92.923  1.00  0.00     0.178 HD
ENDBRANCH  13  19
BRANCH  14  22
HETATM   22  N10 UNL     1      57.825  17.404  93.968  1.00  0.00    -0.269 N 
HETATM   23  N11 UNL     1      57.939  18.306  93.097  1.00  0.00    -0.248 N 
ATOM     24  H11 UNL     1      57.108  18.696  92.651  1.00  0.00     0.207 HD
ATOM     25  H10 UNL     1      56.890  17.078  94.215  1.00  0.00     0.190 HD
BRANCH  23  26
HETATM   26  N12 UNL     1      59.200  18.768  92.746  1.00  0.00    -0.331 N 
ATOM     27 2H12 UNL     1      59.949  18.747  93.439  1.00  0.00     0.178 HD
ATOM     28 1H12 UNL     1      59.364  19.123  91.804  1.00  0.00     0.178 HD
ENDBRANCH  23  26
ENDBRANCH  14  22
ENDBRANCH   5   9
ENDBRANCH   2   3
ENDBRANCH   1   2
BRANCH   1  29
HETATM   29  N5  UNL     1      63.225  19.493  93.265  1.00  0.00    -0.217 N 
HETATM   30  N6  UNL     1      62.285  20.361  93.166  1.00  0.00    -0.225 N 
HETATM   31  N7  UNL     1      62.029  20.654  91.872  1.00  0.00    -0.271 N 
ATOM     32  H6  UNL     1      61.795  20.775  93.960  1.00  0.00     0.210 HD
HETATM   33  C6  UNL     1      62.850  19.934  91.135  1.00  0.00     0.139 A 
ATOM     34  H7  UNL     1      61.329  21.311  91.528  1.00  0.00     0.190 HD
HETATM   35  N9  UNL     1      63.586  19.214  92.009  1.00  0.00    -0.269 N 
ATOM     36  H9  UNL     1      64.315  18.550  91.748  1.00  0.00     0.190 HD
BRANCH  33  37
HETATM   37  C7  UNL     1      63.139  19.895  89.659  1.00  0.00     0.314 C 
BRANCH  37  38
HETATM   38  N8  UNL     1      64.341  20.732  89.441  1.00  0.00    -0.038 N 
ATOM     39  H82 UNL     1      65.093  20.538  90.102  1.00  0.00     0.281 HD
ATOM     40  H81 UNL     1      64.853  20.490  88.593  1.00  0.00     0.281 HD
BRANCH  38  41
HETATM   41  C8  UNL     1      63.881  22.143  89.468  1.00  0.00     0.356 C 
BRANCH  41  42
HETATM   42  O2  UNL     1      63.724  22.569  88.161  1.00  0.00    -0.366 OA
ATOM     43  H2  UNL     1      64.368  22.119  87.626  1.00  0.00     0.212 HD
ENDBRANCH  41  42
BRANCH  41  44
HETATM   44  C9  UNL     1      64.944  22.934  90.159  1.00  0.00     0.037 A 
HETATM   45  C10 UNL     1      66.207  23.167  89.639  1.00  0.00     0.078 A 
HETATM   46  C11 UNL     1      66.830  24.045  90.481  1.00  0.00     0.183 A 
HETATM   47  O4  UNL     1      66.038  24.338  91.448  1.00  0.00    -0.287 OA
HETATM   48  C12 UNL     1      64.867  23.678  91.302  1.00  0.00     0.121 A 
BRANCH  46  49
HETATM   49  O3  UNL     1      68.142  24.560  90.326  1.00  0.00    -0.341 OA
ATOM     50  H3  UNL     1      68.476  25.361  90.711  1.00  0.00     0.220 HD
ENDBRANCH  46  49
BRANCH  48  51
HETATM   51  C13 UNL     1      63.807  23.823  92.293  1.00  0.00     0.313 C 
BRANCH  51  52
HETATM   52  O5  UNL     1      63.672  22.916  93.281  1.00  0.00    -0.365 OA
ATOM     53  H5  UNL     1      64.428  22.641  93.786  1.00  0.00     0.213 HD
ENDBRANCH  51  52
BRANCH  51  54
HETATM   54  O6  UNL     1      63.733  25.170  92.758  1.00  0.00    -0.365 OA
ATOM     55  H6  UNL     1      63.674  25.774  92.027  1.00  0.00     0.213 HD
ENDBRANCH  51  54
ENDBRANCH  48  51
ENDBRANCH  41  44
ENDBRANCH  38  41
ENDBRANCH  37  38
ENDBRANCH  33  37
ENDBRANCH   1  29
TORSDOF 17
ENDMDL
MODEL 5
REMARK VINA RESULT: -7.784624828      3.459      5.330
REMARK  17 active torsions:
REMARK  status: ('A' for Active; 'I' for Inactive)
REMARK    1  A    between atoms: N1_1  and  C1_4 
REMARK    2  A    between atoms: C2_7  and  N3_8 
REMARK       I    between atoms: N3_8  and  C3_10 
REMARK       I    between atoms: C3_10  and  N4_12 
REMARK    3  A    between atoms: N4_12  and  C4_14 
REMARK    4  A    between atoms: C4_14  and  C5_15 
REMARK    5  A    between atoms: C5_15  and  N5_16 
REMARK    6  A    between atoms: C6_21  and  C7_22 
REMARK    7  A    between atoms: C7_22  and  N8_23 
REMARK    8  A    between atoms: N8_23  and  C8_26 
REMARK    9  A    between atoms: C8_26  and  O2_27 
REMARK   10  A    between atoms: C8_26  and  C9_29 
REMARK   11  A    between atoms: C11_31  and  O3_32 
REMARK   12  A    between atoms: C12_35  and  C13_36 
REMARK   13  A    between atoms: C13_36  and  O5_37 
REMARK   14  A    between atoms: C13_36  and  O6_39 
REMARK   15  A    between atoms: C15_44  and  N10_45 
REMARK   16  A    between atoms: N11_47  and  N12_49 
REMARK   17  A    between atoms: N13_52  and  N14_53 
ROOT
HETATM    1  C5  UNL     1      62.768  19.115  91.650  1.00  0.00     0.191 C 
ENDROOT
BRANCH   1   2
HETATM    2  C4  UNL     1      63.156  19.752  92.988  1.00  0.00     0.147 C 
BRANCH   2   3
HETATM    3  N4  UNL     1      64.034  18.956  93.739  1.00  0.00    -0.341 N 
HETATM    4  C3  UNL     1      64.100  18.532  95.034  1.00  0.00     0.321 C 
HETATM    5  N3  UNL     1      62.578  19.283  95.496  1.00  0.00    -0.294 N 
HETATM    6  O1  UNL     1      64.156  18.167  96.144  1.00  0.00    -0.247 OA
ATOM      7  H3  UNL     1      62.436  20.208  95.902  1.00  0.00     0.172 HD
ATOM      8  H4  UNL     1      64.814  18.611  93.180  1.00  0.00     0.164 HD
BRANCH   5   9
HETATM    9  C2  UNL     1      61.710  18.430  95.215  1.00  0.00     0.128 A 
HETATM   10  N2  UNL     1      61.826  17.098  95.097  1.00  0.00    -0.175 N 
HETATM   11  C1  UNL     1      60.899  16.290  94.658  1.00  0.00     0.700 A 
ATOM     12  H2  UNL     1      62.715  16.682  95.373  1.00  0.00     0.186 HD
HETATM   13  N13 UNL     1      59.683  16.782  94.275  1.00  0.00    -0.075 N 
HETATM   14  C15 UNL     1      59.486  18.124  94.372  1.00  0.00     0.164 A 
HETATM   15  C14 UNL     1      60.468  18.938  94.828  1.00  0.00     0.101 A 
BRANCH  11  16
HETATM   16  N1  UNL     1      61.110  15.025  94.558  1.00  0.00    -0.233 N 
ATOM     17  H12 UNL     1      62.064  14.680  94.665  1.00  0.00     0.174 HD
ATOM     18  H11 UNL     1      60.344  14.373  94.390  1.00  0.00     0.174 HD
ENDBRANCH  11  16
BRANCH  13  19
HETATM   19  N14 UNL     1      58.682  15.956  93.817  1.00  0.00    -0.322 N 
ATOM     20 2H14 UNL     1      57.730  16.043  94.173  1.00  0.00     0.178 HD
ATOM     21 1H14 UNL     1      58.863  15.232  93.121  1.00  0.00     0.178 HD
ENDBRANCH  13  19
BRANCH  14  22
HETATM   22  N10 UNL     1      58.237  18.699  93.972  1.00  0.00    -0.269 N 
HETATM   23  N11 UNL     1      58.054  19.216  92.838  1.00  0.00    -0.248 N 
ATOM     24  H11 UNL     1      57.146  19.612  92.596  1.00  0.00     0.207 HD
ATOM     25  H10 UNL     1      57.462  18.690  94.635  1.00  0.00     0.190 HD
BRANCH  23  26
HETATM   26  N12 UNL     1      59.094  19.244  91.919  1.00  0.00    -0.331 N 
ATOM     27 2H12 UNL     1      60.042  19.037  92.234  1.00  0.00     0.178 HD
ATOM     28 1H12 UNL     1      58.901  19.472  90.944  1.00  0.00     0.178 HD
ENDBRANCH  23  26
ENDBRANCH  14  22
ENDBRANCH   5   9
ENDBRANCH   2   3
ENDBRANCH   1   2
BRANCH   1  29
HETATM   29  N5  UNL     1      63.372  19.873  90.551  1.00  0.00    -0.217 N 
HETATM   30  N6  UNL     1      63.561  19.612  89.309  1.00  0.00    -0.225 N 
HETATM   31  N7  UNL     1      64.124  20.664  88.673  1.00  0.00    -0.271 N 
ATOM     32  H6  UNL     1      63.319  18.727  88.861  1.00  0.00     0.210 HD
HETATM   33  C6  UNL     1      64.289  21.621  89.563  1.00  0.00     0.139 A 
ATOM     34  H7  UNL     1      64.374  20.709  87.685  1.00  0.00     0.190 HD
HETATM   35  N9  UNL     1      63.822  21.118  90.727  1.00  0.00    -0.269 N 
ATOM     36  H9  UNL     1      63.815  21.619  91.615  1.00  0.00     0.190 HD
BRANCH  33  37
HETATM   37  C7  UNL     1      64.745  23.051  89.461  1.00  0.00     0.314 C 
BRANCH  37  38
HETATM   38  N8  UNL     1      66.171  23.069  89.858  1.00  0.00    -0.038 N 
ATOM     39  H82 UNL     1      66.548  22.141  90.053  1.00  0.00     0.281 HD
ATOM     40  H81 UNL     1      66.801  23.302  89.090  1.00  0.00     0.281 HD
BRANCH  38  41
HETATM   41  C8  UNL     1      66.276  24.001  91.009  1.00  0.00     0.356 C 
BRANCH  41  42
HETATM   42  O2  UNL     1      66.317  25.292  90.513  1.00  0.00    -0.366 OA
ATOM     43  H2  UNL     1      66.087  25.261  89.592  1.00  0.00     0.212 HD
ENDBRANCH  41  42
BRANCH  41  44
HETATM   44  C9  UNL     1      67.544  23.667  91.726  1.00  0.00     0.037 A 
HETATM   45  C10 UNL     1      67.620  22.834  92.831  1.00  0.00     0.078 A 
HETATM   46  C11 UNL     1      68.948  22.654  93.103  1.00  0.00     0.183 A 
HETATM   47  O4  UNL     1      69.647  23.315  92.254  1.00  0.00    -0.287 OA
HETATM   48  C12 UNL     1      68.835  23.960  91.388  1.00  0.00     0.121 A 
BRANCH  46  49
HETATM   49  O3  UNL     1      69.482  21.867  94.154  1.00  0.00    -0.341 OA
ATOM     50  H3  UNL     1      69.537  22.119  95.068  1.00  0.00     0.220 HD
ENDBRANCH  46  49
BRANCH  48  51
HETATM   51  C13 UNL     1      69.392  24.805  90.338  1.00  0.00     0.313 C 
BRANCH  51  52
HETATM   52  O5  UNL     1      69.054  24.601  89.049  1.00  0.00    -0.365 OA
ATOM     53  H5  UNL     1      68.140  24.550  88.797  1.00  0.00     0.213 HD
ENDBRANCH  51  52
BRANCH  51  54
HETATM   54  O6  UNL     1      69.341  26.179  90.719  1.00  0.00    -0.365 OA
ATOM     55  H6  UNL     1      70.209  26.565  90.699  1.00  0.00     0.213 HD
ENDBRANCH  51  54
ENDBRANCH  48  51
ENDBRANCH  41  44
ENDBRANCH  38  41
ENDBRANCH  37  38
ENDBRANCH  33  37
ENDBRANCH   1  29
TORSDOF 17
ENDMDL
