MODEL 1
REMARK VINA RESULT: -7.790441726      0.000      0.000
REMARK  16 active torsions:
REMARK  status: ('A' for Active; 'I' for Inactive)
REMARK    1  A    between atoms: C3_4  and  N1_5 
REMARK    2  A    between atoms: C5_11  and  N4_12 
REMARK    3  A    between atoms: C9_23  and  C10_24 
REMARK    4  A    between atoms: C10_24  and  N8_25 
REMARK    5  A    between atoms: C10_24  and  C13_31 
REMARK    6  A    between atoms: C11_27  and  C12_28 
REMARK    7  A    between atoms: C12_28  and  O3_29 
REMARK    8  A    between atoms: C13_31  and  O4_32 
REMARK    9  A    between atoms: C13_31  and  C14_34 
REMARK   10  A    between atoms: C14_34  and  O5_35 
REMARK   11  A    between atoms: C14_34  and  C15_37 
REMARK   12  A    between atoms: C15_37  and  O6_38 
REMARK   13  A    between atoms: C15_37  and  C16_40 
REMARK   14  A    between atoms: C16_40  and  O7_41 
REMARK   15  A    between atoms: C17_43  and  O8_44 
REMARK   16  A    between atoms: O8_44  and  N9_45 
ROOT
HETATM    1  C1  UNL     1      65.143  19.381  95.649  1.00  0.00     0.042 C 
HETATM    2  C2  UNL     1      64.098  19.495  94.584  1.00  0.00     0.156 C 
HETATM    3  O1  UNL     1      64.224  18.416  93.724  1.00  0.00    -0.335 OA
HETATM    4  C3  UNL     1      63.286  18.332  92.734  1.00  0.00     0.395 C 
HETATM    5  O2  UNL     1      61.967  18.438  93.131  1.00  0.00    -0.332 OA
HETATM    6  C9  UNL     1      61.712  19.291  94.157  1.00  0.00     0.185 C 
HETATM    7  C17 UNL     1      62.724  19.281  95.259  1.00  0.00     0.211 C 
ENDROOT
BRANCH   6   8
HETATM    8  C10 UNL     1      60.364  18.892  94.721  1.00  0.00     0.144 C 
BRANCH   8   9
HETATM    9  N8  UNL     1      59.575  19.963  95.163  1.00  0.00    -0.390 N 
HETATM   10  C11 UNL     1      59.502  20.516  96.278  1.00  0.00     0.082 C 
ATOM     11  H8  UNL     1      58.957  20.355  94.453  1.00  0.00     0.159 HD
BRANCH  10  12
HETATM   12  C12 UNL     1      58.568  21.650  96.481  1.00  0.00     0.208 C 
BRANCH  12  13
HETATM   13  O3  UNL     1      57.720  21.776  95.381  1.00  0.00    -0.396 OA
ATOM     14  H3  UNL     1      57.800  22.645  95.006  1.00  0.00     0.209 HD
ENDBRANCH  12  13
ENDBRANCH  10  12
ENDBRANCH   8   9
BRANCH   8  15
HETATM   15  C13 UNL     1      59.598  18.079  93.696  1.00  0.00     0.174 C 
BRANCH  15  16
HETATM   16  O4  UNL     1      58.751  18.869  92.929  1.00  0.00    -0.391 OA
ATOM     17  H4  UNL     1      58.827  18.678  92.002  1.00  0.00     0.210 HD
ENDBRANCH  15  16
BRANCH  15  18
HETATM   18  C14 UNL     1      58.749  17.023  94.359  1.00  0.00     0.179 C 
BRANCH  18  19
HETATM   19  O5  UNL     1      58.683  17.171  95.744  1.00  0.00    -0.390 OA
ATOM     20  H5  UNL     1      57.940  17.691  96.025  1.00  0.00     0.210 HD
ENDBRANCH  18  19
BRANCH  18  21
HETATM   21  C15 UNL     1      59.383  15.687  93.985  1.00  0.00     0.173 C 
BRANCH  21  22
HETATM   22  O6  UNL     1      60.361  15.925  93.021  1.00  0.00    -0.391 OA
ATOM     23  H6  UNL     1      60.195  15.353  92.282  1.00  0.00     0.210 HD
ENDBRANCH  21  22
BRANCH  21  24
HETATM   24  C16 UNL     1      59.954  15.090  95.228  1.00  0.00     0.198 C 
BRANCH  24  25
HETATM   25  O7  UNL     1      61.248  15.621  95.388  1.00  0.00    -0.398 OA
ATOM     26  H7  UNL     1      61.198  16.283  96.066  1.00  0.00     0.209 HD
ENDBRANCH  24  25
ENDBRANCH  21  24
ENDBRANCH  18  21
ENDBRANCH  15  18
ENDBRANCH   8  15
ENDBRANCH   6   8
BRANCH   7  27
HETATM   27  O8  UNL     1      62.823  18.088  95.927  1.00  0.00    -0.277 OA
BRANCH  27  28
HETATM   28  N9  UNL     1      62.270  18.076  97.158  1.00  0.00    -0.311 N 
ATOM     29  H92 UNL     1      62.826  18.241  97.997  1.00  0.00     0.184 HD
ATOM     30  H91 UNL     1      61.266  17.893  97.178  1.00  0.00     0.184 HD
ENDBRANCH  27  28
ENDBRANCH   7  27
BRANCH   4  31
HETATM   31  N1  UNL     1      63.513  19.292  91.705  1.00  0.00    -0.220 N 
HETATM   32  N2  UNL     1      63.888  20.550  91.871  1.00  0.00    -0.235 N 
HETATM   33  N3  UNL     1      64.012  21.174  90.738  1.00  0.00    -0.280 N 
ATOM     34  H2  UNL     1      64.060  20.979  92.781  1.00  0.00     0.208 HD
HETATM   35  C4  UNL     1      63.712  20.314  89.771  1.00  0.00     0.123 A 
ATOM     36  H3  UNL     1      64.290  22.148  90.613  1.00  0.00     0.188 HD
HETATM   37  C5  UNL     1      63.652  20.354  88.387  1.00  0.00     0.131 A 
HETATM   38  C8  UNL     1      63.395  19.125  90.383  1.00  0.00     0.117 A 
HETATM   39  N5  UNL     1      63.302  19.286  87.649  1.00  0.00    -0.328 N 
HETATM   40  C6  UNL     1      62.988  18.109  88.219  1.00  0.00     0.144 A 
ATOM     41  H5  UNL     1      63.273  19.371  86.633  1.00  0.00     0.168 HD
HETATM   42  N6  UNL     1      62.622  16.995  87.439  1.00  0.00    -0.081 NA
HETATM   43  C7  UNL     1      63.045  18.062  89.613  1.00  0.00     0.118 A 
HETATM   44  N7  UNL     1      62.715  16.833  90.212  1.00  0.00    -0.096 NA
BRANCH  37  45
HETATM   45  N4  UNL     1      63.954  21.489  87.813  1.00  0.00    -0.383 N 
ATOM     46  H42 UNL     1      64.129  22.323  88.373  1.00  0.00     0.157 HD
ATOM     47  H41 UNL     1      64.003  21.494  86.794  1.00  0.00     0.157 HD
ENDBRANCH  37  45
ENDBRANCH   4  31
TORSDOF 16
ENDMDL
MODEL 2
REMARK VINA RESULT: -7.147342347      1.613      1.967
REMARK  16 active torsions:
REMARK  status: ('A' for Active; 'I' for Inactive)
REMARK    1  A    between atoms: C3_4  and  N1_5 
REMARK    2  A    between atoms: C5_11  and  N4_12 
REMARK    3  A    between atoms: C9_23  and  C10_24 
REMARK    4  A    between atoms: C10_24  and  N8_25 
REMARK    5  A    between atoms: C10_24  and  C13_31 
REMARK    6  A    between atoms: C11_27  and  C12_28 
REMARK    7  A    between atoms: C12_28  and  O3_29 
REMARK    8  A    between atoms: C13_31  and  O4_32 
REMARK    9  A    between atoms: C13_31  and  C14_34 
REMARK   10  A    between atoms: C14_34  and  O5_35 
REMARK   11  A    between atoms: C14_34  and  C15_37 
REMARK   12  A    between atoms: C15_37  and  O6_38 
REMARK   13  A    between atoms: C15_37  and  C16_40 
REMARK   14  A    between atoms: C16_40  and  O7_41 
REMARK   15  A    between atoms: C17_43  and  O8_44 
REMARK   16  A    between atoms: O8_44  and  N9_45 
ROOT
HETATM    1  C1  UNL     1      64.539  19.851  95.773  1.00  0.00     0.042 C 
HETATM    2  C2  UNL     1      63.714  19.617  94.547  1.00  0.00     0.156 C 
HETATM    3  O1  UNL     1      64.321  18.629  93.789  1.00  0.00    -0.335 OA
HETATM    4  C3  UNL     1      63.646  18.242  92.665  1.00  0.00     0.395 C 
HETATM    5  O2  UNL     1      62.312  17.925  92.833  1.00  0.00    -0.332 OA
HETATM    6  C9  UNL     1      61.627  18.659  93.747  1.00  0.00     0.185 C 
HETATM    7  C17 UNL     1      62.381  18.980  94.999  1.00  0.00     0.211 C 
ENDROOT
BRANCH   6   8
HETATM    8  C10 UNL     1      60.394  17.854  94.105  1.00  0.00     0.144 C 
BRANCH   8   9
HETATM    9  N8  UNL     1      59.246  18.187  93.374  1.00  0.00    -0.390 N 
HETATM   10  C11 UNL     1      58.977  19.197  92.692  1.00  0.00     0.082 C 
ATOM     11  H8  UNL     1      58.507  17.485  93.403  1.00  0.00     0.159 HD
BRANCH  10  12
HETATM   12  C12 UNL     1      57.665  19.299  92.008  1.00  0.00     0.208 C 
BRANCH  12  13
HETATM   13  O3  UNL     1      57.811  19.963  90.791  1.00  0.00    -0.396 OA
ATOM     14  H3  UNL     1      58.725  19.977  90.534  1.00  0.00     0.209 HD
ENDBRANCH  12  13
ENDBRANCH  10  12
ENDBRANCH   8   9
BRANCH   8  15
HETATM   15  C13 UNL     1      60.686  16.374  93.958  1.00  0.00     0.174 C 
BRANCH  15  16
HETATM   16  O4  UNL     1      60.163  15.853  92.782  1.00  0.00    -0.391 OA
ATOM     17  H4  UNL     1      60.040  16.522  92.119  1.00  0.00     0.210 HD
ENDBRANCH  15  16
BRANCH  15  18
HETATM   18  C14 UNL     1      60.096  15.585  95.101  1.00  0.00     0.179 C 
BRANCH  18  19
HETATM   19  O5  UNL     1      61.024  15.302  96.102  1.00  0.00    -0.390 OA
ATOM     20  H5  UNL     1      60.618  15.128  96.942  1.00  0.00     0.210 HD
ENDBRANCH  18  19
BRANCH  18  21
HETATM   21  C15 UNL     1      59.557  14.300  94.480  1.00  0.00     0.173 C 
BRANCH  21  22
HETATM   22  O6  UNL     1      60.638  13.463  94.206  1.00  0.00    -0.391 OA
ATOM     23  H6  UNL     1      61.333  13.667  94.821  1.00  0.00     0.210 HD
ENDBRANCH  21  22
BRANCH  21  24
HETATM   24  C16 UNL     1      58.607  13.687  95.454  1.00  0.00     0.198 C 
BRANCH  24  25
HETATM   25  O7  UNL     1      57.829  14.731  95.989  1.00  0.00    -0.398 OA
ATOM     26  H7  UNL     1      57.633  14.501  96.890  1.00  0.00     0.209 HD
ENDBRANCH  24  25
ENDBRANCH  21  24
ENDBRANCH  18  21
ENDBRANCH  15  18
ENDBRANCH   8  15
ENDBRANCH   6   8
BRANCH   7  27
HETATM   27  O8  UNL     1      62.729  17.886  95.748  1.00  0.00    -0.277 OA
BRANCH  27  28
HETATM   28  N9  UNL     1      62.210  17.860  96.994  1.00  0.00    -0.311 N 
ATOM     29  H92 UNL     1      62.385  18.610  97.662  1.00  0.00     0.184 HD
ATOM     30  H91 UNL     1      61.639  17.041  97.205  1.00  0.00     0.184 HD
ENDBRANCH  27  28
ENDBRANCH   7  27
BRANCH   4  31
HETATM   31  N1  UNL     1      63.738  19.217  91.630  1.00  0.00    -0.220 N 
HETATM   32  N2  UNL     1      64.053  20.494  91.776  1.00  0.00    -0.235 N 
HETATM   33  N3  UNL     1      64.054  21.128  90.641  1.00  0.00    -0.280 N 
ATOM     34  H2  UNL     1      64.270  20.929  92.673  1.00  0.00     0.208 HD
HETATM   35  C4  UNL     1      63.729  20.255  89.693  1.00  0.00     0.123 A 
ATOM     36  H3  UNL     1      64.265  22.116  90.503  1.00  0.00     0.188 HD
HETATM   37  C5  UNL     1      63.561  20.296  88.318  1.00  0.00     0.131 A 
HETATM   38  C8  UNL     1      63.529  19.047  90.319  1.00  0.00     0.117 A 
HETATM   39  N5  UNL     1      63.216  19.212  87.602  1.00  0.00    -0.328 N 
HETATM   40  C6  UNL     1      63.014  18.017  88.185  1.00  0.00     0.144 A 
ATOM     41  H5  UNL     1      63.105  19.298  86.591  1.00  0.00     0.168 HD
HETATM   42  N6  UNL     1      62.655  16.887  87.426  1.00  0.00    -0.081 NA
HETATM   43  C7  UNL     1      63.182  17.969  89.570  1.00  0.00     0.118 A 
HETATM   44  N7  UNL     1      62.969  16.721  90.184  1.00  0.00    -0.096 NA
BRANCH  37  45
HETATM   45  N4  UNL     1      63.752  21.448  87.731  1.00  0.00    -0.383 N 
ATOM     46  H42 UNL     1      63.674  21.532  86.718  1.00  0.00     0.157 HD
ATOM     47  H41 UNL     1      63.979  22.242  88.330  1.00  0.00     0.157 HD
ENDBRANCH  37  45
ENDBRANCH   4  31
TORSDOF 16
ENDMDL
MODEL 3
REMARK VINA RESULT: -6.985853273      2.117      3.708
REMARK  16 active torsions:
REMARK  status: ('A' for Active; 'I' for Inactive)
REMARK    1  A    between atoms: C3_4  and  N1_5 
REMARK    2  A    between atoms: C5_11  and  N4_12 
REMARK    3  A    between atoms: C9_23  and  C10_24 
REMARK    4  A    between atoms: C10_24  and  N8_25 
REMARK    5  A    between atoms: C10_24  and  C13_31 
REMARK    6  A    between atoms: C11_27  and  C12_28 
REMARK    7  A    between atoms: C12_28  and  O3_29 
REMARK    8  A    between atoms: C13_31  and  O4_32 
REMARK    9  A    between atoms: C13_31  and  C14_34 
REMARK   10  A    between atoms: C14_34  and  O5_35 
REMARK   11  A    between atoms: C14_34  and  C15_37 
REMARK   12  A    between atoms: C15_37  and  O6_38 
REMARK   13  A    between atoms: C15_37  and  C16_40 
REMARK   14  A    between atoms: C16_40  and  O7_41 
REMARK   15  A    between atoms: C17_43  and  O8_44 
REMARK   16  A    between atoms: O8_44  and  N9_45 
ROOT
HETATM    1  C1  UNL     1      64.343  23.819  92.387  1.00  0.00     0.042 C 
HETATM    2  C2  UNL     1      63.779  22.531  91.875  1.00  0.00     0.156 C 
HETATM    3  O1  UNL     1      64.823  21.649  91.650  1.00  0.00    -0.335 OA
HETATM    4  C3  UNL     1      64.465  20.392  91.250  1.00  0.00     0.395 C 
HETATM    5  O2  UNL     1      63.498  19.761  92.010  1.00  0.00    -0.332 OA
HETATM    6  C9  UNL     1      62.520  20.553  92.521  1.00  0.00     0.185 C 
HETATM    7  C17 UNL     1      62.978  21.884  93.027  1.00  0.00     0.211 C 
ENDROOT
BRANCH   6   8
HETATM    8  C10 UNL     1      61.896  19.778  93.663  1.00  0.00     0.144 C 
BRANCH   8   9
HETATM    9  N8  UNL     1      60.613  19.281  93.399  1.00  0.00    -0.390 N 
HETATM   10  C11 UNL     1      59.652  19.056  94.162  1.00  0.00     0.082 C 
ATOM     11  H8  UNL     1      60.434  19.068  92.418  1.00  0.00     0.159 HD
BRANCH  10  12
HETATM   12  C12 UNL     1      58.382  18.520  93.614  1.00  0.00     0.208 C 
BRANCH  12  13
HETATM   13  O3  UNL     1      58.032  19.210  92.454  1.00  0.00    -0.396 OA
ATOM     14  H3  UNL     1      57.091  19.171  92.323  1.00  0.00     0.209 HD
ENDBRANCH  12  13
ENDBRANCH  10  12
ENDBRANCH   8   9
BRANCH   8  15
HETATM   15  C13 UNL     1      62.812  18.643  94.075  1.00  0.00     0.174 C 
BRANCH  15  16
HETATM   16  O4  UNL     1      62.310  17.404  93.699  1.00  0.00    -0.391 OA
ATOM     17  H4  UNL     1      62.876  16.692  93.970  1.00  0.00     0.210 HD
ENDBRANCH  15  16
BRANCH  15  18
HETATM   18  C14 UNL     1      63.006  18.613  95.571  1.00  0.00     0.179 C 
BRANCH  18  19
HETATM   19  O5  UNL     1      62.464  19.726  96.211  1.00  0.00    -0.390 OA
ATOM     20  H5  UNL     1      62.068  19.515  97.048  1.00  0.00     0.210 HD
ENDBRANCH  18  19
BRANCH  18  21
HETATM   21  C15 UNL     1      64.514  18.540  95.791  1.00  0.00     0.173 C 
BRANCH  21  22
HETATM   22  O6  UNL     1      65.144  18.912  94.605  1.00  0.00    -0.391 OA
ATOM     23  H6  UNL     1      65.990  18.480  94.571  1.00  0.00     0.210 HD
ENDBRANCH  21  22
BRANCH  21  24
HETATM   24  C16 UNL     1      64.854  19.458  96.917  1.00  0.00     0.198 C 
BRANCH  24  25
HETATM   25  O7  UNL     1      65.299  20.666  96.350  1.00  0.00    -0.398 OA
ATOM     26  H7  UNL     1      64.572  21.276  96.381  1.00  0.00     0.209 HD
ENDBRANCH  24  25
ENDBRANCH  21  24
ENDBRANCH  18  21
ENDBRANCH  15  18
ENDBRANCH   8  15
ENDBRANCH   6   8
BRANCH   7  27
HETATM   27  O8  UNL     1      63.845  21.820  94.088  1.00  0.00    -0.277 OA
BRANCH  27  28
HETATM   28  N9  UNL     1      63.398  22.394  95.225  1.00  0.00    -0.311 N 
ATOM     29  H92 UNL     1      62.512  22.896  95.257  1.00  0.00     0.184 HD
ATOM     30  H91 UNL     1      64.012  22.284  96.032  1.00  0.00     0.184 HD
ENDBRANCH  27  28
ENDBRANCH   7  27
BRANCH   4  31
HETATM   31  N1  UNL     1      64.037  20.370  89.891  1.00  0.00    -0.220 N 
HETATM   32  N2  UNL     1      63.982  21.403  89.066  1.00  0.00    -0.235 N 
HETATM   33  N3  UNL     1      63.549  21.063  87.888  1.00  0.00    -0.280 N 
ATOM     34  H2  UNL     1      64.246  22.354  89.324  1.00  0.00     0.208 HD
HETATM   35  C4  UNL     1      63.304  19.757  87.913  1.00  0.00     0.123 A 
ATOM     36  H3  UNL     1      63.422  21.685  87.090  1.00  0.00     0.188 HD
HETATM   37  C5  UNL     1      62.840  18.815  87.009  1.00  0.00     0.131 A 
HETATM   38  C8  UNL     1      63.612  19.320  89.179  1.00  0.00     0.117 A 
HETATM   39  N5  UNL     1      62.688  17.519  87.332  1.00  0.00    -0.328 N 
HETATM   40  C6  UNL     1      62.981  17.061  88.562  1.00  0.00     0.144 A 
ATOM     41  H5  UNL     1      62.342  16.868  86.628  1.00  0.00     0.168 HD
HETATM   42  N6  UNL     1      62.821  15.702  88.892  1.00  0.00    -0.081 NA
HETATM   43  C7  UNL     1      63.449  18.005  89.479  1.00  0.00     0.118 A 
HETATM   44  N7  UNL     1      63.755  17.530  90.766  1.00  0.00    -0.096 NA
BRANCH  37  45
HETATM   45  N4  UNL     1      62.548  19.239  85.807  1.00  0.00    -0.383 N 
ATOM     46  H42 UNL     1      61.998  20.087  85.676  1.00  0.00     0.157 HD
ATOM     47  H41 UNL     1      62.896  18.686  85.024  1.00  0.00     0.157 HD
ENDBRANCH  37  45
ENDBRANCH   4  31
TORSDOF 16
ENDMDL
MODEL 4
REMARK VINA RESULT: -6.841713715      1.538      1.871
REMARK  16 active torsions:
REMARK  status: ('A' for Active; 'I' for Inactive)
REMARK    1  A    between atoms: C3_4  and  N1_5 
REMARK    2  A    between atoms: C5_11  and  N4_12 
REMARK    3  A    between atoms: C9_23  and  C10_24 
REMARK    4  A    between atoms: C10_24  and  N8_25 
REMARK    5  A    between atoms: C10_24  and  C13_31 
REMARK    6  A    between atoms: C11_27  and  C12_28 
REMARK    7  A    between atoms: C12_28  and  O3_29 
REMARK    8  A    between atoms: C13_31  and  O4_32 
REMARK    9  A    between atoms: C13_31  and  C14_34 
REMARK   10  A    between atoms: C14_34  and  O5_35 
REMARK   11  A    between atoms: C14_34  and  C15_37 
REMARK   12  A    between atoms: C15_37  and  O6_38 
REMARK   13  A    between atoms: C15_37  and  C16_40 
REMARK   14  A    between atoms: C16_40  and  O7_41 
REMARK   15  A    between atoms: C17_43  and  O8_44 
REMARK   16  A    between atoms: O8_44  and  N9_45 
ROOT
HETATM    1  C1  UNL     1      64.586  22.605  93.796  1.00  0.00     0.042 C 
HETATM    2  C2  UNL     1      63.799  21.597  93.018  1.00  0.00     0.156 C 
HETATM    3  O1  UNL     1      64.617  20.514  92.743  1.00  0.00    -0.335 OA
HETATM    4  C3  UNL     1      64.021  19.465  92.101  1.00  0.00     0.395 C 
HETATM    5  O2  UNL     1      62.837  19.008  92.647  1.00  0.00    -0.332 OA
HETATM    6  C9  UNL     1      62.021  19.947  93.193  1.00  0.00     0.185 C 
HETATM    7  C17 UNL     1      62.718  21.024  93.962  1.00  0.00     0.211 C 
ENDROOT
BRANCH   6   8
HETATM    8  C10 UNL     1      61.080  19.207  94.122  1.00  0.00     0.144 C 
BRANCH   8   9
HETATM    9  N8  UNL     1      60.121  20.016  94.746  1.00  0.00    -0.390 N 
HETATM   10  C11 UNL     1      59.875  20.206  95.954  1.00  0.00     0.082 C 
ATOM     11  H8  UNL     1      59.523  20.537  94.104  1.00  0.00     0.159 HD
BRANCH  10  12
HETATM   12  C12 UNL     1      58.785  21.130  96.350  1.00  0.00     0.208 C 
BRANCH  12  13
HETATM   13  O3  UNL     1      59.299  22.405  96.585  1.00  0.00    -0.396 OA
ATOM     14  H3  UNL     1      58.605  23.052  96.532  1.00  0.00     0.209 HD
ENDBRANCH  12  13
ENDBRANCH  10  12
ENDBRANCH   8   9
BRANCH   8  15
HETATM   15  C13 UNL     1      60.394  18.083  93.371  1.00  0.00     0.174 C 
BRANCH  15  16
HETATM   16  O4  UNL     1      59.012  18.142  93.491  1.00  0.00    -0.391 OA
ATOM     17  H4  UNL     1      58.583  17.431  93.029  1.00  0.00     0.210 HD
ENDBRANCH  15  16
BRANCH  15  18
HETATM   18  C14 UNL     1      60.833  16.735  93.885  1.00  0.00     0.179 C 
BRANCH  18  19
HETATM   19  O5  UNL     1      61.633  16.042  92.978  1.00  0.00    -0.390 OA
ATOM     20  H5  UNL     1      61.685  15.113  93.165  1.00  0.00     0.210 HD
ENDBRANCH  18  19
BRANCH  18  21
HETATM   21  C15 UNL     1      59.549  15.965  94.175  1.00  0.00     0.173 C 
BRANCH  21  22
HETATM   22  O6  UNL     1      59.281  15.139  93.085  1.00  0.00    -0.391 OA
ATOM     23  H6  UNL     1      59.587  14.265  93.293  1.00  0.00     0.210 HD
ENDBRANCH  21  22
BRANCH  21  24
HETATM   24  C16 UNL     1      59.759  15.185  95.430  1.00  0.00     0.198 C 
BRANCH  24  25
HETATM   25  O7  UNL     1      61.133  15.242  95.731  1.00  0.00    -0.398 OA
ATOM     26  H7  UNL     1      61.250  14.849  96.587  1.00  0.00     0.209 HD
ENDBRANCH  24  25
ENDBRANCH  21  24
ENDBRANCH  18  21
ENDBRANCH  15  18
ENDBRANCH   8  15
ENDBRANCH   6   8
BRANCH   7  27
HETATM   27  O8  UNL     1      63.393  20.584  95.072  1.00  0.00    -0.277 OA
BRANCH  27  28
HETATM   28  N9  UNL     1      63.114  21.252  96.211  1.00  0.00    -0.311 N 
ATOM     29  H92 UNL     1      63.458  20.933  97.116  1.00  0.00     0.184 HD
ATOM     30  H91 UNL     1      62.541  22.087  96.091  1.00  0.00     0.184 HD
ENDBRANCH  27  28
ENDBRANCH   7  27
BRANCH   4  31
HETATM   31  N1  UNL     1      63.787  19.751  90.724  1.00  0.00    -0.220 N 
HETATM   32  N2  UNL     1      63.851  20.939  90.144  1.00  0.00    -0.235 N 
HETATM   33  N3  UNL     1      63.586  20.875  88.873  1.00  0.00    -0.280 N 
ATOM     34  H2  UNL     1      64.082  21.802  90.637  1.00  0.00     0.208 HD
HETATM   35  C4  UNL     1      63.334  19.604  88.580  1.00  0.00     0.123 A 
ATOM     36  H3  UNL     1      63.574  21.658  88.220  1.00  0.00     0.188 HD
HETATM   37  C5  UNL     1      62.996  18.894  87.438  1.00  0.00     0.131 A 
HETATM   38  C8  UNL     1      63.460  18.894  89.750  1.00  0.00     0.117 A 
HETATM   39  N5  UNL     1      62.795  17.565  87.448  1.00  0.00    -0.328 N 
HETATM   40  C6  UNL     1      62.913  16.844  88.576  1.00  0.00     0.144 A 
ATOM     41  H5  UNL     1      62.548  17.093  86.578  1.00  0.00     0.168 HD
HETATM   42  N6  UNL     1      62.701  15.451  88.578  1.00  0.00    -0.081 NA
HETATM   43  C7  UNL     1      63.252  17.552  89.731  1.00  0.00     0.118 A 
HETATM   44  N7  UNL     1      63.373  16.801  90.914  1.00  0.00    -0.096 NA
BRANCH  37  45
HETATM   45  N4  UNL     1      62.877  19.577  86.329  1.00  0.00    -0.383 N 
ATOM     46  H42 UNL     1      62.440  20.498  86.332  1.00  0.00     0.157 HD
ATOM     47  H41 UNL     1      63.239  19.145  85.479  1.00  0.00     0.157 HD
ENDBRANCH  37  45
ENDBRANCH   4  31
TORSDOF 16
ENDMDL
MODEL 5
REMARK VINA RESULT: -6.770865745      1.092      1.435
REMARK  16 active torsions:
REMARK  status: ('A' for Active; 'I' for Inactive)
REMARK    1  A    between atoms: C3_4  and  N1_5 
REMARK    2  A    between atoms: C5_11  and  N4_12 
REMARK    3  A    between atoms: C9_23  and  C10_24 
REMARK    4  A    between atoms: C10_24  and  N8_25 
REMARK    5  A    between atoms: C10_24  and  C13_31 
REMARK    6  A    between atoms: C11_27  and  C12_28 
REMARK    7  A    between atoms: C12_28  and  O3_29 
REMARK    8  A    between atoms: C13_31  and  O4_32 
REMARK    9  A    between atoms: C13_31  and  C14_34 
REMARK   10  A    between atoms: C14_34  and  O5_35 
REMARK   11  A    between atoms: C14_34  and  C15_37 
REMARK   12  A    between atoms: C15_37  and  O6_38 
REMARK   13  A    between atoms: C15_37  and  C16_40 
REMARK   14  A    between atoms: C16_40  and  O7_41 
REMARK   15  A    between atoms: C17_43  and  O8_44 
REMARK   16  A    between atoms: O8_44  and  N9_45 
ROOT
HETATM    1  C1  UNL     1      64.882  18.521  96.084  1.00  0.00     0.042 C 
HETATM    2  C2  UNL     1      63.947  19.179  95.118  1.00  0.00     0.156 C 
HETATM    3  O1  UNL     1      64.041  18.527  93.900  1.00  0.00    -0.335 OA
HETATM    4  C3  UNL     1      63.187  18.962  92.925  1.00  0.00     0.395 C 
HETATM    5  O2  UNL     1      61.856  19.063  93.280  1.00  0.00    -0.332 OA
HETATM    6  C9  UNL     1      61.598  19.459  94.554  1.00  0.00     0.185 C 
HETATM    7  C17 UNL     1      62.507  18.885  95.594  1.00  0.00     0.211 C 
ENDROOT
BRANCH   6   8
HETATM    8  C10 UNL     1      60.175  19.038  94.853  1.00  0.00     0.144 C 
BRANCH   8   9
HETATM    9  N8  UNL     1      59.294  20.097  95.109  1.00  0.00    -0.390 N 
HETATM   10  C11 UNL     1      59.010  20.685  96.172  1.00  0.00     0.082 C 
ATOM     11  H8  UNL     1      58.802  20.447  94.287  1.00  0.00     0.159 HD
BRANCH  10  12
HETATM   12  C12 UNL     1      58.026  21.794  96.164  1.00  0.00     0.208 C 
BRANCH  12  13
HETATM   13  O3  UNL     1      58.578  22.928  96.759  1.00  0.00    -0.396 OA
ATOM     14  H3  UNL     1      57.946  23.638  96.758  1.00  0.00     0.209 HD
ENDBRANCH  12  13
ENDBRANCH  10  12
ENDBRANCH   8   9
BRANCH   8  15
HETATM   15  C13 UNL     1      59.640  18.187  93.718  1.00  0.00     0.174 C 
BRANCH  15  16
HETATM   16  O4  UNL     1      58.690  18.862  92.963  1.00  0.00    -0.391 OA
ATOM     17  H4  UNL     1      58.225  18.281  92.373  1.00  0.00     0.210 HD
ENDBRANCH  15  16
BRANCH  15  18
HETATM   18  C14 UNL     1      58.990  16.929  94.238  1.00  0.00     0.179 C 
BRANCH  18  19
HETATM   19  O5  UNL     1      58.942  16.878  95.630  1.00  0.00    -0.390 OA
ATOM     20  H5  UNL     1      58.279  16.281  95.955  1.00  0.00     0.210 HD
ENDBRANCH  18  19
BRANCH  18  21
HETATM   21  C15 UNL     1      59.818  15.776  93.680  1.00  0.00     0.173 C 
BRANCH  21  22
HETATM   22  O6  UNL     1      61.074  16.270  93.333  1.00  0.00    -0.391 OA
ATOM     23  H6  UNL     1      61.521  15.609  92.818  1.00  0.00     0.210 HD
ENDBRANCH  21  22
BRANCH  21  24
HETATM   24  C16 UNL     1      59.902  14.723  94.735  1.00  0.00     0.198 C 
BRANCH  24  25
HETATM   25  O7  UNL     1      61.174  14.831  95.329  1.00  0.00    -0.398 OA
ATOM     26  H7  UNL     1      61.751  14.237  94.865  1.00  0.00     0.209 HD
ENDBRANCH  24  25
ENDBRANCH  21  24
ENDBRANCH  18  21
ENDBRANCH  15  18
ENDBRANCH   8  15
ENDBRANCH   6   8
BRANCH   7  27
HETATM   27  O8  UNL     1      62.432  17.521  95.723  1.00  0.00    -0.277 OA
BRANCH  27  28
HETATM   28  N9  UNL     1      61.874  17.087  96.873  1.00  0.00    -0.311 N 
ATOM     29  H92 UNL     1      61.114  17.597  97.324  1.00  0.00     0.184 HD
ATOM     30  H91 UNL     1      62.269  16.223  97.244  1.00  0.00     0.184 HD
ENDBRANCH  27  28
ENDBRANCH   7  27
BRANCH   4  31
HETATM   31  N1  UNL     1      63.593  20.217  92.386  1.00  0.00    -0.220 N 
HETATM   32  N2  UNL     1      63.907  21.304  93.071  1.00  0.00    -0.235 N 
HETATM   33  N3  UNL     1      64.239  22.291  92.293  1.00  0.00    -0.280 N 
ATOM     34  H2  UNL     1      63.890  21.361  94.090  1.00  0.00     0.208 HD
HETATM   35  C4  UNL     1      64.148  21.862  91.039  1.00  0.00     0.123 A 
ATOM     36  H3  UNL     1      64.518  23.226  92.591  1.00  0.00     0.188 HD
HETATM   37  C5  UNL     1      64.360  22.407  89.783  1.00  0.00     0.131 A 
HETATM   38  C8  UNL     1      63.740  20.550  91.098  1.00  0.00     0.117 A 
HETATM   39  N5  UNL     1      64.180  21.704  88.652  1.00  0.00    -0.328 N 
HETATM   40  C6  UNL     1      63.781  20.419  88.677  1.00  0.00     0.144 A 
ATOM     41  H5  UNL     1      64.349  22.155  87.753  1.00  0.00     0.168 HD
HETATM   42  N6  UNL     1      63.596  19.689  87.487  1.00  0.00    -0.081 NA
HETATM   43  C7  UNL     1      63.566  19.863  89.940  1.00  0.00     0.118 A 
HETATM   44  N7  UNL     1      63.147  18.521  89.970  1.00  0.00    -0.096 NA
BRANCH  37  45
HETATM   45  N4  UNL     1      64.748  23.654  89.735  1.00  0.00    -0.383 N 
ATOM     46  H42 UNL     1      65.198  24.088  90.540  1.00  0.00     0.157 HD
ATOM     47  H41 UNL     1      64.578  24.160  88.865  1.00  0.00     0.157 HD
ENDBRANCH  37  45
ENDBRANCH   4  31
TORSDOF 16
ENDMDL
