MODEL 1
REMARK VINA RESULT: -7.993730786      0.000      0.000
REMARK  16 active torsions:
REMARK  status: ('A' for Active; 'I' for Inactive)
REMARK    1  A    between atoms: C1_2  and  O2_4 
REMARK    2  A    between atoms: O2_4  and  C2_5 
REMARK    3  A    between atoms: C2_5  and  C3_6 
REMARK    4  A    between atoms: C9_18  and  O4_19 
REMARK    5  A    between atoms: C11_23  and  N5_24 
REMARK    6  A    between atoms: N5_24  and  C12_26 
REMARK    7  A    between atoms: C12_26  and  O6_27 
REMARK    8  A    between atoms: C12_26  and  C13_29 
REMARK    9  A    between atoms: C13_29  and  O7_30 
REMARK   10  A    between atoms: C13_29  and  C14_32 
REMARK   11  A    between atoms: C14_32  and  O8_33 
REMARK   12  A    between atoms: C14_32  and  C15_35 
REMARK   13  A    between atoms: C15_35  and  O9_36 
REMARK   14  A    between atoms: C15_35  and  C16_38 
REMARK   15  A    between atoms: C16_38  and  O10_39 
REMARK   16  A    between atoms: C17_41  and  O11_42 
ROOT
HETATM    1  C3  UNL     1      63.599  21.615  90.832  1.00  0.00     0.069 A 
HETATM    2  C4  UNL     1      64.326  22.379  89.973  1.00  0.00     0.315 A 
HETATM    3  N2  UNL     1      64.605  22.950  88.930  1.00  0.00    -0.271 N 
ATOM      4  H2  UNL     1      64.128  23.085  88.038  1.00  0.00     0.185 HD
HETATM    5  N3  UNL     1      65.766  23.319  89.419  1.00  0.00    -0.151 N 
ATOM      6  H3  UNL     1      66.594  23.854  89.155  1.00  0.00     0.215 HD
HETATM    7  N4  UNL     1      65.158  22.438  90.718  1.00  0.00     0.110 N 
HETATM    8  C5  UNL     1      64.619  21.711  91.738  1.00  0.00     0.230 A 
HETATM    9  C6  UNL     1      65.007  21.354  92.982  1.00  0.00     0.220 A 
HETATM   10  O3  UNL     1      64.389  20.650  93.815  1.00  0.00    -0.285 OA
HETATM   11  C7  UNL     1      66.316  21.962  93.161  1.00  0.00     0.031 A 
HETATM   12  C8  UNL     1      66.842  21.863  94.373  1.00  0.00     0.057 C 
HETATM   13  C9  UNL     1      67.900  22.742  94.732  1.00  0.00     0.119 C 
HETATM   14  C10 UNL     1      68.600  23.626  93.890  1.00  0.00     0.234 C 
HETATM   15  O5  UNL     1      69.735  23.903  94.255  1.00  0.00    -0.283 OA
HETATM   16  C11 UNL     1      68.212  24.253  92.698  1.00  0.00     0.117 C 
HETATM   17  C17 UNL     1      67.090  23.999  92.027  1.00  0.00     0.105 C 
HETATM   18  C18 UNL     1      66.579  22.606  92.008  1.00  0.00     0.030 A 
HETATM   19  C19 UNL     1      65.814  22.682  90.899  1.00  0.00     0.330 A 
ENDROOT
BRANCH  16  20
HETATM   20  N5  UNL     1      68.909  25.245  92.052  1.00  0.00    -0.356 N 
ATOM     21  H5  UNL     1      69.432  24.945  91.230  1.00  0.00     0.162 HD
BRANCH  20  22
HETATM   22  C12 UNL     1      69.009  26.659  92.369  1.00  0.00     0.249 C 
BRANCH  22  23
HETATM   23  O6  UNL     1      67.876  27.002  93.048  1.00  0.00    -0.374 OA
ATOM     24  H6  UNL     1      67.762  27.940  92.950  1.00  0.00     0.212 HD
ENDBRANCH  22  23
BRANCH  22  25
HETATM   25  C13 UNL     1      69.239  27.460  91.155  1.00  0.00     0.197 C 
BRANCH  25  26
HETATM   26  O7  UNL     1      69.637  28.748  91.626  1.00  0.00    -0.389 OA
ATOM     27  H7  UNL     1      69.518  29.332  90.886  1.00  0.00     0.210 HD
ENDBRANCH  25  26
BRANCH  25  28
HETATM   28  C14 UNL     1      68.145  27.647  90.181  1.00  0.00     0.181 C 
BRANCH  28  29
HETATM   29  O8  UNL     1      66.880  27.864  90.667  1.00  0.00    -0.390 OA
ATOM     30  H8  UNL     1      66.375  27.109  90.948  1.00  0.00     0.210 HD
ENDBRANCH  28  29
BRANCH  28  31
HETATM   31  C15 UNL     1      68.132  26.776  88.982  1.00  0.00     0.173 C 
BRANCH  31  32
HETATM   32  O9  UNL     1      67.166  25.797  88.930  1.00  0.00    -0.391 OA
ATOM     33  H9  UNL     1      67.350  25.035  88.394  1.00  0.00     0.210 HD
ENDBRANCH  31  32
BRANCH  31  34
HETATM   34  C16 UNL     1      69.504  26.185  88.672  1.00  0.00     0.198 C 
BRANCH  34  35
HETATM   35  O10 UNL     1      69.434  24.813  88.991  1.00  0.00    -0.398 OA
ATOM     36  H10 UNL     1      68.926  24.400  88.302  1.00  0.00     0.209 HD
ENDBRANCH  34  35
ENDBRANCH  31  34
ENDBRANCH  28  31
ENDBRANCH  25  28
ENDBRANCH  22  25
ENDBRANCH  20  22
ENDBRANCH  16  20
BRANCH  17  37
HETATM   37  O11 UNL     1      66.239  24.805  91.309  1.00  0.00    -0.358 OA
ATOM     38  H11 UNL     1      65.336  24.696  91.032  1.00  0.00     0.217 HD
ENDBRANCH  17  37
BRANCH  13  39
HETATM   39  O4  UNL     1      68.226  22.681  96.026  1.00  0.00    -0.357 OA
ATOM     40  H4  UNL     1      69.141  22.874  96.195  1.00  0.00     0.218 HD
ENDBRANCH  13  39
BRANCH   1  41
HETATM   41  C2  UNL     1      62.549  21.013  91.051  1.00  0.00     0.161 C 
BRANCH  41  42
HETATM   42  O2  UNL     1      62.303  19.743  91.487  1.00  0.00    -0.275 OA
BRANCH  42  43
HETATM   43  C1  UNL     1      62.922  18.633  90.840  1.00  0.00     0.377 C 
HETATM   44  N1  UNL     1      62.634  18.275  89.515  1.00  0.00    -0.032 NA
HETATM   45  O1  UNL     1      63.747  17.996  91.544  1.00  0.00    -0.242 OA
ENDBRANCH  42  43
ENDBRANCH  41  42
ENDBRANCH   1  41
TORSDOF 16
ENDMDL
MODEL 2
REMARK VINA RESULT: -7.694120924      3.424      9.435
REMARK  16 active torsions:
REMARK  status: ('A' for Active; 'I' for Inactive)
REMARK    1  A    between atoms: C1_2  and  O2_4 
REMARK    2  A    between atoms: O2_4  and  C2_5 
REMARK    3  A    between atoms: C2_5  and  C3_6 
REMARK    4  A    between atoms: C9_18  and  O4_19 
REMARK    5  A    between atoms: C11_23  and  N5_24 
REMARK    6  A    between atoms: N5_24  and  C12_26 
REMARK    7  A    between atoms: C12_26  and  O6_27 
REMARK    8  A    between atoms: C12_26  and  C13_29 
REMARK    9  A    between atoms: C13_29  and  O7_30 
REMARK   10  A    between atoms: C13_29  and  C14_32 
REMARK   11  A    between atoms: C14_32  and  O8_33 
REMARK   12  A    between atoms: C14_32  and  C15_35 
REMARK   13  A    between atoms: C15_35  and  O9_36 
REMARK   14  A    between atoms: C15_35  and  C16_38 
REMARK   15  A    between atoms: C16_38  and  O10_39 
REMARK   16  A    between atoms: C17_41  and  O11_42 
ROOT
HETATM    1  C3  UNL     1      65.063  23.747  91.016  1.00  0.00     0.069 A 
HETATM    2  C4  UNL     1      64.790  23.536  92.332  1.00  0.00     0.315 A 
HETATM    3  N2  UNL     1      64.726  23.788  93.525  1.00  0.00    -0.271 N 
ATOM      4  H2  UNL     1      64.927  24.610  94.095  1.00  0.00     0.185 HD
HETATM    5  N3  UNL     1      64.297  22.574  93.778  1.00  0.00    -0.151 N 
ATOM      6  H3  UNL     1      63.997  21.996  94.565  1.00  0.00     0.215 HD
HETATM    7  N4  UNL     1      64.506  22.477  92.111  1.00  0.00     0.110 N 
HETATM    8  C5  UNL     1      64.698  22.454  90.762  1.00  0.00     0.230 A 
HETATM    9  C6  UNL     1      64.545  21.539  89.779  1.00  0.00     0.220 A 
HETATM   10  O3  UNL     1      64.785  21.668  88.555  1.00  0.00    -0.285 OA
HETATM   11  C7  UNL     1      64.040  20.348  90.444  1.00  0.00     0.031 A 
HETATM   12  C8  UNL     1      63.680  19.349  89.650  1.00  0.00     0.057 C 
HETATM   13  C9  UNL     1      62.833  18.335  90.174  1.00  0.00     0.119 C 
HETATM   14  C10 UNL     1      62.440  18.154  91.513  1.00  0.00     0.234 C 
HETATM   15  O5  UNL     1      62.143  17.006  91.818  1.00  0.00    -0.283 OA
HETATM   16  C11 UNL     1      62.326  19.074  92.564  1.00  0.00     0.117 C 
HETATM   17  C17 UNL     1      62.729  20.343  92.521  1.00  0.00     0.105 C 
HETATM   18  C18 UNL     1      63.954  20.668  91.749  1.00  0.00     0.030 A 
HETATM   19  C19 UNL     1      64.271  21.835  92.347  1.00  0.00     0.330 A 
ENDROOT
BRANCH  16  20
HETATM   20  N5  UNL     1      61.756  18.824  93.788  1.00  0.00    -0.356 N 
ATOM     21  H5  UNL     1      62.411  18.586  94.533  1.00  0.00     0.162 HD
BRANCH  20  22
HETATM   22  C12 UNL     1      60.357  18.848  94.176  1.00  0.00     0.249 C 
BRANCH  22  23
HETATM   23  O6  UNL     1      60.163  19.976  94.920  1.00  0.00    -0.374 OA
ATOM     24  H6  UNL     1      59.832  19.701  95.767  1.00  0.00     0.212 HD
ENDBRANCH  22  23
BRANCH  22  25
HETATM   25  C13 UNL     1      59.977  17.607  94.873  1.00  0.00     0.197 C 
BRANCH  25  26
HETATM   26  O7  UNL     1      61.158  17.184  95.555  1.00  0.00    -0.389 OA
ATOM     27  H7  UNL     1      61.218  16.249  95.395  1.00  0.00     0.210 HD
ENDBRANCH  25  26
BRANCH  25  28
HETATM   28  C14 UNL     1      59.459  16.460  94.101  1.00  0.00     0.181 C 
BRANCH  28  29
HETATM   29  O8  UNL     1      58.105  16.387  93.887  1.00  0.00    -0.390 OA
ATOM     30  H8  UNL     1      57.725  16.966  93.236  1.00  0.00     0.210 HD
ENDBRANCH  28  29
BRANCH  28  31
HETATM   31  C15 UNL     1      60.047  15.125  94.367  1.00  0.00     0.173 C 
BRANCH  31  32
HETATM   32  O9  UNL     1      61.301  14.880  93.857  1.00  0.00    -0.391 OA
ATOM     33  H9  UNL     1      61.496  13.987  93.600  1.00  0.00     0.210 HD
ENDBRANCH  31  32
BRANCH  31  34
HETATM   34  C16 UNL     1      59.096  13.986  94.012  1.00  0.00     0.198 C 
BRANCH  34  35
HETATM   35  O10 UNL     1      58.830  14.099  92.632  1.00  0.00    -0.398 OA
ATOM     36  H10 UNL     1      58.455  13.269  92.359  1.00  0.00     0.209 HD
ENDBRANCH  34  35
ENDBRANCH  31  34
ENDBRANCH  28  31
ENDBRANCH  25  28
ENDBRANCH  22  25
ENDBRANCH  20  22
ENDBRANCH  16  20
BRANCH  17  37
HETATM   37  O11 UNL     1      62.216  21.496  93.065  1.00  0.00    -0.358 OA
ATOM     38  H11 UNL     1      62.598  22.169  93.617  1.00  0.00     0.217 HD
ENDBRANCH  17  37
BRANCH  13  39
HETATM   39  O4  UNL     1      62.386  17.484  89.245  1.00  0.00    -0.357 OA
ATOM     40  H4  UNL     1      61.452  17.553  89.087  1.00  0.00     0.218 HD
ENDBRANCH  13  39
BRANCH   1  41
HETATM   41  C2  UNL     1      65.424  24.536  90.145  1.00  0.00     0.161 C 
BRANCH  41  42
HETATM   42  O2  UNL     1      66.646  24.779  89.586  1.00  0.00    -0.275 OA
BRANCH  42  43
HETATM   43  C1  UNL     1      67.246  26.066  89.714  1.00  0.00     0.377 C 
HETATM   44  N1  UNL     1      67.647  26.827  88.606  1.00  0.00    -0.032 NA
HETATM   45  O1  UNL     1      67.393  26.472  90.896  1.00  0.00    -0.242 OA
ENDBRANCH  42  43
ENDBRANCH  41  42
ENDBRANCH   1  41
TORSDOF 16
ENDMDL
MODEL 3
REMARK VINA RESULT: -7.460385711      1.115      1.970
REMARK  16 active torsions:
REMARK  status: ('A' for Active; 'I' for Inactive)
REMARK    1  A    between atoms: C1_2  and  O2_4 
REMARK    2  A    between atoms: O2_4  and  C2_5 
REMARK    3  A    between atoms: C2_5  and  C3_6 
REMARK    4  A    between atoms: C9_18  and  O4_19 
REMARK    5  A    between atoms: C11_23  and  N5_24 
REMARK    6  A    between atoms: N5_24  and  C12_26 
REMARK    7  A    between atoms: C12_26  and  O6_27 
REMARK    8  A    between atoms: C12_26  and  C13_29 
REMARK    9  A    between atoms: C13_29  and  O7_30 
REMARK   10  A    between atoms: C13_29  and  C14_32 
REMARK   11  A    between atoms: C14_32  and  O8_33 
REMARK   12  A    between atoms: C14_32  and  C15_35 
REMARK   13  A    between atoms: C15_35  and  O9_36 
REMARK   14  A    between atoms: C15_35  and  C16_38 
REMARK   15  A    between atoms: C16_38  and  O10_39 
REMARK   16  A    between atoms: C17_41  and  O11_42 
ROOT
HETATM    1  C3  UNL     1      63.243  21.248  90.913  1.00  0.00     0.069 A 
HETATM    2  C4  UNL     1      63.925  21.905  89.935  1.00  0.00     0.315 A 
HETATM    3  N2  UNL     1      64.150  22.348  88.821  1.00  0.00    -0.271 N 
ATOM      4  H2  UNL     1      63.631  22.377  87.943  1.00  0.00     0.185 HD
HETATM    5  N3  UNL     1      65.331  22.772  89.207  1.00  0.00    -0.151 N 
ATOM      6  H3  UNL     1      66.143  23.272  88.842  1.00  0.00     0.215 HD
HETATM    7  N4  UNL     1      64.791  22.051  90.628  1.00  0.00     0.110 N 
HETATM    8  C5  UNL     1      64.305  21.450  91.751  1.00  0.00     0.230 A 
HETATM    9  C6  UNL     1      64.754  21.242  93.008  1.00  0.00     0.220 A 
HETATM   10  O3  UNL     1      64.180  20.641  93.948  1.00  0.00    -0.285 OA
HETATM   11  C7  UNL     1      66.067  21.867  93.051  1.00  0.00     0.031 A 
HETATM   12  C8  UNL     1      66.649  21.911  94.241  1.00  0.00     0.057 C 
HETATM   13  C9  UNL     1      67.718  22.826  94.442  1.00  0.00     0.119 C 
HETATM   14  C10 UNL     1      68.373  23.605  93.470  1.00  0.00     0.234 C 
HETATM   15  O5  UNL     1      69.523  23.923  93.744  1.00  0.00    -0.283 OA
HETATM   16  C11 UNL     1      67.925  24.087  92.232  1.00  0.00     0.117 C 
HETATM   17  C17 UNL     1      66.774  23.756  91.650  1.00  0.00     0.105 C 
HETATM   18  C18 UNL     1      66.271  22.370  91.820  1.00  0.00     0.030 A 
HETATM   19  C19 UNL     1      65.454  22.315  90.747  1.00  0.00     0.330 A 
ENDROOT
BRANCH  16  20
HETATM   20  N5  UNL     1      68.585  24.995  91.441  1.00  0.00    -0.356 N 
ATOM     21  H5  UNL     1      68.852  25.864  91.904  1.00  0.00     0.162 HD
BRANCH  20  22
HETATM   22  C12 UNL     1      68.959  24.900  90.040  1.00  0.00     0.249 C 
BRANCH  22  23
HETATM   23  O6  UNL     1      70.145  24.227  89.983  1.00  0.00    -0.374 OA
ATOM     24  H6  UNL     1      70.757  24.775  89.507  1.00  0.00     0.212 HD
ENDBRANCH  22  23
BRANCH  22  25
HETATM   25  C13 UNL     1      69.001  26.231  89.410  1.00  0.00     0.197 C 
BRANCH  25  26
HETATM   26  O7  UNL     1      70.139  26.200  88.547  1.00  0.00    -0.389 OA
ATOM     27  H7  UNL     1      70.296  27.106  88.309  1.00  0.00     0.210 HD
ENDBRANCH  25  26
BRANCH  25  28
HETATM   28  C14 UNL     1      69.098  27.439  90.252  1.00  0.00     0.181 C 
BRANCH  28  29
HETATM   29  O8  UNL     1      70.113  27.501  91.175  1.00  0.00    -0.390 OA
ATOM     30  H8  UNL     1      70.199  26.783  91.791  1.00  0.00     0.210 HD
ENDBRANCH  28  29
BRANCH  28  31
HETATM   31  C15 UNL     1      67.838  28.016  90.780  1.00  0.00     0.173 C 
BRANCH  31  32
HETATM   32  O9  UNL     1      66.660  27.481  90.313  1.00  0.00    -0.391 OA
ATOM     33  H9  UNL     1      66.697  26.602  89.955  1.00  0.00     0.210 HD
ENDBRANCH  31  32
BRANCH  31  34
HETATM   34  C16 UNL     1      67.807  29.539  90.683  1.00  0.00     0.198 C 
BRANCH  34  35
HETATM   35  O10 UNL     1      68.882  29.912  89.851  1.00  0.00    -0.398 OA
ATOM     36  H10 UNL     1      68.866  29.322  89.106  1.00  0.00     0.209 HD
ENDBRANCH  34  35
ENDBRANCH  31  34
ENDBRANCH  28  31
ENDBRANCH  25  28
ENDBRANCH  22  25
ENDBRANCH  20  22
ENDBRANCH  16  20
BRANCH  17  37
HETATM   37  O11 UNL     1      65.885  24.471  90.883  1.00  0.00    -0.358 OA
ATOM     38  H11 UNL     1      65.778  24.560  89.943  1.00  0.00     0.217 HD
ENDBRANCH  17  37
BRANCH  13  39
HETATM   39  O4  UNL     1      68.106  22.918  95.717  1.00  0.00    -0.357 OA
ATOM     40  H4  UNL     1      68.878  23.458  95.840  1.00  0.00     0.218 HD
ENDBRANCH  13  39
BRANCH   1  41
HETATM   41  C2  UNL     1      62.209  20.675  91.251  1.00  0.00     0.161 C 
BRANCH  41  42
HETATM   42  O2  UNL     1      61.791  19.384  91.098  1.00  0.00    -0.275 OA
BRANCH  42  43
HETATM   43  C1  UNL     1      62.683  18.404  90.571  1.00  0.00     0.377 C 
HETATM   44  N1  UNL     1      63.642  17.752  91.361  1.00  0.00    -0.032 NA
HETATM   45  O1  UNL     1      62.549  18.164  89.344  1.00  0.00    -0.242 OA
ENDBRANCH  42  43
ENDBRANCH  41  42
ENDBRANCH   1  41
TORSDOF 16
ENDMDL
MODEL 4
REMARK VINA RESULT: -7.445777047      2.786      8.329
REMARK  16 active torsions:
REMARK  status: ('A' for Active; 'I' for Inactive)
REMARK    1  A    between atoms: C1_2  and  O2_4 
REMARK    2  A    between atoms: O2_4  and  C2_5 
REMARK    3  A    between atoms: C2_5  and  C3_6 
REMARK    4  A    between atoms: C9_18  and  O4_19 
REMARK    5  A    between atoms: C11_23  and  N5_24 
REMARK    6  A    between atoms: N5_24  and  C12_26 
REMARK    7  A    between atoms: C12_26  and  O6_27 
REMARK    8  A    between atoms: C12_26  and  C13_29 
REMARK    9  A    between atoms: C13_29  and  O7_30 
REMARK   10  A    between atoms: C13_29  and  C14_32 
REMARK   11  A    between atoms: C14_32  and  O8_33 
REMARK   12  A    between atoms: C14_32  and  C15_35 
REMARK   13  A    between atoms: C15_35  and  O9_36 
REMARK   14  A    between atoms: C15_35  and  C16_38 
REMARK   15  A    between atoms: C16_38  and  O10_39 
REMARK   16  A    between atoms: C17_41  and  O11_42 
ROOT
HETATM    1  C3  UNL     1      66.859  23.743  90.386  1.00  0.00     0.069 A 
HETATM    2  C4  UNL     1      65.682  23.390  89.801  1.00  0.00     0.315 A 
HETATM    3  N2  UNL     1      64.849  23.289  88.915  1.00  0.00    -0.271 N 
ATOM      4  H2  UNL     1      64.825  23.529  87.924  1.00  0.00     0.185 HD
HETATM    5  N3  UNL     1      63.994  22.749  89.753  1.00  0.00    -0.151 N 
ATOM      6  H3  UNL     1      63.049  22.364  89.769  1.00  0.00     0.215 HD
HETATM    7  N4  UNL     1      65.293  23.031  90.786  1.00  0.00     0.110 N 
HETATM    8  C5  UNL     1      66.372  23.285  91.578  1.00  0.00     0.230 A 
HETATM    9  C6  UNL     1      66.678  23.106  92.882  1.00  0.00     0.220 A 
HETATM   10  O3  UNL     1      67.737  23.415  93.480  1.00  0.00    -0.285 OA
HETATM   11  C7  UNL     1      65.506  22.472  93.465  1.00  0.00     0.031 A 
HETATM   12  C8  UNL     1      65.628  22.069  94.722  1.00  0.00     0.057 C 
HETATM   13  C9  UNL     1      64.701  21.116  95.225  1.00  0.00     0.119 C 
HETATM   14  C10 UNL     1      63.532  20.646  94.598  1.00  0.00     0.234 C 
HETATM   15  O5  UNL     1      62.661  20.240  95.357  1.00  0.00    -0.283 OA
HETATM   16  C11 UNL     1      63.196  20.557  93.240  1.00  0.00     0.117 C 
HETATM   17  C17 UNL     1      63.910  21.065  92.237  1.00  0.00     0.105 C 
HETATM   18  C18 UNL     1      64.621  22.349  92.458  1.00  0.00     0.030 A 
HETATM   19  C19 UNL     1      64.759  22.732  91.171  1.00  0.00     0.330 A 
ENDROOT
BRANCH  16  20
HETATM   20  N5  UNL     1      62.098  19.909  92.729  1.00  0.00    -0.356 N 
ATOM     21  H5  UNL     1      61.285  20.500  92.556  1.00  0.00     0.162 HD
BRANCH  20  22
HETATM   22  C12 UNL     1      61.926  18.505  92.398  1.00  0.00     0.249 C 
BRANCH  22  23
HETATM   23  O6  UNL     1      61.729  18.429  91.049  1.00  0.00    -0.374 OA
ATOM     24  H6  UNL     1      62.582  18.494  90.636  1.00  0.00     0.212 HD
ENDBRANCH  22  23
BRANCH  22  25
HETATM   25  C13 UNL     1      60.841  17.902  93.190  1.00  0.00     0.197 C 
BRANCH  25  26
HETATM   26  O7  UNL     1      60.760  16.548  92.743  1.00  0.00    -0.389 OA
ATOM     27  H7  UNL     1      60.360  16.072  93.461  1.00  0.00     0.210 HD
ENDBRANCH  25  26
BRANCH  25  28
HETATM   28  C14 UNL     1      59.485  18.483  93.140  1.00  0.00     0.181 C 
BRANCH  28  29
HETATM   29  O8  UNL     1      59.105  19.133  91.992  1.00  0.00    -0.390 OA
ATOM     30  H8  UNL     1      59.142  18.651  91.174  1.00  0.00     0.210 HD
ENDBRANCH  28  29
BRANCH  28  31
HETATM   31  C15 UNL     1      58.983  19.171  94.353  1.00  0.00     0.173 C 
BRANCH  31  32
HETATM   32  O9  UNL     1      59.812  20.104  94.932  1.00  0.00    -0.391 OA
ATOM     33  H9  UNL     1      59.757  20.206  95.875  1.00  0.00     0.210 HD
ENDBRANCH  31  32
BRANCH  31  34
HETATM   34  C16 UNL     1      58.462  18.196  95.406  1.00  0.00     0.198 C 
BRANCH  34  35
HETATM   35  O10 UNL     1      57.508  17.381  94.763  1.00  0.00    -0.398 OA
ATOM     36  H10 UNL     1      56.669  17.817  94.859  1.00  0.00     0.209 HD
ENDBRANCH  34  35
ENDBRANCH  31  34
ENDBRANCH  28  31
ENDBRANCH  25  28
ENDBRANCH  22  25
ENDBRANCH  20  22
ENDBRANCH  16  20
BRANCH  17  37
HETATM   37  O11 UNL     1      64.156  20.623  90.959  1.00  0.00    -0.358 OA
ATOM     38  H11 UNL     1      64.482  21.062  90.182  1.00  0.00     0.217 HD
ENDBRANCH  17  37
BRANCH  13  39
HETATM   39  O4  UNL     1      65.025  20.647  96.433  1.00  0.00    -0.357 OA
ATOM     40  H4  UNL     1      65.936  20.390  96.507  1.00  0.00     0.218 HD
ENDBRANCH  13  39
BRANCH   1  41
HETATM   41  C2  UNL     1      67.988  24.210  90.246  1.00  0.00     0.161 C 
BRANCH  41  42
HETATM   42  O2  UNL     1      68.450  25.495  90.261  1.00  0.00    -0.275 OA
BRANCH  42  43
HETATM   43  C1  UNL     1      67.702  26.530  89.625  1.00  0.00     0.377 C 
HETATM   44  N1  UNL     1      67.877  26.868  88.275  1.00  0.00    -0.032 NA
HETATM   45  O1  UNL     1      66.872  27.120  90.364  1.00  0.00    -0.242 OA
ENDBRANCH  42  43
ENDBRANCH  41  42
ENDBRANCH   1  41
TORSDOF 16
ENDMDL
MODEL 5
REMARK VINA RESULT: -7.422152712      2.931      8.499
REMARK  16 active torsions:
REMARK  status: ('A' for Active; 'I' for Inactive)
REMARK    1  A    between atoms: C1_2  and  O2_4 
REMARK    2  A    between atoms: O2_4  and  C2_5 
REMARK    3  A    between atoms: C2_5  and  C3_6 
REMARK    4  A    between atoms: C9_18  and  O4_19 
REMARK    5  A    between atoms: C11_23  and  N5_24 
REMARK    6  A    between atoms: N5_24  and  C12_26 
REMARK    7  A    between atoms: C12_26  and  O6_27 
REMARK    8  A    between atoms: C12_26  and  C13_29 
REMARK    9  A    between atoms: C13_29  and  O7_30 
REMARK   10  A    between atoms: C13_29  and  C14_32 
REMARK   11  A    between atoms: C14_32  and  O8_33 
REMARK   12  A    between atoms: C14_32  and  C15_35 
REMARK   13  A    between atoms: C15_35  and  O9_36 
REMARK   14  A    between atoms: C15_35  and  C16_38 
REMARK   15  A    between atoms: C16_38  and  O10_39 
REMARK   16  A    between atoms: C17_41  and  O11_42 
ROOT
HETATM    1  C3  UNL     1      66.938  22.835  95.277  1.00  0.00     0.069 A 
HETATM    2  C4  UNL     1      66.042  21.838  95.512  1.00  0.00     0.315 A 
HETATM    3  N2  UNL     1      65.431  20.999  96.155  1.00  0.00    -0.271 N 
ATOM      4  H2  UNL     1      65.406  20.728  97.138  1.00  0.00     0.185 HD
HETATM    5  N3  UNL     1      64.819  20.585  95.069  1.00  0.00    -0.151 N 
ATOM      6  H3  UNL     1      64.121  19.901  94.776  1.00  0.00     0.215 HD
HETATM    7  N4  UNL     1      65.802  21.788  94.421  1.00  0.00     0.110 N 
HETATM    8  C5  UNL     1      66.621  22.769  93.949  1.00  0.00     0.230 A 
HETATM    9  C6  UNL     1      66.879  23.315  92.740  1.00  0.00     0.220 A 
HETATM   10  O3  UNL     1      67.695  24.226  92.458  1.00  0.00    -0.285 OA
HETATM   11  C7  UNL     1      66.004  22.616  91.812  1.00  0.00     0.031 A 
HETATM   12  C8  UNL     1      65.982  23.083  90.572  1.00  0.00     0.057 C 
HETATM   13  C9  UNL     1      64.895  22.725  89.729  1.00  0.00     0.119 C 
HETATM   14  C10 UNL     1      63.886  21.778  89.988  1.00  0.00     0.234 C 
HETATM   15  O5  UNL     1      63.371  21.281  88.995  1.00  0.00    -0.283 OA
HETATM   16  C11 UNL     1      63.364  21.309  91.201  1.00  0.00     0.117 C 
HETATM   17  C17 UNL     1      63.856  21.586  92.407  1.00  0.00     0.105 C 
HETATM   18  C18 UNL     1      65.326  21.722  92.555  1.00  0.00     0.030 A 
HETATM   19  C19 UNL     1      65.422  21.491  93.881  1.00  0.00     0.330 A 
ENDROOT
BRANCH  16  20
HETATM   20  N5  UNL     1      62.250  20.517  91.339  1.00  0.00    -0.356 N 
ATOM     21  H5  UNL     1      61.363  21.018  91.387  1.00  0.00     0.162 HD
BRANCH  20  22
HETATM   22  C12 UNL     1      62.151  19.071  91.427  1.00  0.00     0.249 C 
BRANCH  22  23
HETATM   23  O6  UNL     1      62.172  18.586  90.151  1.00  0.00    -0.374 OA
ATOM     24  H6  UNL     1      62.708  17.802  90.157  1.00  0.00     0.212 HD
ENDBRANCH  22  23
BRANCH  22  25
HETATM   25  C13 UNL     1      60.961  18.666  92.196  1.00  0.00     0.197 C 
BRANCH  25  26
HETATM   26  O7  UNL     1      59.865  19.332  91.568  1.00  0.00    -0.389 OA
ATOM     27  H7  UNL     1      59.202  19.413  92.243  1.00  0.00     0.210 HD
ENDBRANCH  25  26
BRANCH  25  28
HETATM   28  C14 UNL     1      60.894  18.940  93.645  1.00  0.00     0.181 C 
BRANCH  28  29
HETATM   29  O8  UNL     1      62.075  19.128  94.319  1.00  0.00    -0.390 OA
ATOM     30  H8  UNL     1      62.724  19.703  93.930  1.00  0.00     0.210 HD
ENDBRANCH  28  29
BRANCH  28  31
HETATM   31  C15 UNL     1      59.918  18.167  94.450  1.00  0.00     0.173 C 
BRANCH  31  32
HETATM   32  O9  UNL     1      59.291  17.112  93.829  1.00  0.00    -0.391 OA
ATOM     33  H9  UNL     1      59.134  16.334  94.351  1.00  0.00     0.210 HD
ENDBRANCH  31  32
BRANCH  31  34
HETATM   34  C16 UNL     1      58.894  19.061  95.144  1.00  0.00     0.198 C 
BRANCH  34  35
HETATM   35  O10 UNL     1      58.222  19.769  94.126  1.00  0.00    -0.398 OA
ATOM     36  H10 UNL     1      57.310  19.820  94.389  1.00  0.00     0.209 HD
ENDBRANCH  34  35
ENDBRANCH  31  34
ENDBRANCH  28  31
ENDBRANCH  25  28
ENDBRANCH  22  25
ENDBRANCH  20  22
ENDBRANCH  16  20
BRANCH  17  37
HETATM   37  O11 UNL     1      63.255  21.797  93.626  1.00  0.00    -0.358 OA
ATOM     38  H11 UNL     1      63.533  21.617  94.516  1.00  0.00     0.217 HD
ENDBRANCH  17  37
BRANCH  13  39
HETATM   39  O4  UNL     1      64.877  23.393  88.572  1.00  0.00    -0.357 OA
ATOM     40  H4  UNL     1      64.478  22.907  87.860  1.00  0.00     0.218 HD
ENDBRANCH  13  39
BRANCH   1  41
HETATM   41  C2  UNL     1      67.750  23.631  95.745  1.00  0.00     0.161 C 
BRANCH  41  42
HETATM   42  O2  UNL     1      69.053  23.484  96.127  1.00  0.00    -0.275 OA
BRANCH  42  43
HETATM   43  C1  UNL     1      69.907  22.588  95.419  1.00  0.00     0.377 C 
HETATM   44  N1  UNL     1      70.479  22.910  94.179  1.00  0.00    -0.032 NA
HETATM   45  O1  UNL     1      70.112  21.485  95.987  1.00  0.00    -0.242 OA
ENDBRANCH  42  43
ENDBRANCH  41  42
ENDBRANCH   1  41
TORSDOF 16
ENDMDL
