MODEL 1
REMARK VINA RESULT: -9.708653083      0.000      0.000
REMARK  3 active torsions:
REMARK  status: ('A' for Active; 'I' for Inactive)
REMARK    1  A    between atoms: C1_2  and  N1_3 
REMARK    2  A    between atoms: C1_2  and  C9_15 
REMARK    3  A    between atoms: N1_3  and  C2_5 
ROOT
HETATM    1  S1  UNL     1      14.822  36.664  29.487  1.00  0.00    -0.059 SA
HETATM    2  C1  UNL     1      15.227  35.513  30.569  1.00  0.00     0.113 C 
ENDROOT
BRANCH   2   3
HETATM    3  N1  UNL     1      15.731  35.813  31.859  1.00  0.00    -0.327 N 
ATOM      4  H1  UNL     1      15.181  35.617  32.696  1.00  0.00     0.169 HD
BRANCH   3   5
HETATM    5  C2  UNL     1      16.930  36.353  31.947  1.00  0.00     0.150 A 
HETATM    6  N2  UNL     1      17.964  36.179  31.120  1.00  0.00    -0.335 N 
HETATM    7  C3  UNL     1      19.083  36.809  31.377  1.00  0.00     0.051 A 
ATOM      8  H2  UNL     1      17.884  35.569  30.306  1.00  0.00     0.168 HD
HETATM    9  C4  UNL     1      20.277  36.755  30.631  1.00  0.00     0.031 A 
HETATM   10  C8  UNL     1      19.130  37.611  32.478  1.00  0.00     0.035 A 
HETATM   11  C5  UNL     1      21.378  37.451  30.991  1.00  0.00     0.002 A 
HETATM   12  C6  UNL     1      21.427  38.261  32.102  1.00  0.00     0.002 A 
HETATM   13  C7  UNL     1      20.266  38.333  32.855  1.00  0.00     0.021 A 
HETATM   14  S2  UNL     1      17.555  37.432  33.112  1.00  0.00    -0.052 SA
ENDBRANCH   3   5
ENDBRANCH   2   3
BRANCH   2  15
HETATM   15  C9  UNL     1      15.072  34.110  30.217  1.00  0.00     0.003 A 
HETATM   16  C10 UNL     1      14.429  33.731  29.049  1.00  0.00     0.015 A 
HETATM   17  C11 UNL     1      14.262  32.430  28.680  1.00  0.00     0.013 A 
HETATM   18  C12 UNL     1      14.749  31.435  29.498  1.00  0.00    -0.026 A 
HETATM   19  C13 UNL     1      14.599  30.099  29.159  1.00  0.00     0.012 A 
HETATM   20  C17 UNL     1      15.398  31.773  30.675  1.00  0.00    -0.025 A 
HETATM   21  C14 UNL     1      15.086  29.129  29.978  1.00  0.00     0.001 A 
HETATM   22  C15 UNL     1      15.734  29.461  31.152  1.00  0.00     0.001 A 
HETATM   23  C16 UNL     1      15.881  30.771  31.483  1.00  0.00     0.012 A 
HETATM   24  C18 UNL     1      15.553  33.118  31.023  1.00  0.00     0.027 A 
ENDBRANCH   2  15
TORSDOF 3
ENDMDL
MODEL 2
REMARK VINA RESULT: -9.525136356      1.013      1.553
REMARK  3 active torsions:
REMARK  status: ('A' for Active; 'I' for Inactive)
REMARK    1  A    between atoms: C1_2  and  N1_3 
REMARK    2  A    between atoms: C1_2  and  C9_15 
REMARK    3  A    between atoms: N1_3  and  C2_5 
ROOT
HETATM    1  S1  UNL     1      15.043  36.367  29.188  1.00  0.00    -0.059 SA
HETATM    2  C1  UNL     1      15.195  35.280  30.394  1.00  0.00     0.113 C 
ENDROOT
BRANCH   2   3
HETATM    3  N1  UNL     1      15.475  35.651  31.733  1.00  0.00    -0.327 N 
ATOM      4  H1  UNL     1      14.850  35.380  32.494  1.00  0.00     0.169 HD
BRANCH   3   5
HETATM    5  C2  UNL     1      16.563  36.356  31.968  1.00  0.00     0.150 A 
HETATM    6  N2  UNL     1      16.648  37.553  32.553  1.00  0.00    -0.335 N 
HETATM    7  C3  UNL     1      17.832  38.094  32.698  1.00  0.00     0.051 A 
ATOM      8  H2  UNL     1      15.810  38.035  32.880  1.00  0.00     0.168 HD
HETATM    9  C4  UNL     1      18.127  39.341  33.285  1.00  0.00     0.031 A 
HETATM   10  C8  UNL     1      18.916  37.404  32.243  1.00  0.00     0.035 A 
HETATM   11  C5  UNL     1      19.393  39.804  33.382  1.00  0.00     0.002 A 
HETATM   12  C6  UNL     1      20.487  39.108  32.924  1.00  0.00     0.002 A 
HETATM   13  C7  UNL     1      20.226  37.878  32.342  1.00  0.00     0.021 A 
HETATM   14  S2  UNL     1      18.193  35.989  31.617  1.00  0.00    -0.052 SA
ENDBRANCH   3   5
ENDBRANCH   2   3
BRANCH   2  15
HETATM   15  C9  UNL     1      15.042  33.862  30.106  1.00  0.00     0.003 A 
HETATM   16  C10 UNL     1      14.341  33.429  28.992  1.00  0.00     0.015 A 
HETATM   17  C11 UNL     1      14.173  32.112  28.685  1.00  0.00     0.013 A 
HETATM   18  C12 UNL     1      14.720  31.157  29.513  1.00  0.00    -0.026 A 
HETATM   19  C13 UNL     1      14.571  29.807  29.235  1.00  0.00     0.012 A 
HETATM   20  C17 UNL     1      15.428  31.550  30.638  1.00  0.00    -0.025 A 
HETATM   21  C14 UNL     1      15.118  28.877  30.064  1.00  0.00     0.001 A 
HETATM   22  C15 UNL     1      15.825  29.264  31.186  1.00  0.00     0.001 A 
HETATM   23  C16 UNL     1      15.970  30.587  31.456  1.00  0.00     0.012 A 
HETATM   24  C18 UNL     1      15.582  32.910  30.923  1.00  0.00     0.027 A 
ENDBRANCH   2  15
TORSDOF 3
ENDMDL
MODEL 3
REMARK VINA RESULT: -9.521665984      1.628      1.917
REMARK  3 active torsions:
REMARK  status: ('A' for Active; 'I' for Inactive)
REMARK    1  A    between atoms: C1_2  and  N1_3 
REMARK    2  A    between atoms: C1_2  and  C9_15 
REMARK    3  A    between atoms: N1_3  and  C2_5 
ROOT
HETATM    1  S1  UNL     1      14.558  36.479  29.827  1.00  0.00    -0.059 SA
HETATM    2  C1  UNL     1      15.747  35.364  29.815  1.00  0.00     0.113 C 
ENDROOT
BRANCH   2   3
HETATM    3  N1  UNL     1      17.118  35.700  29.940  1.00  0.00    -0.327 N 
ATOM      4  H1  UNL     1      17.780  35.494  29.190  1.00  0.00     0.169 HD
BRANCH   3   5
HETATM    5  C2  UNL     1      17.515  36.284  31.052  1.00  0.00     0.150 A 
HETATM    6  N2  UNL     1      17.620  37.594  31.291  1.00  0.00    -0.335 N 
HETATM    7  C3  UNL     1      18.035  37.982  32.471  1.00  0.00     0.051 A 
ATOM      8  H2  UNL     1      17.383  38.276  30.571  1.00  0.00     0.168 HD
HETATM    9  C4  UNL     1      18.212  39.309  32.913  1.00  0.00     0.031 A 
HETATM   10  C8  UNL     1      18.336  37.025  33.394  1.00  0.00     0.035 A 
HETATM   11  C5  UNL     1      18.648  39.595  34.160  1.00  0.00     0.002 A 
HETATM   12  C6  UNL     1      18.953  38.631  35.092  1.00  0.00     0.002 A 
HETATM   13  C7  UNL     1      18.787  37.316  34.684  1.00  0.00     0.021 A 
HETATM   14  S2  UNL     1      18.012  35.589  32.529  1.00  0.00    -0.052 SA
ENDBRANCH   3   5
ENDBRANCH   2   3
BRANCH   2  15
HETATM   15  C9  UNL     1      15.409  33.956  29.669  1.00  0.00     0.003 A 
HETATM   16  C10 UNL     1      14.547  33.525  28.674  1.00  0.00     0.015 A 
HETATM   17  C11 UNL     1      14.204  32.218  28.502  1.00  0.00     0.013 A 
HETATM   18  C12 UNL     1      14.732  31.270  29.351  1.00  0.00    -0.026 A 
HETATM   19  C13 UNL     1      14.406  29.929  29.210  1.00  0.00     0.012 A 
HETATM   20  C17 UNL     1      15.598  31.661  30.360  1.00  0.00    -0.025 A 
HETATM   21  C14 UNL     1      14.937  29.007  30.057  1.00  0.00     0.001 A 
HETATM   22  C15 UNL     1      15.802  29.392  31.063  1.00  0.00     0.001 A 
HETATM   23  C16 UNL     1      16.119  30.706  31.201  1.00  0.00     0.012 A 
HETATM   24  C18 UNL     1      15.929  33.011  30.508  1.00  0.00     0.027 A 
ENDBRANCH   2  15
TORSDOF 3
ENDMDL
MODEL 4
REMARK VINA RESULT: -9.401066426      0.645      1.563
REMARK  3 active torsions:
REMARK  status: ('A' for Active; 'I' for Inactive)
REMARK    1  A    between atoms: C1_2  and  N1_3 
REMARK    2  A    between atoms: C1_2  and  C9_15 
REMARK    3  A    between atoms: N1_3  and  C2_5 
ROOT
HETATM    1  S1  UNL     1      15.062  36.312  29.224  1.00  0.00    -0.059 SA
HETATM    2  C1  UNL     1      15.493  35.663  30.655  1.00  0.00     0.113 C 
ENDROOT
BRANCH   2   3
HETATM    3  N1  UNL     1      15.872  36.448  31.773  1.00  0.00    -0.327 N 
ATOM      4  H1  UNL     1      15.192  36.702  32.491  1.00  0.00     0.169 HD
BRANCH   3   5
HETATM    5  C2  UNL     1      17.127  36.840  31.859  1.00  0.00     0.150 A 
HETATM    6  N2  UNL     1      18.122  36.577  31.010  1.00  0.00    -0.335 N 
HETATM    7  C3  UNL     1      19.311  37.062  31.270  1.00  0.00     0.051 A 
ATOM      8  H2  UNL     1      17.961  36.010  30.176  1.00  0.00     0.168 HD
HETATM    9  C4  UNL     1      20.481  36.896  30.502  1.00  0.00     0.031 A 
HETATM   10  C8  UNL     1      19.466  37.813  32.397  1.00  0.00     0.035 A 
HETATM   11  C5  UNL     1      21.660  37.446  30.868  1.00  0.00     0.002 A 
HETATM   12  C6  UNL     1      21.818  38.203  32.005  1.00  0.00     0.002 A 
HETATM   13  C7  UNL     1      20.683  38.383  32.779  1.00  0.00     0.021 A 
HETATM   14  S2  UNL     1      17.888  37.796  33.050  1.00  0.00    -0.052 SA
ENDBRANCH   3   5
ENDBRANCH   2   3
BRANCH   2  15
HETATM   15  C9  UNL     1      15.497  34.217  30.816  1.00  0.00     0.003 A 
HETATM   16  C10 UNL     1      15.919  33.628  31.997  1.00  0.00     0.015 A 
HETATM   17  C11 UNL     1      15.940  32.280  32.191  1.00  0.00     0.013 A 
HETATM   18  C12 UNL     1      15.524  31.452  31.172  1.00  0.00    -0.026 A 
HETATM   19  C13 UNL     1      15.530  30.074  31.329  1.00  0.00     0.012 A 
HETATM   20  C17 UNL     1      15.094  32.001  29.974  1.00  0.00    -0.025 A 
HETATM   21  C14 UNL     1      15.116  29.271  30.313  1.00  0.00     0.001 A 
HETATM   22  C15 UNL     1      14.686  29.814  29.118  1.00  0.00     0.001 A 
HETATM   23  C16 UNL     1      14.680  31.165  28.965  1.00  0.00     0.012 A 
HETATM   24  C18 UNL     1      15.086  33.390  29.810  1.00  0.00     0.027 A 
ENDBRANCH   2  15
TORSDOF 3
ENDMDL
MODEL 5
REMARK VINA RESULT: -9.285585430      2.119      7.365
REMARK  3 active torsions:
REMARK  status: ('A' for Active; 'I' for Inactive)
REMARK    1  A    between atoms: C1_2  and  N1_3 
REMARK    2  A    between atoms: C1_2  and  C9_15 
REMARK    3  A    between atoms: N1_3  and  C2_5 
ROOT
HETATM    1  S1  UNL     1      14.659  36.260  29.445  1.00  0.00    -0.059 SA
HETATM    2  C1  UNL     1      16.103  36.008  30.160  1.00  0.00     0.113 C 
ENDROOT
BRANCH   2   3
HETATM    3  N1  UNL     1      16.997  34.987  29.750  1.00  0.00    -0.327 N 
ATOM      4  H1  UNL     1      17.892  35.216  29.318  1.00  0.00     0.169 HD
BRANCH   3   5
HETATM    5  C2  UNL     1      16.638  33.734  29.944  1.00  0.00     0.150 A 
HETATM    6  N2  UNL     1      15.769  33.016  29.228  1.00  0.00    -0.335 N 
HETATM    7  C3  UNL     1      15.545  31.775  29.581  1.00  0.00     0.051 A 
ATOM      8  H2  UNL     1      15.291  33.424  28.425  1.00  0.00     0.168 HD
HETATM    9  C4  UNL     1      14.671  30.861  28.958  1.00  0.00     0.031 A 
HETATM   10  C8  UNL     1      16.214  31.282  30.662  1.00  0.00     0.035 A 
HETATM   11  C5  UNL     1      14.516  29.597  29.410  1.00  0.00     0.002 A 
HETATM   12  C6  UNL     1      15.190  29.099  30.500  1.00  0.00     0.002 A 
HETATM   13  C7  UNL     1      16.058  29.976  31.132  1.00  0.00     0.021 A 
HETATM   14  S2  UNL     1      17.149  32.629  31.140  1.00  0.00    -0.052 SA
ENDBRANCH   3   5
ENDBRANCH   2   3
BRANCH   2  15
HETATM   15  C9  UNL     1      16.512  36.856  31.269  1.00  0.00     0.003 A 
HETATM   16  C10 UNL     1      15.872  38.058  31.526  1.00  0.00     0.015 A 
HETATM   17  C11 UNL     1      16.222  38.882  32.552  1.00  0.00     0.013 A 
HETATM   18  C12 UNL     1      17.259  38.515  33.381  1.00  0.00    -0.026 A 
HETATM   19  C13 UNL     1      17.646  39.327  34.437  1.00  0.00     0.012 A 
HETATM   20  C17 UNL     1      17.925  37.320  33.158  1.00  0.00    -0.025 A 
HETATM   21  C14 UNL     1      18.673  38.949  35.246  1.00  0.00     0.001 A 
HETATM   22  C15 UNL     1      19.338  37.758  35.027  1.00  0.00     0.001 A 
HETATM   23  C16 UNL     1      18.958  36.964  33.992  1.00  0.00     0.012 A 
HETATM   24  C18 UNL     1      17.539  36.498  32.095  1.00  0.00     0.027 A 
ENDBRANCH   2  15
TORSDOF 3
ENDMDL
