MODEL 1
REMARK VINA RESULT: -5.452515138      0.000      0.000
REMARK  3 active torsions:
REMARK  status: ('A' for Active; 'I' for Inactive)
REMARK    1  A    between atoms: C3_4  and  C4_5 
REMARK    2  A    between atoms: C7_8  and  C8_9 
REMARK    3  A    between atoms: C9_10  and  C10_11 
ROOT
HETATM    1  C4  UNL     1      18.663  35.618  31.408  1.00  0.00    -0.010 A 
HETATM    2  C5  UNL     1      18.840  34.825  30.284  1.00  0.00     0.016 A 
HETATM    3  C6  UNL     1      17.880  33.880  29.999  1.00  0.00     0.040 A 
HETATM    4  C7  UNL     1      16.793  33.749  30.816  1.00  0.00     0.086 A 
HETATM    5  N1  UNL     1      16.658  34.528  31.883  1.00  0.00    -0.358 N 
ATOM      6  H1  UNL     1      15.837  34.410  32.477  1.00  0.00     0.166 HD
HETATM    7  C20 UNL     1      17.558  35.459  32.205  1.00  0.00     0.101 A 
ENDROOT
BRANCH   4   8
HETATM    8  C8  UNL     1      15.809  32.742  30.474  1.00  0.00    -0.043 C 
HETATM    9  C9  UNL     1      14.976  31.914  30.200  1.00  0.00    -0.060 C 
BRANCH   9  10
HETATM   10  C10 UNL     1      13.969  30.939  29.887  1.00  0.00     0.018 A 
HETATM   11  C11 UNL     1      14.007  30.144  28.754  1.00  0.00     0.021 A 
HETATM   12  C12 UNL     1      13.026  29.212  28.472  1.00  0.00     0.013 A 
HETATM   13  C13 UNL     1      11.960  29.048  29.332  1.00  0.00    -0.026 A 
HETATM   14  C14 UNL     1      10.957  28.113  29.068  1.00  0.00     0.012 A 
HETATM   15  C18 UNL     1      11.896  29.826  30.467  1.00  0.00    -0.025 A 
HETATM   16  C15 UNL     1       9.895  27.954  29.931  1.00  0.00     0.001 A 
HETATM   17  C16 UNL     1       9.826  28.730  31.069  1.00  0.00     0.001 A 
HETATM   18  C17 UNL     1      10.827  29.655  31.322  1.00  0.00     0.012 A 
HETATM   19  C19 UNL     1      12.886  30.748  30.726  1.00  0.00     0.032 A 
ENDBRANCH   9  10
ENDBRANCH   4   8
BRANCH   1  20
HETATM   20  C3  UNL     1      19.640  36.643  31.775  1.00  0.00    -0.018 A 
HETATM   21  C2  UNL     1      20.861  36.763  31.137  1.00  0.00     0.086 A 
HETATM   22  C1  UNL     1      21.768  37.747  31.506  1.00  0.00     0.245 A 
HETATM   23  O1  UNL     1      22.881  37.845  30.914  1.00  0.00    -0.268 OA
HETATM   24  N2  UNL     1      21.468  38.610  32.503  1.00  0.00    -0.334 N 
HETATM   25  C22 UNL     1      20.288  38.520  33.144  1.00  0.00     0.092 A 
ATOM     26  H2  UNL     1      22.139  39.332  32.770  1.00  0.00     0.168 HD
HETATM   27  C21 UNL     1      19.382  37.547  32.783  1.00  0.00     0.029 A 
ENDBRANCH   1  20
TORSDOF 3
ENDMDL
MODEL 2
REMARK VINA RESULT: -5.307367213      0.904      1.300
REMARK  3 active torsions:
REMARK  status: ('A' for Active; 'I' for Inactive)
REMARK    1  A    between atoms: C3_4  and  C4_5 
REMARK    2  A    between atoms: C7_8  and  C8_9 
REMARK    3  A    between atoms: C9_10  and  C10_11 
ROOT
HETATM    1  C4  UNL     1      18.509  35.586  31.315  1.00  0.00    -0.010 A 
HETATM    2  C5  UNL     1      18.743  34.672  30.299  1.00  0.00     0.016 A 
HETATM    3  C6  UNL     1      17.776  33.725  30.044  1.00  0.00     0.040 A 
HETATM    4  C7  UNL     1      16.630  33.709  30.786  1.00  0.00     0.086 A 
HETATM    5  N1  UNL     1      16.442  34.602  31.751  1.00  0.00    -0.358 N 
ATOM      6  H1  UNL     1      15.577  34.568  32.291  1.00  0.00     0.166 HD
HETATM    7  C20 UNL     1      17.345  35.541  32.039  1.00  0.00     0.101 A 
ENDROOT
BRANCH   4   8
HETATM    8  C8  UNL     1      15.642  32.695  30.480  1.00  0.00    -0.043 C 
HETATM    9  C9  UNL     1      14.804  31.863  30.230  1.00  0.00    -0.060 C 
BRANCH   9  10
HETATM   10  C10 UNL     1      13.791  30.887  29.941  1.00  0.00     0.018 A 
HETATM   11  C11 UNL     1      13.797  30.100  28.802  1.00  0.00     0.021 A 
HETATM   12  C12 UNL     1      12.811  29.167  28.543  1.00  0.00     0.013 A 
HETATM   13  C13 UNL     1      11.771  28.993  29.434  1.00  0.00    -0.026 A 
HETATM   14  C14 UNL     1      10.764  28.057  29.194  1.00  0.00     0.012 A 
HETATM   15  C18 UNL     1      11.739  29.763  30.576  1.00  0.00    -0.025 A 
HETATM   16  C15 UNL     1       9.729  27.888  30.087  1.00  0.00     0.001 A 
HETATM   17  C16 UNL     1       9.692  28.657  31.232  1.00  0.00     0.001 A 
HETATM   18  C17 UNL     1      10.698  29.583  31.461  1.00  0.00     0.012 A 
HETATM   19  C19 UNL     1      12.734  30.686  30.812  1.00  0.00     0.032 A 
ENDBRANCH   9  10
ENDBRANCH   4   8
BRANCH   1  20
HETATM   20  C3  UNL     1      19.489  36.622  31.644  1.00  0.00    -0.018 A 
HETATM   21  C2  UNL     1      19.225  37.626  32.558  1.00  0.00     0.086 A 
HETATM   22  C1  UNL     1      20.175  38.595  32.850  1.00  0.00     0.245 A 
HETATM   23  O1  UNL     1      19.920  39.508  33.688  1.00  0.00    -0.268 OA
HETATM   24  N2  UNL     1      21.382  38.572  32.242  1.00  0.00    -0.334 N 
HETATM   25  C22 UNL     1      21.670  37.608  31.347  1.00  0.00     0.092 A 
ATOM     26  H2  UNL     1      22.077  39.287  32.461  1.00  0.00     0.168 HD
HETATM   27  C21 UNL     1      20.734  36.642  31.052  1.00  0.00     0.029 A 
ENDBRANCH   1  20
TORSDOF 3
ENDMDL
MODEL 3
REMARK VINA RESULT: -4.949559392      3.880     10.672
REMARK  3 active torsions:
REMARK  status: ('A' for Active; 'I' for Inactive)
REMARK    1  A    between atoms: C3_4  and  C4_5 
REMARK    2  A    between atoms: C7_8  and  C8_9 
REMARK    3  A    between atoms: C9_10  and  C10_11 
ROOT
HETATM    1  C4  UNL     1      13.880  31.145  29.813  1.00  0.00    -0.010 A 
HETATM    2  C5  UNL     1      13.974  32.276  29.015  1.00  0.00     0.016 A 
HETATM    3  C6  UNL     1      14.885  33.246  29.370  1.00  0.00     0.040 A 
HETATM    4  C7  UNL     1      15.660  33.075  30.481  1.00  0.00     0.086 A 
HETATM    5  N1  UNL     1      15.543  31.978  31.219  1.00  0.00    -0.358 N 
ATOM      6  H1  UNL     1      16.134  31.874  32.044  1.00  0.00     0.166 HD
HETATM    7  C20 UNL     1      14.678  31.007  30.921  1.00  0.00     0.101 A 
ENDROOT
BRANCH   4   8
HETATM    8  C8  UNL     1      16.605  34.122  30.812  1.00  0.00    -0.043 C 
HETATM    9  C9  UNL     1      17.379  35.000  31.104  1.00  0.00    -0.060 C 
BRANCH   9  10
HETATM   10  C10 UNL     1      18.287  36.051  31.470  1.00  0.00     0.018 A 
HETATM   11  C11 UNL     1      19.559  36.176  30.937  1.00  0.00     0.021 A 
HETATM   12  C12 UNL     1      20.417  37.195  31.303  1.00  0.00     0.013 A 
HETATM   13  C13 UNL     1      20.018  38.136  32.230  1.00  0.00    -0.026 A 
HETATM   14  C14 UNL     1      20.868  39.175  32.616  1.00  0.00     0.012 A 
HETATM   15  C18 UNL     1      18.758  38.037  32.777  1.00  0.00    -0.025 A 
HETATM   16  C15 UNL     1      20.464  40.111  33.542  1.00  0.00     0.001 A 
HETATM   17  C16 UNL     1      19.202  40.016  34.093  1.00  0.00     0.001 A 
HETATM   18  C17 UNL     1      18.367  38.981  33.703  1.00  0.00     0.012 A 
HETATM   19  C19 UNL     1      17.921  37.011  32.396  1.00  0.00     0.032 A 
ENDBRANCH   9  10
ENDBRANCH   4   8
BRANCH   1  20
HETATM   20  C3  UNL     1      12.937  30.072  29.499  1.00  0.00    -0.018 A 
HETATM   21  C2  UNL     1      11.628  30.084  29.945  1.00  0.00     0.086 A 
HETATM   22  C1  UNL     1      10.755  29.051  29.631  1.00  0.00     0.245 A 
HETATM   23  O1  UNL     1       9.561  29.075  30.045  1.00  0.00    -0.268 OA
HETATM   24  N2  UNL     1      11.176  28.009  28.878  1.00  0.00    -0.334 N 
HETATM   25  C22 UNL     1      12.444  27.967  28.429  1.00  0.00     0.092 A 
ATOM     26  H2  UNL     1      10.530  27.253  28.650  1.00  0.00     0.168 HD
HETATM   27  C21 UNL     1      13.316  28.988  28.736  1.00  0.00     0.029 A 
ENDBRANCH   1  20
TORSDOF 3
ENDMDL
MODEL 4
REMARK VINA RESULT: -4.928237912      4.298     10.732
REMARK  3 active torsions:
REMARK  status: ('A' for Active; 'I' for Inactive)
REMARK    1  A    between atoms: C3_4  and  C4_5 
REMARK    2  A    between atoms: C7_8  and  C8_9 
REMARK    3  A    between atoms: C9_10  and  C10_11 
ROOT
HETATM    1  C4  UNL     1      12.332  30.411  30.147  1.00  0.00    -0.010 A 
HETATM    2  C5  UNL     1      13.259  30.261  31.168  1.00  0.00     0.016 A 
HETATM    3  C6  UNL     1      14.369  31.076  31.162  1.00  0.00     0.040 A 
HETATM    4  C7  UNL     1      14.527  31.998  30.166  1.00  0.00     0.086 A 
HETATM    5  N1  UNL     1      13.618  32.113  29.206  1.00  0.00    -0.358 N 
ATOM      6  H1  UNL     1      13.760  32.809  28.474  1.00  0.00     0.166 HD
HETATM    7  C20 UNL     1      12.524  31.350  29.165  1.00  0.00     0.101 A 
ENDROOT
BRANCH   4   8
HETATM    8  C8  UNL     1      15.710  32.833  30.203  1.00  0.00    -0.043 C 
HETATM    9  C9  UNL     1      16.685  33.543  30.244  1.00  0.00    -0.060 C 
BRANCH   9  10
HETATM   10  C10 UNL     1      17.833  34.404  30.303  1.00  0.00     0.018 A 
HETATM   11  C11 UNL     1      18.890  34.325  29.412  1.00  0.00     0.021 A 
HETATM   12  C12 UNL     1      19.985  35.164  29.488  1.00  0.00     0.013 A 
HETATM   13  C13 UNL     1      20.056  36.123  30.477  1.00  0.00    -0.026 A 
HETATM   14  C14 UNL     1      21.153  36.981  30.574  1.00  0.00     0.012 A 
HETATM   15  C18 UNL     1      19.019  36.224  31.379  1.00  0.00    -0.025 A 
HETATM   16  C15 UNL     1      21.217  37.936  31.564  1.00  0.00     0.001 A 
HETATM   17  C16 UNL     1      20.181  38.042  32.470  1.00  0.00     0.001 A 
HETATM   18  C17 UNL     1      19.097  37.185  32.364  1.00  0.00     0.012 A 
HETATM   19  C19 UNL     1      17.937  35.377  31.282  1.00  0.00     0.032 A 
ENDBRANCH   9  10
ENDBRANCH   4   8
BRANCH   1  20
HETATM   20  C3  UNL     1      11.128  29.583  30.087  1.00  0.00    -0.018 A 
HETATM   21  C2  UNL     1      10.343  29.500  28.952  1.00  0.00     0.086 A 
HETATM   22  C1  UNL     1       9.206  28.705  28.924  1.00  0.00     0.245 A 
HETATM   23  O1  UNL     1       8.497  28.639  27.879  1.00  0.00    -0.268 OA
HETATM   24  N2  UNL     1       8.846  27.992  30.016  1.00  0.00    -0.334 N 
HETATM   25  C22 UNL     1       9.589  28.051  31.137  1.00  0.00     0.092 A 
ATOM     26  H2  UNL     1       8.009  27.408  29.989  1.00  0.00     0.168 HD
HETATM   27  C21 UNL     1      10.719  28.837  31.172  1.00  0.00     0.029 A 
ENDBRANCH   1  20
TORSDOF 3
ENDMDL
MODEL 5
REMARK VINA RESULT: -4.533283344      4.220     10.739
REMARK  3 active torsions:
REMARK  status: ('A' for Active; 'I' for Inactive)
REMARK    1  A    between atoms: C3_4  and  C4_5 
REMARK    2  A    between atoms: C7_8  and  C8_9 
REMARK    3  A    between atoms: C9_10  and  C10_11 
ROOT
HETATM    1  C4  UNL     1      12.516  30.479  30.186  1.00  0.00    -0.010 A 
HETATM    2  C5  UNL     1      13.431  30.327  31.217  1.00  0.00     0.016 A 
HETATM    3  C6  UNL     1      14.538  31.146  31.228  1.00  0.00     0.040 A 
HETATM    4  C7  UNL     1      14.706  32.073  30.239  1.00  0.00     0.086 A 
HETATM    5  N1  UNL     1      13.807  32.189  29.268  1.00  0.00    -0.358 N 
ATOM      6  H1  UNL     1      13.956  32.890  28.541  1.00  0.00     0.166 HD
HETATM    7  C20 UNL     1      12.717  31.423  29.211  1.00  0.00     0.101 A 
ENDROOT
BRANCH   4   8
HETATM    8  C8  UNL     1      15.885  32.912  30.293  1.00  0.00    -0.043 C 
HETATM    9  C9  UNL     1      16.856  33.627  30.338  1.00  0.00    -0.060 C 
BRANCH   9  10
HETATM   10  C10 UNL     1      17.998  34.497  30.388  1.00  0.00     0.018 A 
HETATM   11  C11 UNL     1      19.041  34.435  29.479  1.00  0.00     0.021 A 
HETATM   12  C12 UNL     1      20.131  35.281  29.547  1.00  0.00     0.013 A 
HETATM   13  C13 UNL     1      20.209  36.232  30.544  1.00  0.00    -0.026 A 
HETATM   14  C14 UNL     1      21.300  37.098  30.632  1.00  0.00     0.012 A 
HETATM   15  C18 UNL     1      19.185  36.317  31.462  1.00  0.00    -0.025 A 
HETATM   16  C15 UNL     1      21.372  38.044  31.629  1.00  0.00     0.001 A 
HETATM   17  C16 UNL     1      20.350  38.134  32.552  1.00  0.00     0.001 A 
HETATM   18  C17 UNL     1      19.270  37.270  32.455  1.00  0.00     0.012 A 
HETATM   19  C19 UNL     1      18.109  35.461  31.374  1.00  0.00     0.032 A 
ENDBRANCH   9  10
ENDBRANCH   4   8
BRANCH   1  20
HETATM   20  C3  UNL     1      11.316  29.647  30.108  1.00  0.00    -0.018 A 
HETATM   21  C2  UNL     1      10.629  29.231  31.235  1.00  0.00     0.086 A 
HETATM   22  C1  UNL     1       9.492  28.442  31.130  1.00  0.00     0.245 A 
HETATM   23  O1  UNL     1       8.874  28.069  32.169  1.00  0.00    -0.268 OA
HETATM   24  N2  UNL     1       9.034  28.065  29.915  1.00  0.00    -0.334 N 
HETATM   25  C22 UNL     1       9.680  28.453  28.799  1.00  0.00     0.092 A 
ATOM     26  H2  UNL     1       8.197  27.486  29.844  1.00  0.00     0.168 HD
HETATM   27  C21 UNL     1      10.808  29.237  28.894  1.00  0.00     0.029 A 
ENDBRANCH   1  20
TORSDOF 3
ENDMDL
