MODEL 1
REMARK VINA RESULT: -6.949337936      0.000      0.000
REMARK  1 active torsions:
REMARK  status: ('A' for Active; 'I' for Inactive)
REMARK    1  A    between atoms: C8_9  and  N2_10 
ROOT
HETATM    1  C1  UNL     1      17.907  32.619  32.743  1.00  0.00     0.156 C 
HETATM    2  N1  UNL     1      17.171  33.684  32.143  1.00  0.00    -0.350 N 
HETATM    3  C2  UNL     1      16.263  33.371  31.167  1.00  0.00     0.047 A 
HETATM    4  C3  UNL     1      16.102  32.060  30.807  1.00  0.00     0.030 A 
HETATM    5  C4  UNL     1      15.190  31.741  29.826  1.00  0.00     0.002 A 
HETATM    6  C5  UNL     1      14.436  32.707  29.197  1.00  0.00     0.001 A 
HETATM    7  C6  UNL     1      14.574  34.032  29.535  1.00  0.00     0.016 A 
HETATM    8  C7  UNL     1      15.503  34.334  30.531  1.00  0.00     0.020 A 
HETATM    9  C8  UNL     1      15.653  35.638  30.879  1.00  0.00     0.081 A 
HETATM   10  C12 UNL     1      16.560  35.981  31.858  1.00  0.00     0.021 A 
HETATM   11  C13 UNL     1      16.689  37.323  32.187  1.00  0.00     0.028 A 
HETATM   12  C14 UNL     1      17.582  37.677  33.151  1.00  0.00    -0.025 A 
HETATM   13  C15 UNL     1      17.721  39.013  33.490  1.00  0.00     0.012 A 
HETATM   14  C16 UNL     1      18.621  39.353  34.461  1.00  0.00     0.001 A 
HETATM   15  C17 UNL     1      19.374  38.389  35.089  1.00  0.00     0.001 A 
HETATM   16  C18 UNL     1      19.243  37.058  34.760  1.00  0.00     0.012 A 
HETATM   17  C19 UNL     1      18.327  36.706  33.772  1.00  0.00    -0.024 A 
HETATM   18  C20 UNL     1      18.196  35.375  33.442  1.00  0.00     0.043 A 
HETATM   19  C21 UNL     1      17.301  34.977  32.467  1.00  0.00     0.048 A 
ENDROOT
BRANCH   9  20
HETATM   20  N2  UNL     1      14.874  36.652  30.231  1.00  0.00    -0.266 N 
HETATM   21  C9  UNL     1      15.000  37.096  28.965  1.00  0.00     0.118 A 
HETATM   22  C10 UNL     1      14.033  38.087  28.767  1.00  0.00     0.038 A 
HETATM   23  C11 UNL     1      13.344  38.205  29.956  1.00  0.00     0.109 A 
HETATM   24  N3  UNL     1      13.888  37.324  30.795  1.00  0.00    -0.305 N 
ATOM     25  H3  UNL     1      13.580  37.186  31.757  1.00  0.00     0.186 HD
ENDBRANCH   9  20
TORSDOF 1
ENDMDL
MODEL 2
REMARK VINA RESULT: -6.602040655      0.978      5.634
REMARK  1 active torsions:
REMARK  status: ('A' for Active; 'I' for Inactive)
REMARK    1  A    between atoms: C8_9  and  N2_10 
ROOT
HETATM    1  C1  UNL     1      18.611  32.659  33.036  1.00  0.00     0.156 C 
HETATM    2  N1  UNL     1      17.740  33.541  32.330  1.00  0.00    -0.350 N 
HETATM    3  C2  UNL     1      17.892  34.888  32.521  1.00  0.00     0.047 A 
HETATM    4  C3  UNL     1      18.864  35.331  33.378  1.00  0.00     0.030 A 
HETATM    5  C4  UNL     1      19.020  36.685  33.573  1.00  0.00     0.002 A 
HETATM    6  C5  UNL     1      18.223  37.606  32.929  1.00  0.00     0.001 A 
HETATM    7  C6  UNL     1      17.239  37.194  32.063  1.00  0.00     0.016 A 
HETATM    8  C7  UNL     1      17.097  35.818  31.879  1.00  0.00     0.020 A 
HETATM    9  C8  UNL     1      16.129  35.392  31.028  1.00  0.00     0.081 A 
HETATM   10  C12 UNL     1      15.954  34.042  30.817  1.00  0.00     0.021 A 
HETATM   11  C13 UNL     1      14.954  33.642  29.942  1.00  0.00     0.028 A 
HETATM   12  C14 UNL     1      14.769  32.311  29.724  1.00  0.00    -0.025 A 
HETATM   13  C15 UNL     1      13.775  31.897  28.852  1.00  0.00     0.012 A 
HETATM   14  C16 UNL     1      13.601  30.558  28.644  1.00  0.00     0.001 A 
HETATM   15  C17 UNL     1      14.396  29.638  29.287  1.00  0.00     0.001 A 
HETATM   16  C18 UNL     1      15.387  30.039  30.155  1.00  0.00     0.012 A 
HETATM   17  C19 UNL     1      15.569  31.403  30.371  1.00  0.00    -0.024 A 
HETATM   18  C20 UNL     1      16.560  31.804  31.239  1.00  0.00     0.043 A 
HETATM   19  C21 UNL     1      16.777  33.146  31.486  1.00  0.00     0.048 A 
ENDROOT
BRANCH   9  20
HETATM   20  N2  UNL     1      15.293  36.341  30.352  1.00  0.00    -0.266 N 
HETATM   21  C9  UNL     1      15.313  36.664  29.044  1.00  0.00     0.118 A 
HETATM   22  C10 UNL     1      14.327  37.632  28.833  1.00  0.00     0.038 A 
HETATM   23  C11 UNL     1      13.734  37.863  30.057  1.00  0.00     0.109 A 
HETATM   24  N3  UNL     1      14.351  37.064  30.928  1.00  0.00    -0.305 N 
ATOM     25  H3  UNL     1      14.122  37.017  31.921  1.00  0.00     0.186 HD
ENDBRANCH   9  20
TORSDOF 1
ENDMDL
MODEL 3
REMARK VINA RESULT: -6.508601302      0.926      4.055
REMARK  1 active torsions:
REMARK  status: ('A' for Active; 'I' for Inactive)
REMARK    1  A    between atoms: C8_9  and  N2_10 
ROOT
HETATM    1  C1  UNL     1      14.276  37.282  29.645  1.00  0.00     0.156 C 
HETATM    2  N1  UNL     1      15.071  36.270  30.261  1.00  0.00    -0.350 N 
HETATM    3  C2  UNL     1      14.894  34.975  29.854  1.00  0.00     0.047 A 
HETATM    4  C3  UNL     1      13.968  34.705  28.882  1.00  0.00     0.030 A 
HETATM    5  C4  UNL     1      13.788  33.403  28.471  1.00  0.00     0.002 A 
HETATM    6  C5  UNL     1      14.515  32.366  29.011  1.00  0.00     0.001 A 
HETATM    7  C6  UNL     1      15.452  32.603  29.988  1.00  0.00     0.016 A 
HETATM    8  C7  UNL     1      15.619  33.928  30.391  1.00  0.00     0.020 A 
HETATM    9  C8  UNL     1      16.540  34.182  31.356  1.00  0.00     0.081 A 
HETATM   10  C12 UNL     1      16.738  35.477  31.785  1.00  0.00     0.021 A 
HETATM   11  C13 UNL     1      17.686  35.699  32.774  1.00  0.00     0.028 A 
HETATM   12  C14 UNL     1      17.892  36.973  33.208  1.00  0.00    -0.025 A 
HETATM   13  C15 UNL     1      18.835  37.210  34.194  1.00  0.00     0.012 A 
HETATM   14  C16 UNL     1      19.030  38.494  34.619  1.00  0.00     0.001 A 
HETATM   15  C17 UNL     1      18.305  39.531  34.079  1.00  0.00     0.001 A 
HETATM   16  C18 UNL     1      17.364  39.305  33.099  1.00  0.00     0.012 A 
HETATM   17  C19 UNL     1      17.161  37.999  32.661  1.00  0.00    -0.024 A 
HETATM   18  C20 UNL     1      16.222  37.773  31.681  1.00  0.00     0.043 A 
HETATM   19  C21 UNL     1      15.985  36.494  31.215  1.00  0.00     0.048 A 
ENDROOT
BRANCH   9  20
HETATM   20  N2  UNL     1      17.302  33.110  31.927  1.00  0.00    -0.266 N 
HETATM   21  C9  UNL     1      18.270  32.387  31.331  1.00  0.00     0.118 A 
HETATM   22  C10 UNL     1      18.733  31.452  32.262  1.00  0.00     0.038 A 
HETATM   23  C11 UNL     1      18.004  31.653  33.416  1.00  0.00     0.109 A 
HETATM   24  N3  UNL     1      17.165  32.656  33.159  1.00  0.00    -0.305 N 
ATOM     25  H3  UNL     1      16.496  33.028  33.832  1.00  0.00     0.186 HD
ENDBRANCH   9  20
TORSDOF 1
ENDMDL
MODEL 4
REMARK VINA RESULT: -6.362926656     11.180     14.428
REMARK  1 active torsions:
REMARK  status: ('A' for Active; 'I' for Inactive)
REMARK    1  A    between atoms: C8_9  and  N2_10 
ROOT
HETATM    1  C1  UNL     1      18.961  26.094  34.742  1.00  0.00     0.156 C 
HETATM    2  N1  UNL     1      19.527  25.544  35.931  1.00  0.00    -0.350 N 
HETATM    3  C2  UNL     1      20.874  25.301  35.951  1.00  0.00     0.047 A 
HETATM    4  C3  UNL     1      21.617  25.589  34.838  1.00  0.00     0.030 A 
HETATM    5  C4  UNL     1      22.972  25.345  34.856  1.00  0.00     0.002 A 
HETATM    6  C5  UNL     1      23.599  24.818  35.963  1.00  0.00     0.001 A 
HETATM    7  C6  UNL     1      22.881  24.517  37.095  1.00  0.00     0.016 A 
HETATM    8  C7  UNL     1      21.510  24.771  37.058  1.00  0.00     0.020 A 
HETATM    9  C8  UNL     1      20.784  24.480  38.168  1.00  0.00     0.081 A 
HETATM   10  C12 UNL     1      19.426  24.715  38.174  1.00  0.00     0.021 A 
HETATM   11  C13 UNL     1      18.715  24.404  39.325  1.00  0.00     0.028 A 
HETATM   12  C14 UNL     1      17.373  24.630  39.346  1.00  0.00    -0.025 A 
HETATM   13  C15 UNL     1      16.651  24.325  40.488  1.00  0.00     0.012 A 
HETATM   14  C16 UNL     1      15.304  24.558  40.493  1.00  0.00     0.001 A 
HETATM   15  C17 UNL     1      14.678  25.084  39.388  1.00  0.00     0.001 A 
HETATM   16  C18 UNL     1      15.387  25.391  38.248  1.00  0.00     0.012 A 
HETATM   17  C19 UNL     1      16.759  25.157  38.236  1.00  0.00    -0.024 A 
HETATM   18  C20 UNL     1      17.469  25.463  37.097  1.00  0.00     0.043 A 
HETATM   19  C21 UNL     1      18.833  25.248  37.038  1.00  0.00     0.048 A 
ENDROOT
BRANCH   9  20
HETATM   20  N2  UNL     1      21.426  23.930  39.326  1.00  0.00    -0.266 N 
HETATM   21  C9  UNL     1      22.214  24.574  40.208  1.00  0.00     0.118 A 
HETATM   22  C10 UNL     1      22.616  23.645  41.172  1.00  0.00     0.038 A 
HETATM   23  C11 UNL     1      22.038  22.442  40.824  1.00  0.00     0.109 A 
HETATM   24  N3  UNL     1      21.338  22.671  39.713  1.00  0.00    -0.305 N 
ATOM     25  H3  UNL     1      20.799  21.959  39.221  1.00  0.00     0.186 HD
ENDBRANCH   9  20
TORSDOF 1
ENDMDL
MODEL 5
REMARK VINA RESULT: -6.195994824      2.058      3.298
REMARK  1 active torsions:
REMARK  status: ('A' for Active; 'I' for Inactive)
REMARK    1  A    between atoms: C8_9  and  N2_10 
ROOT
HETATM    1  C1  UNL     1      16.952  32.525  33.915  1.00  0.00     0.156 C 
HETATM    2  N1  UNL     1      16.395  32.787  32.628  1.00  0.00    -0.350 N 
HETATM    3  C2  UNL     1      16.051  31.718  31.845  1.00  0.00     0.047 A 
HETATM    4  C3  UNL     1      16.256  30.451  32.322  1.00  0.00     0.030 A 
HETATM    5  C4  UNL     1      15.910  29.375  31.536  1.00  0.00     0.002 A 
HETATM    6  C5  UNL     1      15.365  29.538  30.282  1.00  0.00     0.001 A 
HETATM    7  C6  UNL     1      15.147  30.796  29.774  1.00  0.00     0.016 A 
HETATM    8  C7  UNL     1      15.503  31.874  30.585  1.00  0.00     0.020 A 
HETATM    9  C8  UNL     1      15.295  33.125  30.099  1.00  0.00     0.081 A 
HETATM   10  C12 UNL     1      15.633  34.218  30.867  1.00  0.00     0.021 A 
HETATM   11  C13 UNL     1      15.408  35.481  30.338  1.00  0.00     0.028 A 
HETATM   12  C14 UNL     1      15.738  36.571  31.085  1.00  0.00    -0.025 A 
HETATM   13  C15 UNL     1      15.519  37.838  30.570  1.00  0.00     0.012 A 
HETATM   14  C16 UNL     1      15.854  38.922  31.332  1.00  0.00     0.001 A 
HETATM   15  C17 UNL     1      16.399  38.759  32.584  1.00  0.00     0.001 A 
HETATM   16  C18 UNL     1      16.621  37.504  33.105  1.00  0.00     0.012 A 
HETATM   17  C19 UNL     1      16.280  36.395  32.334  1.00  0.00    -0.024 A 
HETATM   18  C20 UNL     1      16.502  35.140  32.854  1.00  0.00     0.043 A 
HETATM   19  C21 UNL     1      16.181  34.010  32.126  1.00  0.00     0.048 A 
ENDROOT
BRANCH   9  20
HETATM   20  N2  UNL     1      14.728  33.307  28.795  1.00  0.00    -0.266 N 
HETATM   21  C9  UNL     1      13.579  32.788  28.322  1.00  0.00     0.118 A 
HETATM   22  C10 UNL     1      13.426  33.231  27.005  1.00  0.00     0.038 A 
HETATM   23  C11 UNL     1      14.521  34.023  26.727  1.00  0.00     0.109 A 
HETATM   24  N3  UNL     1      15.266  34.033  27.832  1.00  0.00    -0.305 N 
ATOM     25  H3  UNL     1      16.145  34.541  27.923  1.00  0.00     0.186 HD
ENDBRANCH   9  20
TORSDOF 1
ENDMDL
