MODEL 1
REMARK VINA RESULT: -10.964731042      0.000      0.000
REMARK  2 active torsions:
REMARK  status: ('A' for Active; 'I' for Inactive)
REMARK    1  A    between atoms: C2_3  and  N1_4 
REMARK    2  A    between atoms: N1_4  and  C3_6 
ROOT
HETATM    1  O1  UNL     1      18.046  32.326  32.710  1.00  0.00    -0.285 OA
HETATM    2  C1  UNL     1      17.190  32.903  32.023  1.00  0.00     0.210 A 
HETATM    3  C2  UNL     1      17.062  34.352  32.138  1.00  0.00     0.097 A 
HETATM    4  C9  UNL     1      16.039  34.988  31.308  1.00  0.00     0.035 A 
HETATM    5  C10 UNL     1      15.238  34.229  30.458  1.00  0.00     0.057 A 
HETATM    6  N2  UNL     1      14.388  35.052  29.814  1.00  0.00    -0.354 N 
ATOM      7  H2  UNL     1      13.690  34.759  29.131  1.00  0.00     0.166 HD
HETATM    8  C11 UNL     1      14.601  36.321  30.211  1.00  0.00     0.043 A 
HETATM    9  C12 UNL     1      13.998  37.502  29.850  1.00  0.00     0.030 A 
HETATM   10  C13 UNL     1      14.429  38.661  30.429  1.00  0.00     0.002 A 
HETATM   11  C14 UNL     1      15.461  38.634  31.364  1.00  0.00     0.001 A 
HETATM   12  C15 UNL     1      16.074  37.458  31.735  1.00  0.00     0.014 A 
HETATM   13  C16 UNL     1      15.638  36.289  31.150  1.00  0.00     0.005 A 
HETATM   14  C17 UNL     1      15.366  32.789  30.344  1.00  0.00     0.006 A 
HETATM   15  C18 UNL     1      14.562  32.044  29.492  1.00  0.00     0.014 A 
HETATM   16  C19 UNL     1      14.692  30.675  29.392  1.00  0.00     0.001 A 
HETATM   17  C20 UNL     1      15.629  30.035  30.143  1.00  0.00     0.001 A 
HETATM   18  C21 UNL     1      16.453  30.765  31.010  1.00  0.00     0.016 A 
HETATM   19  C22 UNL     1      16.316  32.144  31.105  1.00  0.00     0.029 A 
ENDROOT
BRANCH   3  20
HETATM   20  N1  UNL     1      17.767  35.087  32.896  1.00  0.00    -0.352 N 
ATOM     21  H1  UNL     1      17.605  34.995  33.899  1.00  0.00     0.166 HD
BRANCH  20  22
HETATM   22  C3  UNL     1      18.742  36.012  32.502  1.00  0.00     0.032 A 
HETATM   23  C4  UNL     1      19.076  37.026  33.368  1.00  0.00     0.029 A 
HETATM   24  C5  UNL     1      20.029  37.956  33.024  1.00  0.00     0.002 A 
HETATM   25  C6  UNL     1      20.673  37.903  31.814  1.00  0.00     0.000 A 
HETATM   26  C7  UNL     1      20.328  36.882  30.961  1.00  0.00     0.002 A 
HETATM   27  C8  UNL     1      19.379  35.945  31.288  1.00  0.00     0.029 A 
ENDBRANCH  20  22
ENDBRANCH   3  20
TORSDOF 2
ENDMDL
MODEL 2
REMARK VINA RESULT: -9.442053990      1.209      1.586
REMARK  2 active torsions:
REMARK  status: ('A' for Active; 'I' for Inactive)
REMARK    1  A    between atoms: C2_3  and  N1_4 
REMARK    2  A    between atoms: N1_4  and  C3_6 
ROOT
HETATM    1  O1  UNL     1      18.541  32.368  30.286  1.00  0.00    -0.285 OA
HETATM    2  C1  UNL     1      17.497  33.024  30.153  1.00  0.00     0.210 A 
HETATM    3  C2  UNL     1      17.537  34.461  30.409  1.00  0.00     0.097 A 
HETATM    4  C9  UNL     1      16.282  35.192  30.240  1.00  0.00     0.035 A 
HETATM    5  C10 UNL     1      15.118  34.532  29.854  1.00  0.00     0.057 A 
HETATM    6  N2  UNL     1      14.117  35.429  29.772  1.00  0.00    -0.354 N 
ATOM      7  H2  UNL     1      13.155  35.214  29.509  1.00  0.00     0.166 HD
HETATM    8  C11 UNL     1      14.580  36.652  30.091  1.00  0.00     0.043 A 
HETATM    9  C12 UNL     1      13.956  37.874  30.154  1.00  0.00     0.030 A 
HETATM   10  C13 UNL     1      14.691  38.967  30.515  1.00  0.00     0.002 A 
HETATM   11  C14 UNL     1      16.046  38.833  30.809  1.00  0.00     0.001 A 
HETATM   12  C15 UNL     1      16.684  37.613  30.750  1.00  0.00     0.014 A 
HETATM   13  C16 UNL     1      15.941  36.511  30.386  1.00  0.00     0.005 A 
HETATM   14  C17 UNL     1      15.080  33.104  29.599  1.00  0.00     0.006 A 
HETATM   15  C18 UNL     1      13.913  32.457  29.214  1.00  0.00     0.014 A 
HETATM   16  C19 UNL     1      13.888  31.099  28.976  1.00  0.00     0.001 A 
HETATM   17  C20 UNL     1      15.029  30.373  29.119  1.00  0.00     0.001 A 
HETATM   18  C21 UNL     1      16.219  31.003  29.506  1.00  0.00     0.016 A 
HETATM   19  C22 UNL     1      16.236  32.371  29.745  1.00  0.00     0.029 A 
ENDROOT
BRANCH   3  20
HETATM   20  N1  UNL     1      18.570  35.109  30.762  1.00  0.00    -0.352 N 
ATOM     21  H1  UNL     1      19.373  35.065  30.134  1.00  0.00     0.166 HD
BRANCH  20  22
HETATM   22  C3  UNL     1      18.725  35.878  31.923  1.00  0.00     0.032 A 
HETATM   23  C4  UNL     1      19.581  36.953  31.891  1.00  0.00     0.029 A 
HETATM   24  C5  UNL     1      19.764  37.737  33.006  1.00  0.00     0.002 A 
HETATM   25  C6  UNL     1      19.103  37.473  34.179  1.00  0.00     0.000 A 
HETATM   26  C7  UNL     1      18.252  36.394  34.194  1.00  0.00     0.002 A 
HETATM   27  C8  UNL     1      18.057  35.602  33.089  1.00  0.00     0.029 A 
ENDBRANCH  20  22
ENDBRANCH   3  20
TORSDOF 2
ENDMDL
MODEL 3
REMARK VINA RESULT: -7.805992774      2.085      5.706
REMARK  2 active torsions:
REMARK  status: ('A' for Active; 'I' for Inactive)
REMARK    1  A    between atoms: C2_3  and  N1_4 
REMARK    2  A    between atoms: N1_4  and  C3_6 
ROOT
HETATM    1  O1  UNL     1      16.764  35.012  34.482  1.00  0.00    -0.285 OA
HETATM    2  C1  UNL     1      16.461  35.311  33.317  1.00  0.00     0.210 A 
HETATM    3  C2  UNL     1      15.929  34.270  32.444  1.00  0.00     0.097 A 
HETATM    4  C9  UNL     1      15.587  34.670  31.080  1.00  0.00     0.035 A 
HETATM    5  C10 UNL     1      15.767  35.984  30.655  1.00  0.00     0.057 A 
HETATM    6  N2  UNL     1      15.376  36.083  29.370  1.00  0.00    -0.354 N 
ATOM      7  H2  UNL     1      15.402  36.936  28.812  1.00  0.00     0.166 HD
HETATM    8  C11 UNL     1      14.947  34.883  28.936  1.00  0.00     0.043 A 
HETATM    9  C12 UNL     1      14.458  34.477  27.718  1.00  0.00     0.030 A 
HETATM   10  C13 UNL     1      14.092  33.171  27.561  1.00  0.00     0.002 A 
HETATM   11  C14 UNL     1      14.219  32.278  28.622  1.00  0.00     0.001 A 
HETATM   12  C15 UNL     1      14.708  32.671  29.849  1.00  0.00     0.014 A 
HETATM   13  C16 UNL     1      15.076  33.990  30.005  1.00  0.00     0.005 A 
HETATM   14  C17 UNL     1      16.296  37.018  31.524  1.00  0.00     0.006 A 
HETATM   15  C18 UNL     1      16.471  38.326  31.090  1.00  0.00     0.014 A 
HETATM   16  C19 UNL     1      16.975  39.301  31.925  1.00  0.00     0.001 A 
HETATM   17  C20 UNL     1      17.309  38.980  33.204  1.00  0.00     0.001 A 
HETATM   18  C21 UNL     1      17.141  37.668  33.665  1.00  0.00     0.016 A 
HETATM   19  C22 UNL     1      16.633  36.692  32.819  1.00  0.00     0.029 A 
ENDROOT
BRANCH   3  20
HETATM   20  N1  UNL     1      15.746  33.060  32.782  1.00  0.00    -0.352 N 
ATOM     21  H1  UNL     1      15.209  32.901  33.635  1.00  0.00     0.166 HD
BRANCH  20  22
HETATM   22  C3  UNL     1      16.202  31.920  32.108  1.00  0.00     0.032 A 
HETATM   23  C4  UNL     1      15.405  30.800  32.093  1.00  0.00     0.029 A 
HETATM   24  C5  UNL     1      15.812  29.658  31.443  1.00  0.00     0.002 A 
HETATM   25  C6  UNL     1      17.018  29.599  30.794  1.00  0.00     0.000 A 
HETATM   26  C7  UNL     1      17.804  30.727  30.819  1.00  0.00     0.002 A 
HETATM   27  C8  UNL     1      17.413  31.876  31.462  1.00  0.00     0.029 A 
ENDBRANCH  20  22
ENDBRANCH   3  20
TORSDOF 2
ENDMDL
MODEL 4
REMARK VINA RESULT: -7.592268097      1.884      5.682
REMARK  2 active torsions:
REMARK  status: ('A' for Active; 'I' for Inactive)
REMARK    1  A    between atoms: C2_3  and  N1_4 
REMARK    2  A    between atoms: N1_4  and  C3_6 
ROOT
HETATM    1  O1  UNL     1      19.735  35.088  33.094  1.00  0.00    -0.285 OA
HETATM    2  C1  UNL     1      18.852  35.940  32.916  1.00  0.00     0.210 A 
HETATM    3  C2  UNL     1      17.922  35.760  31.805  1.00  0.00     0.097 A 
HETATM    4  C9  UNL     1      16.898  36.790  31.634  1.00  0.00     0.035 A 
HETATM    5  C10 UNL     1      16.831  37.880  32.499  1.00  0.00     0.057 A 
HETATM    6  N2  UNL     1      15.807  38.671  32.124  1.00  0.00    -0.354 N 
ATOM      7  H2  UNL     1      15.533  39.538  32.586  1.00  0.00     0.166 HD
HETATM    8  C11 UNL     1      15.201  38.140  31.045  1.00  0.00     0.043 A 
HETATM    9  C12 UNL     1      14.125  38.566  30.304  1.00  0.00     0.030 A 
HETATM   10  C13 UNL     1      13.721  37.810  29.241  1.00  0.00     0.002 A 
HETATM   11  C14 UNL     1      14.394  36.633  28.925  1.00  0.00     0.001 A 
HETATM   12  C15 UNL     1      15.474  36.194  29.659  1.00  0.00     0.014 A 
HETATM   13  C16 UNL     1      15.880  36.958  30.732  1.00  0.00     0.005 A 
HETATM   14  C17 UNL     1      17.756  38.057  33.602  1.00  0.00     0.006 A 
HETATM   15  C18 UNL     1      17.680  39.148  34.458  1.00  0.00     0.014 A 
HETATM   16  C19 UNL     1      18.564  39.307  35.504  1.00  0.00     0.001 A 
HETATM   17  C20 UNL     1      19.536  38.376  35.706  1.00  0.00     0.001 A 
HETATM   18  C21 UNL     1      19.633  37.267  34.856  1.00  0.00     0.016 A 
HETATM   19  C22 UNL     1      18.739  37.114  33.805  1.00  0.00     0.029 A 
ENDROOT
BRANCH   3  20
HETATM   20  N1  UNL     1      17.940  34.787  30.991  1.00  0.00    -0.352 N 
ATOM     21  H1  UNL     1      18.421  34.942  30.104  1.00  0.00     0.166 HD
BRANCH  20  22
HETATM   22  C3  UNL     1      17.370  33.521  31.179  1.00  0.00     0.032 A 
HETATM   23  C4  UNL     1      17.776  32.488  30.367  1.00  0.00     0.029 A 
HETATM   24  C5  UNL     1      17.244  31.229  30.517  1.00  0.00     0.002 A 
HETATM   25  C6  UNL     1      16.297  30.963  31.473  1.00  0.00     0.000 A 
HETATM   26  C7  UNL     1      15.902  32.007  32.275  1.00  0.00     0.002 A 
HETATM   27  C8  UNL     1      16.423  33.271  32.141  1.00  0.00     0.029 A 
ENDBRANCH  20  22
ENDBRANCH   3  20
TORSDOF 2
ENDMDL
MODEL 5
REMARK VINA RESULT: -7.347567476      2.051      5.684
REMARK  2 active torsions:
REMARK  status: ('A' for Active; 'I' for Inactive)
REMARK    1  A    between atoms: C2_3  and  N1_4 
REMARK    2  A    between atoms: N1_4  and  C3_6 
ROOT
HETATM    1  O1  UNL     1      16.809  34.606  34.641  1.00  0.00    -0.285 OA
HETATM    2  C1  UNL     1      16.566  35.020  33.498  1.00  0.00     0.210 A 
HETATM    3  C2  UNL     1      15.951  34.106  32.540  1.00  0.00     0.097 A 
HETATM    4  C9  UNL     1      15.684  34.638  31.204  1.00  0.00     0.035 A 
HETATM    5  C10 UNL     1      16.008  35.954  30.883  1.00  0.00     0.057 A 
HETATM    6  N2  UNL     1      15.660  36.187  29.603  1.00  0.00    -0.354 N 
ATOM      7  H2  UNL     1      15.785  37.071  29.111  1.00  0.00     0.166 HD
HETATM    8  C11 UNL     1      15.121  35.073  29.073  1.00  0.00     0.043 A 
HETATM    9  C12 UNL     1      14.621  34.810  27.820  1.00  0.00     0.030 A 
HETATM   10  C13 UNL     1      14.128  33.564  27.559  1.00  0.00     0.002 A 
HETATM   11  C14 UNL     1      14.137  32.587  28.552  1.00  0.00     0.001 A 
HETATM   12  C15 UNL     1      14.635  32.836  29.812  1.00  0.00     0.014 A 
HETATM   13  C16 UNL     1      15.133  34.095  30.074  1.00  0.00     0.005 A 
HETATM   14  C17 UNL     1      16.618  36.861  31.836  1.00  0.00     0.006 A 
HETATM   15  C18 UNL     1      16.937  38.172  31.504  1.00  0.00     0.014 A 
HETATM   16  C19 UNL     1      17.517  39.026  32.418  1.00  0.00     0.001 A 
HETATM   17  C20 UNL     1      17.787  38.579  33.674  1.00  0.00     0.001 A 
HETATM   18  C21 UNL     1      17.475  37.262  34.033  1.00  0.00     0.016 A 
HETATM   19  C22 UNL     1      16.890  36.407  33.107  1.00  0.00     0.029 A 
ENDROOT
BRANCH   3  20
HETATM   20  N1  UNL     1      15.637  32.900  32.783  1.00  0.00    -0.352 N 
ATOM     21  H1  UNL     1      14.976  32.745  33.544  1.00  0.00     0.166 HD
BRANCH  20  22
HETATM   22  C3  UNL     1      16.102  31.759  32.116  1.00  0.00     0.032 A 
HETATM   23  C4  UNL     1      17.320  31.816  31.482  1.00  0.00     0.029 A 
HETATM   24  C5  UNL     1      17.816  30.720  30.816  1.00  0.00     0.002 A 
HETATM   25  C6  UNL     1      17.116  29.542  30.762  1.00  0.00     0.000 A 
HETATM   26  C7  UNL     1      15.900  29.502  31.400  1.00  0.00     0.002 A 
HETATM   27  C8  UNL     1      15.390  30.586  32.071  1.00  0.00     0.029 A 
ENDBRANCH  20  22
ENDBRANCH   3  20
TORSDOF 2
ENDMDL
