MODEL 1
REMARK VINA RESULT: -10.799432840      0.000      0.000
REMARK  3 active torsions:
REMARK  status: ('A' for Active; 'I' for Inactive)
REMARK    1  A    between atoms: C1_2  and  N1_3 
REMARK    2  A    between atoms: C1_2  and  C7_12 
REMARK    3  A    between atoms: N1_3  and  C2_5 
ROOT
HETATM    1  C7  UNL     1      17.000  35.296  31.827  1.00  0.00     0.082 A 
HETATM    2  N3  UNL     1      17.910  35.593  32.766  1.00  0.00    -0.352 N 
ATOM      3  H3  UNL     1      18.530  34.868  33.129  1.00  0.00     0.166 HD
HETATM    4  C8  UNL     1      18.000  36.857  33.224  1.00  0.00     0.043 A 
HETATM    5  C9  UNL     1      18.971  37.110  34.206  1.00  0.00     0.030 A 
HETATM    6  C10 UNL     1      19.102  38.385  34.707  1.00  0.00     0.002 A 
HETATM    7  C11 UNL     1      18.277  39.361  34.226  1.00  0.00     0.001 A 
HETATM    8  C12 UNL     1      17.311  39.148  33.261  1.00  0.00     0.014 A 
HETATM    9  C13 UNL     1      17.187  37.871  32.766  1.00  0.00     0.002 A 
HETATM   10  C14 UNL     1      16.238  37.589  31.796  1.00  0.00    -0.011 A 
HETATM   11  C15 UNL     1      15.406  38.565  31.308  1.00  0.00     0.013 A 
HETATM   12  C16 UNL     1      14.472  38.225  30.335  1.00  0.00     0.001 A 
HETATM   13  C17 UNL     1      14.382  36.935  29.868  1.00  0.00     0.001 A 
HETATM   14  C18 UNL     1      15.222  35.955  30.362  1.00  0.00     0.014 A 
HETATM   15  C19 UNL     1      16.155  36.273  31.327  1.00  0.00     0.005 A 
ENDROOT
BRANCH   1  16
HETATM   16  C1  UNL     1      16.852  33.944  31.287  1.00  0.00     0.130 C 
HETATM   17  S1  UNL     1      17.792  33.455  30.027  1.00  0.00    -0.058 SA
BRANCH  16  18
HETATM   18  N1  UNL     1      15.923  33.021  31.807  1.00  0.00    -0.332 N 
ATOM     19  H1  UNL     1      15.491  33.206  32.712  1.00  0.00     0.168 HD
BRANCH  18  20
HETATM   20  C2  UNL     1      15.601  31.929  31.151  1.00  0.00     0.105 A 
HETATM   21  C3  UNL     1      15.960  30.692  31.636  1.00  0.00     0.048 A 
HETATM   22  C4  UNL     1      15.632  29.541  30.965  1.00  0.00     0.005 A 
HETATM   23  C5  UNL     1      14.929  29.613  29.778  1.00  0.00     0.017 A 
HETATM   24  C6  UNL     1      14.599  30.876  29.342  1.00  0.00     0.089 A 
HETATM   25  N2  UNL     1      14.920  31.992  29.999  1.00  0.00    -0.352 N 
ATOM     26  H2  UNL     1      14.644  32.898  29.621  1.00  0.00     0.166 HD
ENDBRANCH  18  20
ENDBRANCH  16  18
ENDBRANCH   1  16
TORSDOF 3
ENDMDL
MODEL 2
REMARK VINA RESULT: -10.610438885      0.603      1.053
REMARK  3 active torsions:
REMARK  status: ('A' for Active; 'I' for Inactive)
REMARK    1  A    between atoms: C1_2  and  N1_3 
REMARK    2  A    between atoms: C1_2  and  C7_12 
REMARK    3  A    between atoms: N1_3  and  C2_5 
ROOT
HETATM    1  C7  UNL     1      17.005  35.327  31.696  1.00  0.00     0.082 A 
HETATM    2  N3  UNL     1      17.915  35.606  32.641  1.00  0.00    -0.352 N 
ATOM      3  H3  UNL     1      18.547  34.879  32.977  1.00  0.00     0.166 HD
HETATM    4  C8  UNL     1      17.987  36.854  33.143  1.00  0.00     0.043 A 
HETATM    5  C9  UNL     1      18.958  37.088  34.130  1.00  0.00     0.030 A 
HETATM    6  C10 UNL     1      19.070  38.348  34.674  1.00  0.00     0.002 A 
HETATM    7  C11 UNL     1      18.229  39.327  34.230  1.00  0.00     0.001 A 
HETATM    8  C12 UNL     1      17.262  39.132  33.262  1.00  0.00     0.014 A 
HETATM    9  C13 UNL     1      17.156  37.871  32.723  1.00  0.00     0.002 A 
HETATM   10  C14 UNL     1      16.207  37.607  31.747  1.00  0.00    -0.011 A 
HETATM   11  C15 UNL     1      15.358  38.586  31.297  1.00  0.00     0.013 A 
HETATM   12  C16 UNL     1      14.426  38.266  30.316  1.00  0.00     0.001 A 
HETATM   13  C17 UNL     1      14.353  36.991  29.804  1.00  0.00     0.001 A 
HETATM   14  C18 UNL     1      15.211  36.008  30.261  1.00  0.00     0.014 A 
HETATM   15  C19 UNL     1      16.143  36.308  31.234  1.00  0.00     0.005 A 
ENDROOT
BRANCH   1  16
HETATM   16  C1  UNL     1      16.876  33.993  31.110  1.00  0.00     0.130 C 
HETATM   17  S1  UNL     1      17.895  33.521  29.906  1.00  0.00    -0.058 SA
BRANCH  16  18
HETATM   18  N1  UNL     1      15.899  33.072  31.538  1.00  0.00    -0.332 N 
ATOM     19  H1  UNL     1      15.527  33.144  32.485  1.00  0.00     0.168 HD
BRANCH  18  20
HETATM   20  C2  UNL     1      15.457  32.123  30.744  1.00  0.00     0.105 A 
HETATM   21  C3  UNL     1      14.820  32.439  29.565  1.00  0.00     0.048 A 
HETATM   22  C4  UNL     1      14.352  31.462  28.723  1.00  0.00     0.005 A 
HETATM   23  C5  UNL     1      14.518  30.131  29.054  1.00  0.00     0.017 A 
HETATM   24  C6  UNL     1      15.161  29.876  30.244  1.00  0.00     0.089 A 
HETATM   25  N2  UNL     1      15.614  30.830  31.059  1.00  0.00    -0.352 N 
ATOM     26  H2  UNL     1      16.082  30.574  31.927  1.00  0.00     0.166 HD
ENDBRANCH  18  20
ENDBRANCH  16  18
ENDBRANCH   1  16
TORSDOF 3
ENDMDL
MODEL 3
REMARK VINA RESULT: -10.036505217      1.111      1.178
REMARK  3 active torsions:
REMARK  status: ('A' for Active; 'I' for Inactive)
REMARK    1  A    between atoms: C1_2  and  N1_3 
REMARK    2  A    between atoms: C1_2  and  C7_12 
REMARK    3  A    between atoms: N1_3  and  C2_5 
ROOT
HETATM    1  C7  UNL     1      16.824  35.349  31.997  1.00  0.00     0.082 A 
HETATM    2  N3  UNL     1      17.794  35.621  32.881  1.00  0.00    -0.352 N 
ATOM      3  H3  UNL     1      18.361  34.868  33.272  1.00  0.00     0.166 HD
HETATM    4  C8  UNL     1      18.014  36.898  33.250  1.00  0.00     0.043 A 
HETATM    5  C9  UNL     1      19.043  37.125  34.178  1.00  0.00     0.030 A 
HETATM    6  C10 UNL     1      19.306  38.412  34.587  1.00  0.00     0.002 A 
HETATM    7  C11 UNL     1      18.553  39.427  34.070  1.00  0.00     0.001 A 
HETATM    8  C12 UNL     1      17.534  39.241  33.156  1.00  0.00     0.014 A 
HETATM    9  C13 UNL     1      17.277  37.951  32.752  1.00  0.00     0.002 A 
HETATM   10  C14 UNL     1      16.267  37.695  31.837  1.00  0.00    -0.011 A 
HETATM   11  C15 UNL     1      15.507  38.709  31.314  1.00  0.00     0.013 A 
HETATM   12  C16 UNL     1      14.507  38.394  30.399  1.00  0.00     0.001 A 
HETATM   13  C17 UNL     1      14.284  37.090  30.023  1.00  0.00     0.001 A 
HETATM   14  C18 UNL     1      15.054  36.071  30.553  1.00  0.00     0.014 A 
HETATM   15  C19 UNL     1      16.049  36.365  31.462  1.00  0.00     0.005 A 
ENDROOT
BRANCH   1  16
HETATM   16  C1  UNL     1      16.535  33.984  31.555  1.00  0.00     0.130 C 
HETATM   17  S1  UNL     1      16.122  32.834  32.657  1.00  0.00    -0.058 SA
BRANCH  16  18
HETATM   18  N1  UNL     1      16.594  33.601  30.200  1.00  0.00    -0.332 N 
ATOM     19  H1  UNL     1      17.266  34.057  29.583  1.00  0.00     0.168 HD
BRANCH  18  20
HETATM   20  C2  UNL     1      15.803  32.671  29.716  1.00  0.00     0.105 A 
HETATM   21  C3  UNL     1      16.200  31.353  29.706  1.00  0.00     0.048 A 
HETATM   22  C4  UNL     1      15.388  30.367  29.205  1.00  0.00     0.005 A 
HETATM   23  C5  UNL     1      14.145  30.692  28.697  1.00  0.00     0.017 A 
HETATM   24  C6  UNL     1      13.802  32.025  28.733  1.00  0.00     0.089 A 
HETATM   25  N2  UNL     1      14.596  32.979  29.222  1.00  0.00    -0.352 N 
ATOM     26  H2  UNL     1      14.282  33.949  29.220  1.00  0.00     0.166 HD
ENDBRANCH  18  20
ENDBRANCH  16  18
ENDBRANCH   1  16
TORSDOF 3
ENDMDL
MODEL 4
REMARK VINA RESULT: -9.968247843      2.334      3.427
REMARK  3 active torsions:
REMARK  status: ('A' for Active; 'I' for Inactive)
REMARK    1  A    between atoms: C1_2  and  N1_3 
REMARK    2  A    between atoms: C1_2  and  C7_12 
REMARK    3  A    between atoms: N1_3  and  C2_5 
ROOT
HETATM    1  C7  UNL     1      17.225  36.811  31.484  1.00  0.00     0.082 A 
HETATM    2  N3  UNL     1      18.331  36.568  30.765  1.00  0.00    -0.352 N 
ATOM      3  H3  UNL     1      18.285  35.979  29.933  1.00  0.00     0.166 HD
HETATM    4  C8  UNL     1      19.503  37.108  31.151  1.00  0.00     0.043 A 
HETATM    5  C9  UNL     1      20.627  36.821  30.361  1.00  0.00     0.030 A 
HETATM    6  C10 UNL     1      21.848  37.349  30.714  1.00  0.00     0.002 A 
HETATM    7  C11 UNL     1      21.919  38.138  31.826  1.00  0.00     0.001 A 
HETATM    8  C12 UNL     1      20.834  38.442  32.626  1.00  0.00     0.014 A 
HETATM    9  C13 UNL     1      19.618  37.911  32.266  1.00  0.00     0.002 A 
HETATM   10  C14 UNL     1      18.489  38.176  33.026  1.00  0.00    -0.011 A 
HETATM   11  C15 UNL     1      18.553  38.968  34.143  1.00  0.00     0.013 A 
HETATM   12  C16 UNL     1      17.389  39.202  34.868  1.00  0.00     0.001 A 
HETATM   13  C17 UNL     1      16.193  38.649  34.473  1.00  0.00     0.001 A 
HETATM   14  C18 UNL     1      16.133  37.852  33.345  1.00  0.00     0.014 A 
HETATM   15  C19 UNL     1      17.278  37.610  32.615  1.00  0.00     0.005 A 
ENDROOT
BRANCH   1  16
HETATM   16  C1  UNL     1      15.922  36.255  31.118  1.00  0.00     0.130 C 
HETATM   17  S1  UNL     1      14.956  37.056  30.053  1.00  0.00    -0.058 SA
BRANCH  16  18
HETATM   18  N1  UNL     1      15.445  35.039  31.647  1.00  0.00    -0.332 N 
ATOM     19  H1  UNL     1      14.622  35.045  32.248  1.00  0.00     0.168 HD
BRANCH  18  20
HETATM   20  C2  UNL     1      16.039  33.897  31.380  1.00  0.00     0.105 A 
HETATM   21  C3  UNL     1      16.266  32.978  32.380  1.00  0.00     0.048 A 
HETATM   22  C4  UNL     1      16.884  31.781  32.121  1.00  0.00     0.005 A 
HETATM   23  C5  UNL     1      17.291  31.481  30.835  1.00  0.00     0.017 A 
HETATM   24  C6  UNL     1      17.038  32.437  29.877  1.00  0.00     0.089 A 
HETATM   25  N2  UNL     1      16.436  33.599  30.136  1.00  0.00    -0.352 N 
ATOM     26  H2  UNL     1      16.277  34.266  29.380  1.00  0.00     0.166 HD
ENDBRANCH  18  20
ENDBRANCH  16  18
ENDBRANCH   1  16
TORSDOF 3
ENDMDL
MODEL 5
REMARK VINA RESULT: -9.762374422      1.895      6.434
REMARK  3 active torsions:
REMARK  status: ('A' for Active; 'I' for Inactive)
REMARK    1  A    between atoms: C1_2  and  N1_3 
REMARK    2  A    between atoms: C1_2  and  C7_12 
REMARK    3  A    between atoms: N1_3  and  C2_5 
ROOT
HETATM    1  C7  UNL     1      18.098  35.256  30.775  1.00  0.00     0.082 A 
HETATM    2  N3  UNL     1      18.153  33.940  30.521  1.00  0.00    -0.352 N 
ATOM      3  H3  UNL     1      19.021  33.424  30.668  1.00  0.00     0.166 HD
HETATM    4  C8  UNL     1      17.053  33.306  30.071  1.00  0.00     0.043 A 
HETATM    5  C9  UNL     1      17.169  31.929  29.823  1.00  0.00     0.030 A 
HETATM    6  C10 UNL     1      16.073  31.236  29.361  1.00  0.00     0.002 A 
HETATM    7  C11 UNL     1      14.908  31.919  29.162  1.00  0.00     0.001 A 
HETATM    8  C12 UNL     1      14.758  33.273  29.395  1.00  0.00     0.014 A 
HETATM    9  C13 UNL     1      15.858  33.958  29.857  1.00  0.00     0.002 A 
HETATM   10  C14 UNL     1      15.775  35.318  30.111  1.00  0.00    -0.011 A 
HETATM   11  C15 UNL     1      14.607  36.010  29.914  1.00  0.00     0.013 A 
HETATM   12  C16 UNL     1      14.581  37.374  30.186  1.00  0.00     0.001 A 
HETATM   13  C17 UNL     1      15.705  38.020  30.646  1.00  0.00     0.001 A 
HETATM   14  C18 UNL     1      16.880  37.318  30.844  1.00  0.00     0.014 A 
HETATM   15  C19 UNL     1      16.924  35.965  30.579  1.00  0.00     0.005 A 
ENDROOT
BRANCH   1  16
HETATM   16  C1  UNL     1      19.256  36.003  31.266  1.00  0.00     0.130 C 
HETATM   17  S1  UNL     1      20.295  36.704  30.199  1.00  0.00    -0.058 SA
BRANCH  16  18
HETATM   18  N1  UNL     1      19.529  36.154  32.641  1.00  0.00    -0.332 N 
ATOM     19  H1  UNL     1      20.037  35.418  33.132  1.00  0.00     0.168 HD
BRANCH  18  20
HETATM   20  C2  UNL     1      19.144  37.222  33.303  1.00  0.00     0.105 A 
HETATM   21  C3  UNL     1      19.596  38.470  32.939  1.00  0.00     0.048 A 
HETATM   22  C4  UNL     1      19.204  39.596  33.618  1.00  0.00     0.005 A 
HETATM   23  C5  UNL     1      18.340  39.487  34.690  1.00  0.00     0.017 A 
HETATM   24  C6  UNL     1      17.922  38.215  35.008  1.00  0.00     0.089 A 
HETATM   25  N2  UNL     1      18.306  37.123  34.344  1.00  0.00    -0.352 N 
ATOM     26  H2  UNL     1      17.959  36.208  34.630  1.00  0.00     0.166 HD
ENDBRANCH  18  20
ENDBRANCH  16  18
ENDBRANCH   1  16
TORSDOF 3
ENDMDL
