MODEL 1
REMARK VINA RESULT: -4.191062358      0.000      0.000
REMARK  2 active torsions:
REMARK  status: ('A' for Active; 'I' for Inactive)
REMARK    1  A    between atoms: C1_2  and  C2_4 
REMARK    2  A    between atoms: C2_4  and  N1_6 
ROOT
HETATM    1  N1  UNL     1     -26.063  42.357  14.290  1.00  0.00    -0.360 N 
ATOM      2  H1  UNL     1     -26.603  42.865  13.590  1.00  0.00     0.162 HD
HETATM    3  C3  UNL     1     -26.601  42.127  15.435  1.00  0.00     0.075 A 
HETATM    4  C4  UNL     1     -26.118  41.436  16.651  1.00  0.00     0.095 A 
HETATM    5  C5  UNL     1     -27.475  41.816  17.210  1.00  0.00     0.128 A 
HETATM    6  N2  UNL     1     -27.873  42.449  15.973  1.00  0.00    -0.380 N 
ATOM      7  H2  UNL     1     -28.709  42.925  15.633  1.00  0.00     0.160 HD
ENDROOT
BRANCH   1   8
HETATM    8  C2  UNL     1     -24.739  41.929  13.959  1.00  0.00     0.213 C 
HETATM    9 CL3  UNL     1     -24.822  41.062  12.399  1.00  0.00    -0.100 Cl
BRANCH   8  10
HETATM   10  C1  UNL     1     -23.783  43.090  13.758  1.00  0.00     0.215 C 
HETATM   11 CL1  UNL     1     -23.404  43.731  15.376  1.00  0.00    -0.105 Cl
HETATM   12 CL2  UNL     1     -24.458  44.327  12.696  1.00  0.00    -0.105 Cl
ENDBRANCH   8  10
ENDBRANCH   1   8
TORSDOF 2
ENDMDL
MODEL 2
REMARK VINA RESULT: -4.189499187      2.739      3.926
REMARK  2 active torsions:
REMARK  status: ('A' for Active; 'I' for Inactive)
REMARK    1  A    between atoms: C1_2  and  C2_4 
REMARK    2  A    between atoms: C2_4  and  N1_6 
ROOT
HETATM    1  N1  UNL     1     -23.280  43.217  14.284  1.00  0.00    -0.360 N 
ATOM      2  H1  UNL     1     -22.724  42.775  13.552  1.00  0.00     0.162 HD
HETATM    3  C3  UNL     1     -22.747  43.391  15.441  1.00  0.00     0.075 A 
HETATM    4  C4  UNL     1     -23.251  43.983  16.700  1.00  0.00     0.095 A 
HETATM    5  C5  UNL     1     -21.881  43.616  17.232  1.00  0.00     0.128 A 
HETATM    6  N2  UNL     1     -21.463  43.079  15.957  1.00  0.00    -0.380 N 
ATOM      7  H2  UNL     1     -20.612  42.656  15.586  1.00  0.00     0.160 HD
ENDROOT
BRANCH   1   8
HETATM    8  C2  UNL     1     -24.618  43.618  13.982  1.00  0.00     0.213 C 
HETATM    9 CL3  UNL     1     -24.581  44.518  12.438  1.00  0.00    -0.100 Cl
BRANCH   8  10
HETATM   10  C1  UNL     1     -25.549  42.438  13.772  1.00  0.00     0.215 C 
HETATM   11 CL1  UNL     1     -25.940  41.798  15.387  1.00  0.00    -0.105 Cl
HETATM   12 CL2  UNL     1     -24.834  41.210  12.726  1.00  0.00    -0.105 Cl
ENDBRANCH   8  10
ENDBRANCH   1   8
TORSDOF 2
ENDMDL
MODEL 3
REMARK VINA RESULT: -4.051137177      0.766      1.457
REMARK  2 active torsions:
REMARK  status: ('A' for Active; 'I' for Inactive)
REMARK    1  A    between atoms: C1_2  and  C2_4 
REMARK    2  A    between atoms: C2_4  and  N1_6 
ROOT
HETATM    1  N1  UNL     1     -26.364  42.388  14.522  1.00  0.00    -0.360 N 
ATOM      2  H1  UNL     1     -26.897  42.923  13.837  1.00  0.00     0.162 HD
HETATM    3  C3  UNL     1     -26.893  42.157  15.671  1.00  0.00     0.075 A 
HETATM    4  C4  UNL     1     -26.416  41.434  16.870  1.00  0.00     0.095 A 
HETATM    5  C5  UNL     1     -27.752  41.846  17.453  1.00  0.00     0.128 A 
HETATM    6  N2  UNL     1     -28.147  42.511  16.231  1.00  0.00    -0.380 N 
ATOM      7  H2  UNL     1     -28.972  43.017  15.910  1.00  0.00     0.160 HD
ENDROOT
BRANCH   1   8
HETATM    8  C2  UNL     1     -25.059  41.925  14.166  1.00  0.00     0.213 C 
HETATM    9 CL3  UNL     1     -25.176  41.145  12.563  1.00  0.00    -0.100 Cl
BRANCH   8  10
HETATM   10  C1  UNL     1     -24.056  43.056  14.024  1.00  0.00     0.215 C 
HETATM   11 CL1  UNL     1     -23.145  42.750  12.526  1.00  0.00    -0.105 Cl
HETATM   12 CL2  UNL     1     -22.997  43.181  15.431  1.00  0.00    -0.105 Cl
ENDBRANCH   8  10
ENDBRANCH   1   8
TORSDOF 2
ENDMDL
MODEL 4
REMARK VINA RESULT: -4.041106325      3.000      4.215
REMARK  2 active torsions:
REMARK  status: ('A' for Active; 'I' for Inactive)
REMARK    1  A    between atoms: C1_2  and  C2_4 
REMARK    2  A    between atoms: C2_4  and  N1_6 
ROOT
HETATM    1  N1  UNL     1     -23.056  43.138  14.528  1.00  0.00    -0.360 N 
ATOM      2  H1  UNL     1     -22.544  42.557  13.865  1.00  0.00     0.162 HD
HETATM    3  C3  UNL     1     -22.512  43.406  15.662  1.00  0.00     0.075 A 
HETATM    4  C4  UNL     1     -22.960  44.197  16.829  1.00  0.00     0.095 A 
HETATM    5  C5  UNL     1     -21.632  43.773  17.422  1.00  0.00     0.128 A 
HETATM    6  N2  UNL     1     -21.265  43.042  16.230  1.00  0.00    -0.380 N 
ATOM      7  H2  UNL     1     -20.456  42.498  15.927  1.00  0.00     0.160 HD
ENDROOT
BRANCH   1   8
HETATM    8  C2  UNL     1     -24.350  43.622  14.159  1.00  0.00     0.213 C 
HETATM    9 CL3  UNL     1     -24.204  44.403  12.558  1.00  0.00    -0.100 Cl
BRANCH   8  10
HETATM   10  C1  UNL     1     -25.369  42.508  14.005  1.00  0.00     0.215 C 
HETATM   11 CL1  UNL     1     -26.266  42.834  12.503  1.00  0.00    -0.105 Cl
HETATM   12 CL2  UNL     1     -26.438  42.390  15.405  1.00  0.00    -0.105 Cl
ENDBRANCH   8  10
ENDBRANCH   1   8
TORSDOF 2
ENDMDL
MODEL 5
REMARK VINA RESULT: -4.019170517      1.359      2.175
REMARK  2 active torsions:
REMARK  status: ('A' for Active; 'I' for Inactive)
REMARK    1  A    between atoms: C1_2  and  C2_4 
REMARK    2  A    between atoms: C2_4  and  N1_6 
ROOT
HETATM    1  N1  UNL     1     -25.580  42.252  14.639  1.00  0.00    -0.360 N 
ATOM      2  H1  UNL     1     -25.728  41.543  13.921  1.00  0.00     0.162 HD
HETATM    3  C3  UNL     1     -26.148  42.100  15.782  1.00  0.00     0.075 A 
HETATM    4  C4  UNL     1     -26.148  42.912  17.019  1.00  0.00     0.095 A 
HETATM    5  C5  UNL     1     -27.073  41.829  17.537  1.00  0.00     0.128 A 
HETATM    6  N2  UNL     1     -26.996  41.088  16.298  1.00  0.00    -0.380 N 
ATOM      7  H2  UNL     1     -27.384  40.212  15.946  1.00  0.00     0.160 HD
ENDROOT
BRANCH   1   8
HETATM    8  C2  UNL     1     -24.749  43.375  14.332  1.00  0.00     0.213 C 
HETATM    9 CL3  UNL     1     -23.141  43.074  15.053  1.00  0.00    -0.100 Cl
BRANCH   8  10
HETATM   10  C1  UNL     1     -24.529  43.549  12.841  1.00  0.00     0.215 C 
HETATM   11 CL1  UNL     1     -26.088  43.219  12.048  1.00  0.00    -0.105 Cl
HETATM   12 CL2  UNL     1     -23.242  42.503  12.235  1.00  0.00    -0.105 Cl
ENDBRANCH   8  10
ENDBRANCH   1   8
TORSDOF 2
ENDMDL
