MODEL 1
REMARK VINA RESULT: -3.807109580      0.000      0.000
REMARK  3 active torsions:
REMARK  status: ('A' for Active; 'I' for Inactive)
REMARK    1  A    between atoms: C1_2  and  C2_3 
REMARK    2  A    between atoms: C1_2  and  C3_5 
REMARK    3  A    between atoms: C3_5  and  N1_6 
ROOT
HETATM    1  N1  UNL     1     -24.160  42.800  13.590  1.00  0.00     0.015 N 
HETATM    2  C4  UNL     1     -24.972  43.881  13.020  1.00  0.00     0.262 C 
HETATM    3  C5  UNL     1     -25.846  43.031  12.075  1.00  0.00     0.054 C 
HETATM    4  C6  UNL     1     -25.269  41.693  12.441  1.00  0.00     0.136 C 
HETATM    5  C7  UNL     1     -23.774  42.017  12.405  1.00  0.00     0.283 C 
HETATM    6  N2  UNL     1     -25.071  41.777  13.854  1.00  0.00    -0.040 NA
ENDROOT
BRANCH   1   7
HETATM    7  C3  UNL     1     -23.178  43.118  14.514  1.00  0.00     0.298 C 
BRANCH   7   8
HETATM    8  C1  UNL     1     -23.565  43.166  15.954  1.00  0.00     0.211 C 
HETATM    9  F1  UNL     1     -24.643  43.947  16.221  1.00  0.00    -0.246 F 
BRANCH   8  10
HETATM   10  C2  UNL     1     -22.356  43.721  16.712  1.00  0.00     0.153 C 
HETATM   11 CL1  UNL     1     -20.879  42.822  16.240  1.00  0.00    -0.128 Cl
ENDBRANCH   8  10
ENDBRANCH   7   8
ENDBRANCH   1   7
TORSDOF 3
ENDMDL
MODEL 2
REMARK VINA RESULT: -3.799110896      2.941      3.480
REMARK  3 active torsions:
REMARK  status: ('A' for Active; 'I' for Inactive)
REMARK    1  A    between atoms: C1_2  and  C2_3 
REMARK    2  A    between atoms: C1_2  and  C3_5 
REMARK    3  A    between atoms: C3_5  and  N1_6 
ROOT
HETATM    1  N1  UNL     1     -25.239  42.746  13.599  1.00  0.00     0.015 N 
HETATM    2  C4  UNL     1     -24.454  41.650  13.019  1.00  0.00     0.262 C 
HETATM    3  C5  UNL     1     -23.564  42.486  12.076  1.00  0.00     0.054 C 
HETATM    4  C6  UNL     1     -24.110  43.835  12.452  1.00  0.00     0.136 C 
HETATM    5  C7  UNL     1     -25.612  43.545  12.420  1.00  0.00     0.283 C 
HETATM    6  N2  UNL     1     -24.304  43.746  13.865  1.00  0.00    -0.040 NA
ENDROOT
BRANCH   1   7
HETATM    7  C3  UNL     1     -26.225  42.443  14.524  1.00  0.00     0.298 C 
BRANCH   7   8
HETATM    8  C1  UNL     1     -25.833  42.373  15.962  1.00  0.00     0.211 C 
HETATM    9  F1  UNL     1     -24.776  41.559  16.218  1.00  0.00    -0.246 F 
BRANCH   8  10
HETATM   10  C2  UNL     1     -27.054  41.848  16.722  1.00  0.00     0.153 C 
HETATM   11 CL1  UNL     1     -28.522  42.731  16.194  1.00  0.00    -0.128 Cl
ENDBRANCH   8  10
ENDBRANCH   7   8
ENDBRANCH   1   7
TORSDOF 3
ENDMDL
MODEL 3
REMARK VINA RESULT: -3.798554600      3.056      3.308
REMARK  3 active torsions:
REMARK  status: ('A' for Active; 'I' for Inactive)
REMARK    1  A    between atoms: C1_2  and  C2_3 
REMARK    2  A    between atoms: C1_2  and  C3_5 
REMARK    3  A    between atoms: C3_5  and  N1_6 
ROOT
HETATM    1  N1  UNL     1     -25.573  42.659  13.899  1.00  0.00     0.015 N 
HETATM    2  C4  UNL     1     -24.504  43.645  14.091  1.00  0.00     0.262 C 
HETATM    3  C5  UNL     1     -23.925  43.629  12.661  1.00  0.00     0.054 C 
HETATM    4  C6  UNL     1     -24.896  42.641  12.078  1.00  0.00     0.136 C 
HETATM    5  C7  UNL     1     -24.894  41.573  13.173  1.00  0.00     0.283 C 
HETATM    6  N2  UNL     1     -26.146  42.995  12.673  1.00  0.00    -0.040 NA
ENDROOT
BRANCH   1   7
HETATM    7  C3  UNL     1     -26.374  42.326  14.979  1.00  0.00     0.298 C 
BRANCH   7   8
HETATM    8  C1  UNL     1     -25.706  42.054  16.285  1.00  0.00     0.211 C 
HETATM    9  F1  UNL     1     -25.172  40.810  16.395  1.00  0.00    -0.246 F 
BRANCH   8  10
HETATM   10  C2  UNL     1     -26.775  42.228  17.367  1.00  0.00     0.153 C 
HETATM   11 CL1  UNL     1     -28.344  42.648  16.606  1.00  0.00    -0.128 Cl
ENDBRANCH   8  10
ENDBRANCH   7   8
ENDBRANCH   1   7
TORSDOF 3
ENDMDL
MODEL 4
REMARK VINA RESULT: -3.771021539      1.534      1.936
REMARK  3 active torsions:
REMARK  status: ('A' for Active; 'I' for Inactive)
REMARK    1  A    between atoms: C1_2  and  C2_3 
REMARK    2  A    between atoms: C1_2  and  C3_5 
REMARK    3  A    between atoms: C3_5  and  N1_6 
ROOT
HETATM    1  N1  UNL     1     -24.239  43.188  14.141  1.00  0.00     0.015 N 
HETATM    2  C4  UNL     1     -25.094  41.996  14.145  1.00  0.00     0.262 C 
HETATM    3  C5  UNL     1     -24.890  41.569  12.676  1.00  0.00     0.054 C 
HETATM    4  C6  UNL     1     -23.928  42.659  12.298  1.00  0.00     0.136 C 
HETATM    5  C7  UNL     1     -24.635  43.874  12.900  1.00  0.00     0.283 C 
HETATM    6  N2  UNL     1     -23.093  42.797  13.449  1.00  0.00    -0.040 NA
ENDROOT
BRANCH   1   7
HETATM    7  C3  UNL     1     -24.135  43.938  15.301  1.00  0.00     0.298 C 
BRANCH   7   8
HETATM    8  C1  UNL     1     -22.958  43.696  16.185  1.00  0.00     0.211 C 
HETATM    9  F1  UNL     1     -22.947  42.476  16.784  1.00  0.00    -0.246 F 
BRANCH   8  10
HETATM   10  C2  UNL     1     -22.998  44.775  17.270  1.00  0.00     0.153 C 
HETATM   11 CL1  UNL     1     -21.525  45.793  17.167  1.00  0.00    -0.128 Cl
ENDBRANCH   8  10
ENDBRANCH   7   8
ENDBRANCH   1   7
TORSDOF 3
ENDMDL
MODEL 5
REMARK VINA RESULT: -3.768121325      3.015      3.269
REMARK  3 active torsions:
REMARK  status: ('A' for Active; 'I' for Inactive)
REMARK    1  A    between atoms: C1_2  and  C2_3 
REMARK    2  A    between atoms: C1_2  and  C3_5 
REMARK    3  A    between atoms: C3_5  and  N1_6 
ROOT
HETATM    1  N1  UNL     1     -25.148  42.384  14.159  1.00  0.00     0.015 N 
HETATM    2  C4  UNL     1     -24.291  43.574  14.159  1.00  0.00     0.262 C 
HETATM    3  C5  UNL     1     -24.494  43.997  12.689  1.00  0.00     0.054 C 
HETATM    4  C6  UNL     1     -25.458  42.908  12.314  1.00  0.00     0.136 C 
HETATM    5  C7  UNL     1     -24.754  41.693  12.921  1.00  0.00     0.283 C 
HETATM    6  N2  UNL     1     -26.294  42.775  13.466  1.00  0.00    -0.040 NA
ENDROOT
BRANCH   1   7
HETATM    7  C3  UNL     1     -25.254  41.638  15.322  1.00  0.00     0.298 C 
BRANCH   7   8
HETATM    8  C1  UNL     1     -26.445  41.865  16.190  1.00  0.00     0.211 C 
HETATM    9  F1  UNL     1     -26.491  43.093  16.770  1.00  0.00    -0.246 F 
BRANCH   8  10
HETATM   10  C2  UNL     1     -26.391  40.803  17.292  1.00  0.00     0.153 C 
HETATM   11 CL1  UNL     1     -27.843  39.756  17.196  1.00  0.00    -0.128 Cl
ENDBRANCH   8  10
ENDBRANCH   7   8
ENDBRANCH   1   7
TORSDOF 3
ENDMDL
