MODEL 1
REMARK VINA RESULT: -3.487421974      0.000      0.000
REMARK  2 active torsions:
REMARK  status: ('A' for Active; 'I' for Inactive)
REMARK    1  A    between atoms: N1_5  and  C4_6 
REMARK    2  A    between atoms: N1_5  and  C5_8 
ROOT
HETATM    1  F1  UNL     1     -25.656  42.409  16.977  1.00  0.00    -0.248 F 
HETATM    2  C1  UNL     1     -25.045  42.262  15.777  1.00  0.00     0.197 C 
HETATM    3  C2  UNL     1     -24.174  43.475  15.409  1.00  0.00     0.067 C 
HETATM    4  C3  UNL     1     -23.945  43.152  13.940  1.00  0.00     0.243 C 
HETATM    5  N1  UNL     1     -25.182  42.554  13.465  1.00  0.00    -0.040 N 
HETATM    6  C6  UNL     1     -26.023  42.338  14.601  1.00  0.00     0.277 C 
ENDROOT
BRANCH   5   7
HETATM    7  C4  UNL     1     -24.819  41.283  12.840  1.00  0.00     0.352 C 
HETATM    8 CL1  UNL     1     -23.479  41.574  11.693  1.00  0.00    -0.101 Cl
ENDBRANCH   5   7
BRANCH   5   9
HETATM    9  C5  UNL     1     -25.825  43.399  12.494  1.00  0.00     0.352 C 
HETATM   10 CL2  UNL     1     -24.895  44.850  12.110  1.00  0.00    -0.101 Cl
ENDBRANCH   5   9
TORSDOF 2
ENDMDL
MODEL 2
REMARK VINA RESULT: -3.480932738      1.255      2.538
REMARK  2 active torsions:
REMARK  status: ('A' for Active; 'I' for Inactive)
REMARK    1  A    between atoms: N1_5  and  C4_6 
REMARK    2  A    between atoms: N1_5  and  C5_8 
ROOT
HETATM    1  F1  UNL     1     -23.888  42.882  17.048  1.00  0.00    -0.248 F 
HETATM    2  C1  UNL     1     -24.458  43.060  15.833  1.00  0.00     0.197 C 
HETATM    3  C2  UNL     1     -25.200  41.804  15.343  1.00  0.00     0.067 C 
HETATM    4  C3  UNL     1     -25.395  42.208  13.889  1.00  0.00     0.243 C 
HETATM    5  N1  UNL     1     -24.197  42.944  13.516  1.00  0.00    -0.040 N 
HETATM    6  C6  UNL     1     -23.428  43.152  14.703  1.00  0.00     0.277 C 
ENDROOT
BRANCH   5   7
HETATM    7  C4  UNL     1     -24.647  44.219  12.959  1.00  0.00     0.352 C 
HETATM    8 CL1  UNL     1     -25.934  43.897  11.761  1.00  0.00    -0.101 Cl
ENDBRANCH   5   7
BRANCH   5   9
HETATM    9  C5  UNL     1     -23.440  42.228  12.523  1.00  0.00     0.352 C 
HETATM   10 CL2  UNL     1     -24.206  40.721  12.017  1.00  0.00    -0.101 Cl
ENDBRANCH   5   9
TORSDOF 2
ENDMDL
MODEL 3
REMARK VINA RESULT: -3.416467256      3.000      3.765
REMARK  2 active torsions:
REMARK  status: ('A' for Active; 'I' for Inactive)
REMARK    1  A    between atoms: N1_5  and  C4_6 
REMARK    2  A    between atoms: N1_5  and  C5_8 
ROOT
HETATM    1  F1  UNL     1     -26.180  43.179  11.251  1.00  0.00    -0.248 F 
HETATM    2  C1  UNL     1     -25.324  43.343  12.288  1.00  0.00     0.197 C 
HETATM    3  C2  UNL     1     -24.112  42.400  12.203  1.00  0.00     0.067 C 
HETATM    4  C3  UNL     1     -23.583  42.583  13.618  1.00  0.00     0.243 C 
HETATM    5  N1  UNL     1     -24.755  42.727  14.467  1.00  0.00    -0.040 N 
HETATM    6  C6  UNL     1     -25.898  42.833  13.615  1.00  0.00     0.277 C 
ENDROOT
BRANCH   5   7
HETATM    7  C4  UNL     1     -24.565  43.958  15.235  1.00  0.00     0.352 C 
HETATM    8 CL1  UNL     1     -23.011  43.848  16.113  1.00  0.00    -0.101 Cl
ENDBRANCH   5   7
BRANCH   5   9
HETATM    9  C5  UNL     1     -24.879  41.613  15.369  1.00  0.00     0.352 C 
HETATM   10 CL2  UNL     1     -26.415  41.588  16.237  1.00  0.00    -0.101 Cl
ENDBRANCH   5   9
TORSDOF 2
ENDMDL
MODEL 4
REMARK VINA RESULT: -3.415857828      3.069      3.756
REMARK  2 active torsions:
REMARK  status: ('A' for Active; 'I' for Inactive)
REMARK    1  A    between atoms: N1_5  and  C4_6 
REMARK    2  A    between atoms: N1_5  and  C5_8 
ROOT
HETATM    1  F1  UNL     1     -23.225  42.346  11.304  1.00  0.00    -0.248 F 
HETATM    2  C1  UNL     1     -24.092  42.192  12.334  1.00  0.00     0.197 C 
HETATM    3  C2  UNL     1     -25.295  43.146  12.235  1.00  0.00     0.067 C 
HETATM    4  C3  UNL     1     -25.840  42.970  13.645  1.00  0.00     0.243 C 
HETATM    5  N1  UNL     1     -24.677  42.817  14.505  1.00  0.00    -0.040 N 
HETATM    6  C6  UNL     1     -23.527  42.700  13.664  1.00  0.00     0.277 C 
ENDROOT
BRANCH   5   7
HETATM    7  C4  UNL     1     -24.885  41.590  15.274  1.00  0.00     0.352 C 
HETATM    8 CL1  UNL     1     -26.428  41.730  16.166  1.00  0.00    -0.101 Cl
ENDBRANCH   5   7
BRANCH   5   9
HETATM    9  C5  UNL     1     -24.552  43.932  15.407  1.00  0.00     0.352 C 
HETATM   10 CL2  UNL     1     -22.988  43.997  16.221  1.00  0.00    -0.101 Cl
ENDBRANCH   5   9
TORSDOF 2
ENDMDL
MODEL 5
REMARK VINA RESULT: -3.324833629      2.900      3.743
REMARK  2 active torsions:
REMARK  status: ('A' for Active; 'I' for Inactive)
REMARK    1  A    between atoms: N1_5  and  C4_6 
REMARK    2  A    between atoms: N1_5  and  C5_8 
ROOT
HETATM    1  F1  UNL     1     -26.171  42.821  11.123  1.00  0.00    -0.248 F 
HETATM    2  C1  UNL     1     -25.422  42.756  12.251  1.00  0.00     0.197 C 
HETATM    3  C2  UNL     1     -24.997  41.318  12.591  1.00  0.00     0.067 C 
HETATM    4  C3  UNL     1     -24.514  41.555  14.014  1.00  0.00     0.243 C 
HETATM    5  N1  UNL     1     -25.406  42.556  14.576  1.00  0.00    -0.040 N 
HETATM    6  C6  UNL     1     -26.234  43.043  13.518  1.00  0.00     0.277 C 
ENDROOT
BRANCH   5   7
HETATM    7  C4  UNL     1     -24.556  43.624  15.102  1.00  0.00     0.352 C 
HETATM    8 CL1  UNL     1     -22.859  43.059  15.095  1.00  0.00    -0.101 Cl
ENDBRANCH   5   7
BRANCH   5   9
HETATM    9  C5  UNL     1     -26.196  42.003  15.644  1.00  0.00     0.352 C 
HETATM   10 CL2  UNL     1     -25.274  40.947  16.717  1.00  0.00    -0.101 Cl
ENDBRANCH   5   9
TORSDOF 2
ENDMDL
