MODEL 1
REMARK VINA RESULT: -4.109933895      0.000      0.000
REMARK  2 active torsions:
REMARK  status: ('A' for Active; 'I' for Inactive)
REMARK    1  A    between atoms: C1_4  and  C2_5 
REMARK    2  A    between atoms: C4_7  and  C5_8 
ROOT
HETATM    1  C2  UNL     1     -26.189  42.685  15.284  1.00  0.00     0.032 A 
HETATM    2  C3  UNL     1     -24.721  42.369  15.608  1.00  0.00     0.020 A 
HETATM    3  C4  UNL     1     -25.401  41.735  14.466  1.00  0.00     0.050 A 
ENDROOT
BRANCH   1   4
HETATM    4  C1  UNL     1     -27.127  42.240  16.315  1.00  0.00     0.057 C 
HETATM    5  N1  UNL     1     -28.400  42.247  16.219  1.00  0.00    -0.411 N 
ATOM      6  H12 UNL     1     -28.780  42.596  15.339  1.00  0.00     0.155 HD
ATOM      7  H11 UNL     1     -29.055  41.937  16.937  1.00  0.00     0.155 HD
ENDBRANCH   1   4
BRANCH   3   8
HETATM    8  C5  UNL     1     -24.909  42.147  13.097  1.00  0.00     0.192 C 
HETATM    9 CL1  UNL     1     -23.465  43.194  13.308  1.00  0.00    -0.083 Cl
HETATM   10 CL2  UNL     1     -24.377  40.740  12.144  1.00  0.00    -0.083 Cl
HETATM   11 CL3  UNL     1     -26.119  43.107  12.232  1.00  0.00    -0.083 Cl
ENDBRANCH   3   8
TORSDOF 2
ENDMDL
MODEL 2
REMARK VINA RESULT: -4.105797684      0.312      1.690
REMARK  2 active torsions:
REMARK  status: ('A' for Active; 'I' for Inactive)
REMARK    1  A    between atoms: C1_4  and  C2_5 
REMARK    2  A    between atoms: C4_7  and  C5_8 
ROOT
HETATM    1  C2  UNL     1     -26.294  42.719  15.392  1.00  0.00     0.032 A 
HETATM    2  C3  UNL     1     -24.999  41.961  15.719  1.00  0.00     0.020 A 
HETATM    3  C4  UNL     1     -25.688  41.770  14.431  1.00  0.00     0.050 A 
ENDROOT
BRANCH   1   4
HETATM    4  C1  UNL     1     -27.421  42.354  16.251  1.00  0.00     0.057 C 
HETATM    5  N1  UNL     1     -28.656  42.467  15.950  1.00  0.00    -0.411 N 
ATOM      6  H12 UNL     1     -28.858  42.848  15.026  1.00  0.00     0.155 HD
ATOM      7  H11 UNL     1     -29.443  42.212  16.548  1.00  0.00     0.155 HD
ENDBRANCH   1   4
BRANCH   3   8
HETATM    8  C5  UNL     1     -24.962  42.292  13.212  1.00  0.00     0.192 C 
HETATM    9 CL1  UNL     1     -24.392  40.886  12.251  1.00  0.00    -0.083 Cl
HETATM   10 CL2  UNL     1     -26.050  43.221  12.153  1.00  0.00    -0.083 Cl
HETATM   11 CL3  UNL     1     -23.527  43.225  13.660  1.00  0.00    -0.083 Cl
ENDBRANCH   3   8
TORSDOF 2
ENDMDL
MODEL 3
REMARK VINA RESULT: -4.103934218      3.146      3.630
REMARK  2 active torsions:
REMARK  status: ('A' for Active; 'I' for Inactive)
REMARK    1  A    between atoms: C1_4  and  C2_5 
REMARK    2  A    between atoms: C4_7  and  C5_8 
ROOT
HETATM    1  C2  UNL     1     -23.097  42.854  15.390  1.00  0.00     0.032 A 
HETATM    2  C3  UNL     1     -24.424  43.549  15.735  1.00  0.00     0.020 A 
HETATM    3  C4  UNL     1     -23.743  43.802  14.453  1.00  0.00     0.050 A 
ENDROOT
BRANCH   1   4
HETATM    4  C1  UNL     1     -21.986  43.245  16.258  1.00  0.00     0.057 C 
HETATM    5  N1  UNL     1     -20.746  43.141  15.976  1.00  0.00    -0.411 N 
ATOM      6  H12 UNL     1     -20.527  42.749  15.060  1.00  0.00     0.155 HD
ATOM      7  H11 UNL     1     -19.971  43.413  16.582  1.00  0.00     0.155 HD
ENDBRANCH   1   4
BRANCH   3   8
HETATM    8  C5  UNL     1     -24.447  43.282  13.220  1.00  0.00     0.192 C 
HETATM    9 CL1  UNL     1     -25.003  44.690  12.254  1.00  0.00    -0.083 Cl
HETATM   10 CL2  UNL     1     -23.338  42.360  12.176  1.00  0.00    -0.083 Cl
HETATM   11 CL3  UNL     1     -25.887  42.344  13.640  1.00  0.00    -0.083 Cl
ENDBRANCH   3   8
TORSDOF 2
ENDMDL
MODEL 4
REMARK VINA RESULT: -4.090629622      3.143      3.628
REMARK  2 active torsions:
REMARK  status: ('A' for Active; 'I' for Inactive)
REMARK    1  A    between atoms: C1_4  and  C2_5 
REMARK    2  A    between atoms: C4_7  and  C5_8 
ROOT
HETATM    1  C2  UNL     1     -23.121  42.862  15.366  1.00  0.00     0.032 A 
HETATM    2  C3  UNL     1     -24.441  43.549  15.747  1.00  0.00     0.020 A 
HETATM    3  C4  UNL     1     -23.771  43.844  14.469  1.00  0.00     0.050 A 
ENDROOT
BRANCH   1   4
HETATM    4  C1  UNL     1     -22.001  43.217  16.237  1.00  0.00     0.057 C 
HETATM    5  N1  UNL     1     -20.763  43.097  15.948  1.00  0.00    -0.411 N 
ATOM      6  H12 UNL     1     -20.555  42.720  15.024  1.00  0.00     0.155 HD
ATOM      7  H11 UNL     1     -19.982  43.345  16.556  1.00  0.00     0.155 HD
ENDBRANCH   1   4
BRANCH   3   8
HETATM    8  C5  UNL     1     -24.489  43.370  13.225  1.00  0.00     0.192 C 
HETATM    9 CL1  UNL     1     -23.337  42.400  12.246  1.00  0.00    -0.083 Cl
HETATM   10 CL2  UNL     1     -25.845  42.289  13.626  1.00  0.00    -0.083 Cl
HETATM   11 CL3  UNL     1     -25.006  44.728  12.216  1.00  0.00    -0.083 Cl
ENDBRANCH   3   8
TORSDOF 2
ENDMDL
MODEL 5
REMARK VINA RESULT: -4.090128162      2.718      3.491
REMARK  2 active torsions:
REMARK  status: ('A' for Active; 'I' for Inactive)
REMARK    1  A    between atoms: C1_4  and  C2_5 
REMARK    2  A    between atoms: C4_7  and  C5_8 
ROOT
HETATM    1  C2  UNL     1     -23.555  43.007  15.218  1.00  0.00     0.032 A 
HETATM    2  C3  UNL     1     -25.079  42.975  15.413  1.00  0.00     0.020 A 
HETATM    3  C4  UNL     1     -24.478  43.586  14.216  1.00  0.00     0.050 A 
ENDROOT
BRANCH   1   4
HETATM    4  C1  UNL     1     -22.853  43.827  16.205  1.00  0.00     0.057 C 
HETATM    5  N1  UNL     1     -21.599  43.804  16.438  1.00  0.00    -0.411 N 
ATOM      6  H12 UNL     1     -21.052  43.150  15.878  1.00  0.00     0.155 HD
ATOM      7  H11 UNL     1     -21.109  44.377  17.126  1.00  0.00     0.155 HD
ENDBRANCH   1   4
BRANCH   3   8
HETATM    8  C5  UNL     1     -24.727  42.862  12.912  1.00  0.00     0.192 C 
HETATM    9 CL1  UNL     1     -25.436  41.255  13.288  1.00  0.00    -0.083 Cl
HETATM   10 CL2  UNL     1     -25.922  43.718  11.908  1.00  0.00    -0.083 Cl
HETATM   11 CL3  UNL     1     -23.220  42.568  12.033  1.00  0.00    -0.083 Cl
ENDBRANCH   3   8
TORSDOF 2
ENDMDL
