MODEL 1
REMARK VINA RESULT: -6.893112948      0.000      0.000
REMARK  12 active torsions:
REMARK  status: ('A' for Active; 'I' for Inactive)
REMARK    1  A    between atoms: C2_2  and  N2_6 
REMARK       I    between atoms: N2_6  and  C3_8 
REMARK    2  A    between atoms: C3_8  and  C4_10 
REMARK    3  A    between atoms: C4_10  and  O2_11 
REMARK    4  A    between atoms: C6_16  and  O5_17 
REMARK    5  A    between atoms: C6_16  and  C7_19 
REMARK    6  A    between atoms: C7_19  and  O6_20 
REMARK    7  A    between atoms: C7_19  and  N3_22 
REMARK    8  A    between atoms: N3_22  and  S1_24 
REMARK    9  A    between atoms: S1_24  and  C8_27 
REMARK   10  A    between atoms: C10_29  and  O9_30 
REMARK   11  A    between atoms: C11_32  and  O10_33 
REMARK   12  A    between atoms: C12_35  and  O11_36 
ROOT
HETATM    1  C4  UNL     1       2.339 -35.449  12.732  1.00  0.00     0.466 C 
HETATM    2  O3  UNL     1       1.661 -34.512  13.561  1.00  0.00    -0.244 OA
HETATM    3  C5  UNL     1       1.410 -35.158  14.760  1.00  0.00     0.335 C 
HETATM    4  O4  UNL     1       1.336 -34.535  15.848  1.00  0.00    -0.259 OA
HETATM    5  C6  UNL     1       1.279 -36.581  14.411  1.00  0.00     0.398 C 
HETATM    6  N4  UNL     1       2.221 -36.743  13.375  1.00  0.00     0.208 N 
HETATM    7  C14 UNL     1       2.029 -37.815  12.474  1.00  0.00     0.323 C 
ENDROOT
BRANCH   5   8
HETATM    8  O5  UNL     1       1.755 -37.315  15.524  1.00  0.00    -0.352 OA
ATOM      9  H5  UNL     1       1.991 -38.177  15.200  1.00  0.00     0.213 HD
ENDBRANCH   5   8
BRANCH   5  10
HETATM   10  C7  UNL     1      -0.109 -37.035  14.152  1.00  0.00     0.305 C 
BRANCH  10  11
HETATM   11  O6  UNL     1      -1.007 -36.043  14.556  1.00  0.00    -0.371 OA
ATOM     12  H6  UNL     1      -1.781 -36.075  14.007  1.00  0.00     0.212 HD
ENDBRANCH  10  11
BRANCH  10  13
HETATM   13  N3  UNL     1      -0.454 -38.312  14.686  1.00  0.00    -0.283 N 
ATOM     14  H3  UNL     1      -0.111 -39.196  14.310  1.00  0.00     0.175 HD
BRANCH  13  15
HETATM   15  S1  UNL     1      -1.532 -38.189  16.056  1.00  0.00     0.261 S 
HETATM   16  O7  UNL     1      -0.941 -37.273  17.079  1.00  0.00    -0.200 OA
HETATM   17  O8  UNL     1      -2.861 -37.674  15.658  1.00  0.00    -0.200 OA
BRANCH  15  18
HETATM   18  C8  UNL     1      -1.772 -39.761  16.815  1.00  0.00     0.085 A 
HETATM   19  C9  UNL     1      -2.798 -40.030  17.682  1.00  0.00     0.064 A 
HETATM   20  C10 UNL     1      -2.962 -41.278  18.267  1.00  0.00     0.103 A 
HETATM   21  C11 UNL     1      -2.069 -42.300  17.978  1.00  0.00     0.132 A 
HETATM   22  C12 UNL     1      -1.048 -42.042  17.121  1.00  0.00     0.103 A 
HETATM   23  C13 UNL     1      -0.902 -40.794  16.550  1.00  0.00     0.064 A 
BRANCH  20  24
HETATM   24  O9  UNL     1      -4.021 -41.483  19.132  1.00  0.00    -0.358 OA
ATOM     25  H9  UNL     1      -3.843 -41.699  20.040  1.00  0.00     0.217 HD
ENDBRANCH  20  24
BRANCH  21  26
HETATM   26  O10 UNL     1      -2.306 -43.508  18.604  1.00  0.00    -0.356 OA
ATOM     27  H10 UNL     1      -2.566 -43.461  19.516  1.00  0.00     0.218 HD
ENDBRANCH  21  26
BRANCH  22  28
HETATM   28  O11 UNL     1      -0.143 -43.071  16.827  1.00  0.00    -0.358 OA
ATOM     29  H11 UNL     1       0.545 -43.262  17.453  1.00  0.00     0.217 HD
ENDBRANCH  22  28
ENDBRANCH  15  18
ENDBRANCH  13  15
ENDBRANCH  10  13
ENDBRANCH   5  10
BRANCH   1  30
HETATM   30  C3  UNL     1       3.756 -35.064  12.527  1.00  0.00     0.320 C 
HETATM   31  N2  UNL     1       4.205 -34.504  11.322  1.00  0.00    -0.311 N 
ATOM     32  H2  UNL     1       3.504 -34.374  10.593  1.00  0.00     0.170 HD
HETATM   33  O1  UNL     1       4.558 -35.254  13.467  1.00  0.00    -0.265 OA
BRANCH  31  34
HETATM   34  C2  UNL     1       5.515 -34.100  11.005  1.00  0.00     0.073 C 
HETATM   35  C1  UNL     1       5.989 -34.119   9.611  1.00  0.00     0.088 C 
HETATM   36  N1  UNL     1       6.333 -33.705  11.915  1.00  0.00    -0.389 N 
ATOM     37  H12 UNL     1       7.283 -33.412  11.685  1.00  0.00     0.157 HD
ATOM     38  H11 UNL     1       6.005 -33.692  12.881  1.00  0.00     0.157 HD
ENDBRANCH  31  34
ENDBRANCH   1  30
BRANCH   1  39
HETATM   39  O2  UNL     1       1.641 -35.429  11.509  1.00  0.00    -0.333 OA
ATOM     40  H2  UNL     1       0.958 -36.089  11.505  1.00  0.00     0.215 HD
ENDBRANCH   1  39
TORSDOF 12
ENDMDL
MODEL 2
REMARK VINA RESULT: -6.886003298      0.072      1.504
REMARK  12 active torsions:
REMARK  status: ('A' for Active; 'I' for Inactive)
REMARK    1  A    between atoms: C2_2  and  N2_6 
REMARK       I    between atoms: N2_6  and  C3_8 
REMARK    2  A    between atoms: C3_8  and  C4_10 
REMARK    3  A    between atoms: C4_10  and  O2_11 
REMARK    4  A    between atoms: C6_16  and  O5_17 
REMARK    5  A    between atoms: C6_16  and  C7_19 
REMARK    6  A    between atoms: C7_19  and  O6_20 
REMARK    7  A    between atoms: C7_19  and  N3_22 
REMARK    8  A    between atoms: N3_22  and  S1_24 
REMARK    9  A    between atoms: S1_24  and  C8_27 
REMARK   10  A    between atoms: C10_29  and  O9_30 
REMARK   11  A    between atoms: C11_32  and  O10_33 
REMARK   12  A    between atoms: C12_35  and  O11_36 
ROOT
HETATM    1  C4  UNL     1       2.356 -35.422  12.739  1.00  0.00     0.466 C 
HETATM    2  O3  UNL     1       1.684 -34.471  13.558  1.00  0.00    -0.244 OA
HETATM    3  C5  UNL     1       1.413 -35.108  14.757  1.00  0.00     0.335 C 
HETATM    4  O4  UNL     1       1.337 -34.480  15.842  1.00  0.00    -0.259 OA
HETATM    5  C6  UNL     1       1.264 -36.531  14.413  1.00  0.00     0.398 C 
HETATM    6  N4  UNL     1       2.213 -36.711  13.387  1.00  0.00     0.208 N 
HETATM    7  C14 UNL     1       2.014 -37.784  12.488  1.00  0.00     0.323 C 
ENDROOT
BRANCH   5   8
HETATM    8  O5  UNL     1       1.719 -37.267  15.534  1.00  0.00    -0.352 OA
ATOM      9  H5  UNL     1       2.655 -37.381  15.422  1.00  0.00     0.213 HD
ENDBRANCH   5   8
BRANCH   5  10
HETATM   10  C7  UNL     1      -0.128 -36.966  14.143  1.00  0.00     0.305 C 
BRANCH  10  11
HETATM   11  O6  UNL     1      -1.017 -35.980  14.579  1.00  0.00    -0.371 OA
ATOM     12  H6  UNL     1      -1.793 -36.391  14.942  1.00  0.00     0.212 HD
ENDBRANCH  10  11
BRANCH  10  13
HETATM   13  N3  UNL     1      -0.482 -38.256  14.636  1.00  0.00    -0.283 N 
ATOM     14  H3  UNL     1      -0.162 -39.130  14.220  1.00  0.00     0.175 HD
BRANCH  13  15
HETATM   15  S1  UNL     1      -1.527 -38.168  16.035  1.00  0.00     0.261 S 
HETATM   16  O7  UNL     1      -0.911 -37.278  17.066  1.00  0.00    -0.200 OA
HETATM   17  O8  UNL     1      -2.865 -37.643  15.682  1.00  0.00    -0.200 OA
BRANCH  15  18
HETATM   18  C8  UNL     1      -1.749 -39.759  16.759  1.00  0.00     0.085 A 
HETATM   19  C9  UNL     1      -0.900 -40.811  16.541  1.00  0.00     0.064 A 
HETATM   20  C10 UNL     1      -1.100 -42.055  17.125  1.00  0.00     0.103 A 
HETATM   21  C11 UNL     1      -2.189 -42.259  17.960  1.00  0.00     0.132 A 
HETATM   22  C12 UNL     1      -3.036 -41.221  18.182  1.00  0.00     0.103 A 
HETATM   23  C13 UNL     1      -2.819 -39.993  17.592  1.00  0.00     0.064 A 
BRANCH  20  24
HETATM   24  O9  UNL     1      -0.204 -43.075  16.862  1.00  0.00    -0.358 OA
ATOM     25  H9  UNL     1       0.042 -43.668  17.563  1.00  0.00     0.217 HD
ENDBRANCH  20  24
BRANCH  21  26
HETATM   26  O10 UNL     1      -2.312 -43.526  18.497  1.00  0.00    -0.356 OA
ATOM     27  H10 UNL     1      -3.026 -43.651  19.111  1.00  0.00     0.218 HD
ENDBRANCH  21  26
BRANCH  22  28
HETATM   28  O11 UNL     1      -4.138 -41.424  19.024  1.00  0.00    -0.358 OA
ATOM     29  H11 UNL     1      -3.979 -41.678  19.925  1.00  0.00     0.217 HD
ENDBRANCH  22  28
ENDBRANCH  15  18
ENDBRANCH  13  15
ENDBRANCH  10  13
ENDBRANCH   5  10
BRANCH   1  30
HETATM   30  C3  UNL     1       3.780 -35.058  12.546  1.00  0.00     0.320 C 
HETATM   31  N2  UNL     1       4.242 -34.473  11.358  1.00  0.00    -0.311 N 
ATOM     32  H2  UNL     1       3.544 -34.310  10.632  1.00  0.00     0.170 HD
HETATM   33  O1  UNL     1       4.577 -35.289  13.482  1.00  0.00    -0.265 OA
BRANCH  31  34
HETATM   34  C2  UNL     1       5.560 -34.086  11.053  1.00  0.00     0.073 C 
HETATM   35  C1  UNL     1       6.043 -34.100   9.663  1.00  0.00     0.088 C 
HETATM   36  N1  UNL     1       6.377 -33.711  11.972  1.00  0.00    -0.389 N 
ATOM     37  H12 UNL     1       7.332 -33.430  11.751  1.00  0.00     0.157 HD
ATOM     38  H11 UNL     1       6.042 -33.702  12.936  1.00  0.00     0.157 HD
ENDBRANCH  31  34
ENDBRANCH   1  30
BRANCH   1  39
HETATM   39  O2  UNL     1       1.671 -35.396  11.510  1.00  0.00    -0.333 OA
ATOM     40  H2  UNL     1       1.757 -34.545  11.098  1.00  0.00     0.215 HD
ENDBRANCH   1  39
TORSDOF 12
ENDMDL
MODEL 3
REMARK VINA RESULT: -6.792424132      2.510      9.255
REMARK  12 active torsions:
REMARK  status: ('A' for Active; 'I' for Inactive)
REMARK    1  A    between atoms: C2_2  and  N2_6 
REMARK       I    between atoms: N2_6  and  C3_8 
REMARK    2  A    between atoms: C3_8  and  C4_10 
REMARK    3  A    between atoms: C4_10  and  O2_11 
REMARK    4  A    between atoms: C6_16  and  O5_17 
REMARK    5  A    between atoms: C6_16  and  C7_19 
REMARK    6  A    between atoms: C7_19  and  O6_20 
REMARK    7  A    between atoms: C7_19  and  N3_22 
REMARK    8  A    between atoms: N3_22  and  S1_24 
REMARK    9  A    between atoms: S1_24  and  C8_27 
REMARK   10  A    between atoms: C10_29  and  O9_30 
REMARK   11  A    between atoms: C11_32  and  O10_33 
REMARK   12  A    between atoms: C12_35  and  O11_36 
ROOT
HETATM    1  C4  UNL     1      -1.167 -39.037  16.300  1.00  0.00     0.466 C 
HETATM    2  O3  UNL     1      -0.556 -38.143  17.224  1.00  0.00    -0.244 OA
HETATM    3  C5  UNL     1      -0.562 -36.894  16.624  1.00  0.00     0.335 C 
HETATM    4  O4  UNL     1      -0.613 -35.834  17.296  1.00  0.00    -0.259 OA
HETATM    5  C6  UNL     1      -0.499 -37.160  15.179  1.00  0.00     0.398 C 
HETATM    6  N4  UNL     1      -1.268 -38.332  15.037  1.00  0.00     0.208 N 
HETATM    7  C14 UNL     1      -1.024 -39.146  13.907  1.00  0.00     0.323 C 
ENDROOT
BRANCH   5   8
HETATM    8  O5  UNL     1      -1.212 -36.115  14.544  1.00  0.00    -0.352 OA
ATOM      9  H5  UNL     1      -0.846 -36.027  13.672  1.00  0.00     0.213 HD
ENDBRANCH   5   8
BRANCH   5  10
HETATM   10  C7  UNL     1       0.869 -37.165  14.604  1.00  0.00     0.305 C 
BRANCH  10  11
HETATM   11  O6  UNL     1       1.754 -37.751  15.513  1.00  0.00    -0.371 OA
ATOM     12  H6  UNL     1       1.818 -37.207  16.288  1.00  0.00     0.212 HD
ENDBRANCH  10  11
BRANCH  10  13
HETATM   13  N3  UNL     1       1.348 -35.908  14.131  1.00  0.00    -0.283 N 
ATOM     14  H3  UNL     1       1.864 -35.244  14.708  1.00  0.00     0.175 HD
BRANCH  13  15
HETATM   15  S1  UNL     1       0.950 -35.635  12.451  1.00  0.00     0.261 S 
HETATM   16  O7  UNL     1       0.527 -36.922  11.820  1.00  0.00    -0.200 OA
HETATM   17  O8  UNL     1      -0.141 -34.645  12.305  1.00  0.00    -0.200 OA
BRANCH  15  18
HETATM   18  C8  UNL     1       2.345 -35.031  11.560  1.00  0.00     0.085 A 
HETATM   19  C9  UNL     1       3.636 -35.383  11.853  1.00  0.00     0.064 A 
HETATM   20  C10 UNL     1       4.717 -34.891  11.135  1.00  0.00     0.103 A 
HETATM   21  C11 UNL     1       4.504 -34.013  10.082  1.00  0.00     0.132 A 
HETATM   22  C12 UNL     1       3.228 -33.658   9.785  1.00  0.00     0.103 A 
HETATM   23  C13 UNL     1       2.167 -34.158  10.511  1.00  0.00     0.064 A 
BRANCH  20  24
HETATM   24  O9  UNL     1       5.995 -35.288  11.483  1.00  0.00    -0.358 OA
ATOM     25  H9  UNL     1       6.219 -35.375  12.402  1.00  0.00     0.217 HD
ENDBRANCH  20  24
BRANCH  21  26
HETATM   26  O10 UNL     1       5.635 -33.572   9.422  1.00  0.00    -0.356 OA
ATOM     27  H10 UNL     1       5.662 -33.734   8.487  1.00  0.00     0.218 HD
ENDBRANCH  21  26
BRANCH  22  28
HETATM   28  O11 UNL     1       3.009 -32.770   8.723  1.00  0.00    -0.358 OA
ATOM     29  H11 UNL     1       3.052 -31.837   8.895  1.00  0.00     0.217 HD
ENDBRANCH  22  28
ENDBRANCH  15  18
ENDBRANCH  13  15
ENDBRANCH  10  13
ENDBRANCH   5  10
BRANCH   1  30
HETATM   30  C3  UNL     1      -2.492 -39.491  16.784  1.00  0.00     0.320 C 
HETATM   31  N2  UNL     1      -2.623 -40.412  17.835  1.00  0.00    -0.311 N 
ATOM     32  H2  UNL     1      -1.755 -40.752  18.249  1.00  0.00     0.170 HD
HETATM   33  O1  UNL     1      -3.512 -39.029  16.227  1.00  0.00    -0.265 OA
BRANCH  31  34
HETATM   34  C2  UNL     1      -3.816 -40.919  18.382  1.00  0.00     0.073 C 
HETATM   35  C1  UNL     1      -3.869 -42.286  18.925  1.00  0.00     0.088 C 
HETATM   36  N1  UNL     1      -4.887 -40.211  18.423  1.00  0.00    -0.389 N 
ATOM     37  H12 UNL     1      -5.752 -40.579  18.820  1.00  0.00     0.157 HD
ATOM     38  H11 UNL     1      -4.850 -39.263  18.047  1.00  0.00     0.157 HD
ENDBRANCH  31  34
ENDBRANCH   1  30
BRANCH   1  39
HETATM   39  O2  UNL     1      -0.279 -40.125  16.201  1.00  0.00    -0.333 OA
ATOM     40  H2  UNL     1      -0.289 -40.483  15.322  1.00  0.00     0.215 HD
ENDBRANCH   1  39
TORSDOF 12
ENDMDL
MODEL 4
REMARK VINA RESULT: -6.782218594      4.189      7.229
REMARK  12 active torsions:
REMARK  status: ('A' for Active; 'I' for Inactive)
REMARK    1  A    between atoms: C2_2  and  N2_6 
REMARK       I    between atoms: N2_6  and  C3_8 
REMARK    2  A    between atoms: C3_8  and  C4_10 
REMARK    3  A    between atoms: C4_10  and  O2_11 
REMARK    4  A    between atoms: C6_16  and  O5_17 
REMARK    5  A    between atoms: C6_16  and  C7_19 
REMARK    6  A    between atoms: C7_19  and  O6_20 
REMARK    7  A    between atoms: C7_19  and  N3_22 
REMARK    8  A    between atoms: N3_22  and  S1_24 
REMARK    9  A    between atoms: S1_24  and  C8_27 
REMARK   10  A    between atoms: C10_29  and  O9_30 
REMARK   11  A    between atoms: C11_32  and  O10_33 
REMARK   12  A    between atoms: C12_35  and  O11_36 
ROOT
HETATM    1  C4  UNL     1      -1.555 -40.934  15.236  1.00  0.00     0.466 C 
HETATM    2  O3  UNL     1      -2.625 -40.100  14.805  1.00  0.00    -0.244 OA
HETATM    3  C5  UNL     1      -3.052 -39.401  15.921  1.00  0.00     0.335 C 
HETATM    4  O4  UNL     1      -3.560 -38.256  15.835  1.00  0.00    -0.259 OA
HETATM    5  C6  UNL     1      -2.766 -40.284  17.062  1.00  0.00     0.398 C 
HETATM    6  N4  UNL     1      -1.562 -40.912  16.685  1.00  0.00     0.208 N 
HETATM    7  C14 UNL     1      -1.256 -42.159  17.278  1.00  0.00     0.323 C 
ENDROOT
BRANCH   5   8
HETATM    8  O5  UNL     1      -2.470 -39.443  18.161  1.00  0.00    -0.352 OA
ATOM      9  H5  UNL     1      -1.567 -39.614  18.399  1.00  0.00     0.213 HD
ENDBRANCH   5   8
BRANCH   5  10
HETATM   10  C7  UNL     1      -3.893 -41.157  17.474  1.00  0.00     0.305 C 
BRANCH  10  11
HETATM   11  O6  UNL     1      -4.544 -41.644  16.336  1.00  0.00    -0.371 OA
ATOM     12  H6  UNL     1      -5.365 -41.180  16.219  1.00  0.00     0.212 HD
ENDBRANCH  10  11
BRANCH  10  13
HETATM   13  N3  UNL     1      -4.809 -40.590  18.408  1.00  0.00    -0.283 N 
ATOM     14  H3  UNL     1      -5.028 -39.594  18.455  1.00  0.00     0.175 HD
BRANCH  13  15
HETATM   15  S1  UNL     1      -5.514 -41.793  19.462  1.00  0.00     0.261 S 
HETATM   16  O7  UNL     1      -6.294 -42.776  18.649  1.00  0.00    -0.200 OA
HETATM   17  O8  UNL     1      -4.476 -42.518  20.229  1.00  0.00    -0.200 OA
BRANCH  15  18
HETATM   18  C8  UNL     1      -6.617 -41.053  20.618  1.00  0.00     0.085 A 
HETATM   19  C9  UNL     1      -6.867 -39.707  20.667  1.00  0.00     0.064 A 
HETATM   20  C10 UNL     1      -7.741 -39.151  21.591  1.00  0.00     0.103 A 
HETATM   21  C11 UNL     1      -8.394 -39.967  22.503  1.00  0.00     0.132 A 
HETATM   22  C12 UNL     1      -8.152 -41.303  22.462  1.00  0.00     0.103 A 
HETATM   23  C13 UNL     1      -7.279 -41.836  21.536  1.00  0.00     0.064 A 
BRANCH  20  24
HETATM   24  O9  UNL     1      -7.948 -37.784  21.585  1.00  0.00    -0.358 OA
ATOM     25  H9  UNL     1      -8.694 -37.430  21.115  1.00  0.00     0.217 HD
ENDBRANCH  20  24
BRANCH  21  26
HETATM   26  O10 UNL     1      -9.245 -39.331  23.386  1.00  0.00    -0.356 OA
ATOM     27  H10 UNL     1     -10.164 -39.558  23.315  1.00  0.00     0.218 HD
ENDBRANCH  21  26
BRANCH  22  28
HETATM   28  O11 UNL     1      -8.809 -42.131  23.383  1.00  0.00    -0.358 OA
ATOM     29  H11 UNL     1      -8.582 -43.053  23.407  1.00  0.00     0.217 HD
ENDBRANCH  22  28
ENDBRANCH  15  18
ENDBRANCH  13  15
ENDBRANCH  10  13
ENDBRANCH   5  10
BRANCH   1  30
HETATM   30  C3  UNL     1      -0.257 -40.476  14.685  1.00  0.00     0.320 C 
HETATM   31  N2  UNL     1       0.547 -39.543  15.358  1.00  0.00    -0.311 N 
ATOM     32  H2  UNL     1       0.190 -39.197  16.248  1.00  0.00     0.170 HD
HETATM   33  O1  UNL     1       0.114 -40.946  13.587  1.00  0.00    -0.265 OA
BRANCH  31  34
HETATM   34  C2  UNL     1       1.790 -39.031  14.943  1.00  0.00     0.073 C 
HETATM   35  C1  UNL     1       1.972 -37.586  14.732  1.00  0.00     0.088 C 
HETATM   36  N1  UNL     1       2.796 -39.804  14.736  1.00  0.00    -0.389 N 
ATOM     37  H12 UNL     1       3.698 -39.433  14.435  1.00  0.00     0.157 HD
ATOM     38  H11 UNL     1       2.670 -40.806  14.882  1.00  0.00     0.157 HD
ENDBRANCH  31  34
ENDBRANCH   1  30
BRANCH   1  39
HETATM   39  O2  UNL     1      -1.872 -42.217  14.749  1.00  0.00    -0.333 OA
ATOM     40  H2  UNL     1      -2.496 -42.645  15.323  1.00  0.00     0.215 HD
ENDBRANCH   1  39
TORSDOF 12
ENDMDL
MODEL 5
REMARK VINA RESULT: -6.752595480      4.160      7.183
REMARK  12 active torsions:
REMARK  status: ('A' for Active; 'I' for Inactive)
REMARK    1  A    between atoms: C2_2  and  N2_6 
REMARK       I    between atoms: N2_6  and  C3_8 
REMARK    2  A    between atoms: C3_8  and  C4_10 
REMARK    3  A    between atoms: C4_10  and  O2_11 
REMARK    4  A    between atoms: C6_16  and  O5_17 
REMARK    5  A    between atoms: C6_16  and  C7_19 
REMARK    6  A    between atoms: C7_19  and  O6_20 
REMARK    7  A    between atoms: C7_19  and  N3_22 
REMARK    8  A    between atoms: N3_22  and  S1_24 
REMARK    9  A    between atoms: S1_24  and  C8_27 
REMARK   10  A    between atoms: C10_29  and  O9_30 
REMARK   11  A    between atoms: C11_32  and  O10_33 
REMARK   12  A    between atoms: C12_35  and  O11_36 
ROOT
HETATM    1  C4  UNL     1      -1.556 -40.865  15.215  1.00  0.00     0.466 C 
HETATM    2  O3  UNL     1      -2.623 -40.012  14.815  1.00  0.00    -0.244 OA
HETATM    3  C5  UNL     1      -3.030 -39.333  15.951  1.00  0.00     0.335 C 
HETATM    4  O4  UNL     1      -3.529 -38.182  15.894  1.00  0.00    -0.259 OA
HETATM    5  C6  UNL     1      -2.739 -40.243  17.069  1.00  0.00     0.398 C 
HETATM    6  N4  UNL     1      -1.546 -40.873  16.665  1.00  0.00     0.208 N 
HETATM    7  C14 UNL     1      -1.244 -42.135  17.228  1.00  0.00     0.323 C 
ENDROOT
BRANCH   5   8
HETATM    8  O5  UNL     1      -2.423 -39.428  18.182  1.00  0.00    -0.352 OA
ATOM      9  H5  UNL     1      -1.987 -39.988  18.814  1.00  0.00     0.213 HD
ENDBRANCH   5   8
BRANCH   5  10
HETATM   10  C7  UNL     1      -3.869 -41.114  17.476  1.00  0.00     0.305 C 
BRANCH  10  11
HETATM   11  O6  UNL     1      -4.557 -41.547  16.338  1.00  0.00    -0.371 OA
ATOM     12  H6  UNL     1      -5.323 -42.042  16.601  1.00  0.00     0.212 HD
ENDBRANCH  10  11
BRANCH  10  13
HETATM   13  N3  UNL     1      -4.752 -40.570  18.454  1.00  0.00    -0.283 N 
ATOM     14  H3  UNL     1      -4.938 -39.572  18.559  1.00  0.00     0.175 HD
BRANCH  13  15
HETATM   15  S1  UNL     1      -5.479 -41.806  19.454  1.00  0.00     0.261 S 
HETATM   16  O7  UNL     1      -6.251 -42.755  18.596  1.00  0.00    -0.200 OA
HETATM   17  O8  UNL     1      -4.457 -42.563  20.212  1.00  0.00    -0.200 OA
BRANCH  15  18
HETATM   18  C8  UNL     1      -6.597 -41.101  20.619  1.00  0.00     0.085 A 
HETATM   19  C9  UNL     1      -7.292 -41.841  21.538  1.00  0.00     0.064 A 
HETATM   20  C10 UNL     1      -8.169 -41.259  22.444  1.00  0.00     0.103 A 
HETATM   21  C11 UNL     1      -8.361 -39.885  22.434  1.00  0.00     0.132 A 
HETATM   22  C12 UNL     1      -7.677 -39.144  21.526  1.00  0.00     0.103 A 
HETATM   23  C13 UNL     1      -6.810 -39.741  20.634  1.00  0.00     0.064 A 
BRANCH  20  24
HETATM   24  O9  UNL     1      -8.839 -42.065  23.346  1.00  0.00    -0.358 OA
ATOM     25  H9  UNL     1      -8.406 -42.316  24.154  1.00  0.00     0.217 HD
ENDBRANCH  20  24
BRANCH  21  26
HETATM   26  O10 UNL     1      -9.251 -39.391  23.368  1.00  0.00    -0.356 OA
ATOM     27  H10 UNL     1      -9.686 -38.578  23.140  1.00  0.00     0.218 HD
ENDBRANCH  21  26
BRANCH  22  28
HETATM   28  O11 UNL     1      -7.869 -37.756  21.512  1.00  0.00    -0.358 OA
ATOM     29  H11 UNL     1      -8.010 -37.325  20.677  1.00  0.00     0.217 HD
ENDBRANCH  22  28
ENDBRANCH  15  18
ENDBRANCH  13  15
ENDBRANCH  10  13
ENDBRANCH   5  10
BRANCH   1  30
HETATM   30  C3  UNL     1      -0.260 -40.407  14.658  1.00  0.00     0.320 C 
HETATM   31  N2  UNL     1       0.571 -39.515  15.352  1.00  0.00    -0.311 N 
ATOM     32  H2  UNL     1       0.236 -39.198  16.262  1.00  0.00     0.170 HD
HETATM   33  O1  UNL     1       0.082 -40.840  13.536  1.00  0.00    -0.265 OA
BRANCH  31  34
HETATM   34  C2  UNL     1       1.815 -39.008  14.935  1.00  0.00     0.073 C 
HETATM   35  C1  UNL     1       2.008 -37.562  14.742  1.00  0.00     0.088 C 
HETATM   36  N1  UNL     1       2.813 -39.786  14.709  1.00  0.00    -0.389 N 
ATOM     37  H12 UNL     1       3.716 -39.418  14.406  1.00  0.00     0.157 HD
ATOM     38  H11 UNL     1       2.680 -40.788  14.842  1.00  0.00     0.157 HD
ENDBRANCH  31  34
ENDBRANCH   1  30
BRANCH   1  39
HETATM   39  O2  UNL     1      -1.890 -42.134  14.706  1.00  0.00    -0.333 OA
ATOM     40  H2  UNL     1      -2.759 -42.389  14.991  1.00  0.00     0.215 HD
ENDBRANCH   1  39
TORSDOF 12
ENDMDL
