MODEL 1
REMARK VINA RESULT: -7.213195914      0.000      0.000
REMARK  11 active torsions:
REMARK  status: ('A' for Active; 'I' for Inactive)
REMARK    1  A    between atoms: N1_2  and  C3_4 
REMARK    2  A    between atoms: C4_7  and  N3_8 
REMARK    3  A    between atoms: N3_8  and  N4_10 
REMARK    4  A    between atoms: N4_10  and  C5_12 
REMARK    5  A    between atoms: C6_13  and  O1_14 
REMARK    6  A    between atoms: N5_17  and  O2_19 
REMARK    7  A    between atoms: O2_19  and  C8_20 
REMARK    8  A    between atoms: C11_28  and  O4_29 
REMARK    9  A    between atoms: C12_31  and  O5_33 
REMARK   10  A    between atoms: C14_35  and  N8_36 
REMARK   11  A    between atoms: C15_39  and  N9_40 
ROOT
HETATM    1  C5  UNL     1       0.338 -38.426  13.724  1.00  0.00     0.170 C 
HETATM    2  C6  UNL     1      -0.715 -39.511  13.830  1.00  0.00     0.195 C 
HETATM    3  C7  UNL     1      -1.456 -39.208  15.107  1.00  0.00     0.072 C 
HETATM    4  N5  UNL     1      -2.672 -39.456  15.322  1.00  0.00    -0.267 N 
ATOM      5  H5  UNL     1      -3.183 -39.896  14.557  1.00  0.00     0.194 HD
HETATM    6  C11 UNL     1      -0.453 -38.581  15.978  1.00  0.00     0.204 C 
HETATM    7  C12 UNL     1       0.322 -37.695  15.023  1.00  0.00     0.110 C 
HETATM    8  C13 UNL     1      -0.315 -36.323  14.944  1.00  0.00     0.051 C 
ENDROOT
BRANCH   1   9
HETATM    9  N4  UNL     1       0.066 -37.651  12.578  1.00  0.00    -0.324 N 
ATOM     10  H4  UNL     1      -0.865 -37.258  12.448  1.00  0.00     0.180 HD
BRANCH   9  11
HETATM   11  N3  UNL     1       1.018 -37.425  11.653  1.00  0.00    -0.287 N 
ATOM     12  H3  UNL     1       1.190 -38.146  10.952  1.00  0.00     0.188 HD
BRANCH  11  13
HETATM   13  C4  UNL     1       1.798 -36.235  11.599  1.00  0.00     0.161 A 
HETATM   14  N2  UNL     1       3.106 -36.200  11.863  1.00  0.00    -0.305 N 
HETATM   15  C3  UNL     1       3.772 -35.037  11.779  1.00  0.00     0.229 A 
ATOM     16  H2  UNL     1       3.598 -37.053  12.129  1.00  0.00     0.171 HD
HETATM   17  O8  UNL     1       3.158 -33.914  11.439  1.00  0.00    -0.260 OA
HETATM   18  C15 UNL     1       1.877 -33.882  11.169  1.00  0.00     0.182 A 
HETATM   19  C14 UNL     1       1.174 -35.060  11.247  1.00  0.00     0.198 A 
BRANCH  15  20
HETATM   20  N1  UNL     1       5.163 -34.944  12.049  1.00  0.00    -0.356 N 
HETATM   21  C1  UNL     1       5.705 -35.572  13.223  1.00  0.00     0.152 C 
HETATM   22  C2  UNL     1       6.021 -34.225  11.144  1.00  0.00     0.152 C 
ENDBRANCH  15  20
BRANCH  18  23
HETATM   23  N9  UNL     1       1.286 -32.759  10.832  1.00  0.00    -0.378 N 
ATOM     24  H92 UNL     1       0.570 -32.740  10.105  1.00  0.00     0.158 HD
ATOM     25  H91 UNL     1       1.526 -31.878  11.288  1.00  0.00     0.158 HD
ENDBRANCH  18  23
BRANCH  19  26
HETATM   26  N8  UNL     1      -0.222 -34.999  10.945  1.00  0.00    -0.107 N 
HETATM   27  O6  UNL     1      -1.039 -34.257  11.470  1.00  0.00    -0.531 OA
HETATM   28  O7  UNL     1      -0.658 -35.876   9.953  1.00  0.00    -0.531 OA
ENDBRANCH  19  26
ENDBRANCH  11  13
ENDBRANCH   9  11
ENDBRANCH   1   9
BRANCH   2  29
HETATM   29  O1  UNL     1      -1.542 -39.588  12.738  1.00  0.00    -0.387 OA
ATOM     30  H1  UNL     1      -2.458 -39.703  12.958  1.00  0.00     0.210 HD
ENDBRANCH   2  29
BRANCH   7  31
HETATM   31  O5  UNL     1       1.622 -37.581  15.571  1.00  0.00    -0.385 OA
ATOM     32  H5  UNL     1       1.596 -37.479  16.515  1.00  0.00     0.210 HD
ENDBRANCH   7  31
BRANCH   6  33
HETATM   33  O4  UNL     1      -0.996 -37.842  17.030  1.00  0.00    -0.387 OA
ATOM     34  H4  UNL     1      -1.139 -38.345  17.823  1.00  0.00     0.210 HD
ENDBRANCH   6  33
BRANCH   4  35
HETATM   35  O2  UNL     1      -3.372 -39.208  16.438  1.00  0.00    -0.253 OA
BRANCH  35  36
HETATM   36  C8  UNL     1      -3.496 -40.231  17.424  1.00  0.00     0.272 C 
HETATM   37  C9  UNL     1      -3.302 -41.607  16.891  1.00  0.00     0.180 C 
HETATM   38  N6  UNL     1      -2.087 -42.086  17.552  1.00  0.00    -0.339 N 
HETATM   39  C10 UNL     1      -1.875 -41.264  18.704  1.00  0.00     0.318 C 
ATOM     40  H6  UNL     1      -1.500 -42.863  17.248  1.00  0.00     0.164 HD
HETATM   41  O3  UNL     1      -1.252 -41.584  19.730  1.00  0.00    -0.247 OA
HETATM   42  N7  UNL     1      -2.498 -40.022  18.466  1.00  0.00    -0.313 N 
ATOM     43  H7  UNL     1      -2.290 -39.141  18.936  1.00  0.00     0.167 HD
ENDBRANCH  35  36
ENDBRANCH   4  35
TORSDOF 11
ENDMDL
MODEL 2
REMARK VINA RESULT: -6.945399853      3.365      5.600
REMARK  11 active torsions:
REMARK  status: ('A' for Active; 'I' for Inactive)
REMARK    1  A    between atoms: N1_2  and  C3_4 
REMARK    2  A    between atoms: C4_7  and  N3_8 
REMARK    3  A    between atoms: N3_8  and  N4_10 
REMARK    4  A    between atoms: N4_10  and  C5_12 
REMARK    5  A    between atoms: C6_13  and  O1_14 
REMARK    6  A    between atoms: N5_17  and  O2_19 
REMARK    7  A    between atoms: O2_19  and  C8_20 
REMARK    8  A    between atoms: C11_28  and  O4_29 
REMARK    9  A    between atoms: C12_31  and  O5_33 
REMARK   10  A    between atoms: C14_35  and  N8_36 
REMARK   11  A    between atoms: C15_39  and  N9_40 
ROOT
HETATM    1  C5  UNL     1      -2.021 -41.496  17.023  1.00  0.00     0.170 C 
HETATM    2  C6  UNL     1      -3.467 -41.150  16.725  1.00  0.00     0.195 C 
HETATM    3  C7  UNL     1      -4.179 -41.294  18.045  1.00  0.00     0.072 C 
HETATM    4  N5  UNL     1      -5.182 -40.626  18.410  1.00  0.00    -0.267 N 
ATOM      5  H5  UNL     1      -5.526 -39.932  17.746  1.00  0.00     0.194 HD
HETATM    6  C11 UNL     1      -3.440 -42.348  18.753  1.00  0.00     0.204 C 
HETATM    7  C12 UNL     1      -1.996 -42.040  18.411  1.00  0.00     0.110 C 
HETATM    8  C13 UNL     1      -1.406 -41.087  19.429  1.00  0.00     0.051 C 
ENDROOT
BRANCH   1   9
HETATM    9  N4  UNL     1      -1.233 -40.350  16.796  1.00  0.00    -0.324 N 
ATOM     10  H4  UNL     1      -0.946 -39.773  17.586  1.00  0.00     0.180 HD
BRANCH   9  11
HETATM   11  N3  UNL     1      -0.854 -40.005  15.551  1.00  0.00    -0.287 N 
ATOM     12  H3  UNL     1      -1.409 -40.347  14.766  1.00  0.00     0.188 HD
BRANCH  11  13
HETATM   13  C4  UNL     1       0.279 -39.190  15.268  1.00  0.00     0.161 A 
HETATM   14  N2  UNL     1       1.430 -39.669  14.793  1.00  0.00    -0.305 N 
HETATM   15  C3  UNL     1       2.449 -38.830  14.542  1.00  0.00     0.229 A 
ATOM     16  H2  UNL     1       1.537 -40.669  14.621  1.00  0.00     0.171 HD
HETATM   17  O8  UNL     1       2.338 -37.528  14.758  1.00  0.00    -0.260 OA
HETATM   18  C15 UNL     1       1.236 -36.997  15.224  1.00  0.00     0.182 A 
HETATM   19  C14 UNL     1       0.179 -37.835  15.487  1.00  0.00     0.198 A 
BRANCH  15  20
HETATM   20  N1  UNL     1       3.694 -39.287  14.036  1.00  0.00    -0.356 N 
HETATM   21  C1  UNL     1       4.716 -38.337  13.691  1.00  0.00     0.152 C 
HETATM   22  C2  UNL     1       3.927 -40.699  13.876  1.00  0.00     0.152 C 
ENDBRANCH  15  20
BRANCH  18  23
HETATM   23  N9  UNL     1       1.145 -35.703  15.430  1.00  0.00    -0.378 N 
ATOM     24  H92 UNL     1       0.838 -35.074  14.688  1.00  0.00     0.158 HD
ATOM     25  H91 UNL     1       1.379 -35.295  16.335  1.00  0.00     0.158 HD
ENDBRANCH  18  23
BRANCH  19  26
HETATM   26  N8  UNL     1      -1.013 -37.230  15.992  1.00  0.00    -0.107 N 
HETATM   27  O6  UNL     1      -2.120 -37.283  15.475  1.00  0.00    -0.531 OA
HETATM   28  O7  UNL     1      -0.868 -36.526  17.186  1.00  0.00    -0.531 OA
ENDBRANCH  19  26
ENDBRANCH  11  13
ENDBRANCH   9  11
ENDBRANCH   1   9
BRANCH   2  29
HETATM   29  O1  UNL     1      -3.633 -39.911  16.160  1.00  0.00    -0.387 OA
ATOM     30  H1  UNL     1      -4.198 -39.334  16.661  1.00  0.00     0.210 HD
ENDBRANCH   2  29
BRANCH   7  31
HETATM   31  O5  UNL     1      -1.312 -43.278  18.471  1.00  0.00    -0.385 OA
ATOM     32  H5  UNL     1      -1.723 -43.931  17.918  1.00  0.00     0.210 HD
ENDBRANCH   7  31
BRANCH   6  33
HETATM   33  O4  UNL     1      -3.645 -42.358  20.133  1.00  0.00    -0.387 OA
ATOM     34  H4  UNL     1      -3.033 -42.905  20.612  1.00  0.00     0.210 HD
ENDBRANCH   6  33
BRANCH   4  35
HETATM   35  O2  UNL     1      -5.850 -40.719  19.569  1.00  0.00    -0.253 OA
BRANCH  35  36
HETATM   36  C8  UNL     1      -7.088 -40.028  19.717  1.00  0.00     0.272 C 
HETATM   37  C9  UNL     1      -8.192 -40.875  20.245  1.00  0.00     0.180 C 
HETATM   38  N6  UNL     1      -8.510 -40.290  21.548  1.00  0.00    -0.339 N 
HETATM   39  C10 UNL     1      -7.982 -38.960  21.560  1.00  0.00     0.318 C 
ATOM     40  H6  UNL     1      -9.015 -40.746  22.308  1.00  0.00     0.164 HD
HETATM   41  O3  UNL     1      -8.390 -38.014  22.254  1.00  0.00    -0.247 OA
HETATM   42  N7  UNL     1      -6.913 -38.915  20.642  1.00  0.00    -0.313 N 
ATOM     43  H7  UNL     1      -6.157 -38.230  20.627  1.00  0.00     0.167 HD
ENDBRANCH  35  36
ENDBRANCH   4  35
TORSDOF 11
ENDMDL
MODEL 3
REMARK VINA RESULT: -6.726986297      2.961      5.256
REMARK  11 active torsions:
REMARK  status: ('A' for Active; 'I' for Inactive)
REMARK    1  A    between atoms: N1_2  and  C3_4 
REMARK    2  A    between atoms: C4_7  and  N3_8 
REMARK    3  A    between atoms: N3_8  and  N4_10 
REMARK    4  A    between atoms: N4_10  and  C5_12 
REMARK    5  A    between atoms: C6_13  and  O1_14 
REMARK    6  A    between atoms: N5_17  and  O2_19 
REMARK    7  A    between atoms: O2_19  and  C8_20 
REMARK    8  A    between atoms: C11_28  and  O4_29 
REMARK    9  A    between atoms: C12_31  and  O5_33 
REMARK   10  A    between atoms: C14_35  and  N8_36 
REMARK   11  A    between atoms: C15_39  and  N9_40 
ROOT
HETATM    1  C5  UNL     1      -1.932 -41.520  16.578  1.00  0.00     0.170 C 
HETATM    2  C6  UNL     1      -3.376 -41.559  16.116  1.00  0.00     0.195 C 
HETATM    3  C7  UNL     1      -4.160 -41.985  17.329  1.00  0.00     0.072 C 
HETATM    4  N5  UNL     1      -5.342 -41.642  17.592  1.00  0.00    -0.267 N 
ATOM      5  H5  UNL     1      -5.791 -41.022  16.918  1.00  0.00     0.194 HD
HETATM    6  C11 UNL     1      -3.238 -42.847  18.083  1.00  0.00     0.204 C 
HETATM    7  C12 UNL     1      -1.908 -42.135  17.936  1.00  0.00     0.110 C 
HETATM    8  C13 UNL     1      -1.722 -41.133  19.056  1.00  0.00     0.051 C 
ENDROOT
BRANCH   1   9
HETATM    9  N4  UNL     1      -1.474 -40.189  16.496  1.00  0.00    -0.324 N 
ATOM     10  H4  UNL     1      -2.143 -39.423  16.560  1.00  0.00     0.180 HD
BRANCH   9  11
HETATM   11  N3  UNL     1      -0.166 -39.916  16.333  1.00  0.00    -0.287 N 
ATOM     12  H3  UNL     1       0.496 -40.313  17.001  1.00  0.00     0.188 HD
BRANCH  11  13
HETATM   13  C4  UNL     1       0.346 -39.104  15.281  1.00  0.00     0.161 A 
HETATM   14  N2  UNL     1       1.222 -39.541  14.374  1.00  0.00    -0.305 N 
HETATM   15  C3  UNL     1       1.647 -38.713  13.405  1.00  0.00     0.229 A 
ATOM     16  H2  UNL     1       1.568 -40.500  14.416  1.00  0.00     0.171 HD
HETATM   17  O8  UNL     1       1.216 -37.464  13.328  1.00  0.00    -0.260 OA
HETATM   18  C15 UNL     1       0.357 -36.975  14.188  1.00  0.00     0.182 A 
HETATM   19  C14 UNL     1      -0.093 -37.803  15.188  1.00  0.00     0.198 A 
BRANCH  15  20
HETATM   20  N1  UNL     1       2.578 -39.127  12.416  1.00  0.00    -0.356 N 
HETATM   21  C1  UNL     1       3.065 -40.479  12.415  1.00  0.00     0.152 C 
HETATM   22  C2  UNL     1       3.025 -38.190  11.418  1.00  0.00     0.152 C 
ENDBRANCH  15  20
BRANCH  18  23
HETATM   23  N9  UNL     1      -0.059 -35.733  14.094  1.00  0.00    -0.378 N 
ATOM     24  H92 UNL     1      -0.462 -35.253  14.899  1.00  0.00     0.158 HD
ATOM     25  H91 UNL     1       0.009 -35.218  13.217  1.00  0.00     0.158 HD
ENDBRANCH  18  23
BRANCH  19  26
HETATM   26  N8  UNL     1      -1.032 -37.247  16.111  1.00  0.00    -0.107 N 
HETATM   27  O6  UNL     1      -0.759 -36.572  17.093  1.00  0.00    -0.531 OA
HETATM   28  O7  UNL     1      -2.372 -37.515  15.837  1.00  0.00    -0.531 OA
ENDBRANCH  19  26
ENDBRANCH  11  13
ENDBRANCH   9  11
ENDBRANCH   1   9
BRANCH   2  29
HETATM   29  O1  UNL     1      -3.818 -40.374  15.582  1.00  0.00    -0.387 OA
ATOM     30  H1  UNL     1      -4.755 -40.347  15.435  1.00  0.00     0.210 HD
ENDBRANCH   2  29
BRANCH   7  31
HETATM   31  O5  UNL     1      -0.918 -43.141  18.033  1.00  0.00    -0.385 OA
ATOM     32  H5  UNL     1      -0.722 -43.351  18.939  1.00  0.00     0.210 HD
ENDBRANCH   7  31
BRANCH   6  33
HETATM   33  O4  UNL     1      -3.582 -43.011  19.425  1.00  0.00    -0.387 OA
ATOM     34  H4  UNL     1      -3.537 -42.211  19.937  1.00  0.00     0.210 HD
ENDBRANCH   6  33
BRANCH   4  35
HETATM   35  O2  UNL     1      -6.080 -41.996  18.654  1.00  0.00    -0.253 OA
BRANCH  35  36
HETATM   36  C8  UNL     1      -7.099 -41.113  19.120  1.00  0.00     0.272 C 
HETATM   37  C9  UNL     1      -7.654 -41.482  20.451  1.00  0.00     0.180 C 
HETATM   38  N6  UNL     1      -7.267 -40.376  21.328  1.00  0.00    -0.339 N 
HETATM   39  C10 UNL     1      -6.944 -39.261  20.491  1.00  0.00     0.318 C 
ATOM     40  H6  UNL     1      -7.233 -40.396  22.347  1.00  0.00     0.164 HD
HETATM   41  O3  UNL     1      -6.996 -38.062  20.813  1.00  0.00    -0.247 OA
HETATM   42  N7  UNL     1      -6.555 -39.765  19.233  1.00  0.00    -0.313 N 
ATOM     43  H7  UNL     1      -5.996 -39.278  18.533  1.00  0.00     0.167 HD
ENDBRANCH  35  36
ENDBRANCH   4  35
TORSDOF 11
ENDMDL
MODEL 4
REMARK VINA RESULT: -6.716081175      2.413      8.512
REMARK  11 active torsions:
REMARK  status: ('A' for Active; 'I' for Inactive)
REMARK    1  A    between atoms: N1_2  and  C3_4 
REMARK    2  A    between atoms: C4_7  and  N3_8 
REMARK    3  A    between atoms: N3_8  and  N4_10 
REMARK    4  A    between atoms: N4_10  and  C5_12 
REMARK    5  A    between atoms: C6_13  and  O1_14 
REMARK    6  A    between atoms: N5_17  and  O2_19 
REMARK    7  A    between atoms: O2_19  and  C8_20 
REMARK    8  A    between atoms: C11_28  and  O4_29 
REMARK    9  A    between atoms: C12_31  and  O5_33 
REMARK   10  A    between atoms: C14_35  and  N8_36 
REMARK   11  A    between atoms: C15_39  and  N9_40 
ROOT
HETATM    1  C5  UNL     1       0.878 -37.171  13.375  1.00  0.00     0.170 C 
HETATM    2  C6  UNL     1       1.089 -37.411  11.892  1.00  0.00     0.195 C 
HETATM    3  C7  UNL     1       1.803 -36.180  11.399  1.00  0.00     0.072 C 
HETATM    4  N5  UNL     1       2.631 -36.148  10.450  1.00  0.00    -0.267 N 
ATOM      5  H5  UNL     1       2.823 -37.037   9.990  1.00  0.00     0.194 HD
HETATM    6  C11 UNL     1       1.319 -35.097  12.265  1.00  0.00     0.204 C 
HETATM    7  C12 UNL     1       1.258 -35.752  13.630  1.00  0.00     0.110 C 
HETATM    8  C13 UNL     1       2.581 -35.594  14.349  1.00  0.00     0.051 C 
ENDROOT
BRANCH   1   9
HETATM    9  N4  UNL     1       1.608 -38.143  14.091  1.00  0.00    -0.324 N 
ATOM     10  H4  UNL     1       2.420 -38.581  13.657  1.00  0.00     0.180 HD
BRANCH   9  11
HETATM   11  N3  UNL     1       1.247 -38.500  15.337  1.00  0.00    -0.287 N 
ATOM     12  H3  UNL     1       1.739 -38.073  16.123  1.00  0.00     0.188 HD
BRANCH  11  13
HETATM   13  C4  UNL     1       0.217 -39.442  15.621  1.00  0.00     0.161 A 
HETATM   14  N2  UNL     1       0.388 -40.763  15.552  1.00  0.00    -0.305 N 
HETATM   15  C3  UNL     1      -0.634 -41.584  15.846  1.00  0.00     0.229 A 
ATOM     16  H2  UNL     1       1.291 -41.149  15.276  1.00  0.00     0.171 HD
HETATM   17  O8  UNL     1      -1.817 -41.111  16.205  1.00  0.00    -0.260 OA
HETATM   18  C15 UNL     1      -2.049 -39.824  16.291  1.00  0.00     0.182 A 
HETATM   19  C14 UNL     1      -1.019 -38.964  15.995  1.00  0.00     0.198 A 
BRANCH  15  20
HETATM   20  N1  UNL     1      -0.505 -42.997  15.789  1.00  0.00    -0.356 N 
HETATM   21  C1  UNL     1      -1.673 -43.813  15.598  1.00  0.00     0.152 C 
HETATM   22  C2  UNL     1       0.794 -43.603  15.919  1.00  0.00     0.152 C 
ENDBRANCH  15  20
BRANCH  18  23
HETATM   23  N9  UNL     1      -3.229 -39.374  16.650  1.00  0.00    -0.378 N 
ATOM     24  H92 UNL     1      -3.334 -38.445  17.059  1.00  0.00     0.158 HD
ATOM     25  H91 UNL     1      -4.070 -39.939  16.528  1.00  0.00     0.158 HD
ENDBRANCH  18  23
BRANCH  19  26
HETATM   26  N8  UNL     1      -1.297 -37.566  16.099  1.00  0.00    -0.107 N 
HETATM   27  O6  UNL     1      -1.983 -36.911  15.327  1.00  0.00    -0.531 OA
HETATM   28  O7  UNL     1      -0.722 -36.921  17.193  1.00  0.00    -0.531 OA
ENDBRANCH  19  26
ENDBRANCH  11  13
ENDBRANCH   9  11
ENDBRANCH   1   9
BRANCH   2  29
HETATM   29  O1  UNL     1       1.764 -38.572  11.610  1.00  0.00    -0.387 OA
ATOM     30  H1  UNL     1       1.197 -39.324  11.488  1.00  0.00     0.210 HD
ENDBRANCH   2  29
BRANCH   7  31
HETATM   31  O5  UNL     1       0.247 -35.065  14.344  1.00  0.00    -0.385 OA
ATOM     32  H5  UNL     1       0.238 -35.312  15.261  1.00  0.00     0.210 HD
ENDBRANCH   7  31
BRANCH   6  33
HETATM   33  O4  UNL     1       2.141 -33.969  12.279  1.00  0.00    -0.387 OA
ATOM     34  H4  UNL     1       2.470 -33.740  13.140  1.00  0.00     0.210 HD
ENDBRANCH   6  33
BRANCH   4  35
HETATM   35  O2  UNL     1       3.289 -35.080   9.975  1.00  0.00    -0.253 OA
BRANCH  35  36
HETATM   36  C8  UNL     1       2.689 -34.294   8.948  1.00  0.00     0.272 C 
HETATM   37  C9  UNL     1       1.249 -34.595   8.721  1.00  0.00     0.180 C 
HETATM   38  N6  UNL     1       0.554 -33.365   9.105  1.00  0.00    -0.339 N 
HETATM   39  C10 UNL     1       1.518 -32.308   9.092  1.00  0.00     0.318 C 
ATOM     40  H6  UNL     1      -0.435 -33.279   9.338  1.00  0.00     0.164 HD
HETATM   41  O3  UNL     1       1.280 -31.100   8.928  1.00  0.00    -0.247 OA
HETATM   42  N7  UNL     1       2.789 -32.882   9.300  1.00  0.00    -0.313 N 
ATOM     43  H7  UNL     1       3.623 -32.400   9.634  1.00  0.00     0.167 HD
ENDBRANCH  35  36
ENDBRANCH   4  35
TORSDOF 11
ENDMDL
MODEL 5
REMARK VINA RESULT: -6.659457726      2.216      8.131
REMARK  11 active torsions:
REMARK  status: ('A' for Active; 'I' for Inactive)
REMARK    1  A    between atoms: N1_2  and  C3_4 
REMARK    2  A    between atoms: C4_7  and  N3_8 
REMARK    3  A    between atoms: N3_8  and  N4_10 
REMARK    4  A    between atoms: N4_10  and  C5_12 
REMARK    5  A    between atoms: C6_13  and  O1_14 
REMARK    6  A    between atoms: N5_17  and  O2_19 
REMARK    7  A    between atoms: O2_19  and  C8_20 
REMARK    8  A    between atoms: C11_28  and  O4_29 
REMARK    9  A    between atoms: C12_31  and  O5_33 
REMARK   10  A    between atoms: C14_35  and  N8_36 
REMARK   11  A    between atoms: C15_39  and  N9_40 
ROOT
HETATM    1  C5  UNL     1       2.548 -37.943  14.030  1.00  0.00     0.170 C 
HETATM    2  C6  UNL     1       2.352 -36.503  14.463  1.00  0.00     0.195 C 
HETATM    3  C7  UNL     1       2.462 -35.700  13.193  1.00  0.00     0.072 C 
HETATM    4  N5  UNL     1       1.860 -34.619  12.959  1.00  0.00    -0.267 N 
ATOM      5  H5  UNL     1       1.249 -34.274  13.699  1.00  0.00     0.194 HD
HETATM    6  C11 UNL     1       3.393 -36.462  12.350  1.00  0.00     0.204 C 
HETATM    7  C12 UNL     1       2.985 -37.900  12.606  1.00  0.00     0.110 C 
HETATM    8  C13 UNL     1       1.912 -38.324  11.625  1.00  0.00     0.051 C 
ENDROOT
BRANCH   1   9
HETATM    9  N4  UNL     1       1.356 -38.651  14.288  1.00  0.00    -0.324 N 
ATOM     10  H4  UNL     1       0.720 -38.860  13.519  1.00  0.00     0.180 HD
BRANCH   9  11
HETATM   11  N3  UNL     1       1.046 -39.054  15.535  1.00  0.00    -0.287 N 
ATOM     12  H3  UNL     1       1.678 -38.800  16.294  1.00  0.00     0.188 HD
BRANCH  11  13
HETATM   13  C4  UNL     1      -0.115 -39.816  15.851  1.00  0.00     0.161 A 
HETATM   14  N2  UNL     1      -0.127 -41.150  15.908  1.00  0.00    -0.305 N 
HETATM   15  C3  UNL     1      -1.263 -41.793  16.226  1.00  0.00     0.229 A 
ATOM     16  H2  UNL     1       0.723 -41.678  15.712  1.00  0.00     0.171 HD
HETATM   17  O8  UNL     1      -2.381 -41.131  16.484  1.00  0.00    -0.260 OA
HETATM   18  C15 UNL     1      -2.434 -39.823  16.443  1.00  0.00     0.182 A 
HETATM   19  C14 UNL     1      -1.284 -39.142  16.122  1.00  0.00     0.198 A 
BRANCH  15  20
HETATM   20  N1  UNL     1      -1.331 -43.209  16.301  1.00  0.00    -0.356 N 
HETATM   21  C1  UNL     1      -2.586 -43.876  16.087  1.00  0.00     0.152 C 
HETATM   22  C2  UNL     1      -0.141 -43.968  16.586  1.00  0.00     0.152 C 
ENDBRANCH  15  20
BRANCH  18  23
HETATM   23  N9  UNL     1      -3.552 -39.185  16.703  1.00  0.00    -0.378 N 
ATOM     24  H92 UNL     1      -3.761 -38.858  17.647  1.00  0.00     0.158 HD
ATOM     25  H91 UNL     1      -4.237 -39.000  15.971  1.00  0.00     0.158 HD
ENDBRANCH  18  23
BRANCH  19  26
HETATM   26  N8  UNL     1      -1.368 -37.716  16.087  1.00  0.00    -0.107 N 
HETATM   27  O6  UNL     1      -1.832 -37.046  15.176  1.00  0.00    -0.531 OA
HETATM   28  O7  UNL     1      -0.870 -37.060  17.211  1.00  0.00    -0.531 OA
ENDBRANCH  19  26
ENDBRANCH  11  13
ENDBRANCH   9  11
ENDBRANCH   1   9
BRANCH   2  29
HETATM   29  O1  UNL     1       1.177 -36.282  15.136  1.00  0.00    -0.387 OA
ATOM     30  H1  UNL     1       1.193 -35.512  15.691  1.00  0.00     0.210 HD
ENDBRANCH   2  29
BRANCH   7  31
HETATM   31  O5  UNL     1       4.150 -38.675  12.396  1.00  0.00    -0.385 OA
ATOM     32  H5  UNL     1       4.902 -38.303  12.841  1.00  0.00     0.210 HD
ENDBRANCH   7  31
BRANCH   6  33
HETATM   33  O4  UNL     1       3.320 -36.147  10.993  1.00  0.00    -0.387 OA
ATOM     34  H4  UNL     1       4.157 -36.168  10.544  1.00  0.00     0.210 HD
ENDBRANCH   6  33
BRANCH   4  35
HETATM   35  O2  UNL     1       1.927 -33.869  11.849  1.00  0.00    -0.253 OA
BRANCH  35  36
HETATM   36  C8  UNL     1       0.875 -33.950  10.890  1.00  0.00     0.272 C 
HETATM   37  C9  UNL     1       1.349 -34.014   9.480  1.00  0.00     0.180 C 
HETATM   38  N6  UNL     1       0.934 -35.339   9.015  1.00  0.00    -0.339 N 
HETATM   39  C10 UNL     1      -0.092 -35.799   9.900  1.00  0.00     0.318 C 
ATOM     40  H6  UNL     1       1.307 -35.840   8.209  1.00  0.00     0.164 HD
HETATM   41  O3  UNL     1      -0.980 -36.625   9.628  1.00  0.00    -0.247 OA
HETATM   42  N7  UNL     1       0.085 -35.149  11.139  1.00  0.00    -0.313 N 
ATOM     43  H7  UNL     1      -0.273 -35.461  12.042  1.00  0.00     0.167 HD
ENDBRANCH  35  36
ENDBRANCH   4  35
TORSDOF 11
ENDMDL
