MODEL 1
REMARK VINA RESULT: -6.939593396      0.000      0.000
REMARK  12 active torsions:
REMARK  status: ('A' for Active; 'I' for Inactive)
REMARK    1  A    between atoms: C2_2  and  N1_3 
REMARK    2  A    between atoms: C2_2  and  C12_30 
REMARK    3  A    between atoms: N1_3  and  N2_5 
REMARK    4  A    between atoms: C3_6  and  C4_7 
REMARK    5  A    between atoms: C6_12  and  N5_13 
REMARK    6  A    between atoms: C7_18  and  N7_19 
REMARK    7  A    between atoms: C9_23  and  O1_24 
REMARK    8  A    between atoms: C12_30  and  C13_32 
REMARK    9  A    between atoms: C13_32  and  O4_33 
REMARK   10  A    between atoms: C13_32  and  C14_35 
REMARK   11  A    between atoms: C14_35  and  N10_36 
REMARK   12  A    between atoms: C14_35  and  C15_40 
ROOT
HETATM    1  N7  UNL     1       4.153 -34.641  10.550  1.00  0.00    -0.278 N 
ATOM      2  H7  UNL     1       4.389 -35.267  11.320  1.00  0.00     0.179 HD
HETATM    3  C8  UNL     1       5.138 -34.221   9.653  1.00  0.00     0.183 C 
HETATM    4  N8  UNL     1       5.946 -33.879   8.893  1.00  0.00    -0.172 NA
ENDROOT
BRANCH   1   5
HETATM    5  C7  UNL     1       2.948 -34.229  10.394  1.00  0.00     0.146 A 
HETATM    6  C4  UNL     1       1.897 -35.029  10.835  1.00  0.00     0.084 A 
HETATM    7  C5  UNL     1       0.633 -34.530  10.535  1.00  0.00     0.148 A 
HETATM    8  N3  UNL     1      -0.519 -35.264  10.954  1.00  0.00    -0.081 NA
HETATM    9  N4  UNL     1       0.478 -33.380   9.881  1.00  0.00    -0.178 N 
HETATM   10  C6  UNL     1       1.497 -32.615   9.464  1.00  0.00     0.678 A 
ATOM     11  H4  UNL     1      -0.471 -33.063   9.686  1.00  0.00     0.185 HD
HETATM   12  N6  UNL     1       2.731 -33.059   9.732  1.00  0.00    -0.175 N 
ATOM     13  H6  UNL     1       3.532 -32.505   9.430  1.00  0.00     0.186 HD
BRANCH   6  14
HETATM   14  C3  UNL     1       2.074 -36.364  11.398  1.00  0.00     0.129 A 
HETATM   15  N2  UNL     1       2.212 -36.809  12.629  1.00  0.00    -0.204 N 
HETATM   16  C11 UNL     1       2.307 -38.204  12.567  1.00  0.00     0.349 A 
HETATM   17  N9  UNL     1       2.221 -38.617  11.312  1.00  0.00    -0.281 N 
HETATM   18  O2  UNL     1       2.453 -38.943  13.564  1.00  0.00    -0.244 OA
HETATM   19  C9  UNL     1       2.077 -37.517  10.577  1.00  0.00     0.176 A 
HETATM   20  C10 UNL     1       2.272 -40.012  10.822  1.00  0.00     0.163 C 
BRANCH  15  21
HETATM   21  N1  UNL     1       2.090 -36.173  13.866  1.00  0.00    -0.314 N 
ATOM     22  H1  UNL     1       2.773 -36.463  14.566  1.00  0.00     0.181 HD
BRANCH  21  23
HETATM   23  C2  UNL     1       1.175 -35.192  14.304  1.00  0.00     0.168 C 
HETATM   24  C1  UNL     1       1.844 -34.433  15.474  1.00  0.00     0.042 C 
BRANCH  23  25
HETATM   25  C12 UNL     1      -0.054 -35.869  14.835  1.00  0.00     0.181 C 
HETATM   26  O3  UNL     1      -1.119 -35.586  14.347  1.00  0.00    -0.293 OA
BRANCH  25  27
HETATM   27  C13 UNL     1       0.001 -36.866  15.927  1.00  0.00     0.228 C 
BRANCH  27  28
HETATM   28  O4  UNL     1      -0.589 -36.389  17.092  1.00  0.00    -0.385 OA
ATOM     29  H4  UNL     1      -1.163 -37.035  17.488  1.00  0.00     0.210 HD
ENDBRANCH  27  28
BRANCH  27  30
HETATM   30  C14 UNL     1      -0.567 -38.164  15.439  1.00  0.00     0.300 C 
BRANCH  30  31
HETATM   31  N10 UNL     1       0.411 -39.204  15.660  1.00  0.00    -0.065 N 
ATOM     32 3H10 UNL     1       0.976 -39.039  16.493  1.00  0.00     0.275 HD
ATOM     33 2H10 UNL     1      -0.012 -40.085  15.951  1.00  0.00     0.275 HD
ATOM     34 1H10 UNL     1       0.976 -39.301  14.816  1.00  0.00     0.275 HD
ENDBRANCH  30  31
BRANCH  30  35
HETATM   35  C15 UNL     1      -1.855 -38.514  16.095  1.00  0.00     0.230 C 
HETATM   36  O5  UNL     1      -2.846 -37.860  15.819  1.00  0.00    -0.282 OA
HETATM   37  S1  UNL     1      -1.928 -39.864  17.258  1.00  0.00    -0.009 SA
ENDBRANCH  30  35
ENDBRANCH  27  30
ENDBRANCH  25  27
ENDBRANCH  23  25
ENDBRANCH  21  23
ENDBRANCH  15  21
BRANCH  19  38
HETATM   38  O1  UNL     1       1.948 -37.481   9.190  1.00  0.00    -0.344 OA
ATOM     39  H1  UNL     1       1.148 -37.705   8.728  1.00  0.00     0.219 HD
ENDBRANCH  19  38
ENDBRANCH   6  14
BRANCH  10  40
HETATM   40  N5  UNL     1       1.332 -31.505   8.835  1.00  0.00    -0.234 N 
ATOM     41  H52 UNL     1       0.671 -30.811   9.184  1.00  0.00     0.174 HD
ATOM     42  H51 UNL     1       1.837 -31.267   7.981  1.00  0.00     0.174 HD
ENDBRANCH  10  40
ENDBRANCH   1   5
TORSDOF 12
ENDMDL
MODEL 2
REMARK VINA RESULT: -6.462094497      0.975      2.420
REMARK  12 active torsions:
REMARK  status: ('A' for Active; 'I' for Inactive)
REMARK    1  A    between atoms: C2_2  and  N1_3 
REMARK    2  A    between atoms: C2_2  and  C12_30 
REMARK    3  A    between atoms: N1_3  and  N2_5 
REMARK    4  A    between atoms: C3_6  and  C4_7 
REMARK    5  A    between atoms: C6_12  and  N5_13 
REMARK    6  A    between atoms: C7_18  and  N7_19 
REMARK    7  A    between atoms: C9_23  and  O1_24 
REMARK    8  A    between atoms: C12_30  and  C13_32 
REMARK    9  A    between atoms: C13_32  and  O4_33 
REMARK   10  A    between atoms: C13_32  and  C14_35 
REMARK   11  A    between atoms: C14_35  and  N10_36 
REMARK   12  A    between atoms: C14_35  and  C15_40 
ROOT
HETATM    1  N7  UNL     1      -0.019 -35.791  11.046  1.00  0.00    -0.278 N 
ATOM      2  H7  UNL     1      -0.363 -35.802  12.006  1.00  0.00     0.179 HD
HETATM    3  C8  UNL     1      -0.599 -36.616  10.079  1.00  0.00     0.183 C 
HETATM    4  N8  UNL     1      -1.085 -37.285   9.264  1.00  0.00    -0.172 NA
ENDROOT
BRANCH   1   5
HETATM    5  C7  UNL     1       0.951 -35.021  10.712  1.00  0.00     0.146 A 
HETATM    6  C4  UNL     1       2.245 -35.355  11.104  1.00  0.00     0.084 A 
HETATM    7  C5  UNL     1       3.207 -34.406  10.769  1.00  0.00     0.148 A 
HETATM    8  N3  UNL     1       4.572 -34.653  11.110  1.00  0.00    -0.081 NA
HETATM    9  N4  UNL     1       2.882 -33.286  10.126  1.00  0.00    -0.178 N 
HETATM   10  C6  UNL     1       1.632 -32.975   9.750  1.00  0.00     0.678 A 
ATOM     11  H4  UNL     1       3.627 -32.625   9.907  1.00  0.00     0.185 HD
HETATM   12  N6  UNL     1       0.676 -33.861  10.054  1.00  0.00    -0.175 N 
ATOM     13  H6  UNL     1      -0.287 -33.661   9.785  1.00  0.00     0.186 HD
BRANCH   6  14
HETATM   14  C3  UNL     1       2.567 -36.497  11.952  1.00  0.00     0.129 A 
HETATM   15  N2  UNL     1       2.677 -36.646  13.256  1.00  0.00    -0.204 N 
HETATM   16  C11 UNL     1       2.971 -37.992  13.505  1.00  0.00     0.349 A 
HETATM   17  N9  UNL     1       3.033 -38.668  12.370  1.00  0.00    -0.281 N 
HETATM   18  O2  UNL     1       3.147 -38.472  14.645  1.00  0.00    -0.244 OA
HETATM   19  C9  UNL     1       2.789 -37.784  11.405  1.00  0.00     0.176 A 
HETATM   20  C10 UNL     1       3.314 -40.111  12.201  1.00  0.00     0.163 C 
BRANCH  15  21
HETATM   21  N1  UNL     1       2.380 -35.788  14.317  1.00  0.00    -0.314 N 
ATOM     22  H1  UNL     1       3.096 -35.739  15.041  1.00  0.00     0.181 HD
BRANCH  21  23
HETATM   23  C2  UNL     1       1.248 -34.979  14.549  1.00  0.00     0.168 C 
HETATM   24  C1  UNL     1       1.532 -34.151  15.826  1.00  0.00     0.042 C 
BRANCH  23  25
HETATM   25  C12 UNL     1       0.063 -35.858  14.821  1.00  0.00     0.181 C 
HETATM   26  O3  UNL     1      -0.902 -35.755  14.107  1.00  0.00    -0.293 OA
BRANCH  25  27
HETATM   27  C13 UNL     1       0.043 -36.838  15.929  1.00  0.00     0.228 C 
BRANCH  27  28
HETATM   28  O4  UNL     1      -0.583 -36.327  17.061  1.00  0.00    -0.385 OA
ATOM     29  H4  UNL     1      -1.072 -36.996  17.527  1.00  0.00     0.210 HD
ENDBRANCH  27  28
BRANCH  27  30
HETATM   30  C14 UNL     1      -0.540 -38.128  15.435  1.00  0.00     0.300 C 
BRANCH  30  31
HETATM   31  N10 UNL     1       0.429 -39.179  15.648  1.00  0.00    -0.065 N 
ATOM     32 3H10 UNL     1       1.358 -38.929  15.311  1.00  0.00     0.275 HD
ATOM     33 2H10 UNL     1       0.666 -39.300  16.633  1.00  0.00     0.275 HD
ATOM     34 1H10 UNL     1       0.075 -40.035  15.222  1.00  0.00     0.275 HD
ENDBRANCH  30  31
BRANCH  30  35
HETATM   35  C15 UNL     1      -1.830 -38.468  16.093  1.00  0.00     0.230 C 
HETATM   36  O5  UNL     1      -2.827 -37.844  15.776  1.00  0.00    -0.282 OA
HETATM   37  S1  UNL     1      -1.894 -39.764  17.318  1.00  0.00    -0.009 SA
ENDBRANCH  30  35
ENDBRANCH  27  30
ENDBRANCH  25  27
ENDBRANCH  23  25
ENDBRANCH  21  23
ENDBRANCH  15  21
BRANCH  19  38
HETATM   38  O1  UNL     1       2.755 -38.062  10.041  1.00  0.00    -0.344 OA
ATOM     39  H1  UNL     1       1.997 -38.421   9.593  1.00  0.00     0.219 HD
ENDBRANCH  19  38
ENDBRANCH   6  14
BRANCH  10  40
HETATM   40  N5  UNL     1       1.334 -31.889   9.128  1.00  0.00    -0.234 N 
ATOM     41  H52 UNL     1       1.772 -31.008   9.395  1.00  0.00     0.174 HD
ATOM     42  H51 UNL     1       0.665 -31.853   8.358  1.00  0.00     0.174 HD
ENDBRANCH  10  40
ENDBRANCH   1   5
TORSDOF 12
ENDMDL
MODEL 3
REMARK VINA RESULT: -6.183671120      1.651      2.791
REMARK  12 active torsions:
REMARK  status: ('A' for Active; 'I' for Inactive)
REMARK    1  A    between atoms: C2_2  and  N1_3 
REMARK    2  A    between atoms: C2_2  and  C12_30 
REMARK    3  A    between atoms: N1_3  and  N2_5 
REMARK    4  A    between atoms: C3_6  and  C4_7 
REMARK    5  A    between atoms: C6_12  and  N5_13 
REMARK    6  A    between atoms: C7_18  and  N7_19 
REMARK    7  A    between atoms: C9_23  and  O1_24 
REMARK    8  A    between atoms: C12_30  and  C13_32 
REMARK    9  A    between atoms: C13_32  and  O4_33 
REMARK   10  A    between atoms: C13_32  and  C14_35 
REMARK   11  A    between atoms: C14_35  and  N10_36 
REMARK   12  A    between atoms: C14_35  and  C15_40 
ROOT
HETATM    1  N7  UNL     1       0.443 -36.818  10.792  1.00  0.00    -0.278 N 
ATOM      2  H7  UNL     1       0.559 -37.467  11.570  1.00  0.00     0.179 HD
HETATM    3  C8  UNL     1      -0.519 -37.059   9.807  1.00  0.00     0.183 C 
HETATM    4  N8  UNL     1      -1.326 -37.242   8.993  1.00  0.00    -0.172 NA
ENDROOT
BRANCH   1   5
HETATM    5  C7  UNL     1       1.179 -35.771  10.705  1.00  0.00     0.146 A 
HETATM    6  C4  UNL     1       2.416 -35.758  11.344  1.00  0.00     0.084 A 
HETATM    7  C5  UNL     1       3.090 -34.543  11.262  1.00  0.00     0.148 A 
HETATM    8  N3  UNL     1       4.377 -34.422  11.872  1.00  0.00    -0.081 NA
HETATM    9  N4  UNL     1       2.567 -33.502  10.617  1.00  0.00    -0.178 N 
HETATM   10  C6  UNL     1       1.376 -33.526  10.001  1.00  0.00     0.678 A 
ATOM     11  H4  UNL     1       3.104 -32.635  10.589  1.00  0.00     0.185 HD
HETATM   12  N6  UNL     1       0.694 -34.676  10.057  1.00  0.00    -0.175 N 
ATOM     13  H6  UNL     1      -0.216 -34.733   9.600  1.00  0.00     0.186 HD
BRANCH   6  14
HETATM   14  C3  UNL     1       2.903 -36.843  12.189  1.00  0.00     0.129 A 
HETATM   15  N2  UNL     1       2.814 -37.086  13.480  1.00  0.00    -0.204 N 
HETATM   16  C11 UNL     1       3.445 -38.312  13.725  1.00  0.00     0.349 A 
HETATM   17  N9  UNL     1       3.911 -38.823  12.597  1.00  0.00    -0.281 N 
HETATM   18  O2  UNL     1       3.546 -38.836  14.854  1.00  0.00    -0.244 OA
HETATM   19  C9  UNL     1       3.594 -37.951  11.643  1.00  0.00     0.176 A 
HETATM   20  C10 UNL     1       4.635 -40.102  12.425  1.00  0.00     0.163 C 
BRANCH  15  21
HETATM   21  N1  UNL     1       2.087 -36.461  14.495  1.00  0.00    -0.314 N 
ATOM     22  H1  UNL     1       2.621 -36.254  15.339  1.00  0.00     0.181 HD
BRANCH  21  23
HETATM   23  C2  UNL     1       0.732 -36.070  14.542  1.00  0.00     0.168 C 
HETATM   24  C1  UNL     1       0.492 -35.417  15.924  1.00  0.00     0.042 C 
BRANCH  23  25
HETATM   25  C12 UNL     1      -0.135 -37.291  14.450  1.00  0.00     0.181 C 
HETATM   26  O3  UNL     1      -0.211 -37.860  13.391  1.00  0.00    -0.293 OA
BRANCH  25  27
HETATM   27  C13 UNL     1      -0.891 -37.813  15.609  1.00  0.00     0.228 C 
BRANCH  27  28
HETATM   28  O4  UNL     1      -2.216 -37.390  15.596  1.00  0.00    -0.385 OA
ATOM     29  H4  UNL     1      -2.754 -37.896  16.194  1.00  0.00     0.210 HD
ENDBRANCH  27  28
BRANCH  27  30
HETATM   30  C14 UNL     1      -0.722 -39.300  15.678  1.00  0.00     0.300 C 
BRANCH  30  31
HETATM   31  N10 UNL     1       0.690 -39.603  15.646  1.00  0.00    -0.065 N 
ATOM     32 3H10 UNL     1       0.876 -40.575  15.401  1.00  0.00     0.275 HD
ATOM     33 2H10 UNL     1       1.166 -39.167  14.855  1.00  0.00     0.275 HD
ATOM     34 1H10 UNL     1       1.098 -39.340  16.542  1.00  0.00     0.275 HD
ENDBRANCH  30  31
BRANCH  30  35
HETATM   35  C15 UNL     1      -1.355 -39.898  16.885  1.00  0.00     0.230 C 
HETATM   36  O5  UNL     1      -1.844 -39.152  17.715  1.00  0.00    -0.282 OA
HETATM   37  S1  UNL     1      -1.385 -41.669  17.094  1.00  0.00    -0.009 SA
ENDBRANCH  30  35
ENDBRANCH  27  30
ENDBRANCH  25  27
ENDBRANCH  23  25
ENDBRANCH  21  23
ENDBRANCH  15  21
BRANCH  19  38
HETATM   38  O1  UNL     1       3.893 -38.086  10.290  1.00  0.00    -0.344 OA
ATOM     39  H1  UNL     1       3.610 -38.819   9.756  1.00  0.00     0.219 HD
ENDBRANCH  19  38
ENDBRANCH   6  14
BRANCH  10  40
HETATM   40  N5  UNL     1       0.885 -32.512   9.379  1.00  0.00    -0.234 N 
ATOM     41  H52 UNL     1       1.435 -32.033   8.665  1.00  0.00     0.174 HD
ATOM     42  H51 UNL     1      -0.050 -32.145   9.560  1.00  0.00     0.174 HD
ENDBRANCH  10  40
ENDBRANCH   1   5
TORSDOF 12
ENDMDL
MODEL 4
REMARK VINA RESULT: -6.040753695      2.220      4.911
REMARK  12 active torsions:
REMARK  status: ('A' for Active; 'I' for Inactive)
REMARK    1  A    between atoms: C2_2  and  N1_3 
REMARK    2  A    between atoms: C2_2  and  C12_30 
REMARK    3  A    between atoms: N1_3  and  N2_5 
REMARK    4  A    between atoms: C3_6  and  C4_7 
REMARK    5  A    between atoms: C6_12  and  N5_13 
REMARK    6  A    between atoms: C7_18  and  N7_19 
REMARK    7  A    between atoms: C9_23  and  O1_24 
REMARK    8  A    between atoms: C12_30  and  C13_32 
REMARK    9  A    between atoms: C13_32  and  O4_33 
REMARK   10  A    between atoms: C13_32  and  C14_35 
REMARK   11  A    between atoms: C14_35  and  N10_36 
REMARK   12  A    between atoms: C14_35  and  C15_40 
ROOT
HETATM    1  N7  UNL     1       2.006 -39.124  12.208  1.00  0.00    -0.278 N 
ATOM      2  H7  UNL     1       1.367 -38.558  11.651  1.00  0.00     0.179 HD
HETATM    3  C8  UNL     1       1.796 -40.498  12.349  1.00  0.00     0.183 C 
HETATM    4  N8  UNL     1       1.639 -41.642  12.459  1.00  0.00    -0.172 NA
ENDROOT
BRANCH   1   5
HETATM    5  C7  UNL     1       3.014 -38.582  12.789  1.00  0.00     0.146 A 
HETATM    6  C4  UNL     1       3.080 -37.193  12.872  1.00  0.00     0.084 A 
HETATM    7  C5  UNL     1       4.257 -36.710  13.439  1.00  0.00     0.148 A 
HETATM    8  N3  UNL     1       4.425 -35.299  13.587  1.00  0.00    -0.081 NA
HETATM    9  N4  UNL     1       5.215 -37.535  13.858  1.00  0.00    -0.178 N 
HETATM   10  C6  UNL     1       5.139 -38.871  13.776  1.00  0.00     0.678 A 
ATOM     11  H4  UNL     1       6.056 -37.125  14.264  1.00  0.00     0.185 HD
HETATM   12  N6  UNL     1       4.025 -39.377  13.236  1.00  0.00    -0.175 N 
ATOM     13  H6  UNL     1       3.929 -40.390  13.157  1.00  0.00     0.186 HD
BRANCH   6  14
HETATM   14  C3  UNL     1       2.106 -36.296  12.260  1.00  0.00     0.129 A 
HETATM   15  N2  UNL     1       0.861 -35.987  12.555  1.00  0.00    -0.204 N 
HETATM   16  C11 UNL     1       0.433 -35.027  11.630  1.00  0.00     0.349 A 
HETATM   17  N9  UNL     1       1.406 -34.741  10.779  1.00  0.00    -0.281 N 
HETATM   18  O2  UNL     1      -0.709 -34.521  11.621  1.00  0.00    -0.244 OA
HETATM   19  C9  UNL     1       2.439 -35.498  11.139  1.00  0.00     0.176 A 
HETATM   20  C10 UNL     1       1.360 -33.778   9.657  1.00  0.00     0.163 C 
BRANCH  15  21
HETATM   21  N1  UNL     1       0.062 -36.298  13.656  1.00  0.00    -0.314 N 
ATOM     22  H1  UNL     1      -0.498 -37.145  13.553  1.00  0.00     0.181 HD
BRANCH  21  23
HETATM   23  C2  UNL     1      -0.096 -35.632  14.889  1.00  0.00     0.168 C 
HETATM   24  C1  UNL     1       1.257 -34.958  15.222  1.00  0.00     0.042 C 
BRANCH  23  25
HETATM   25  C12 UNL     1      -0.385 -36.642  15.961  1.00  0.00     0.181 C 
HETATM   26  O3  UNL     1      -0.571 -36.247  17.084  1.00  0.00    -0.293 OA
BRANCH  25  27
HETATM   27  C13 UNL     1      -0.451 -38.093  15.683  1.00  0.00     0.228 C 
BRANCH  27  28
HETATM   28  O4  UNL     1       0.791 -38.703  15.823  1.00  0.00    -0.385 OA
ATOM     29  H4  UNL     1       0.724 -39.651  15.800  1.00  0.00     0.210 HD
ENDBRANCH  27  28
BRANCH  27  30
HETATM   30  C14 UNL     1      -1.533 -38.707  16.518  1.00  0.00     0.300 C 
BRANCH  30  31
HETATM   31  N10 UNL     1      -2.810 -38.381  15.924  1.00  0.00    -0.065 N 
ATOM     32 3H10 UNL     1      -3.335 -37.701  16.473  1.00  0.00     0.275 HD
ATOM     33 2H10 UNL     1      -2.716 -37.829  15.072  1.00  0.00     0.275 HD
ATOM     34 1H10 UNL     1      -3.327 -39.247  15.775  1.00  0.00     0.275 HD
ENDBRANCH  30  31
BRANCH  30  35
HETATM   35  C15 UNL     1      -1.387 -40.180  16.661  1.00  0.00     0.230 C 
HETATM   36  O5  UNL     1      -1.029 -40.826  15.693  1.00  0.00    -0.282 OA
HETATM   37  S1  UNL     1      -1.734 -40.964  18.226  1.00  0.00    -0.009 SA
ENDBRANCH  30  35
ENDBRANCH  27  30
ENDBRANCH  25  27
ENDBRANCH  23  25
ENDBRANCH  21  23
ENDBRANCH  15  21
BRANCH  19  38
HETATM   38  O1  UNL     1       3.683 -35.521  10.515  1.00  0.00    -0.344 OA
ATOM     39  H1  UNL     1       3.839 -35.910   9.662  1.00  0.00     0.219 HD
ENDBRANCH  19  38
ENDBRANCH   6  14
BRANCH  10  40
HETATM   40  N5  UNL     1       6.073 -39.655  14.187  1.00  0.00    -0.234 N 
ATOM     41  H52 UNL     1       5.920 -40.254  14.998  1.00  0.00     0.174 HD
ATOM     42  H51 UNL     1       6.987 -39.718  13.738  1.00  0.00     0.174 HD
ENDBRANCH  10  40
ENDBRANCH   1   5
TORSDOF 12
ENDMDL
MODEL 5
REMARK VINA RESULT: -6.029130776      6.256     11.380
REMARK  12 active torsions:
REMARK  status: ('A' for Active; 'I' for Inactive)
REMARK    1  A    between atoms: C2_2  and  N1_3 
REMARK    2  A    between atoms: C2_2  and  C12_30 
REMARK    3  A    between atoms: N1_3  and  N2_5 
REMARK    4  A    between atoms: C3_6  and  C4_7 
REMARK    5  A    between atoms: C6_12  and  N5_13 
REMARK    6  A    between atoms: C7_18  and  N7_19 
REMARK    7  A    between atoms: C9_23  and  O1_24 
REMARK    8  A    between atoms: C12_30  and  C13_32 
REMARK    9  A    between atoms: C13_32  and  O4_33 
REMARK   10  A    between atoms: C13_32  and  C14_35 
REMARK   11  A    between atoms: C14_35  and  N10_36 
REMARK   12  A    between atoms: C14_35  and  C15_40 
ROOT
HETATM    1  N7  UNL     1      -6.524 -39.878  20.206  1.00  0.00    -0.278 N 
ATOM      2  H7  UNL     1      -5.522 -39.687  20.190  1.00  0.00     0.179 HD
HETATM    3  C8  UNL     1      -7.361 -39.183  21.083  1.00  0.00     0.183 C 
HETATM    4  N8  UNL     1      -8.067 -38.600  21.797  1.00  0.00    -0.172 NA
ENDROOT
BRANCH   1   5
HETATM    5  C7  UNL     1      -7.030 -40.758  19.422  1.00  0.00     0.146 A 
HETATM    6  C4  UNL     1      -6.204 -41.743  18.887  1.00  0.00     0.084 A 
HETATM    7  C5  UNL     1      -6.835 -42.589  17.980  1.00  0.00     0.148 A 
HETATM    8  N3  UNL     1      -6.084 -43.646  17.380  1.00  0.00    -0.081 NA
HETATM    9  N4  UNL     1      -8.123 -42.441  17.674  1.00  0.00    -0.178 N 
HETATM   10  C6  UNL     1      -8.912 -41.491  18.198  1.00  0.00     0.678 A 
ATOM     11  H4  UNL     1      -8.534 -43.088  17.002  1.00  0.00     0.185 HD
HETATM   12  N6  UNL     1      -8.343 -40.655  19.075  1.00  0.00    -0.175 N 
ATOM     13  H6  UNL     1      -8.910 -39.919  19.495  1.00  0.00     0.186 HD
BRANCH   6  14
HETATM   14  C3  UNL     1      -4.761 -41.793  19.097  1.00  0.00     0.129 A 
HETATM   15  N2  UNL     1      -3.734 -41.378  18.384  1.00  0.00    -0.204 N 
HETATM   16  C11 UNL     1      -2.572 -41.664  19.110  1.00  0.00     0.349 A 
HETATM   17  N9  UNL     1      -2.877 -42.241  20.261  1.00  0.00    -0.281 N 
HETATM   18  O2  UNL     1      -1.416 -41.405  18.714  1.00  0.00    -0.244 OA
HETATM   19  C9  UNL     1      -4.205 -42.331  20.283  1.00  0.00     0.176 A 
HETATM   20  C10 UNL     1      -1.940 -42.693  21.313  1.00  0.00     0.163 C 
BRANCH  15  21
HETATM   21  N1  UNL     1      -3.661 -40.601  17.226  1.00  0.00    -0.314 N 
ATOM     22  H1  UNL     1      -3.647 -39.594  17.388  1.00  0.00     0.181 HD
BRANCH  21  23
HETATM   23  C2  UNL     1      -3.603 -40.984  15.870  1.00  0.00     0.168 C 
HETATM   24  C1  UNL     1      -3.086 -42.443  15.828  1.00  0.00     0.042 C 
BRANCH  23  25
HETATM   25  C12 UNL     1      -2.605 -40.120  15.158  1.00  0.00     0.181 C 
HETATM   26  O3  UNL     1      -1.903 -40.627  14.320  1.00  0.00    -0.293 OA
BRANCH  25  27
HETATM   27  C13 UNL     1      -2.458 -38.677  15.448  1.00  0.00     0.228 C 
BRANCH  27  28
HETATM   28  O4  UNL     1      -3.668 -38.096  15.811  1.00  0.00    -0.385 OA
ATOM     29  H4  UNL     1      -4.404 -38.510  15.374  1.00  0.00     0.210 HD
ENDBRANCH  27  28
BRANCH  27  30
HETATM   30  C14 UNL     1      -1.360 -38.484  16.450  1.00  0.00     0.300 C 
BRANCH  30  31
HETATM   31  N10 UNL     1      -0.409 -39.562  16.300  1.00  0.00    -0.065 N 
ATOM     32 3H10 UNL     1       0.439 -39.413  16.845  1.00  0.00     0.275 HD
ATOM     33 2H10 UNL     1      -0.717 -40.422  16.754  1.00  0.00     0.275 HD
ATOM     34 1H10 UNL     1      -0.219 -39.690  15.306  1.00  0.00     0.275 HD
ENDBRANCH  30  31
BRANCH  30  35
HETATM   35  C15 UNL     1      -0.680 -37.168  16.315  1.00  0.00     0.230 C 
HETATM   36  O5  UNL     1      -0.703 -36.402  17.262  1.00  0.00    -0.282 OA
HETATM   37  S1  UNL     1       0.146 -36.740  14.792  1.00  0.00    -0.009 SA
ENDBRANCH  30  35
ENDBRANCH  27  30
ENDBRANCH  25  27
ENDBRANCH  23  25
ENDBRANCH  21  23
ENDBRANCH  15  21
BRANCH  19  38
HETATM   38  O1  UNL     1      -4.964 -42.878  21.314  1.00  0.00    -0.344 OA
ATOM     39  H1  UNL     1      -5.775 -42.499  21.632  1.00  0.00     0.219 HD
ENDBRANCH  19  38
ENDBRANCH   6  14
BRANCH  10  40
HETATM   40  N5  UNL     1     -10.155 -41.362  17.894  1.00  0.00    -0.234 N 
ATOM     41  H52 UNL     1     -10.863 -41.901  18.393  1.00  0.00     0.174 HD
ATOM     42  H51 UNL     1     -10.489 -40.734  17.163  1.00  0.00     0.174 HD
ENDBRANCH  10  40
ENDBRANCH   1   5
TORSDOF 12
ENDMDL
