MODEL 1
REMARK VINA RESULT: -6.269885576      0.000      0.000
REMARK  7 active torsions:
REMARK  status: ('A' for Active; 'I' for Inactive)
REMARK    1  A    between atoms: C2_2  and  O1_3 
REMARK    2  A    between atoms: O1_3  and  C3_4 
REMARK    3  A    between atoms: C4_5  and  O2_6 
REMARK    4  A    between atoms: C5_8  and  O3_9 
REMARK    5  A    between atoms: C6_11  and  O4_12 
REMARK    6  A    between atoms: C7_14  and  O5_15 
REMARK    7  A    between atoms: C8_17  and  O6_18 
ROOT
HETATM    1  O6  UNL     1       8.438  98.929  11.355  1.00  0.00    -0.273 OA
HETATM    2  C9  UNL     1       7.122  98.959  11.714  1.00  0.00     0.229 C 
HETATM    3  N1  UNL     1       5.993  98.984  12.027  1.00  0.00    -0.164 NA
ENDROOT
BRANCH   1   4
HETATM    4  C8  UNL     1       8.966  97.781  10.725  1.00  0.00     0.204 C 
HETATM    5  C3  UNL     1       9.396  98.156   9.340  1.00  0.00     0.185 C 
HETATM    6  C4  UNL     1      10.308  97.166   8.689  1.00  0.00     0.181 C 
HETATM    7  C5  UNL     1      11.392  96.683   9.624  1.00  0.00     0.180 C 
HETATM    8  C6  UNL     1      10.682  96.062  10.818  1.00  0.00     0.180 C 
HETATM    9  C7  UNL     1      10.096  97.265  11.574  1.00  0.00     0.182 C 
BRANCH   5  10
HETATM   10  O1  UNL     1       9.978  99.419   9.320  1.00  0.00    -0.381 OA
BRANCH  10  11
HETATM   11  C2  UNL     1       9.457 100.187   8.265  1.00  0.00     0.164 C 
HETATM   12  C1  UNL     1       8.039 100.589   8.508  1.00  0.00     0.033 C 
ENDBRANCH  10  11
ENDBRANCH   5  10
BRANCH   6  13
HETATM   13  O2  UNL     1      10.971  97.845   7.642  1.00  0.00    -0.390 OA
ATOM     14  H2  UNL     1      11.797  98.155   7.993  1.00  0.00     0.210 HD
ENDBRANCH   6  13
BRANCH   7  15
HETATM   15  O3  UNL     1      12.263  95.840   9.006  1.00  0.00    -0.390 OA
ATOM     16  H3  UNL     1      13.041  95.683   9.529  1.00  0.00     0.210 HD
ENDBRANCH   7  15
BRANCH   8  17
HETATM   17  O4  UNL     1       9.557  95.329  10.399  1.00  0.00    -0.390 OA
ATOM     18  H4  UNL     1       9.133  94.915  11.141  1.00  0.00     0.210 HD
ENDBRANCH   8  17
BRANCH   9  19
HETATM   19  O5  UNL     1       9.637  96.798  12.774  1.00  0.00    -0.390 OA
ATOM     20  H5  UNL     1       9.779  97.487  13.413  1.00  0.00     0.210 HD
ENDBRANCH   9  19
ENDBRANCH   1   4
TORSDOF 7
ENDMDL
MODEL 2
REMARK VINA RESULT: -5.573636623      2.315      4.435
REMARK  7 active torsions:
REMARK  status: ('A' for Active; 'I' for Inactive)
REMARK    1  A    between atoms: C2_2  and  O1_3 
REMARK    2  A    between atoms: O1_3  and  C3_4 
REMARK    3  A    between atoms: C4_5  and  O2_6 
REMARK    4  A    between atoms: C5_8  and  O3_9 
REMARK    5  A    between atoms: C6_11  and  O4_12 
REMARK    6  A    between atoms: C7_14  and  O5_15 
REMARK    7  A    between atoms: C8_17  and  O6_18 
ROOT
HETATM    1  O6  UNL     1      10.676  95.255  10.332  1.00  0.00    -0.273 OA
HETATM    2  C9  UNL     1      10.184  93.983  10.326  1.00  0.00     0.229 C 
HETATM    3  N1  UNL     1       9.765  92.889  10.320  1.00  0.00    -0.164 NA
ENDROOT
BRANCH   1   4
HETATM    4  C8  UNL     1      10.097  96.234   9.494  1.00  0.00     0.204 C 
HETATM    5  C3  UNL     1       9.229  97.121  10.334  1.00  0.00     0.185 C 
HETATM    6  C4  UNL     1       8.853  98.412   9.680  1.00  0.00     0.181 C 
HETATM    7  C5  UNL     1      10.026  99.071   8.995  1.00  0.00     0.180 C 
HETATM    8  C6  UNL     1      10.538  98.072   7.967  1.00  0.00     0.180 C 
HETATM    9  C7  UNL     1      11.211  96.977   8.809  1.00  0.00     0.182 C 
BRANCH   5  10
HETATM   10  O1  UNL     1       9.813  97.370  11.571  1.00  0.00    -0.381 OA
BRANCH  10  11
HETATM   11  C2  UNL     1       8.853  97.299  12.595  1.00  0.00     0.164 C 
HETATM   12  C1  UNL     1       9.429  97.638  13.930  1.00  0.00     0.033 C 
ENDBRANCH  10  11
ENDBRANCH   5  10
BRANCH   6  13
HETATM   13  O2  UNL     1       8.458  99.295  10.711  1.00  0.00    -0.390 OA
ATOM     14  H2  UNL     1       7.847  98.820  11.262  1.00  0.00     0.210 HD
ENDBRANCH   6  13
BRANCH   7  15
HETATM   15  O3  UNL     1       9.697 100.280   8.465  1.00  0.00    -0.390 OA
ATOM     16  H3  UNL     1       9.002 100.706   8.952  1.00  0.00     0.210 HD
ENDBRANCH   7  15
BRANCH   8  17
HETATM   17  O4  UNL     1       9.464  97.418   7.335  1.00  0.00    -0.390 OA
ATOM     18  H4  UNL     1       9.601  96.478   7.331  1.00  0.00     0.210 HD
ENDBRANCH   8  17
BRANCH   9  19
HETATM   19  O5  UNL     1      11.885  96.163   7.942  1.00  0.00    -0.390 OA
ATOM     20  H5  UNL     1      12.231  96.718   7.252  1.00  0.00     0.210 HD
ENDBRANCH   9  19
ENDBRANCH   1   4
TORSDOF 7
ENDMDL
MODEL 3
REMARK VINA RESULT: -5.523111202      1.680      3.791
REMARK  7 active torsions:
REMARK  status: ('A' for Active; 'I' for Inactive)
REMARK    1  A    between atoms: C2_2  and  O1_3 
REMARK    2  A    between atoms: O1_3  and  C3_4 
REMARK    3  A    between atoms: C4_5  and  O2_6 
REMARK    4  A    between atoms: C5_8  and  O3_9 
REMARK    5  A    between atoms: C6_11  and  O4_12 
REMARK    6  A    between atoms: C7_14  and  O5_15 
REMARK    7  A    between atoms: C8_17  and  O6_18 
ROOT
HETATM    1  O6  UNL     1       9.036  97.019  12.222  1.00  0.00    -0.273 OA
HETATM    2  C9  UNL     1       9.144  97.468  13.506  1.00  0.00     0.229 C 
HETATM    3  N1  UNL     1       9.232  97.854  14.608  1.00  0.00    -0.164 NA
ENDROOT
BRANCH   1   4
HETATM    4  C8  UNL     1       9.697  97.709  11.181  1.00  0.00     0.204 C 
HETATM    5  C3  UNL     1      10.451  96.710  10.357  1.00  0.00     0.185 C 
HETATM    6  C4  UNL     1      10.885  97.219   9.020  1.00  0.00     0.181 C 
HETATM    7  C5  UNL     1       9.791  97.985   8.315  1.00  0.00     0.180 C 
HETATM    8  C6  UNL     1       9.414  99.137   9.235  1.00  0.00     0.180 C 
HETATM    9  C7  UNL     1       8.661  98.462  10.392  1.00  0.00     0.182 C 
BRANCH   5  10
HETATM   10  O1  UNL     1       9.725  95.535  10.204  1.00  0.00    -0.381 OA
BRANCH  10  11
HETATM   11  C2  UNL     1      10.540  94.415  10.437  1.00  0.00     0.164 C 
HETATM   12  C1  UNL     1       9.797  93.132  10.266  1.00  0.00     0.033 C 
ENDBRANCH  10  11
ENDBRANCH   5  10
BRANCH   6  13
HETATM   13  O2  UNL     1      11.148  96.086   8.215  1.00  0.00    -0.390 OA
ATOM     14  H2  UNL     1      10.306  95.721   7.969  1.00  0.00     0.210 HD
ENDBRANCH   6  13
BRANCH   7  15
HETATM   15  O3  UNL     1      10.165  98.381   7.068  1.00  0.00    -0.390 OA
ATOM     16  H3  UNL     1      10.288  99.321   7.013  1.00  0.00     0.210 HD
ENDBRANCH   7  15
BRANCH   8  17
HETATM   17  O4  UNL     1      10.561  99.686   9.836  1.00  0.00    -0.390 OA
ATOM     18  H4  UNL     1      10.623  99.418  10.745  1.00  0.00     0.210 HD
ENDBRANCH   8  17
BRANCH   9  19
HETATM   19  O5  UNL     1       8.101  99.460  11.140  1.00  0.00    -0.390 OA
ATOM     20  H5  UNL     1       8.714  99.661  11.838  1.00  0.00     0.210 HD
ENDBRANCH   9  19
ENDBRANCH   1   4
TORSDOF 7
ENDMDL
MODEL 4
REMARK VINA RESULT: -5.423051114      6.761      8.498
REMARK  7 active torsions:
REMARK  status: ('A' for Active; 'I' for Inactive)
REMARK    1  A    between atoms: C2_2  and  O1_3 
REMARK    2  A    between atoms: O1_3  and  C3_4 
REMARK    3  A    between atoms: C4_5  and  O2_6 
REMARK    4  A    between atoms: C5_8  and  O3_9 
REMARK    5  A    between atoms: C6_11  and  O4_12 
REMARK    6  A    between atoms: C7_14  and  O5_15 
REMARK    7  A    between atoms: C8_17  and  O6_18 
ROOT
HETATM    1  O6  UNL     1       1.689 103.494  10.616  1.00  0.00    -0.273 OA
HETATM    2  C9  UNL     1       0.655 103.254   9.758  1.00  0.00     0.229 C 
HETATM    3  N1  UNL     1      -0.234 103.051   9.023  1.00  0.00    -0.164 NA
ENDROOT
BRANCH   1   4
HETATM    4  C8  UNL     1       2.078 102.498  11.539  1.00  0.00     0.204 C 
HETATM    5  C3  UNL     1       3.257 101.766  10.975  1.00  0.00     0.185 C 
HETATM    6  C4  UNL     1       4.012 100.952  11.977  1.00  0.00     0.181 C 
HETATM    7  C5  UNL     1       4.238 101.698  13.271  1.00  0.00     0.180 C 
HETATM    8  C6  UNL     1       2.858 102.065  13.799  1.00  0.00     0.180 C 
HETATM    9  C7  UNL     1       2.374 103.172  12.851  1.00  0.00     0.182 C 
BRANCH   5  10
HETATM   10  O1  UNL     1       4.124 102.637  10.324  1.00  0.00    -0.381 OA
BRANCH  10  11
HETATM   11  C2  UNL     1       4.167 102.354   8.948  1.00  0.00     0.164 C 
HETATM   12  C1  UNL     1       4.518 103.557   8.137  1.00  0.00     0.033 C 
ENDBRANCH  10  11
ENDBRANCH   5  10
BRANCH   6  13
HETATM   13  O2  UNL     1       5.296 100.718  11.433  1.00  0.00    -0.390 OA
ATOM     14  H2  UNL     1       5.810 100.298  12.112  1.00  0.00     0.210 HD
ENDBRANCH   6  13
BRANCH   7  15
HETATM   15  O3  UNL     1       4.988 100.982  14.151  1.00  0.00    -0.390 OA
ATOM     16  H3  UNL     1       4.566 100.901  14.998  1.00  0.00     0.210 HD
ENDBRANCH   7  15
BRANCH   8  17
HETATM   17  O4  UNL     1       1.953 101.007  13.595  1.00  0.00    -0.390 OA
ATOM     18  H4  UNL     1       1.244 101.048  14.226  1.00  0.00     0.210 HD
ENDBRANCH   8  17
BRANCH   9  19
HETATM   19  O5  UNL     1       1.239 103.701  13.401  1.00  0.00    -0.390 OA
ATOM     20  H5  UNL     1       1.477 104.543  13.772  1.00  0.00     0.210 HD
ENDBRANCH   9  19
ENDBRANCH   1   4
TORSDOF 7
ENDMDL
MODEL 5
REMARK VINA RESULT: -5.214531203      1.612      3.553
REMARK  7 active torsions:
REMARK  status: ('A' for Active; 'I' for Inactive)
REMARK    1  A    between atoms: C2_2  and  O1_3 
REMARK    2  A    between atoms: O1_3  and  C3_4 
REMARK    3  A    between atoms: C4_5  and  O2_6 
REMARK    4  A    between atoms: C5_8  and  O3_9 
REMARK    5  A    between atoms: C6_11  and  O4_12 
REMARK    6  A    between atoms: C7_14  and  O5_15 
REMARK    7  A    between atoms: C8_17  and  O6_18 
ROOT
HETATM    1  O6  UNL     1       9.510 100.148   9.683  1.00  0.00    -0.273 OA
HETATM    2  C9  UNL     1       8.445 100.369   8.859  1.00  0.00     0.229 C 
HETATM    3  N1  UNL     1       7.528 100.558   8.155  1.00  0.00    -0.164 NA
ENDROOT
BRANCH   1   4
HETATM    4  C8  UNL     1      10.230  98.936   9.588  1.00  0.00     0.204 C 
HETATM    5  C3  UNL     1       9.991  98.146  10.838  1.00  0.00     0.185 C 
HETATM    6  C4  UNL     1      10.367  96.702  10.734  1.00  0.00     0.181 C 
HETATM    7  C5  UNL     1       9.895  96.078   9.441  1.00  0.00     0.180 C 
HETATM    8  C6  UNL     1      10.532  96.886   8.319  1.00  0.00     0.180 C 
HETATM    9  C7  UNL     1       9.776  98.224   8.343  1.00  0.00     0.182 C 
BRANCH   5  10
HETATM   10  O1  UNL     1       8.672  98.262  11.262  1.00  0.00    -0.381 OA
BRANCH  10  11
HETATM   11  C2  UNL     1       8.618  98.642  12.613  1.00  0.00     0.164 C 
HETATM   12  C1  UNL     1       7.328  98.255  13.256  1.00  0.00     0.033 C 
ENDBRANCH  10  11
ENDBRANCH   5  10
BRANCH   6  13
HETATM   13  O2  UNL     1       9.681  96.023  11.766  1.00  0.00    -0.390 OA
ATOM     14  H2  UNL     1       9.523  95.139  11.458  1.00  0.00     0.210 HD
ENDBRANCH   6  13
BRANCH   7  15
HETATM   15  O3  UNL     1      10.173  94.748   9.383  1.00  0.00    -0.390 OA
ATOM     16  H3  UNL     1       9.499  94.261   8.923  1.00  0.00     0.210 HD
ENDBRANCH   7  15
BRANCH   8  17
HETATM   17  O4  UNL     1      11.857  97.225   8.645  1.00  0.00    -0.390 OA
ATOM     18  H4  UNL     1      11.874  97.932   9.279  1.00  0.00     0.210 HD
ENDBRANCH   8  17
BRANCH   9  19
HETATM   19  O5  UNL     1      10.144  98.911   7.220  1.00  0.00    -0.390 OA
ATOM     20  H5  UNL     1       9.925  99.823   7.369  1.00  0.00     0.210 HD
ENDBRANCH   9  19
ENDBRANCH   1   4
TORSDOF 7
ENDMDL
