MODEL 1
REMARK VINA RESULT: -5.090746668      0.000      0.000
REMARK  4 active torsions:
REMARK  status: ('A' for Active; 'I' for Inactive)
REMARK    1  A    between atoms: C1_2  and  C2_4 
REMARK    2  A    between atoms: C3_5  and  C12_16 
REMARK    3  A    between atoms: C7_9  and  C8_10 
REMARK    4  A    between atoms: C9_13  and  C10_14 
ROOT
HETATM    1  C2  UNL     1       8.764  -5.966   0.398  1.00  0.00     0.052 C 
HETATM    2  C3  UNL     1       8.974  -6.374   1.801  1.00  0.00     0.008 C 
HETATM    3  C4  UNL     1       7.756  -7.178   2.230  1.00  0.00     0.007 C 
HETATM    4  C5  UNL     1       6.964  -7.486   1.008  1.00  0.00     0.007 C 
HETATM    5  C6  UNL     1       7.770  -6.960  -0.110  1.00  0.00     0.022 C 
HETATM    6  C7  UNL     1       8.866  -7.810  -0.653  1.00  0.00     0.053 A 
HETATM    7  C9  UNL     1      10.263  -7.793  -0.344  1.00  0.00     0.015 A 
HETATM    8  C13 UNL     1       9.691  -6.500  -0.621  1.00  0.00     0.027 A 
ENDROOT
BRANCH   1   9
HETATM    9  C1  UNL     1       8.406  -4.538   0.176  1.00  0.00     0.241 C 
HETATM   10  N1  UNL     1       8.423  -4.066  -1.168  1.00  0.00    -0.061 NA
HETATM   11  O1  UNL     1       8.098  -3.742   1.074  1.00  0.00    -0.276 OA
ENDBRANCH   1   9
BRANCH   2  12
HETATM   12  C12 UNL     1      10.218  -7.133   2.095  1.00  0.00    -0.004 A 
HETATM   13  C10 UNL     1      10.298  -7.877   3.332  1.00  0.00    -0.004 A 
HETATM   14  C11 UNL     1      11.208  -6.685   3.101  1.00  0.00     0.011 A 
ENDBRANCH   2  12
BRANCH   6  15
HETATM   15  C8  UNL     1       8.483  -8.327  -2.015  1.00  0.00     0.241 C 
HETATM   16  N2  UNL     1       7.533  -7.677  -2.824  1.00  0.00    -0.061 NA
HETATM   17  O2  UNL     1       9.031  -9.363  -2.428  1.00  0.00    -0.276 OA
ENDBRANCH   6  15
TORSDOF 4
ENDMDL
MODEL 2
REMARK VINA RESULT: -5.041315652      2.095      3.041
REMARK  4 active torsions:
REMARK  status: ('A' for Active; 'I' for Inactive)
REMARK    1  A    between atoms: C1_2  and  C2_4 
REMARK    2  A    between atoms: C3_5  and  C12_16 
REMARK    3  A    between atoms: C7_9  and  C8_10 
REMARK    4  A    between atoms: C9_13  and  C10_14 
ROOT
HETATM    1  C2  UNL     1       8.392  -7.263   1.092  1.00  0.00     0.052 C 
HETATM    2  C3  UNL     1       9.554  -7.881   1.762  1.00  0.00     0.008 C 
HETATM    3  C4  UNL     1      10.222  -8.807   0.756  1.00  0.00     0.007 C 
HETATM    4  C5  UNL     1       9.632  -8.523  -0.581  1.00  0.00     0.007 C 
HETATM    5  C6  UNL     1       8.723  -7.382  -0.361  1.00  0.00     0.022 C 
HETATM    6  C7  UNL     1       9.296  -6.009  -0.365  1.00  0.00     0.053 A 
HETATM    7  C9  UNL     1       9.712  -5.197   0.739  1.00  0.00     0.015 A 
HETATM    8  C13 UNL     1       8.412  -5.800   0.889  1.00  0.00     0.027 A 
ENDROOT
BRANCH   1   9
HETATM    9  C1  UNL     1       7.054  -7.784   1.485  1.00  0.00     0.241 C 
HETATM   10  N1  UNL     1       7.025  -8.869   2.407  1.00  0.00    -0.061 NA
HETATM   11  O1  UNL     1       5.975  -7.340   1.065  1.00  0.00    -0.276 OA
ENDBRANCH   1   9
BRANCH   2  12
HETATM   12  C12 UNL     1      10.556  -6.953   2.348  1.00  0.00    -0.004 A 
HETATM   13  C10 UNL     1      11.884  -7.453   2.624  1.00  0.00    -0.004 A 
HETATM   14  C11 UNL     1      10.980  -7.025   3.765  1.00  0.00     0.011 A 
ENDBRANCH   2  12
BRANCH   6  15
HETATM   15  C8  UNL     1       8.870  -5.281  -1.614  1.00  0.00     0.241 C 
HETATM   16  N2  UNL     1       9.219  -3.940  -1.856  1.00  0.00    -0.061 NA
HETATM   17  O2  UNL     1       8.189  -5.896  -2.451  1.00  0.00    -0.276 OA
ENDBRANCH   6  15
TORSDOF 4
ENDMDL
MODEL 3
REMARK VINA RESULT: -4.949048203      2.301      4.903
REMARK  4 active torsions:
REMARK  status: ('A' for Active; 'I' for Inactive)
REMARK    1  A    between atoms: C1_2  and  C2_4 
REMARK    2  A    between atoms: C3_5  and  C12_16 
REMARK    3  A    between atoms: C7_9  and  C8_10 
REMARK    4  A    between atoms: C9_13  and  C10_14 
ROOT
HETATM    1  C2  UNL     1       8.406  -8.471  -0.465  1.00  0.00     0.052 C 
HETATM    2  C3  UNL     1       7.358  -8.835  -1.439  1.00  0.00     0.008 C 
HETATM    3  C4  UNL     1       6.017  -8.728  -0.729  1.00  0.00     0.007 C 
HETATM    4  C5  UNL     1       6.245  -8.032   0.568  1.00  0.00     0.007 C 
HETATM    5  C6  UNL     1       7.671  -7.653   0.549  1.00  0.00     0.022 C 
HETATM    6  C7  UNL     1       8.061  -6.398  -0.150  1.00  0.00     0.053 A 
HETATM    7  C9  UNL     1       8.550  -6.218  -1.484  1.00  0.00     0.015 A 
HETATM    8  C13 UNL     1       9.207  -7.260  -0.736  1.00  0.00     0.027 A 
ENDROOT
BRANCH   1   9
HETATM    9  C1  UNL     1       9.210  -9.596   0.087  1.00  0.00     0.241 C 
HETATM   10  N1  UNL     1      10.002  -9.324   1.239  1.00  0.00    -0.061 NA
HETATM   11  O1  UNL     1       9.235 -10.741  -0.386  1.00  0.00    -0.276 OA
ENDBRANCH   1   9
BRANCH   2  12
HETATM   12  C12 UNL     1       7.329  -8.061  -2.707  1.00  0.00    -0.004 A 
HETATM   13  C10 UNL     1       6.142  -8.125  -3.530  1.00  0.00    -0.004 A 
HETATM   14  C11 UNL     1       7.451  -8.701  -4.037  1.00  0.00     0.011 A 
ENDBRANCH   2  12
BRANCH   6  15
HETATM   15  C8  UNL     1       8.457  -5.353   0.860  1.00  0.00     0.241 C 
HETATM   16  N2  UNL     1       8.205  -3.984   0.660  1.00  0.00    -0.061 NA
HETATM   17  O2  UNL     1       9.024  -5.725   1.901  1.00  0.00    -0.276 OA
ENDBRANCH   6  15
TORSDOF 4
ENDMDL
MODEL 4
REMARK VINA RESULT: -4.904451281      2.832      4.032
REMARK  4 active torsions:
REMARK  status: ('A' for Active; 'I' for Inactive)
REMARK    1  A    between atoms: C1_2  and  C2_4 
REMARK    2  A    between atoms: C3_5  and  C12_16 
REMARK    3  A    between atoms: C7_9  and  C8_10 
REMARK    4  A    between atoms: C9_13  and  C10_14 
ROOT
HETATM    1  C2  UNL     1       9.075  -7.555   1.842  1.00  0.00     0.052 C 
HETATM    2  C3  UNL     1       9.472  -6.463   0.933  1.00  0.00     0.008 C 
HETATM    3  C4  UNL     1      10.192  -7.092  -0.251  1.00  0.00     0.007 C 
HETATM    4  C5  UNL     1       9.972  -8.563  -0.184  1.00  0.00     0.007 C 
HETATM    5  C6  UNL     1       9.055  -8.758   0.955  1.00  0.00     0.022 C 
HETATM    6  C7  UNL     1       7.594  -8.589   0.724  1.00  0.00     0.053 A 
HETATM    7  C9  UNL     1       6.767  -7.443   0.949  1.00  0.00     0.015 A 
HETATM    8  C13 UNL     1       7.632  -7.790   2.049  1.00  0.00     0.027 A 
ENDROOT
BRANCH   1   9
HETATM    9  C1  UNL     1       9.878  -7.697   3.088  1.00  0.00     0.241 C 
HETATM   10  N1  UNL     1       9.822  -8.953   3.756  1.00  0.00    -0.061 NA
HETATM   11  O1  UNL     1      10.584  -6.803   3.576  1.00  0.00    -0.276 OA
ENDBRANCH   1   9
BRANCH   2  12
HETATM   12  C12 UNL     1       8.386  -5.567   0.455  1.00  0.00    -0.004 A 
HETATM   13  C10 UNL     1       8.635  -4.735  -0.703  1.00  0.00    -0.004 A 
HETATM   14  C11 UNL     1       8.413  -4.100   0.657  1.00  0.00     0.011 A 
ENDBRANCH   2  12
BRANCH   6  15
HETATM   15  C8  UNL     1       6.911  -9.932   0.770  1.00  0.00     0.241 C 
HETATM   16  N2  UNL     1       7.260 -10.917   1.712  1.00  0.00    -0.061 NA
HETATM   17  O2  UNL     1       6.012 -10.165  -0.054  1.00  0.00    -0.276 OA
ENDBRANCH   6  15
TORSDOF 4
ENDMDL
MODEL 5
REMARK VINA RESULT: -4.895320974      2.244      3.580
REMARK  4 active torsions:
REMARK  status: ('A' for Active; 'I' for Inactive)
REMARK    1  A    between atoms: C1_2  and  C2_4 
REMARK    2  A    between atoms: C3_5  and  C12_16 
REMARK    3  A    between atoms: C7_9  and  C8_10 
REMARK    4  A    between atoms: C9_13  and  C10_14 
ROOT
HETATM    1  C2  UNL     1       8.199  -7.373   0.809  1.00  0.00     0.052 C 
HETATM    2  C3  UNL     1       9.209  -8.403   0.497  1.00  0.00     0.008 C 
HETATM    3  C4  UNL     1       9.187  -8.624  -1.009  1.00  0.00     0.007 C 
HETATM    4  C5  UNL     1       8.375  -7.532  -1.613  1.00  0.00     0.007 C 
HETATM    5  C6  UNL     1       8.031  -6.645  -0.486  1.00  0.00     0.022 C 
HETATM    6  C7  UNL     1       9.024  -5.620  -0.062  1.00  0.00     0.053 A 
HETATM    7  C9  UNL     1       9.999  -5.681   0.984  1.00  0.00     0.015 A 
HETATM    8  C13 UNL     1       8.672  -6.092   1.370  1.00  0.00     0.027 A 
ENDROOT
BRANCH   1   9
HETATM    9  C1  UNL     1       6.938  -7.858   1.434  1.00  0.00     0.241 C 
HETATM   10  N1  UNL     1       7.050  -8.907   2.391  1.00  0.00    -0.061 NA
HETATM   11  O1  UNL     1       5.809  -7.414   1.178  1.00  0.00    -0.276 OA
ENDBRANCH   1   9
BRANCH   2  12
HETATM   12  C12 UNL     1      10.597  -8.136   0.955  1.00  0.00    -0.004 A 
HETATM   13  C10 UNL     1      11.632  -9.090   0.623  1.00  0.00    -0.004 A 
HETATM   14  C11 UNL     1      11.229  -8.878   2.071  1.00  0.00     0.011 A 
ENDBRANCH   2  12
BRANCH   6  15
HETATM   15  C8  UNL     1       8.539  -4.248  -0.454  1.00  0.00     0.241 C 
HETATM   16  N2  UNL     1       7.628  -3.522   0.335  1.00  0.00    -0.061 NA
HETATM   17  O2  UNL     1       8.966  -3.751  -1.509  1.00  0.00    -0.276 OA
ENDBRANCH   6  15
TORSDOF 4
ENDMDL
