MODEL 1
REMARK VINA RESULT: -5.434814401      0.000      0.000
REMARK  4 active torsions:
REMARK  status: ('A' for Active; 'I' for Inactive)
REMARK    1  A    between atoms: C2_2  and  N3_16 
REMARK    2  A    between atoms: N1_3  and  C3_5 
REMARK    3  A    between atoms: C3_5  and  C4_9 
REMARK    4  A    between atoms: N3_16  and  N4_18 
ROOT
HETATM    1  C3  UNL     1       7.190  -7.538   1.024  1.00  0.00     0.080 C 
HETATM    2  N2  UNL     1       7.165  -7.941   2.248  1.00  0.00    -0.389 N 
ATOM      3  H21 UNL     1       7.962  -7.826   2.875  1.00  0.00     0.157 HD
ATOM      4  H22 UNL     1       6.323  -8.390   2.607  1.00  0.00     0.157 HD
ENDROOT
BRANCH   1   5
HETATM    5  N1  UNL     1       6.083  -7.697   0.154  1.00  0.00    -0.335 N 
HETATM    6  C2  UNL     1       5.778  -8.870  -0.270  1.00  0.00     0.100 C 
HETATM    7  C1  UNL     1       6.582 -10.030   0.153  1.00  0.00     0.091 C 
ATOM      8  H1  UNL     1       5.534  -6.887  -0.133  1.00  0.00     0.168 HD
BRANCH   6   9
HETATM    9  N3  UNL     1       4.675  -9.069  -1.146  1.00  0.00    -0.207 N 
ATOM     10  H3  UNL     1       3.741  -9.103  -0.741  1.00  0.00     0.195 HD
BRANCH   9  11
HETATM   11  N4  UNL     1       4.796  -9.220  -2.515  1.00  0.00     0.002 N 
HETATM   12  C11 UNL     1       5.942  -8.492  -3.014  1.00  0.00     0.301 C 
HETATM   13  C12 UNL     1       3.566  -8.738  -3.154  1.00  0.00     0.301 C 
HETATM   14  C13 UNL     1       4.942 -10.604  -2.922  1.00  0.00     0.301 C 
ENDBRANCH   9  11
ENDBRANCH   6   9
ENDBRANCH   1   5
BRANCH   1  15
HETATM   15  C4  UNL     1       8.399  -6.893   0.509  1.00  0.00     0.058 C 
HETATM   16  C5  UNL     1       8.354  -6.710  -0.986  1.00  0.00     0.017 C 
HETATM   17  C6  UNL     1       8.613  -5.253  -1.266  1.00  0.00    -0.009 C 
HETATM   18  C7  UNL     1      10.110  -4.983  -1.066  1.00  0.00     0.010 C 
HETATM   19  C9  UNL     1       8.374  -4.579   0.042  1.00  0.00    -0.001 A 
HETATM   20  C8  UNL     1       9.822  -4.799   0.390  1.00  0.00    -0.004 A 
HETATM   21  C10 UNL     1       8.697  -5.544   1.065  1.00  0.00     0.006 A 
ENDBRANCH   1  15
TORSDOF 4
ENDMDL
MODEL 2
REMARK VINA RESULT: -5.393723131      0.298      1.038
REMARK  4 active torsions:
REMARK  status: ('A' for Active; 'I' for Inactive)
REMARK    1  A    between atoms: C2_2  and  N3_16 
REMARK    2  A    between atoms: N1_3  and  C3_5 
REMARK    3  A    between atoms: C3_5  and  C4_9 
REMARK    4  A    between atoms: N3_16  and  N4_18 
ROOT
HETATM    1  C3  UNL     1       7.392  -7.416   1.035  1.00  0.00     0.080 C 
HETATM    2  N2  UNL     1       7.422  -7.693   2.294  1.00  0.00    -0.389 N 
ATOM      3  H21 UNL     1       8.234  -7.490   2.877  1.00  0.00     0.157 HD
ATOM      4  H22 UNL     1       6.609  -8.132   2.726  1.00  0.00     0.157 HD
ENDROOT
BRANCH   1   5
HETATM    5  N1  UNL     1       6.264  -7.699   0.226  1.00  0.00    -0.335 N 
HETATM    6  C2  UNL     1       6.034  -8.909  -0.135  1.00  0.00     0.100 C 
HETATM    7  C1  UNL     1       6.944  -9.984   0.298  1.00  0.00     0.091 C 
ATOM      8  H1  UNL     1       5.640  -6.947  -0.068  1.00  0.00     0.168 HD
BRANCH   6   9
HETATM    9  N3  UNL     1       4.913  -9.233  -0.948  1.00  0.00    -0.207 N 
ATOM     10  H3  UNL     1       4.026  -9.432  -0.486  1.00  0.00     0.195 HD
BRANCH   9  11
HETATM   11  N4  UNL     1       4.954  -9.293  -2.329  1.00  0.00     0.002 N 
HETATM   12  C11 UNL     1       3.730  -8.779  -2.903  1.00  0.00     0.301 C 
HETATM   13  C12 UNL     1       5.165 -10.687  -2.734  1.00  0.00     0.301 C 
HETATM   14  C13 UNL     1       6.057  -8.540  -2.896  1.00  0.00     0.301 C 
ENDBRANCH   9  11
ENDBRANCH   6   9
ENDBRANCH   1   5
BRANCH   1  15
HETATM   15  C4  UNL     1       8.559  -6.786   0.415  1.00  0.00     0.058 C 
HETATM   16  C5  UNL     1       8.306  -6.409  -1.022  1.00  0.00     0.017 C 
HETATM   17  C6  UNL     1       8.638  -4.948  -1.165  1.00  0.00    -0.009 C 
HETATM   18  C7  UNL     1      10.166  -4.800  -1.175  1.00  0.00     0.010 C 
HETATM   19  C9  UNL     1       8.654  -4.435   0.235  1.00  0.00    -0.001 A 
HETATM   20  C8  UNL     1      10.115  -4.789   0.320  1.00  0.00    -0.004 A 
HETATM   21  C10 UNL     1       9.046  -5.543   1.072  1.00  0.00     0.006 A 
ENDBRANCH   1  15
TORSDOF 4
ENDMDL
MODEL 3
REMARK VINA RESULT: -5.252585850      3.359      5.292
REMARK  4 active torsions:
REMARK  status: ('A' for Active; 'I' for Inactive)
REMARK    1  A    between atoms: C2_2  and  N3_16 
REMARK    2  A    between atoms: N1_3  and  C3_5 
REMARK    3  A    between atoms: C3_5  and  C4_9 
REMARK    4  A    between atoms: N3_16  and  N4_18 
ROOT
HETATM    1  C3  UNL     1       9.435  -6.877   2.756  1.00  0.00     0.080 C 
HETATM    2  N2  UNL     1      10.258  -6.885   3.749  1.00  0.00    -0.389 N 
ATOM      3  H21 UNL     1      10.347  -7.684   4.376  1.00  0.00     0.157 HD
ATOM      4  H22 UNL     1      10.842  -6.065   3.917  1.00  0.00     0.157 HD
ENDROOT
BRANCH   1   5
HETATM    5  N1  UNL     1       9.312  -5.767   1.885  1.00  0.00    -0.335 N 
HETATM    6  C2  UNL     1      10.212  -5.563   0.992  1.00  0.00     0.100 C 
HETATM    7  C1  UNL     1      11.357  -6.485   0.887  1.00  0.00     0.091 C 
ATOM      8  H1  UNL     1       8.515  -5.135   1.967  1.00  0.00     0.168 HD
BRANCH   6   9
HETATM    9  N3  UNL     1      10.124  -4.458   0.101  1.00  0.00    -0.207 N 
ATOM     10  H3  UNL     1      10.731  -3.656   0.269  1.00  0.00     0.195 HD
BRANCH   9  11
HETATM   11  N4  UNL     1       9.263  -4.406  -0.980  1.00  0.00     0.002 N 
HETATM   12  C11 UNL     1       9.866  -3.692  -2.084  1.00  0.00     0.301 C 
HETATM   13  C12 UNL     1       8.020  -3.750  -0.563  1.00  0.00     0.301 C 
HETATM   14  C13 UNL     1       8.880  -5.719  -1.462  1.00  0.00     0.301 C 
ENDBRANCH   9  11
ENDBRANCH   6   9
ENDBRANCH   1   5
BRANCH   1  15
HETATM   15  C4  UNL     1       8.597  -8.053   2.516  1.00  0.00     0.058 C 
HETATM   16  C5  UNL     1       7.338  -7.710   1.762  1.00  0.00     0.017 C 
HETATM   17  C6  UNL     1       7.280  -8.609   0.556  1.00  0.00    -0.009 C 
HETATM   18  C7  UNL     1       6.870 -10.013   1.022  1.00  0.00     0.010 C 
HETATM   19  C9  UNL     1       8.672  -9.124   0.414  1.00  0.00    -0.001 A 
HETATM   20  C8  UNL     1       8.313 -10.270   1.322  1.00  0.00    -0.004 A 
HETATM   21  C10 UNL     1       9.235  -9.153   1.742  1.00  0.00     0.006 A 
ENDBRANCH   1  15
TORSDOF 4
ENDMDL
MODEL 4
REMARK VINA RESULT: -5.233766786      3.263      6.130
REMARK  4 active torsions:
REMARK  status: ('A' for Active; 'I' for Inactive)
REMARK    1  A    between atoms: C2_2  and  N3_16 
REMARK    2  A    between atoms: N1_3  and  C3_5 
REMARK    3  A    between atoms: C3_5  and  C4_9 
REMARK    4  A    between atoms: N3_16  and  N4_18 
ROOT
HETATM    1  C3  UNL     1       8.094  -6.745   1.853  1.00  0.00     0.080 C 
HETATM    2  N2  UNL     1       7.284  -7.734   2.023  1.00  0.00    -0.389 N 
ATOM      3  H21 UNL     1       6.589  -7.995   1.324  1.00  0.00     0.157 HD
ATOM      4  H22 UNL     1       7.336  -8.277   2.885  1.00  0.00     0.157 HD
ENDROOT
BRANCH   1   5
HETATM    5  N1  UNL     1       9.059  -6.383   2.824  1.00  0.00    -0.335 N 
HETATM    6  C2  UNL     1      10.057  -7.161   3.042  1.00  0.00     0.100 C 
HETATM    7  C1  UNL     1      10.183  -8.416   2.280  1.00  0.00     0.091 C 
ATOM      8  H1  UNL     1       8.962  -5.512   3.346  1.00  0.00     0.168 HD
BRANCH   6   9
HETATM    9  N3  UNL     1      11.046  -6.832   4.011  1.00  0.00    -0.207 N 
ATOM     10  H3  UNL     1      10.776  -6.843   4.994  1.00  0.00     0.195 HD
BRANCH   9  11
HETATM   11  N4  UNL     1      12.350  -6.499   3.698  1.00  0.00     0.002 N 
HETATM   12  C11 UNL     1      13.214  -7.654   3.796  1.00  0.00     0.301 C 
HETATM   13  C12 UNL     1      12.800  -5.442   4.611  1.00  0.00     0.301 C 
HETATM   14  C13 UNL     1      12.491  -5.956   2.360  1.00  0.00     0.301 C 
ENDBRANCH   9  11
ENDBRANCH   6   9
ENDBRANCH   1   5
BRANCH   1  15
HETATM   15  C4  UNL     1       8.018  -5.966   0.616  1.00  0.00     0.058 C 
HETATM   16  C5  UNL     1       8.604  -4.587   0.775  1.00  0.00     0.017 C 
HETATM   17  C6  UNL     1       9.637  -4.413  -0.307  1.00  0.00    -0.009 C 
HETATM   18  C7  UNL     1       8.906  -4.178  -1.636  1.00  0.00     0.010 C 
HETATM   19  C9  UNL     1       9.920  -5.801  -0.772  1.00  0.00    -0.001 A 
HETATM   20  C8  UNL     1       8.805  -5.665  -1.774  1.00  0.00    -0.004 A 
HETATM   21  C10 UNL     1       8.710  -6.557  -0.562  1.00  0.00     0.006 A 
ENDBRANCH   1  15
TORSDOF 4
ENDMDL
MODEL 5
REMARK VINA RESULT: -5.232043728      0.709      1.712
REMARK  4 active torsions:
REMARK  status: ('A' for Active; 'I' for Inactive)
REMARK    1  A    between atoms: C2_2  and  N3_16 
REMARK    2  A    between atoms: N1_3  and  C3_5 
REMARK    3  A    between atoms: C3_5  and  C4_9 
REMARK    4  A    between atoms: N3_16  and  N4_18 
ROOT
HETATM    1  C3  UNL     1       7.142  -7.424   1.134  1.00  0.00     0.080 C 
HETATM    2  N2  UNL     1       7.487  -7.995   2.237  1.00  0.00    -0.389 N 
ATOM      3  H21 UNL     1       8.288  -7.682   2.785  1.00  0.00     0.157 HD
ATOM      4  H22 UNL     1       6.943  -8.788   2.578  1.00  0.00     0.157 HD
ENDROOT
BRANCH   1   5
HETATM    5  N1  UNL     1       6.029  -7.859   0.374  1.00  0.00    -0.335 N 
HETATM    6  C2  UNL     1       6.077  -8.995  -0.222  1.00  0.00     0.100 C 
HETATM    7  C1  UNL     1       7.287  -9.828  -0.106  1.00  0.00     0.091 C 
ATOM      8  H1  UNL     1       5.196  -7.274   0.300  1.00  0.00     0.168 HD
BRANCH   6   9
HETATM    9  N3  UNL     1       4.980  -9.465  -0.996  1.00  0.00    -0.207 N 
ATOM     10  H3  UNL     1       4.194  -9.892  -0.505  1.00  0.00     0.195 HD
BRANCH   9  11
HETATM   11  N4  UNL     1       4.915  -9.379  -2.374  1.00  0.00     0.002 N 
HETATM   12  C11 UNL     1       3.627  -8.877  -2.798  1.00  0.00     0.301 C 
HETATM   13  C12 UNL     1       5.161 -10.709  -2.943  1.00  0.00     0.301 C 
HETATM   14  C13 UNL     1       5.932  -8.510  -2.935  1.00  0.00     0.301 C 
ENDBRANCH   9  11
ENDBRANCH   6   9
ENDBRANCH   1   5
BRANCH   1  15
HETATM   15  C4  UNL     1       7.923  -6.286   0.645  1.00  0.00     0.058 C 
HETATM   16  C5  UNL     1       8.987  -5.863   1.624  1.00  0.00     0.017 C 
HETATM   17  C6  UNL     1      10.297  -5.855   0.882  1.00  0.00    -0.009 C 
HETATM   18  C7  UNL     1      10.334  -4.611  -0.017  1.00  0.00     0.010 C 
HETATM   19  C9  UNL     1      10.033  -6.663  -0.343  1.00  0.00    -0.001 A 
HETATM   20  C8  UNL     1       9.593  -5.406  -1.045  1.00  0.00    -0.004 A 
HETATM   21  C10 UNL     1       8.632  -6.498  -0.646  1.00  0.00     0.006 A 
ENDBRANCH   1  15
TORSDOF 4
ENDMDL
