MODEL 1
REMARK VINA RESULT: -5.072664652      0.000      0.000
REMARK  2 active torsions:
REMARK  status: ('A' for Active; 'I' for Inactive)
REMARK    1  A    between atoms: C1_2  and  N2_4 
REMARK    2  A    between atoms: N2_4  and  C2_6 
ROOT
HETATM    1  C2  UNL     1      10.216  -5.749   0.849  1.00  0.00     0.085 C 
HETATM    2  C3  UNL     1      10.260  -6.783  -0.276  1.00  0.00     0.027 C 
HETATM    3  C4  UNL     1       9.077  -6.604  -1.159  1.00  0.00     0.030 C 
HETATM    4  C5  UNL     1       7.919  -7.479  -0.863  1.00  0.00     0.237 C 
HETATM    5  N3  UNL     1       7.701  -7.860   0.473  1.00  0.00    -0.067 N 
HETATM    6  C6  UNL     1       6.253  -7.759   0.735  1.00  0.00     0.237 C 
HETATM    7  C7  UNL     1       5.676  -8.904  -0.088  1.00  0.00     0.029 C 
HETATM    8  C8  UNL     1       6.690  -9.992   0.169  1.00  0.00     0.029 C 
HETATM    9  C9  UNL     1       7.911  -9.307   0.662  1.00  0.00     0.237 C 
HETATM   10  C10 UNL     1       8.395  -7.215   1.503  1.00  0.00     0.239 C 
HETATM   11  C11 UNL     1       8.763  -5.791   1.329  1.00  0.00     0.053 C 
ENDROOT
BRANCH   1  12
HETATM   12  N2  UNL     1      10.647  -4.468   0.409  1.00  0.00    -0.365 N 
ATOM     13  H2  UNL     1      10.127  -3.654   0.736  1.00  0.00     0.162 HD
BRANCH  12  14
HETATM   14  C1  UNL     1      11.737  -4.246  -0.445  1.00  0.00     0.181 C 
HETATM   15  N1  UNL     1      13.046  -4.572  -0.007  1.00  0.00    -0.070 NA
HETATM   16  S1  UNL     1      11.553  -3.609  -1.924  1.00  0.00    -0.044 SA
ENDBRANCH  12  14
ENDBRANCH   1  12
TORSDOF 2
ENDMDL
MODEL 2
REMARK VINA RESULT: -4.956984623      1.587      2.297
REMARK  2 active torsions:
REMARK  status: ('A' for Active; 'I' for Inactive)
REMARK    1  A    between atoms: C1_2  and  N2_4 
REMARK    2  A    between atoms: N2_4  and  C2_6 
ROOT
HETATM    1  C2  UNL     1      10.953  -5.137  -0.817  1.00  0.00     0.085 C 
HETATM    2  C3  UNL     1       9.498  -4.690  -0.964  1.00  0.00     0.027 C 
HETATM    3  C4  UNL     1       8.907  -4.478   0.383  1.00  0.00     0.030 C 
HETATM    4  C5  UNL     1       8.143  -5.620   0.935  1.00  0.00     0.237 C 
HETATM    5  N3  UNL     1       8.548  -6.919   0.584  1.00  0.00    -0.067 N 
HETATM    6  C6  UNL     1       8.489  -7.750   1.801  1.00  0.00     0.237 C 
HETATM    7  C7  UNL     1       6.993  -7.873   2.058  1.00  0.00     0.029 C 
HETATM    8  C8  UNL     1       6.468  -8.070   0.657  1.00  0.00     0.029 C 
HETATM    9  C9  UNL     1       7.538  -7.592  -0.254  1.00  0.00     0.237 C 
HETATM   10  C10 UNL     1       9.784  -7.119  -0.042  1.00  0.00     0.239 C 
HETATM   11  C11 UNL     1      10.901  -6.200   0.283  1.00  0.00     0.053 C 
ENDROOT
BRANCH   1  12
HETATM   12  N2  UNL     1      11.816  -4.044  -0.531  1.00  0.00    -0.365 N 
ATOM     13  H2  UNL     1      11.765  -3.630   0.399  1.00  0.00     0.162 HD
BRANCH  12  14
HETATM   14  C1  UNL     1      12.732  -3.495  -1.439  1.00  0.00     0.181 C 
HETATM   15  N1  UNL     1      12.349  -3.307  -2.792  1.00  0.00    -0.070 NA
HETATM   16  S1  UNL     1      14.234  -3.076  -0.997  1.00  0.00    -0.044 SA
ENDBRANCH  12  14
ENDBRANCH   1  12
TORSDOF 2
ENDMDL
MODEL 3
REMARK VINA RESULT: -4.846627640      0.808      1.868
REMARK  2 active torsions:
REMARK  status: ('A' for Active; 'I' for Inactive)
REMARK    1  A    between atoms: C1_2  and  N2_4 
REMARK    2  A    between atoms: N2_4  and  C2_6 
ROOT
HETATM    1  C2  UNL     1       9.988  -5.204  -0.505  1.00  0.00     0.085 C 
HETATM    2  C3  UNL     1       8.687  -5.012   0.274  1.00  0.00     0.027 C 
HETATM    3  C4  UNL     1       8.749  -5.788   1.540  1.00  0.00     0.030 C 
HETATM    4  C5  UNL     1       8.126  -7.131   1.500  1.00  0.00     0.237 C 
HETATM    5  N3  UNL     1       8.154  -7.837   0.284  1.00  0.00    -0.067 N 
HETATM    6  C6  UNL     1       8.485  -9.241   0.591  1.00  0.00     0.237 C 
HETATM    7  C7  UNL     1       7.232  -9.743   1.296  1.00  0.00     0.029 C 
HETATM    8  C8  UNL     1       6.149  -9.106   0.461  1.00  0.00     0.029 C 
HETATM    9  C9  UNL     1       6.799  -7.995  -0.279  1.00  0.00     0.237 C 
HETATM   10  C10 UNL     1       8.973  -7.395  -0.760  1.00  0.00     0.239 C 
HETATM   11  C11 UNL     1      10.244  -6.711  -0.425  1.00  0.00     0.053 C 
ENDROOT
BRANCH   1  12
HETATM   12  N2  UNL     1      11.041  -4.405   0.018  1.00  0.00    -0.365 N 
ATOM     13  H2  UNL     1      10.961  -4.088   0.984  1.00  0.00     0.162 HD
BRANCH  12  14
HETATM   14  C1  UNL     1      12.182  -4.022  -0.702  1.00  0.00     0.181 C 
HETATM   15  N1  UNL     1      13.468  -4.287  -0.166  1.00  0.00    -0.070 NA
HETATM   16  S1  UNL     1      12.081  -3.267  -2.133  1.00  0.00    -0.044 SA
ENDBRANCH  12  14
ENDBRANCH   1  12
TORSDOF 2
ENDMDL
MODEL 4
REMARK VINA RESULT: -4.806780778      3.023      4.075
REMARK  2 active torsions:
REMARK  status: ('A' for Active; 'I' for Inactive)
REMARK    1  A    between atoms: C1_2  and  N2_4 
REMARK    2  A    between atoms: N2_4  and  C2_6 
ROOT
HETATM    1  C2  UNL     1       8.191  -8.306  -0.669  1.00  0.00     0.085 C 
HETATM    2  C3  UNL     1       8.329  -8.598  -2.163  1.00  0.00     0.027 C 
HETATM    3  C4  UNL     1       7.458  -7.670  -2.931  1.00  0.00     0.030 C 
HETATM    4  C5  UNL     1       6.124  -8.199  -3.299  1.00  0.00     0.237 C 
HETATM    5  N3  UNL     1       5.513  -9.118  -2.427  1.00  0.00    -0.067 N 
HETATM    6  C6  UNL     1       4.089  -8.752  -2.320  1.00  0.00     0.237 C 
HETATM    7  C7  UNL     1       3.540  -9.107  -3.696  1.00  0.00     0.029 C 
HETATM    8  C8  UNL     1       4.243 -10.414  -3.965  1.00  0.00     0.029 C 
HETATM    9  C9  UNL     1       5.405 -10.454  -3.041  1.00  0.00     0.237 C 
HETATM   10  C10 UNL     1       6.031  -9.308  -1.141  1.00  0.00     0.239 C 
HETATM   11  C11 UNL     1       6.682  -8.164  -0.461  1.00  0.00     0.053 C 
ENDROOT
BRANCH   1  12
HETATM   12  N2  UNL     1       8.943  -7.164  -0.281  1.00  0.00    -0.365 N 
ATOM     13  H2  UNL     1       9.782  -6.944  -0.817  1.00  0.00     0.162 HD
BRANCH  12  14
HETATM   14  C1  UNL     1       8.612  -6.318   0.787  1.00  0.00     0.181 C 
HETATM   15  N1  UNL     1       8.034  -5.050   0.522  1.00  0.00    -0.070 NA
HETATM   16  S1  UNL     1       8.881  -6.737   2.329  1.00  0.00    -0.044 SA
ENDBRANCH  12  14
ENDBRANCH   1  12
TORSDOF 2
ENDMDL
MODEL 5
REMARK VINA RESULT: -4.792753433      1.587      2.102
REMARK  2 active torsions:
REMARK  status: ('A' for Active; 'I' for Inactive)
REMARK    1  A    between atoms: C1_2  and  N2_4 
REMARK    2  A    between atoms: N2_4  and  C2_6 
ROOT
HETATM    1  C2  UNL     1      10.072  -4.964  -0.415  1.00  0.00     0.085 C 
HETATM    2  C3  UNL     1      10.587  -5.923   0.659  1.00  0.00     0.027 C 
HETATM    3  C4  UNL     1      10.539  -7.315   0.142  1.00  0.00     0.030 C 
HETATM    4  C5  UNL     1       9.334  -8.094   0.509  1.00  0.00     0.237 C 
HETATM    5  N3  UNL     1       8.121  -7.402   0.666  1.00  0.00    -0.067 N 
HETATM    6  C6  UNL     1       7.062  -8.204   0.026  1.00  0.00     0.237 C 
HETATM    7  C7  UNL     1       6.938  -9.408   0.951  1.00  0.00     0.029 C 
HETATM    8  C8  UNL     1       7.047  -8.752   2.305  1.00  0.00     0.029 C 
HETATM    9  C9  UNL     1       7.666  -7.423   2.070  1.00  0.00     0.237 C 
HETATM   10  C10 UNL     1       8.013  -6.077   0.230  1.00  0.00     0.239 C 
HETATM   11  C11 UNL     1       8.810  -5.649  -0.944  1.00  0.00     0.053 C 
ENDROOT
BRANCH   1  12
HETATM   12  N2  UNL     1      11.055  -4.705  -1.409  1.00  0.00    -0.365 N 
ATOM     13  H2  UNL     1      11.763  -5.421  -1.573  1.00  0.00     0.162 HD
BRANCH  12  14
HETATM   14  C1  UNL     1      11.120  -3.536  -2.179  1.00  0.00     0.181 C 
HETATM   15  N1  UNL     1       9.928  -2.985  -2.715  1.00  0.00    -0.070 NA
HETATM   16  S1  UNL     1      12.525  -2.790  -2.492  1.00  0.00    -0.044 SA
ENDBRANCH  12  14
ENDBRANCH   1  12
TORSDOF 2
ENDMDL
