MODEL 1
REMARK VINA RESULT: -5.485451158      0.000      0.000
REMARK  3 active torsions:
REMARK  status: ('A' for Active; 'I' for Inactive)
REMARK    1  A    between atoms: C2_2  and  C4_4 
REMARK    2  A    between atoms: C7_7  and  C8_8 
REMARK    3  A    between atoms: C9_11  and  C10_12 
REMARK       I    between atoms: C10_12  and  N1_14 
ROOT
HETATM    1  C10 UNL     1       9.714  -7.858   2.734  1.00  0.00     0.236 C 
HETATM    2  O3  UNL     1       9.929  -7.048   3.659  1.00  0.00    -0.272 OA
HETATM    3  N1  UNL     1       9.736  -9.254   3.004  1.00  0.00    -0.264 N 
ATOM      4  H1  UNL     1       9.559  -9.914   2.247  1.00  0.00     0.181 HD
HETATM    5  C11 UNL     1      10.000  -9.743   4.309  1.00  0.00     0.184 C 
HETATM    6  N2  UNL     1      10.212 -10.159   5.368  1.00  0.00    -0.172 NA
ENDROOT
BRANCH   1   7
HETATM    7  C9  UNL     1       9.438  -7.408   1.382  1.00  0.00     0.099 C 
HETATM    8  C7  UNL     1       8.150  -7.816   0.769  1.00  0.00     0.104 C 
HETATM    9  C6  UNL     1       7.731  -6.657  -0.145  1.00  0.00     0.007 C 
HETATM   10  C5  UNL     1       8.773  -6.486  -1.228  1.00  0.00     0.016 C 
HETATM   11  C13 UNL     1       8.291  -5.458   0.539  1.00  0.00     0.005 A 
HETATM   12  C4  UNL     1       9.524  -5.567  -0.302  1.00  0.00    -0.028 A 
HETATM   13  C12 UNL     1       9.505  -5.906   1.190  1.00  0.00     0.014 A 
BRANCH   8  14
HETATM   14  C8  UNL     1       7.073  -8.196   1.680  1.00  0.00     0.178 C 
HETATM   15  O1  UNL     1       6.264  -7.365   2.162  1.00  0.00    -0.648 OA
HETATM   16  O2  UNL     1       6.913  -9.519   2.046  1.00  0.00    -0.648 OA
ENDBRANCH   8  14
BRANCH  12  17
HETATM   17  C2  UNL     1      10.225  -4.349  -0.774  1.00  0.00    -0.013 C 
HETATM   18  C1  UNL     1      11.716  -4.450  -0.680  1.00  0.00     0.010 C 
HETATM   19  C3  UNL     1       9.890  -4.048  -2.233  1.00  0.00     0.010 C 
ENDBRANCH  12  17
ENDBRANCH   1   7
TORSDOF 3
ENDMDL
MODEL 2
REMARK VINA RESULT: -5.324984446      2.727      3.689
REMARK  3 active torsions:
REMARK  status: ('A' for Active; 'I' for Inactive)
REMARK    1  A    between atoms: C2_2  and  C4_4 
REMARK    2  A    between atoms: C7_7  and  C8_8 
REMARK    3  A    between atoms: C9_11  and  C10_12 
REMARK       I    between atoms: C10_12  and  N1_14 
ROOT
HETATM    1  C10 UNL     1       7.782  -8.319  -1.017  1.00  0.00     0.236 C 
HETATM    2  O3  UNL     1       8.678  -9.187  -1.051  1.00  0.00    -0.272 OA
HETATM    3  N1  UNL     1       6.429  -8.697  -1.238  1.00  0.00    -0.264 N 
ATOM      4  H1  UNL     1       5.698  -7.986  -1.210  1.00  0.00     0.181 HD
HETATM    5  C11 UNL     1       6.080 -10.048  -1.498  1.00  0.00     0.184 C 
HETATM    6  N2  UNL     1       5.777 -11.145  -1.709  1.00  0.00    -0.172 NA
ENDROOT
BRANCH   1   7
HETATM    7  C9  UNL     1       8.087  -6.924  -0.755  1.00  0.00     0.099 C 
HETATM    8  C7  UNL     1       7.693  -6.368   0.563  1.00  0.00     0.104 C 
HETATM    9  C6  UNL     1       8.762  -5.326   0.918  1.00  0.00     0.007 C 
HETATM   10  C5  UNL     1       8.737  -4.227  -0.120  1.00  0.00     0.016 C 
HETATM   11  C13 UNL     1       9.994  -5.862   0.276  1.00  0.00     0.005 A 
HETATM   12  C4  UNL     1       9.708  -5.035  -0.938  1.00  0.00    -0.028 A 
HETATM   13  C12 UNL     1       9.548  -6.557  -0.915  1.00  0.00     0.014 A 
BRANCH   8  14
HETATM   14  C8  UNL     1       7.493  -7.322   1.651  1.00  0.00     0.178 C 
HETATM   15  O1  UNL     1       6.371  -7.813   1.929  1.00  0.00    -0.648 OA
HETATM   16  O2  UNL     1       8.566  -7.721   2.427  1.00  0.00    -0.648 OA
ENDBRANCH   8  14
BRANCH  12  17
HETATM   17  C2  UNL     1      10.815  -4.420  -1.709  1.00  0.00    -0.013 C 
HETATM   18  C1  UNL     1      10.383  -3.244  -2.530  1.00  0.00     0.010 C 
HETATM   19  C3  UNL     1      11.930  -3.934  -0.786  1.00  0.00     0.010 C 
ENDBRANCH  12  17
ENDBRANCH   1   7
TORSDOF 3
ENDMDL
MODEL 3
REMARK VINA RESULT: -5.156485493      2.688      4.028
REMARK  3 active torsions:
REMARK  status: ('A' for Active; 'I' for Inactive)
REMARK    1  A    between atoms: C2_2  and  C4_4 
REMARK    2  A    between atoms: C7_7  and  C8_8 
REMARK    3  A    between atoms: C9_11  and  C10_12 
REMARK       I    between atoms: C10_12  and  N1_14 
ROOT
HETATM    1  C10 UNL     1       6.545  -8.715  -0.755  1.00  0.00     0.236 C 
HETATM    2  O3  UNL     1       5.316  -8.796  -0.553  1.00  0.00    -0.272 OA
HETATM    3  N1  UNL     1       7.182  -9.667  -1.597  1.00  0.00    -0.264 N 
ATOM      4  H1  UNL     1       8.187  -9.599  -1.760  1.00  0.00     0.181 HD
HETATM    5  C11 UNL     1       6.444 -10.710  -2.213  1.00  0.00     0.184 C 
HETATM    6  N2  UNL     1       5.857 -11.565  -2.725  1.00  0.00    -0.172 NA
ENDROOT
BRANCH   1   7
HETATM    7  C9  UNL     1       7.345  -7.666  -0.148  1.00  0.00     0.099 C 
HETATM    8  C7  UNL     1       7.776  -7.855   1.259  1.00  0.00     0.104 C 
HETATM    9  C6  UNL     1       9.151  -7.184   1.373  1.00  0.00     0.007 C 
HETATM   10  C5  UNL     1       9.000  -5.707   1.085  1.00  0.00     0.016 C 
HETATM   11  C13 UNL     1       9.733  -7.357   0.013  1.00  0.00     0.005 A 
HETATM   12  C4  UNL     1       9.201  -6.013  -0.375  1.00  0.00    -0.028 A 
HETATM   13  C12 UNL     1       8.612  -7.322  -0.904  1.00  0.00     0.014 A 
BRANCH   8  14
HETATM   14  C8  UNL     1       7.805  -9.225   1.765  1.00  0.00     0.178 C 
HETATM   15  O1  UNL     1       7.087  -9.615   2.719  1.00  0.00    -0.648 OA
HETATM   16  O2  UNL     1       8.650 -10.156   1.189  1.00  0.00    -0.648 OA
ENDBRANCH   8  14
BRANCH  12  17
HETATM   17  C2  UNL     1       9.972  -5.129  -1.281  1.00  0.00    -0.013 C 
HETATM   18  C1  UNL     1       9.188  -3.947  -1.763  1.00  0.00     0.010 C 
HETATM   19  C3  UNL     1      11.222  -4.585  -0.594  1.00  0.00     0.010 C 
ENDBRANCH  12  17
ENDBRANCH   1   7
TORSDOF 3
ENDMDL
MODEL 4
REMARK VINA RESULT: -5.149911240      1.386      1.536
REMARK  3 active torsions:
REMARK  status: ('A' for Active; 'I' for Inactive)
REMARK    1  A    between atoms: C2_2  and  C4_4 
REMARK    2  A    between atoms: C7_7  and  C8_8 
REMARK    3  A    between atoms: C9_11  and  C10_12 
REMARK       I    between atoms: C10_12  and  N1_14 
ROOT
HETATM    1  C10 UNL     1      10.186  -9.146   2.326  1.00  0.00     0.236 C 
HETATM    2  O3  UNL     1      10.887 -10.154   2.098  1.00  0.00    -0.272 OA
HETATM    3  N1  UNL     1      10.028  -8.689   3.663  1.00  0.00    -0.264 N 
ATOM      4  H1  UNL     1       9.455  -7.865   3.848  1.00  0.00     0.181 HD
HETATM    5  C11 UNL     1      10.653  -9.361   4.745  1.00  0.00     0.184 C 
HETATM    6  N2  UNL     1      11.158  -9.895   5.639  1.00  0.00    -0.172 NA
ENDROOT
BRANCH   1   7
HETATM    7  C9  UNL     1       9.526  -8.424   1.254  1.00  0.00     0.099 C 
HETATM    8  C7  UNL     1       8.170  -8.874   0.852  1.00  0.00     0.104 C 
HETATM    9  C6  UNL     1       7.416  -7.609   0.423  1.00  0.00     0.007 C 
HETATM   10  C5  UNL     1       8.119  -7.000  -0.769  1.00  0.00     0.016 C 
HETATM   11  C13 UNL     1       8.012  -6.544   1.277  1.00  0.00     0.005 A 
HETATM   12  C4  UNL     1       8.989  -6.231   0.188  1.00  0.00    -0.028 A 
HETATM   13  C12 UNL     1       9.391  -6.932   1.488  1.00  0.00     0.014 A 
BRANCH   8  14
HETATM   14  C8  UNL     1       7.410  -9.644   1.834  1.00  0.00     0.178 C 
HETATM   15  O1  UNL     1       6.966  -9.144   2.897  1.00  0.00    -0.648 OA
HETATM   16  O2  UNL     1       7.152 -10.984   1.610  1.00  0.00    -0.648 OA
ENDBRANCH   8  14
BRANCH  12  17
HETATM   17  C2  UNL     1       9.418  -4.834  -0.061  1.00  0.00    -0.013 C 
HETATM   18  C1  UNL     1      10.613  -4.734  -0.959  1.00  0.00     0.010 C 
HETATM   19  C3  UNL     1       8.302  -4.020  -0.711  1.00  0.00     0.010 C 
ENDBRANCH  12  17
ENDBRANCH   1   7
TORSDOF 3
ENDMDL
MODEL 5
REMARK VINA RESULT: -5.126750524      3.878      5.307
REMARK  3 active torsions:
REMARK  status: ('A' for Active; 'I' for Inactive)
REMARK    1  A    between atoms: C2_2  and  C4_4 
REMARK    2  A    between atoms: C7_7  and  C8_8 
REMARK    3  A    between atoms: C9_11  and  C10_12 
REMARK       I    between atoms: C10_12  and  N1_14 
ROOT
HETATM    1  C10 UNL     1       5.990  -9.099  -2.264  1.00  0.00     0.236 C 
HETATM    2  O3  UNL     1       6.684  -9.408  -3.255  1.00  0.00    -0.272 OA
HETATM    3  N1  UNL     1       4.612  -9.447  -2.236  1.00  0.00    -0.264 N 
ATOM      4  H1  UNL     1       4.047  -9.194  -1.424  1.00  0.00     0.181 HD
HETATM    5  C11 UNL     1       4.010 -10.140  -3.317  1.00  0.00     0.184 C 
HETATM    6  N2  UNL     1       3.503 -10.709  -4.189  1.00  0.00    -0.172 NA
ENDROOT
BRANCH   1   7
HETATM    7  C9  UNL     1       6.560  -8.390  -1.133  1.00  0.00     0.099 C 
HETATM    8  C7  UNL     1       6.882  -9.177   0.083  1.00  0.00     0.104 C 
HETATM    9  C6  UNL     1       8.121  -8.513   0.699  1.00  0.00     0.007 C 
HETATM   10  C5  UNL     1       7.771  -7.096   1.094  1.00  0.00     0.016 C 
HETATM   11  C13 UNL     1       8.846  -7.971  -0.483  1.00  0.00     0.005 A 
HETATM   12  C4  UNL     1       8.152  -6.659  -0.295  1.00  0.00    -0.028 A 
HETATM   13  C12 UNL     1       7.824  -7.614  -1.445  1.00  0.00     0.014 A 
BRANCH   8  14
HETATM   14  C8  UNL     1       7.075 -10.615  -0.091  1.00  0.00     0.178 C 
HETATM   15  O1  UNL     1       8.199 -11.130  -0.309  1.00  0.00    -0.648 OA
HETATM   16  O2  UNL     1       5.992 -11.471  -0.017  1.00  0.00    -0.648 OA
ENDBRANCH   8  14
BRANCH  12  17
HETATM   17  C2  UNL     1       8.858  -5.385  -0.571  1.00  0.00    -0.013 C 
HETATM   18  C1  UNL     1       8.835  -4.997  -2.017  1.00  0.00     0.010 C 
HETATM   19  C3  UNL     1       8.238  -4.229   0.211  1.00  0.00     0.010 C 
ENDBRANCH  12  17
ENDBRANCH   1   7
TORSDOF 3
ENDMDL
