MODEL 1
REMARK VINA RESULT: -5.306052290      0.000      0.000
REMARK  3 active torsions:
REMARK  status: ('A' for Active; 'I' for Inactive)
REMARK    1  A    between atoms: C5_9  and  C6_10 
REMARK    2  A    between atoms: C6_10  and  N3_11 
REMARK       I    between atoms: N3_11  and  C7_13 
REMARK       I    between atoms: C7_13  and  N4_15 
REMARK    3  A    between atoms: N4_15  and  C8_17 
ROOT
HETATM    1  C6  UNL     1      11.083  -4.469  -1.689  1.00  0.00     0.151 C 
ENDROOT
BRANCH   1   2
HETATM    2  C5  UNL     1      10.078  -4.270  -0.590  1.00  0.00     0.128 C 
HETATM    3  C2  UNL     1       8.667  -4.195  -1.069  1.00  0.00     0.106 C 
HETATM    4  C1  UNL     1       8.302  -5.320  -2.010  1.00  0.00     0.034 C 
HETATM    5  N1  UNL     1       7.927  -4.448   0.178  1.00  0.00    -0.337 N 
HETATM    6  C3  UNL     1       8.732  -5.432   0.858  1.00  0.00     0.318 C 
ATOM      7  H1  UNL     1       7.051  -4.028   0.488  1.00  0.00     0.164 HD
HETATM    8  O1  UNL     1       8.280  -6.191   1.751  1.00  0.00    -0.247 OA
HETATM    9  N2  UNL     1      10.049  -5.371   0.344  1.00  0.00    -0.330 N 
HETATM   10  C4  UNL     1      11.172  -6.214   0.659  1.00  0.00     0.155 C 
ENDBRANCH   1   2
BRANCH   1  11
HETATM   11  N3  UNL     1      11.845  -3.253  -1.830  1.00  0.00    -0.341 N 
HETATM   12  C7  UNL     1      13.182  -3.121  -1.364  1.00  0.00     0.316 C 
HETATM   13  O2  UNL     1      13.696  -4.127  -0.811  1.00  0.00    -0.247 OA
HETATM   14  N4  UNL     1      13.939  -1.945  -1.493  1.00  0.00    -0.335 N 
ATOM     15  H4  UNL     1      13.510  -1.138  -1.944  1.00  0.00     0.165 HD
ATOM     16  H3  UNL     1      11.406  -2.452  -2.283  1.00  0.00     0.164 HD
BRANCH  14  17
HETATM   17  C8  UNL     1      15.283  -1.829  -1.019  1.00  0.00     0.023 C 
HETATM   18  C9  UNL     1      16.293  -2.502  -1.934  1.00  0.00     0.037 C 
HETATM   19  C10 UNL     1      15.428  -2.407   0.373  1.00  0.00     0.037 C 
HETATM   20  C11 UNL     1      15.680  -0.367  -0.941  1.00  0.00     0.037 C 
ENDBRANCH  14  17
ENDBRANCH   1  11
TORSDOF 3
ENDMDL
MODEL 2
REMARK VINA RESULT: -5.250180492      0.073      1.019
REMARK  3 active torsions:
REMARK  status: ('A' for Active; 'I' for Inactive)
REMARK    1  A    between atoms: C5_9  and  C6_10 
REMARK    2  A    between atoms: C6_10  and  N3_11 
REMARK       I    between atoms: N3_11  and  C7_13 
REMARK       I    between atoms: C7_13  and  N4_15 
REMARK    3  A    between atoms: N4_15  and  C8_17 
ROOT
HETATM    1  C6  UNL     1      11.104  -4.521  -1.687  1.00  0.00     0.151 C 
ENDROOT
BRANCH   1   2
HETATM    2  C5  UNL     1      10.099  -4.300  -0.592  1.00  0.00     0.128 C 
HETATM    3  C2  UNL     1       8.692  -4.195  -1.077  1.00  0.00     0.106 C 
HETATM    4  C1  UNL     1       8.307  -5.312  -2.020  1.00  0.00     0.034 C 
HETATM    5  N1  UNL     1       7.941  -4.432   0.167  1.00  0.00    -0.337 N 
HETATM    6  C3  UNL     1       8.721  -5.432   0.850  1.00  0.00     0.318 C 
ATOM      7  H1  UNL     1       7.073  -3.992   0.473  1.00  0.00     0.164 HD
HETATM    8  O1  UNL     1       8.250  -6.181   1.742  1.00  0.00    -0.247 OA
HETATM    9  N2  UNL     1      10.042  -5.400   0.342  1.00  0.00    -0.330 N 
HETATM   10  C4  UNL     1      11.145  -6.267   0.661  1.00  0.00     0.155 C 
ENDBRANCH   1   2
BRANCH   1  11
HETATM   11  N3  UNL     1      11.877  -3.314  -1.841  1.00  0.00    -0.341 N 
HETATM   12  C7  UNL     1      13.209  -3.183  -1.360  1.00  0.00     0.316 C 
HETATM   13  O2  UNL     1      13.707  -4.181  -0.781  1.00  0.00    -0.247 OA
HETATM   14  N4  UNL     1      13.976  -2.016  -1.501  1.00  0.00    -0.335 N 
ATOM     15  H4  UNL     1      13.560  -1.213  -1.973  1.00  0.00     0.165 HD
ATOM     16  H3  UNL     1      11.450  -2.518  -2.315  1.00  0.00     0.164 HD
BRANCH  14  17
HETATM   17  C8  UNL     1      15.315  -1.900  -1.012  1.00  0.00     0.023 C 
HETATM   18  C9  UNL     1      15.512  -2.570   0.338  1.00  0.00     0.037 C 
HETATM   19  C10 UNL     1      15.736  -0.450  -0.900  1.00  0.00     0.037 C 
HETATM   20  C11 UNL     1      16.277  -2.573  -1.972  1.00  0.00     0.037 C 
ENDBRANCH  14  17
ENDBRANCH   1  11
TORSDOF 3
ENDMDL
MODEL 3
REMARK VINA RESULT: -5.223691425      4.836      9.027
REMARK  3 active torsions:
REMARK  status: ('A' for Active; 'I' for Inactive)
REMARK    1  A    between atoms: C5_9  and  C6_10 
REMARK    2  A    between atoms: C6_10  and  N3_11 
REMARK       I    between atoms: N3_11  and  C7_13 
REMARK       I    between atoms: C7_13  and  N4_15 
REMARK    3  A    between atoms: N4_15  and  C8_17 
ROOT
HETATM    1  C6  UNL     1       7.377  -8.500   0.143  1.00  0.00     0.151 C 
ENDROOT
BRANCH   1   2
HETATM    2  C5  UNL     1       7.522  -7.050   0.511  1.00  0.00     0.128 C 
HETATM    3  C2  UNL     1       8.263  -6.823   1.786  1.00  0.00     0.106 C 
HETATM    4  C1  UNL     1       9.566  -7.587   1.856  1.00  0.00     0.034 C 
HETATM    5  N1  UNL     1       8.628  -5.403   1.658  1.00  0.00    -0.337 N 
HETATM    6  C3  UNL     1       8.923  -5.253   0.255  1.00  0.00     0.318 C 
ATOM      7  H1  UNL     1       8.664  -4.692   2.388  1.00  0.00     0.164 HD
HETATM    8  O1  UNL     1       9.630  -4.321  -0.203  1.00  0.00    -0.247 OA
HETATM    9  N2  UNL     1       8.294  -6.305  -0.454  1.00  0.00    -0.330 N 
HETATM   10  C4  UNL     1       8.375  -6.611  -1.858  1.00  0.00     0.155 C 
ENDBRANCH   1   2
BRANCH   1  11
HETATM   11  N3  UNL     1       6.015  -8.724  -0.277  1.00  0.00    -0.341 N 
HETATM   12  C7  UNL     1       5.678  -9.246  -1.556  1.00  0.00     0.316 C 
HETATM   13  O2  UNL     1       6.630  -9.515  -2.333  1.00  0.00    -0.247 OA
HETATM   14  N4  UNL     1       4.359  -9.471  -1.981  1.00  0.00    -0.335 N 
ATOM     15  H4  UNL     1       3.597  -9.250  -1.342  1.00  0.00     0.165 HD
ATOM     16  H3  UNL     1       5.261  -8.499   0.372  1.00  0.00     0.164 HD
BRANCH  14  17
HETATM   17  C8  UNL     1       4.036  -9.997  -3.272  1.00  0.00     0.023 C 
HETATM   18  C9  UNL     1       4.912 -11.174  -3.667  1.00  0.00     0.037 C 
HETATM   19  C10 UNL     1       4.142  -8.931  -4.342  1.00  0.00     0.037 C 
HETATM   20  C11 UNL     1       2.605 -10.502  -3.283  1.00  0.00     0.037 C 
ENDBRANCH  14  17
ENDBRANCH   1  11
TORSDOF 3
ENDMDL
MODEL 4
REMARK VINA RESULT: -5.190306560      5.112      7.298
REMARK  3 active torsions:
REMARK  status: ('A' for Active; 'I' for Inactive)
REMARK    1  A    between atoms: C5_9  and  C6_10 
REMARK    2  A    between atoms: C6_10  and  N3_11 
REMARK       I    between atoms: N3_11  and  C7_13 
REMARK       I    between atoms: C7_13  and  N4_15 
REMARK    3  A    between atoms: N4_15  and  C8_17 
ROOT
HETATM    1  C6  UNL     1       6.808  -8.669  -3.357  1.00  0.00     0.151 C 
ENDROOT
BRANCH   1   2
HETATM    2  C5  UNL     1       5.413  -8.816  -3.896  1.00  0.00     0.128 C 
HETATM    3  C2  UNL     1       5.278  -9.870  -4.943  1.00  0.00     0.106 C 
HETATM    4  C1  UNL     1       5.899 -11.187  -4.537  1.00  0.00     0.034 C 
HETATM    5  N1  UNL     1       3.821 -10.088  -4.945  1.00  0.00    -0.337 N 
HETATM    6  C3  UNL     1       3.457  -9.964  -3.556  1.00  0.00     0.318 C 
ATOM      7  H1  UNL     1       3.214 -10.282  -5.741  1.00  0.00     0.164 HD
HETATM    8  O1  UNL     1       2.402 -10.450  -3.076  1.00  0.00    -0.247 OA
HETATM    9  N2  UNL     1       4.467  -9.232  -2.887  1.00  0.00    -0.330 N 
HETATM   10  C4  UNL     1       4.575  -8.933  -1.484  1.00  0.00     0.155 C 
ENDBRANCH   1   2
BRANCH   1  11
HETATM   11  N3  UNL     1       7.210  -7.293  -3.514  1.00  0.00    -0.341 N 
HETATM   12  C7  UNL     1       7.942  -6.584  -2.522  1.00  0.00     0.316 C 
HETATM   13  O2  UNL     1       8.238  -7.212  -1.474  1.00  0.00    -0.247 OA
HETATM   14  N4  UNL     1       8.341  -5.246  -2.658  1.00  0.00    -0.335 N 
ATOM     15  H4  UNL     1       8.095  -4.748  -3.513  1.00  0.00     0.165 HD
ATOM     16  H3  UNL     1       6.957  -6.806  -4.374  1.00  0.00     0.164 HD
BRANCH  14  17
HETATM   17  C8  UNL     1       9.078  -4.547  -1.650  1.00  0.00     0.023 C 
HETATM   18  C9  UNL     1       8.189  -3.953  -0.571  1.00  0.00     0.037 C 
HETATM   19  C10 UNL     1       9.918  -3.440  -2.252  1.00  0.00     0.037 C 
HETATM   20  C11 UNL     1      10.029  -5.499  -0.949  1.00  0.00     0.037 C 
ENDBRANCH  14  17
ENDBRANCH   1  11
TORSDOF 3
ENDMDL
MODEL 5
REMARK VINA RESULT: -5.187775837      3.217      7.007
REMARK  3 active torsions:
REMARK  status: ('A' for Active; 'I' for Inactive)
REMARK    1  A    between atoms: C5_9  and  C6_10 
REMARK    2  A    between atoms: C6_10  and  N3_11 
REMARK       I    between atoms: N3_11  and  C7_13 
REMARK       I    between atoms: C7_13  and  N4_15 
REMARK    3  A    between atoms: N4_15  and  C8_17 
ROOT
HETATM    1  C6  UNL     1      10.738  -5.826   0.652  1.00  0.00     0.151 C 
ENDROOT
BRANCH   1   2
HETATM    2  C5  UNL     1      10.295  -5.529  -0.753  1.00  0.00     0.128 C 
HETATM    3  C2  UNL     1       8.845  -5.199  -0.872  1.00  0.00     0.106 C 
HETATM    4  C1  UNL     1       8.392  -4.158   0.126  1.00  0.00     0.034 C 
HETATM    5  N1  UNL     1       8.805  -4.547  -2.191  1.00  0.00    -0.337 N 
HETATM    6  C3  UNL     1      10.037  -3.800  -2.238  1.00  0.00     0.318 C 
ATOM      7  H1  UNL     1       8.078  -4.608  -2.903  1.00  0.00     0.164 HD
HETATM    8  O1  UNL     1      10.217  -2.819  -3.002  1.00  0.00    -0.247 OA
HETATM    9  N2  UNL     1      10.943  -4.362  -1.306  1.00  0.00    -0.330 N 
HETATM   10  C4  UNL     1      12.257  -3.902  -0.947  1.00  0.00     0.155 C 
ENDBRANCH   1   2
BRANCH   1  11
HETATM   11  N3  UNL     1      10.829  -7.257   0.803  1.00  0.00    -0.341 N 
HETATM   12  C7  UNL     1       9.861  -8.022   1.510  1.00  0.00     0.316 C 
HETATM   13  O2  UNL     1       8.894  -7.394   2.013  1.00  0.00    -0.247 OA
HETATM   14  N4  UNL     1       9.933  -9.415   1.667  1.00  0.00    -0.335 N 
ATOM     15  H4  UNL     1      10.721  -9.911   1.254  1.00  0.00     0.165 HD
ATOM     16  H3  UNL     1      11.622  -7.742   0.385  1.00  0.00     0.164 HD
BRANCH  14  17
HETATM   17  C8  UNL     1       8.950 -10.170   2.381  1.00  0.00     0.023 C 
HETATM   18  C9  UNL     1       7.538  -9.937   1.869  1.00  0.00     0.037 C 
HETATM   19  C10 UNL     1       8.987  -9.858   3.863  1.00  0.00     0.037 C 
HETATM   20  C11 UNL     1       9.225 -11.654   2.229  1.00  0.00     0.037 C 
ENDBRANCH  14  17
ENDBRANCH   1  11
TORSDOF 3
ENDMDL
