MODEL 1
REMARK VINA RESULT: -5.294488562      0.000      0.000
REMARK  15 active torsions:
REMARK  status: ('A' for Active; 'I' for Inactive)
REMARK    1  A    between atoms: N1_1  and  C1_5 
REMARK    2  A    between atoms: C1_5  and  O1_6 
REMARK    3  A    between atoms: C1_5  and  N2_8 
REMARK    4  A    between atoms: N2_8  and  C2_10 
REMARK    5  A    between atoms: C4_12  and  C5_13 
REMARK    6  A    between atoms: C5_13  and  O2_14 
REMARK    7  A    between atoms: C5_13  and  O3_16 
REMARK    8  A    between atoms: N3_18  and  N4_19 
REMARK    9  A    between atoms: C6_20  and  O4_21 
REMARK   10  A    between atoms: C9_25  and  O5_26 
REMARK   11  A    between atoms: C12_34  and  O8_35 
REMARK   12  A    between atoms: C12_34  and  C13_37 
REMARK   13  A    between atoms: C13_37  and  O9_38 
REMARK   14  A    between atoms: C13_37  and  C14_40 
REMARK   15  A    between atoms: C14_40  and  O10_41 
ROOT
HETATM    1  N4  UNL     1      14.785   0.359  38.341  1.00  0.00    -0.188 N 
HETATM    2  C6  UNL     1      14.944  -0.931  38.759  1.00  0.00     0.178 A 
HETATM    3  C7  UNL     1      15.733  -1.821  38.065  1.00  0.00     0.071 A 
HETATM    4  C8  UNL     1      16.354  -1.347  36.932  1.00  0.00     0.088 A 
HETATM    5  C9  UNL     1      16.192  -0.036  36.506  1.00  0.00     0.164 A 
HETATM    6  C10 UNL     1      15.394   0.812  37.234  1.00  0.00     0.304 A 
HETATM    7  O6  UNL     1      15.214   2.006  36.893  1.00  0.00    -0.263 OA
HETATM    8  N5  UNL     1      17.120  -2.405  36.355  1.00  0.00    -0.321 N 
ATOM      9  H5  UNL     1      17.685  -2.346  35.508  1.00  0.00     0.169 HD
HETATM   10  C11 UNL     1      16.953  -3.553  37.170  1.00  0.00     0.264 A 
HETATM   11  O7  UNL     1      17.481  -4.666  36.964  1.00  0.00    -0.269 OA
HETATM   12  C12 UNL     1      16.058  -3.220  38.299  1.00  0.00     0.200 A 
ENDROOT
BRANCH   1  13
HETATM   13  N3  UNL     1      13.963   1.196  39.109  1.00  0.00    -0.253 N 
HETATM   14  C4  UNL     1      12.629   1.237  39.004  1.00  0.00     0.090 A 
HETATM   15  C3  UNL     1      12.102   2.151  39.882  1.00  0.00     0.063 A 
HETATM   16  C2  UNL     1      13.156   2.705  40.565  1.00  0.00     0.051 A 
HETATM   17  C15 UNL     1      14.294   2.086  40.058  1.00  0.00     0.146 A 
BRANCH  14  18
HETATM   18  C5  UNL     1      11.818   0.419  38.074  1.00  0.00     0.307 C 
BRANCH  18  19
HETATM   19  O2  UNL     1      11.516  -0.845  38.628  1.00  0.00    -0.366 OA
ATOM     20  H2  UNL     1      10.756  -1.234  38.211  1.00  0.00     0.213 HD
ENDBRANCH  18  19
BRANCH  18  21
HETATM   21  O3  UNL     1      10.614   1.070  37.818  1.00  0.00    -0.366 OA
ATOM     22  H3  UNL     1       9.939   0.425  37.642  1.00  0.00     0.213 HD
ENDBRANCH  18  21
ENDBRANCH  14  18
BRANCH  16  23
HETATM   23  N2  UNL     1      13.126   3.713  41.595  1.00  0.00    -0.341 N 
ATOM     24  H2  UNL     1      12.706   4.625  41.409  1.00  0.00     0.164 HD
BRANCH  23  25
HETATM   25  C1  UNL     1      13.692   3.426  42.893  1.00  0.00     0.424 C 
BRANCH  25  26
HETATM   26  N1  UNL     1      12.837   3.945  43.941  1.00  0.00    -0.035 N 
ATOM     27  H13 UNL     1      13.266   3.859  44.863  1.00  0.00     0.279 HD
ATOM     28  H12 UNL     1      12.764   4.962  43.907  1.00  0.00     0.279 HD
ATOM     29  H11 UNL     1      11.924   3.495  43.899  1.00  0.00     0.279 HD
ENDBRANCH  25  26
BRANCH  25  30
HETATM   30  O1  UNL     1      14.942   4.051  42.944  1.00  0.00    -0.355 OA
ATOM     31  H1  UNL     1      15.518   3.676  42.289  1.00  0.00     0.213 HD
ENDBRANCH  25  30
ENDBRANCH  23  25
ENDBRANCH  16  23
ENDBRANCH   1  13
BRANCH   2  32
HETATM   32  O4  UNL     1      14.304  -1.359  39.899  1.00  0.00    -0.344 OA
ATOM     33  H4  UNL     1      14.250  -2.289  40.085  1.00  0.00     0.219 HD
ENDBRANCH   2  32
BRANCH   5  34
HETATM   34  O5  UNL     1      16.850   0.398  35.338  1.00  0.00    -0.354 OA
ATOM     35  H5  UNL     1      17.527  -0.146  34.953  1.00  0.00     0.218 HD
ENDBRANCH   5  34
BRANCH  12  36
HETATM   36  O8  UNL     1      16.801  -3.423  39.470  1.00  0.00    -0.373 OA
ATOM     37  H8  UNL     1      17.176  -2.621  39.817  1.00  0.00     0.211 HD
ENDBRANCH  12  36
BRANCH  12  38
HETATM   38  C13 UNL     1      14.867  -4.142  38.302  1.00  0.00     0.190 C 
BRANCH  38  39
HETATM   39  O9  UNL     1      15.342  -5.447  38.429  1.00  0.00    -0.390 OA
ATOM     40  H9  UNL     1      16.217  -5.400  38.795  1.00  0.00     0.210 HD
ENDBRANCH  38  39
BRANCH  38  41
HETATM   41  C14 UNL     1      14.080  -4.048  37.007  1.00  0.00     0.199 C 
BRANCH  41  42
HETATM   42  O10 UNL     1      12.983  -4.901  36.995  1.00  0.00    -0.398 OA
ATOM     43  H10 UNL     1      12.166  -4.434  36.867  1.00  0.00     0.209 HD
ENDBRANCH  41  42
ENDBRANCH  38  41
ENDBRANCH  12  38
TORSDOF 15
ENDMDL
MODEL 2
REMARK VINA RESULT: -5.269879088      2.563      7.274
REMARK  15 active torsions:
REMARK  status: ('A' for Active; 'I' for Inactive)
REMARK    1  A    between atoms: N1_1  and  C1_5 
REMARK    2  A    between atoms: C1_5  and  O1_6 
REMARK    3  A    between atoms: C1_5  and  N2_8 
REMARK    4  A    between atoms: N2_8  and  C2_10 
REMARK    5  A    between atoms: C4_12  and  C5_13 
REMARK    6  A    between atoms: C5_13  and  O2_14 
REMARK    7  A    between atoms: C5_13  and  O3_16 
REMARK    8  A    between atoms: N3_18  and  N4_19 
REMARK    9  A    between atoms: C6_20  and  O4_21 
REMARK   10  A    between atoms: C9_25  and  O5_26 
REMARK   11  A    between atoms: C12_34  and  O8_35 
REMARK   12  A    between atoms: C12_34  and  C13_37 
REMARK   13  A    between atoms: C13_37  and  O9_38 
REMARK   14  A    between atoms: C13_37  and  C14_40 
REMARK   15  A    between atoms: C14_40  and  O10_41 
ROOT
HETATM    1  N4  UNL     1      13.583   0.597  39.674  1.00  0.00    -0.188 N 
HETATM    2  C6  UNL     1      13.879   1.310  40.800  1.00  0.00     0.178 A 
HETATM    3  C7  UNL     1      13.010   1.363  41.867  1.00  0.00     0.071 A 
HETATM    4  C8  UNL     1      11.830   0.664  41.743  1.00  0.00     0.088 A 
HETATM    5  C9  UNL     1      11.529  -0.060  40.598  1.00  0.00     0.164 A 
HETATM    6  C10 UNL     1      12.431  -0.082  39.562  1.00  0.00     0.304 A 
HETATM    7  O6  UNL     1      12.208  -0.721  38.505  1.00  0.00    -0.263 OA
HETATM    8  N5  UNL     1      11.069   0.839  42.938  1.00  0.00    -0.321 N 
ATOM      9  H5  UNL     1      10.151   0.438  43.130  1.00  0.00     0.169 HD
HETATM   10  C11 UNL     1      11.816   1.672  43.808  1.00  0.00     0.264 A 
HETATM   11  O7  UNL     1      11.451   2.036  44.947  1.00  0.00    -0.269 OA
HETATM   12  C12 UNL     1      13.090   2.038  43.154  1.00  0.00     0.200 A 
ENDROOT
BRANCH   1  13
HETATM   13  N3  UNL     1      14.526   0.598  38.636  1.00  0.00    -0.253 N 
HETATM   14  C4  UNL     1      14.464   1.402  37.567  1.00  0.00     0.090 A 
HETATM   15  C3  UNL     1      15.524   1.171  36.726  1.00  0.00     0.063 A 
HETATM   16  C2  UNL     1      16.282   0.180  37.297  1.00  0.00     0.051 A 
HETATM   17  C15 UNL     1      15.630  -0.151  38.481  1.00  0.00     0.146 A 
BRANCH  14  18
HETATM   18  C5  UNL     1      13.405   2.404  37.311  1.00  0.00     0.307 C 
BRANCH  18  19
HETATM   19  O2  UNL     1      13.821   3.362  36.361  1.00  0.00    -0.366 OA
ATOM     20  H2  UNL     1      13.260   4.129  36.373  1.00  0.00     0.213 HD
ENDBRANCH  18  19
BRANCH  18  21
HETATM   21  O3  UNL     1      12.277   1.763  36.805  1.00  0.00    -0.366 OA
ATOM     22  H3  UNL     1      12.057   2.136  35.960  1.00  0.00     0.213 HD
ENDBRANCH  18  21
ENDBRANCH  14  18
BRANCH  16  23
HETATM   23  N2  UNL     1      17.498  -0.417  36.802  1.00  0.00    -0.341 N 
ATOM     24  H2  UNL     1      18.393  -0.196  37.240  1.00  0.00     0.164 HD
BRANCH  23  25
HETATM   25  C1  UNL     1      17.443  -1.328  35.683  1.00  0.00     0.424 C 
BRANCH  25  26
HETATM   26  N1  UNL     1      17.581  -0.603  34.437  1.00  0.00    -0.035 N 
ATOM     27  H13 UNL     1      18.513  -0.204  34.327  1.00  0.00     0.279 HD
ATOM     28  H12 UNL     1      17.591  -1.226  33.630  1.00  0.00     0.279 HD
ATOM     29  H11 UNL     1      16.850   0.105  34.364  1.00  0.00     0.279 HD
ENDBRANCH  25  26
BRANCH  25  30
HETATM   30  O1  UNL     1      16.198  -1.963  35.730  1.00  0.00    -0.355 OA
ATOM     31  H1  UNL     1      15.958  -2.269  34.863  1.00  0.00     0.213 HD
ENDBRANCH  25  30
ENDBRANCH  23  25
ENDBRANCH  16  23
ENDBRANCH   1  13
BRANCH   2  32
HETATM   32  O4  UNL     1      15.070   1.993  40.878  1.00  0.00    -0.344 OA
ATOM     33  H4  UNL     1      15.088   2.861  41.263  1.00  0.00     0.219 HD
ENDBRANCH   2  32
BRANCH   5  34
HETATM   34  O5  UNL     1      10.308  -0.759  40.522  1.00  0.00    -0.354 OA
ATOM     35  H5  UNL     1      10.307  -1.669  40.251  1.00  0.00     0.218 HD
ENDBRANCH   5  34
BRANCH  12  36
HETATM   36  O8  UNL     1      14.115   1.542  43.970  1.00  0.00    -0.373 OA
ATOM     37  H8  UNL     1      14.335   2.125  44.687  1.00  0.00     0.211 HD
ENDBRANCH  12  36
BRANCH  12  38
HETATM   38  C13 UNL     1      13.211   3.537  43.062  1.00  0.00     0.190 C 
BRANCH  38  39
HETATM   39  O9  UNL     1      13.247   3.877  41.710  1.00  0.00    -0.390 OA
ATOM     40  H9  UNL     1      13.268   4.824  41.652  1.00  0.00     0.210 HD
ENDBRANCH  38  39
BRANCH  38  41
HETATM   41  C14 UNL     1      14.489   4.038  43.711  1.00  0.00     0.199 C 
BRANCH  41  42
HETATM   42  O10 UNL     1      15.579   3.966  42.853  1.00  0.00    -0.398 OA
ATOM     43  H10 UNL     1      16.243   3.362  43.164  1.00  0.00     0.209 HD
ENDBRANCH  41  42
ENDBRANCH  38  41
ENDBRANCH  12  38
TORSDOF 15
ENDMDL
MODEL 3
REMARK VINA RESULT: -5.250289402      3.788      7.483
REMARK  15 active torsions:
REMARK  status: ('A' for Active; 'I' for Inactive)
REMARK    1  A    between atoms: N1_1  and  C1_5 
REMARK    2  A    between atoms: C1_5  and  O1_6 
REMARK    3  A    between atoms: C1_5  and  N2_8 
REMARK    4  A    between atoms: N2_8  and  C2_10 
REMARK    5  A    between atoms: C4_12  and  C5_13 
REMARK    6  A    between atoms: C5_13  and  O2_14 
REMARK    7  A    between atoms: C5_13  and  O3_16 
REMARK    8  A    between atoms: N3_18  and  N4_19 
REMARK    9  A    between atoms: C6_20  and  O4_21 
REMARK   10  A    between atoms: C9_25  and  O5_26 
REMARK   11  A    between atoms: C12_34  and  O8_35 
REMARK   12  A    between atoms: C12_34  and  C13_37 
REMARK   13  A    between atoms: C13_37  and  O9_38 
REMARK   14  A    between atoms: C13_37  and  C14_40 
REMARK   15  A    between atoms: C14_40  and  O10_41 
ROOT
HETATM    1  N4  UNL     1      13.743   2.578  41.784  1.00  0.00    -0.188 N 
HETATM    2  C6  UNL     1      15.035   2.472  42.211  1.00  0.00     0.178 A 
HETATM    3  C7  UNL     1      15.454   3.054  43.387  1.00  0.00     0.071 A 
HETATM    4  C8  UNL     1      14.509   3.745  44.109  1.00  0.00     0.088 A 
HETATM    5  C9  UNL     1      13.195   3.853  43.675  1.00  0.00     0.164 A 
HETATM    6  C10 UNL     1      12.828   3.254  42.495  1.00  0.00     0.304 A 
HETATM    7  O6  UNL     1      11.653   3.321  42.057  1.00  0.00    -0.263 OA
HETATM    8  N5  UNL     1      15.127   4.271  45.284  1.00  0.00    -0.321 N 
ATOM      9  H5  UNL     1      14.670   4.828  46.006  1.00  0.00     0.169 HD
HETATM   10  C11 UNL     1      16.490   3.882  45.266  1.00  0.00     0.264 A 
HETATM   11  O7  UNL     1      17.333   4.170  46.142  1.00  0.00    -0.269 OA
HETATM   12  C12 UNL     1      16.750   3.085  44.048  1.00  0.00     0.200 A 
ENDROOT
BRANCH   1  13
HETATM   13  N3  UNL     1      13.403   1.954  40.574  1.00  0.00    -0.253 N 
HETATM   14  C4  UNL     1      12.901   0.717  40.484  1.00  0.00     0.090 A 
HETATM   15  C3  UNL     1      12.670   0.382  39.173  1.00  0.00     0.063 A 
HETATM   16  C2  UNL     1      13.046   1.460  38.412  1.00  0.00     0.051 A 
HETATM   17  C15 UNL     1      13.496   2.416  39.317  1.00  0.00     0.146 A 
BRANCH  14  18
HETATM   18  C5  UNL     1      12.627  -0.180  41.630  1.00  0.00     0.307 C 
BRANCH  18  19
HETATM   19  O2  UNL     1      11.396   0.133  42.247  1.00  0.00    -0.366 OA
ATOM     20  H2  UNL     1      10.721   0.315  41.604  1.00  0.00     0.213 HD
ENDBRANCH  18  19
BRANCH  18  21
HETATM   21  O3  UNL     1      12.553  -1.496  41.176  1.00  0.00    -0.366 OA
ATOM     22  H3  UNL     1      11.652  -1.792  41.218  1.00  0.00     0.213 HD
ENDBRANCH  18  21
ENDBRANCH  14  18
BRANCH  16  23
HETATM   23  N2  UNL     1      12.999   1.605  36.978  1.00  0.00    -0.341 N 
ATOM     24  H2  UNL     1      12.621   0.854  36.398  1.00  0.00     0.164 HD
BRANCH  23  25
HETATM   25  C1  UNL     1      13.489   2.818  36.366  1.00  0.00     0.424 C 
BRANCH  25  26
HETATM   26  N1  UNL     1      12.764   3.091  35.142  1.00  0.00    -0.035 N 
ATOM     27  H13 UNL     1      12.838   2.324  34.473  1.00  0.00     0.279 HD
ATOM     28  H12 UNL     1      11.753   3.068  35.281  1.00  0.00     0.279 HD
ATOM     29  H11 UNL     1      13.075   3.977  34.744  1.00  0.00     0.279 HD
ENDBRANCH  25  26
BRANCH  25  30
HETATM   30  O1  UNL     1      14.843   2.619  36.083  1.00  0.00    -0.355 OA
ATOM     31  H1  UNL     1      15.101   1.741  36.336  1.00  0.00     0.213 HD
ENDBRANCH  25  30
ENDBRANCH  23  25
ENDBRANCH  16  23
ENDBRANCH   1  13
BRANCH   2  32
HETATM   32  O4  UNL     1      15.945   1.771  41.455  1.00  0.00    -0.344 OA
ATOM     33  H4  UNL     1      16.873   1.855  41.641  1.00  0.00     0.219 HD
ENDBRANCH   2  32
BRANCH   5  34
HETATM   34  O5  UNL     1      12.267   4.573  44.453  1.00  0.00    -0.354 OA
ATOM     35  H5  UNL     1      11.983   4.220  45.288  1.00  0.00     0.218 HD
ENDBRANCH   5  34
BRANCH  12  36
HETATM   36  O8  UNL     1      17.176   1.823  44.482  1.00  0.00    -0.373 OA
ATOM     37  H8  UNL     1      18.107   1.788  44.669  1.00  0.00     0.211 HD
ENDBRANCH  12  36
BRANCH  12  38
HETATM   38  C13 UNL     1      17.846   3.726  43.236  1.00  0.00     0.190 C 
BRANCH  38  39
HETATM   39  O9  UNL     1      17.301   4.094  42.006  1.00  0.00    -0.390 OA
ATOM     40  H9  UNL     1      17.570   4.987  41.828  1.00  0.00     0.210 HD
ENDBRANCH  38  39
BRANCH  38  41
HETATM   41  C14 UNL     1      18.991   2.763  42.979  1.00  0.00     0.199 C 
BRANCH  41  42
HETATM   42  O10 UNL     1      18.711   1.875  41.948  1.00  0.00    -0.398 OA
ATOM     43  H10 UNL     1      19.465   1.719  41.392  1.00  0.00     0.209 HD
ENDBRANCH  41  42
ENDBRANCH  38  41
ENDBRANCH  12  38
TORSDOF 15
ENDMDL
MODEL 4
REMARK VINA RESULT: -5.227922026      4.059      7.376
REMARK  15 active torsions:
REMARK  status: ('A' for Active; 'I' for Inactive)
REMARK    1  A    between atoms: N1_1  and  C1_5 
REMARK    2  A    between atoms: C1_5  and  O1_6 
REMARK    3  A    between atoms: C1_5  and  N2_8 
REMARK    4  A    between atoms: N2_8  and  C2_10 
REMARK    5  A    between atoms: C4_12  and  C5_13 
REMARK    6  A    between atoms: C5_13  and  O2_14 
REMARK    7  A    between atoms: C5_13  and  O3_16 
REMARK    8  A    between atoms: N3_18  and  N4_19 
REMARK    9  A    between atoms: C6_20  and  O4_21 
REMARK   10  A    between atoms: C9_25  and  O5_26 
REMARK   11  A    between atoms: C12_34  and  O8_35 
REMARK   12  A    between atoms: C12_34  and  C13_37 
REMARK   13  A    between atoms: C13_37  and  O9_38 
REMARK   14  A    between atoms: C13_37  and  C14_40 
REMARK   15  A    between atoms: C14_40  and  O10_41 
ROOT
HETATM    1  N4  UNL     1      10.736   1.085  40.365  1.00  0.00    -0.188 N 
HETATM    2  C6  UNL     1      11.236   2.106  41.121  1.00  0.00     0.178 A 
HETATM    3  C7  UNL     1      12.542   2.104  41.559  1.00  0.00     0.071 A 
HETATM    4  C8  UNL     1      13.317   1.024  41.198  1.00  0.00     0.088 A 
HETATM    5  C9  UNL     1      12.808  -0.013  40.429  1.00  0.00     0.164 A 
HETATM    6  C10 UNL     1      11.498   0.037  40.017  1.00  0.00     0.304 A 
HETATM    7  O6  UNL     1      10.989  -0.875  39.321  1.00  0.00    -0.263 OA
HETATM    8  N5  UNL     1      14.625   1.201  41.740  1.00  0.00    -0.321 N 
ATOM      9  H5  UNL     1      15.411   0.559  41.635  1.00  0.00     0.169 HD
HETATM   10  C11 UNL     1      14.637   2.427  42.451  1.00  0.00     0.264 A 
HETATM   11  O7  UNL     1      15.622   2.900  43.057  1.00  0.00    -0.269 OA
HETATM   12  C12 UNL     1      13.300   3.053  42.360  1.00  0.00     0.200 A 
ENDROOT
BRANCH   1  13
HETATM   13  N3  UNL     1       9.395   1.170  39.963  1.00  0.00    -0.253 N 
HETATM   14  C4  UNL     1       8.362   0.752  40.705  1.00  0.00     0.090 A 
HETATM   15  C3  UNL     1       7.176   0.964  40.047  1.00  0.00     0.063 A 
HETATM   16  C2  UNL     1       7.484   1.541  38.840  1.00  0.00     0.051 A 
HETATM   17  C15 UNL     1       8.871   1.653  38.825  1.00  0.00     0.146 A 
BRANCH  14  18
HETATM   18  C5  UNL     1       8.466   0.141  42.049  1.00  0.00     0.307 C 
BRANCH  18  19
HETATM   19  O2  UNL     1       8.640   1.123  43.050  1.00  0.00    -0.366 OA
ATOM     20  H2  UNL     1       8.689   0.733  43.914  1.00  0.00     0.213 HD
ENDBRANCH  18  19
BRANCH  18  21
HETATM   21  O3  UNL     1       7.291  -0.552  42.332  1.00  0.00    -0.366 OA
ATOM     22  H3  UNL     1       7.298  -1.382  41.871  1.00  0.00     0.213 HD
ENDBRANCH  18  21
ENDBRANCH  14  18
BRANCH  16  23
HETATM   23  N2  UNL     1       6.587   1.956  37.790  1.00  0.00    -0.341 N 
ATOM     24  H2  UNL     1       5.963   1.278  37.351  1.00  0.00     0.164 HD
BRANCH  23  25
HETATM   25  C1  UNL     1       6.577   3.336  37.363  1.00  0.00     0.424 C 
BRANCH  25  26
HETATM   26  N1  UNL     1       5.257   3.906  37.539  1.00  0.00    -0.035 N 
ATOM     27  H13 UNL     1       4.705   3.866  36.681  1.00  0.00     0.279 HD
ATOM     28  H12 UNL     1       4.662   3.322  38.126  1.00  0.00     0.279 HD
ATOM     29  H11 UNL     1       5.335   4.857  37.899  1.00  0.00     0.279 HD
ENDBRANCH  25  26
BRANCH  25  30
HETATM   30  O1  UNL     1       6.926   3.351  36.010  1.00  0.00    -0.355 OA
ATOM     31  H1  UNL     1       7.599   2.701  35.841  1.00  0.00     0.213 HD
ENDBRANCH  25  30
ENDBRANCH  23  25
ENDBRANCH  16  23
ENDBRANCH   1  13
BRANCH   2  32
HETATM   32  O4  UNL     1      10.425   3.164  41.457  1.00  0.00    -0.344 OA
ATOM     33  H4  UNL     1      10.807   4.022  41.594  1.00  0.00     0.219 HD
ENDBRANCH   2  32
BRANCH   5  34
HETATM   34  O5  UNL     1      13.643  -1.095  40.087  1.00  0.00    -0.354 OA
ATOM     35  H5  UNL     1      13.955  -1.678  40.769  1.00  0.00     0.218 HD
ENDBRANCH   5  34
BRANCH  12  36
HETATM   36  O8  UNL     1      13.481   4.287  41.723  1.00  0.00    -0.373 OA
ATOM     37  H8  UNL     1      14.321   4.688  41.919  1.00  0.00     0.211 HD
ENDBRANCH  12  36
BRANCH  12  38
HETATM   38  C13 UNL     1      12.744   3.284  43.740  1.00  0.00     0.190 C 
BRANCH  38  39
HETATM   39  O9  UNL     1      13.656   4.077  44.437  1.00  0.00    -0.390 OA
ATOM     40  H9  UNL     1      13.232   4.905  44.626  1.00  0.00     0.210 HD
ENDBRANCH  38  39
BRANCH  38  41
HETATM   41  C14 UNL     1      12.570   1.982  44.503  1.00  0.00     0.199 C 
BRANCH  41  42
HETATM   42  O10 UNL     1      11.235   1.691  44.749  1.00  0.00    -0.398 OA
ATOM     43  H10 UNL     1      11.001   0.812  44.475  1.00  0.00     0.209 HD
ENDBRANCH  41  42
ENDBRANCH  38  41
ENDBRANCH  12  38
TORSDOF 15
ENDMDL
MODEL 5
REMARK VINA RESULT: -5.211392197      4.373      7.230
REMARK  15 active torsions:
REMARK  status: ('A' for Active; 'I' for Inactive)
REMARK    1  A    between atoms: N1_1  and  C1_5 
REMARK    2  A    between atoms: C1_5  and  O1_6 
REMARK    3  A    between atoms: C1_5  and  N2_8 
REMARK    4  A    between atoms: N2_8  and  C2_10 
REMARK    5  A    between atoms: C4_12  and  C5_13 
REMARK    6  A    between atoms: C5_13  and  O2_14 
REMARK    7  A    between atoms: C5_13  and  O3_16 
REMARK    8  A    between atoms: N3_18  and  N4_19 
REMARK    9  A    between atoms: C6_20  and  O4_21 
REMARK   10  A    between atoms: C9_25  and  O5_26 
REMARK   11  A    between atoms: C12_34  and  O8_35 
REMARK   12  A    between atoms: C12_34  and  C13_37 
REMARK   13  A    between atoms: C13_37  and  O9_38 
REMARK   14  A    between atoms: C13_37  and  C14_40 
REMARK   15  A    between atoms: C14_40  and  O10_41 
ROOT
HETATM    1  N4  UNL     1      10.072   0.973  40.883  1.00  0.00    -0.188 N 
HETATM    2  C6  UNL     1      10.868   2.049  41.149  1.00  0.00     0.178 A 
HETATM    3  C7  UNL     1      12.233   1.922  41.273  1.00  0.00     0.071 A 
HETATM    4  C8  UNL     1      12.756   0.658  41.117  1.00  0.00     0.088 A 
HETATM    5  C9  UNL     1      11.947  -0.437  40.848  1.00  0.00     0.164 A 
HETATM    6  C10 UNL     1      10.590  -0.256  40.733  1.00  0.00     0.304 A 
HETATM    7  O6  UNL     1       9.814  -1.212  40.490  1.00  0.00    -0.263 OA
HETATM    8  N5  UNL     1      14.173   0.727  41.281  1.00  0.00    -0.321 N 
ATOM      9  H5  UNL     1      14.824  -0.056  41.219  1.00  0.00     0.169 HD
HETATM   10  C11 UNL     1      14.512   2.077  41.544  1.00  0.00     0.264 A 
HETATM   11  O7  UNL     1      15.670   2.505  41.740  1.00  0.00    -0.269 OA
HETATM   12  C12 UNL     1      13.280   2.895  41.547  1.00  0.00     0.200 A 
ENDROOT
BRANCH   1  13
HETATM   13  N3  UNL     1       8.692   1.194  40.773  1.00  0.00    -0.253 N 
HETATM   14  C4  UNL     1       8.063   1.444  39.618  1.00  0.00     0.090 A 
HETATM   15  C3  UNL     1       6.717   1.618  39.827  1.00  0.00     0.063 A 
HETATM   16  C2  UNL     1       6.498   1.470  41.174  1.00  0.00     0.051 A 
HETATM   17  C15 UNL     1       7.747   1.208  41.727  1.00  0.00     0.146 A 
BRANCH  14  18
HETATM   18  C5  UNL     1       8.713   1.526  38.290  1.00  0.00     0.307 C 
BRANCH  18  19
HETATM   19  O2  UNL     1       8.529   0.336  37.552  1.00  0.00    -0.366 OA
ATOM     20  H2  UNL     1       8.985   0.370  36.719  1.00  0.00     0.213 HD
ENDBRANCH  18  19
BRANCH  18  21
HETATM   21  O3  UNL     1       8.145   2.570  37.564  1.00  0.00    -0.366 OA
ATOM     22  H3  UNL     1       8.828   3.031  37.091  1.00  0.00     0.213 HD
ENDBRANCH  18  21
ENDBRANCH  14  18
BRANCH  16  23
HETATM   23  N2  UNL     1       5.252   1.561  41.894  1.00  0.00    -0.341 N 
ATOM     24  H2  UNL     1       4.627   0.756  41.941  1.00  0.00     0.164 HD
BRANCH  23  25
HETATM   25  C1  UNL     1       4.895   2.798  42.550  1.00  0.00     0.424 C 
BRANCH  25  26
HETATM   26  N1  UNL     1       5.345   3.930  41.767  1.00  0.00    -0.035 N 
ATOM     27  H13 UNL     1       4.763   4.754  41.916  1.00  0.00     0.279 HD
ATOM     28  H12 UNL     1       6.228   4.308  42.112  1.00  0.00     0.279 HD
ATOM     29  H11 UNL     1       5.398   3.672  40.782  1.00  0.00     0.279 HD
ENDBRANCH  25  26
BRANCH  25  30
HETATM   30  O1  UNL     1       5.525   2.800  43.797  1.00  0.00    -0.355 OA
ATOM     31  H1  UNL     1       6.465   2.718  43.685  1.00  0.00     0.213 HD
ENDBRANCH  25  30
ENDBRANCH  23  25
ENDBRANCH  16  23
ENDBRANCH   1  13
BRANCH   2  32
HETATM   32  O4  UNL     1      10.301   3.293  41.296  1.00  0.00    -0.344 OA
ATOM     33  H4  UNL     1      10.839   4.023  41.580  1.00  0.00     0.219 HD
ENDBRANCH   2  32
BRANCH   5  34
HETATM   34  O5  UNL     1      12.533  -1.709  40.697  1.00  0.00    -0.354 OA
ATOM     35  H5  UNL     1      12.325  -2.232  39.931  1.00  0.00     0.218 HD
ENDBRANCH   5  34
BRANCH  12  36
HETATM   36  O8  UNL     1      13.428   3.844  40.527  1.00  0.00    -0.373 OA
ATOM     37  H8  UNL     1      14.330   3.952  40.248  1.00  0.00     0.211 HD
ENDBRANCH  12  36
BRANCH  12  38
HETATM   38  C13 UNL     1      13.137   3.606  42.868  1.00  0.00     0.190 C 
BRANCH  38  39
HETATM   39  O9  UNL     1      14.269   4.400  43.046  1.00  0.00    -0.390 OA
ATOM     40  H9  UNL     1      14.014   5.154  43.563  1.00  0.00     0.210 HD
ENDBRANCH  38  39
BRANCH  38  41
HETATM   41  C14 UNL     1      13.056   2.628  44.027  1.00  0.00     0.199 C 
BRANCH  41  42
HETATM   42  O10 UNL     1      11.932   2.838  44.815  1.00  0.00    -0.398 OA
ATOM     43  H10 UNL     1      11.746   2.099  45.382  1.00  0.00     0.209 HD
ENDBRANCH  41  42
ENDBRANCH  38  41
ENDBRANCH  12  38
TORSDOF 15
ENDMDL
