MODEL 1
REMARK VINA RESULT: -5.040941552      0.000      0.000
REMARK  14 active torsions:
REMARK  status: ('A' for Active; 'I' for Inactive)
REMARK    1  A    between atoms: C3_10  and  O2_11 
REMARK    2  A    between atoms: C4_13  and  O3_14 
REMARK    3  A    between atoms: C5_16  and  C6_17 
REMARK    4  A    between atoms: C6_17  and  O4_18 
REMARK    5  A    between atoms: C6_17  and  C9_25 
REMARK    6  A    between atoms: O4_18  and  C7_19 
REMARK    7  A    between atoms: C7_19  and  O5_20 
REMARK    8  A    between atoms: C7_19  and  C8_22 
REMARK    9  A    between atoms: C8_22  and  O6_23 
REMARK   10  A    between atoms: C9_25  and  O7_26 
REMARK   11  A    between atoms: C9_25  and  C10_28 
REMARK   12  A    between atoms: C10_28  and  O8_29 
REMARK   13  A    between atoms: C10_28  and  O9_31 
REMARK   14  A    between atoms: C11_33  and  O10_34 
ROOT
HETATM    1  O1  UNL     1       6.589   2.113  41.424  1.00  0.00    -0.267 OA
HETATM    2  C1  UNL     1       7.251   1.852  40.394  1.00  0.00     0.285 C 
HETATM    3  N1  UNL     1       6.482   1.821  39.159  1.00  0.00    -0.252 N 
ATOM      4  H1  UNL     1       5.468   1.852  39.268  1.00  0.00     0.187 HD
HETATM    5  N2  UNL     1       6.944   1.755  37.850  1.00  0.00    -0.008 NA
HETATM    6  N3  UNL     1       8.178   2.415  37.786  1.00  0.00     0.005 NA
HETATM    7  N4  UNL     1       9.273   1.524  38.019  1.00  0.00    -0.005 NA
HETATM    8  N5  UNL     1       9.475   1.586  39.381  1.00  0.00    -0.234 N 
HETATM    9  C2  UNL     1      10.801   1.573  39.967  1.00  0.00     0.124 A 
HETATM   10  C3  UNL     1      11.983   1.015  39.524  1.00  0.00     0.131 A 
HETATM   11  C4  UNL     1      13.137   1.182  40.281  1.00  0.00     0.113 A 
HETATM   12  C5  UNL     1      13.104   1.904  41.470  1.00  0.00     0.045 A 
HETATM   13  C11 UNL     1      11.914   2.454  41.887  1.00  0.00     0.113 A 
HETATM   14  C12 UNL     1      10.726   2.289  41.136  1.00  0.00     0.137 A 
HETATM   15  O11 UNL     1       9.396   2.681  41.263  1.00  0.00    -0.310 OA
HETATM   16  C13 UNL     1       8.636   1.620  40.588  1.00  0.00     0.343 C 
ENDROOT
BRANCH  12  17
HETATM   17  C6  UNL     1      14.417   1.848  42.280  1.00  0.00     0.197 C 
BRANCH  17  18
HETATM   18  O4  UNL     1      14.230   1.530  43.489  1.00  0.00    -0.346 OA
BRANCH  18  19
HETATM   19  C7  UNL     1      14.016   1.181  44.661  1.00  0.00     0.281 C 
BRANCH  19  20
HETATM   20  O5  UNL     1      12.987   1.665  45.473  1.00  0.00    -0.369 OA
ATOM     21  H5  UNL     1      12.573   1.185  46.179  1.00  0.00     0.212 HD
ENDBRANCH  19  20
BRANCH  19  22
HETATM   22  C8  UNL     1      15.324   1.556  45.581  1.00  0.00     0.224 C 
BRANCH  22  23
HETATM   23  O6  UNL     1      15.272   2.926  45.657  1.00  0.00    -0.396 OA
ATOM     24  H6  UNL     1      16.184   3.172  45.753  1.00  0.00     0.209 HD
ENDBRANCH  22  23
ENDBRANCH  19  22
ENDBRANCH  18  19
ENDBRANCH  17  18
BRANCH  17  25
HETATM   25  C9  UNL     1      15.105   3.166  42.176  1.00  0.00     0.206 C 
BRANCH  25  26
HETATM   26  O7  UNL     1      14.641   4.147  43.036  1.00  0.00    -0.388 OA
ATOM     27  H7  UNL     1      13.773   4.481  42.842  1.00  0.00     0.210 HD
ENDBRANCH  25  26
BRANCH  25  28
HETATM   28  C10 UNL     1      16.606   3.091  42.292  1.00  0.00     0.285 C 
BRANCH  28  29
HETATM   29  O8  UNL     1      17.115   3.677  43.448  1.00  0.00    -0.369 OA
ATOM     30  H8  UNL     1      17.984   4.047  43.344  1.00  0.00     0.212 HD
ENDBRANCH  28  29
BRANCH  28  31
HETATM   31  O9  UNL     1      16.899   1.702  42.429  1.00  0.00    -0.369 OA
ATOM     32  H9  UNL     1      17.728   1.579  41.982  1.00  0.00     0.212 HD
ENDBRANCH  28  31
ENDBRANCH  25  28
ENDBRANCH  17  25
ENDBRANCH  12  17
BRANCH  11  33
HETATM   33  O3  UNL     1      14.340   0.634  39.865  1.00  0.00    -0.357 OA
ATOM     34  H3  UNL     1      14.986   0.344  40.499  1.00  0.00     0.217 HD
ENDBRANCH  11  33
BRANCH  13  35
HETATM   35  O10 UNL     1      11.809   3.165  42.982  1.00  0.00    -0.357 OA
ATOM     36  H10 UNL     1      12.272   3.986  43.106  1.00  0.00     0.217 HD
ENDBRANCH  13  35
BRANCH  10  37
HETATM   37  O2  UNL     1      12.092   0.305  38.364  1.00  0.00    -0.356 OA
ATOM     38  H2  UNL     1      12.327  -0.615  38.333  1.00  0.00     0.218 HD
ENDBRANCH  10  37
TORSDOF 14
ENDMDL
MODEL 2
REMARK VINA RESULT: -5.000364644      6.658      8.984
REMARK  14 active torsions:
REMARK  status: ('A' for Active; 'I' for Inactive)
REMARK    1  A    between atoms: C3_10  and  O2_11 
REMARK    2  A    between atoms: C4_13  and  O3_14 
REMARK    3  A    between atoms: C5_16  and  C6_17 
REMARK    4  A    between atoms: C6_17  and  O4_18 
REMARK    5  A    between atoms: C6_17  and  C9_25 
REMARK    6  A    between atoms: O4_18  and  C7_19 
REMARK    7  A    between atoms: C7_19  and  O5_20 
REMARK    8  A    between atoms: C7_19  and  C8_22 
REMARK    9  A    between atoms: C8_22  and  O6_23 
REMARK   10  A    between atoms: C9_25  and  O7_26 
REMARK   11  A    between atoms: C9_25  and  C10_28 
REMARK   12  A    between atoms: C10_28  and  O8_29 
REMARK   13  A    between atoms: C10_28  and  O9_31 
REMARK   14  A    between atoms: C11_33  and  O10_34 
ROOT
HETATM    1  O1  UNL     1       8.215  -2.084  32.553  1.00  0.00    -0.267 OA
HETATM    2  C1  UNL     1       8.044  -2.903  33.483  1.00  0.00     0.285 C 
HETATM    3  N1  UNL     1       8.513  -4.254  33.208  1.00  0.00    -0.252 N 
ATOM      4  H1  UNL     1       8.782  -4.441  32.242  1.00  0.00     0.187 HD
HETATM    5  N2  UNL     1       8.644  -5.323  34.086  1.00  0.00    -0.008 NA
HETATM    6  N3  UNL     1       8.954  -4.815  35.354  1.00  0.00     0.005 NA
HETATM    7  N4  UNL     1       7.778  -4.564  36.131  1.00  0.00    -0.005 NA
HETATM    8  N5  UNL     1       7.457  -3.255  35.844  1.00  0.00    -0.234 N 
HETATM    9  C2  UNL     1       6.956  -2.343  36.854  1.00  0.00     0.124 A 
HETATM   10  C3  UNL     1       6.232  -2.573  38.005  1.00  0.00     0.131 A 
HETATM   11  C4  UNL     1       5.904  -1.500  38.827  1.00  0.00     0.113 A 
HETATM   12  C5  UNL     1       6.303  -0.209  38.495  1.00  0.00     0.045 A 
HETATM   13  C11 UNL     1       7.029  -0.007  37.345  1.00  0.00     0.113 A 
HETATM   14  C12 UNL     1       7.366  -1.084  36.490  1.00  0.00     0.137 A 
HETATM   15  O11 UNL     1       8.051  -1.234  35.287  1.00  0.00    -0.310 OA
HETATM   16  C13 UNL     1       7.418  -2.398  34.650  1.00  0.00     0.343 C 
ENDROOT
BRANCH  12  17
HETATM   17  C6  UNL     1       5.713   0.888  39.407  1.00  0.00     0.197 C 
BRANCH  17  18
HETATM   18  O4  UNL     1       5.142   1.808  38.755  1.00  0.00    -0.346 OA
BRANCH  18  19
HETATM   19  C7  UNL     1       4.538   2.689  38.123  1.00  0.00     0.281 C 
BRANCH  19  20
HETATM   20  O5  UNL     1       3.992   2.537  36.845  1.00  0.00    -0.369 OA
ATOM     21  H5  UNL     1       3.527   1.769  36.535  1.00  0.00     0.212 HD
ENDBRANCH  19  20
BRANCH  19  22
HETATM   22  C8  UNL     1       5.549   3.957  37.867  1.00  0.00     0.224 C 
BRANCH  22  23
HETATM   23  O6  UNL     1       6.174   3.627  36.690  1.00  0.00    -0.396 OA
ATOM     24  H6  UNL     1       7.062   3.428  36.964  1.00  0.00     0.209 HD
ENDBRANCH  22  23
ENDBRANCH  19  22
ENDBRANCH  18  19
ENDBRANCH  17  18
BRANCH  17  25
HETATM   25  C9  UNL     1       6.799   1.439  40.265  1.00  0.00     0.206 C 
BRANCH  25  26
HETATM   26  O7  UNL     1       7.719   2.244  39.614  1.00  0.00    -0.388 OA
ATOM     27  H7  UNL     1       8.377   1.782  39.107  1.00  0.00     0.210 HD
ENDBRANCH  25  26
BRANCH  25  28
HETATM   28  C10 UNL     1       6.311   2.159  41.495  1.00  0.00     0.285 C 
BRANCH  28  29
HETATM   29  O8  UNL     1       7.166   2.054  42.591  1.00  0.00    -0.369 OA
ATOM     30  H8  UNL     1       6.776   1.632  43.346  1.00  0.00     0.212 HD
ENDBRANCH  28  29
BRANCH  28  31
HETATM   31  O9  UNL     1       6.334   3.543  41.148  1.00  0.00    -0.369 OA
ATOM     32  H9  UNL     1       6.841   3.961  41.834  1.00  0.00     0.212 HD
ENDBRANCH  28  31
ENDBRANCH  25  28
ENDBRANCH  17  25
ENDBRANCH  12  17
BRANCH  11  33
HETATM   33  O3  UNL     1       5.176  -1.697  39.989  1.00  0.00    -0.357 OA
ATOM     34  H3  UNL     1       5.574  -1.556  40.840  1.00  0.00     0.217 HD
ENDBRANCH  11  33
BRANCH  13  35
HETATM   35  O10 UNL     1       7.459   1.175  36.979  1.00  0.00    -0.357 OA
ATOM     36  H10 UNL     1       7.924   1.321  36.163  1.00  0.00     0.217 HD
ENDBRANCH  13  35
BRANCH  10  37
HETATM   37  O2  UNL     1       5.817  -3.812  38.398  1.00  0.00    -0.356 OA
ATOM     38  H2  UNL     1       4.984  -3.975  38.824  1.00  0.00     0.218 HD
ENDBRANCH  10  37
TORSDOF 14
ENDMDL
MODEL 3
REMARK VINA RESULT: -4.934160618      2.985      5.098
REMARK  14 active torsions:
REMARK  status: ('A' for Active; 'I' for Inactive)
REMARK    1  A    between atoms: C3_10  and  O2_11 
REMARK    2  A    between atoms: C4_13  and  O3_14 
REMARK    3  A    between atoms: C5_16  and  C6_17 
REMARK    4  A    between atoms: C6_17  and  O4_18 
REMARK    5  A    between atoms: C6_17  and  C9_25 
REMARK    6  A    between atoms: O4_18  and  C7_19 
REMARK    7  A    between atoms: C7_19  and  O5_20 
REMARK    8  A    between atoms: C7_19  and  C8_22 
REMARK    9  A    between atoms: C8_22  and  O6_23 
REMARK   10  A    between atoms: C9_25  and  O7_26 
REMARK   11  A    between atoms: C9_25  and  C10_28 
REMARK   12  A    between atoms: C10_28  and  O8_29 
REMARK   13  A    between atoms: C10_28  and  O9_31 
REMARK   14  A    between atoms: C11_33  and  O10_34 
ROOT
HETATM    1  O1  UNL     1      14.431   2.424  36.699  1.00  0.00    -0.267 OA
HETATM    2  C1  UNL     1      13.525   2.311  37.555  1.00  0.00     0.285 C 
HETATM    3  N1  UNL     1      12.286   1.720  37.067  1.00  0.00    -0.252 N 
ATOM      4  H1  UNL     1      12.218   1.608  36.056  1.00  0.00     0.187 HD
HETATM    5  N2  UNL     1      11.184   1.289  37.796  1.00  0.00    -0.008 NA
HETATM    6  N3  UNL     1      11.634   0.827  39.039  1.00  0.00     0.005 NA
HETATM    7  N4  UNL     1      11.642   1.866  40.023  1.00  0.00    -0.005 NA
HETATM    8  N5  UNL     1      12.905   2.408  39.932  1.00  0.00    -0.234 N 
HETATM    9  C2  UNL     1      13.649   2.837  41.100  1.00  0.00     0.124 A 
HETATM   10  C3  UNL     1      13.223   3.303  42.327  1.00  0.00     0.131 A 
HETATM   11  C4  UNL     1      14.166   3.620  43.298  1.00  0.00     0.113 A 
HETATM   12  C5  UNL     1      15.525   3.466  43.039  1.00  0.00     0.045 A 
HETATM   13  C11 UNL     1      15.923   2.995  41.810  1.00  0.00     0.113 A 
HETATM   14  C12 UNL     1      14.980   2.675  40.805  1.00  0.00     0.137 A 
HETATM   15  O11 UNL     1      15.031   2.205  39.495  1.00  0.00    -0.310 OA
HETATM   16  C13 UNL     1      13.837   2.778  38.856  1.00  0.00     0.343 C 
ENDROOT
BRANCH  12  17
HETATM   17  C6  UNL     1      16.445   4.025  44.146  1.00  0.00     0.197 C 
BRANCH  17  18
HETATM   18  O4  UNL     1      17.383   4.736  43.685  1.00  0.00    -0.346 OA
BRANCH  18  19
HETATM   19  C7  UNL     1      18.312   5.452  43.278  1.00  0.00     0.281 C 
BRANCH  19  20
HETATM   20  O5  UNL     1      19.636   5.037  43.108  1.00  0.00    -0.369 OA
ATOM     21  H5  UNL     1      20.403   5.581  43.245  1.00  0.00     0.212 HD
ENDBRANCH  19  20
BRANCH  19  22
HETATM   22  C8  UNL     1      18.522   6.705  44.318  1.00  0.00     0.224 C 
BRANCH  22  23
HETATM   23  O6  UNL     1      17.632   7.645  43.861  1.00  0.00    -0.396 OA
ATOM     24  H6  UNL     1      17.693   7.561  42.917  1.00  0.00     0.209 HD
ENDBRANCH  22  23
ENDBRANCH  19  22
ENDBRANCH  18  19
ENDBRANCH  17  18
BRANCH  17  25
HETATM   25  C9  UNL     1      16.981   2.890  44.948  1.00  0.00     0.206 C 
BRANCH  25  26
HETATM   26  O7  UNL     1      18.361   2.772  44.962  1.00  0.00    -0.388 OA
ATOM     27  H7  UNL     1      18.699   1.987  45.377  1.00  0.00     0.210 HD
ENDBRANCH  25  26
BRANCH  25  28
HETATM   28  C10 UNL     1      16.477   2.842  46.366  1.00  0.00     0.285 C 
BRANCH  28  29
HETATM   29  O8  UNL     1      16.063   4.076  46.863  1.00  0.00    -0.369 OA
ATOM     30  H8  UNL     1      15.445   4.531  46.303  1.00  0.00     0.212 HD
ENDBRANCH  28  29
BRANCH  28  31
HETATM   31  O9  UNL     1      15.288   2.055  46.312  1.00  0.00    -0.369 OA
ATOM     32  H9  UNL     1      15.069   1.877  47.218  1.00  0.00     0.212 HD
ENDBRANCH  28  31
ENDBRANCH  25  28
ENDBRANCH  17  25
ENDBRANCH  12  17
BRANCH  11  33
HETATM   33  O3  UNL     1      13.771   4.092  44.539  1.00  0.00    -0.357 OA
ATOM     34  H3  UNL     1      14.154   4.882  44.902  1.00  0.00     0.217 HD
ENDBRANCH  11  33
BRANCH  13  35
HETATM   35  O10 UNL     1      17.183   2.802  41.502  1.00  0.00    -0.357 OA
ATOM     36  H10 UNL     1      17.454   2.238  40.787  1.00  0.00     0.217 HD
ENDBRANCH  13  35
BRANCH  10  37
HETATM   37  O2  UNL     1      11.908   3.468  42.653  1.00  0.00    -0.356 OA
ATOM     38  H2  UNL     1      11.593   3.521  43.548  1.00  0.00     0.218 HD
ENDBRANCH  10  37
TORSDOF 14
ENDMDL
MODEL 4
REMARK VINA RESULT: -4.867980477      6.505      9.246
REMARK  14 active torsions:
REMARK  status: ('A' for Active; 'I' for Inactive)
REMARK    1  A    between atoms: C3_10  and  O2_11 
REMARK    2  A    between atoms: C4_13  and  O3_14 
REMARK    3  A    between atoms: C5_16  and  C6_17 
REMARK    4  A    between atoms: C6_17  and  O4_18 
REMARK    5  A    between atoms: C6_17  and  C9_25 
REMARK    6  A    between atoms: O4_18  and  C7_19 
REMARK    7  A    between atoms: C7_19  and  O5_20 
REMARK    8  A    between atoms: C7_19  and  C8_22 
REMARK    9  A    between atoms: C8_22  and  O6_23 
REMARK   10  A    between atoms: C9_25  and  O7_26 
REMARK   11  A    between atoms: C9_25  and  C10_28 
REMARK   12  A    between atoms: C10_28  and  O8_29 
REMARK   13  A    between atoms: C10_28  and  O9_31 
REMARK   14  A    between atoms: C11_33  and  O10_34 
ROOT
HETATM    1  O1  UNL     1       8.707   0.715  46.411  1.00  0.00    -0.267 OA
HETATM    2  C1  UNL     1       7.477   0.491  46.357  1.00  0.00     0.285 C 
HETATM    3  N1  UNL     1       6.843   0.225  47.641  1.00  0.00    -0.252 N 
ATOM      4  H1  UNL     1       7.477   0.086  48.428  1.00  0.00     0.187 HD
HETATM    5  N2  UNL     1       5.488   0.134  47.938  1.00  0.00    -0.008 NA
HETATM    6  N3  UNL     1       4.792   0.994  47.079  1.00  0.00     0.005 NA
HETATM    7  N4  UNL     1       4.381   0.331  45.879  1.00  0.00    -0.005 NA
HETATM    8  N5  UNL     1       5.425   0.538  45.004  1.00  0.00    -0.234 N 
HETATM    9  C2  UNL     1       5.212   0.805  43.595  1.00  0.00     0.124 A 
HETATM   10  C3  UNL     1       4.192   0.430  42.744  1.00  0.00     0.131 A 
HETATM   11  C4  UNL     1       4.219   0.858  41.422  1.00  0.00     0.113 A 
HETATM   12  C5  UNL     1       5.260   1.658  40.960  1.00  0.00     0.045 A 
HETATM   13  C11 UNL     1       6.262   2.022  41.829  1.00  0.00     0.113 A 
HETATM   14  C12 UNL     1       6.258   1.590  43.177  1.00  0.00     0.137 A 
HETATM   15  O11 UNL     1       7.086   1.752  44.284  1.00  0.00    -0.310 OA
HETATM   16  C13 UNL     1       6.895   0.522  45.066  1.00  0.00     0.343 C 
ENDROOT
BRANCH  12  17
HETATM   17  C6  UNL     1       5.242   1.899  39.435  1.00  0.00     0.197 C 
BRANCH  17  18
HETATM   18  O4  UNL     1       6.367   1.699  38.897  1.00  0.00    -0.346 OA
BRANCH  18  19
HETATM   19  C7  UNL     1       7.451   1.473  38.335  1.00  0.00     0.281 C 
BRANCH  19  20
HETATM   20  O5  UNL     1       8.282   2.442  37.764  1.00  0.00    -0.369 OA
ATOM     21  H5  UNL     1       9.206   2.329  37.575  1.00  0.00     0.212 HD
ENDBRANCH  19  20
BRANCH  19  22
HETATM   22  C8  UNL     1       7.192   0.500  37.038  1.00  0.00     0.224 C 
BRANCH  22  23
HETATM   23  O6  UNL     1       6.758   1.373  36.072  1.00  0.00    -0.396 OA
ATOM     24  H6  UNL     1       6.678   0.823  35.302  1.00  0.00     0.209 HD
ENDBRANCH  22  23
ENDBRANCH  19  22
ENDBRANCH  18  19
ENDBRANCH  17  18
BRANCH  17  25
HETATM   25  C9  UNL     1       4.764   3.286  39.172  1.00  0.00     0.206 C 
BRANCH  25  26
HETATM   26  O7  UNL     1       5.537   4.294  39.723  1.00  0.00    -0.388 OA
ATOM     27  H7  UNL     1       6.477   4.160  39.674  1.00  0.00     0.210 HD
ENDBRANCH  25  26
BRANCH  25  28
HETATM   28  C10 UNL     1       4.533   3.595  37.715  1.00  0.00     0.285 C 
BRANCH  28  29
HETATM   29  O8  UNL     1       5.679   3.994  37.031  1.00  0.00    -0.369 OA
ATOM     30  H8  UNL     1       5.582   4.810  36.555  1.00  0.00     0.212 HD
ENDBRANCH  28  29
BRANCH  28  31
HETATM   31  O9  UNL     1       4.173   2.348  37.124  1.00  0.00    -0.369 OA
ATOM     32  H9  UNL     1       3.226   2.313  37.179  1.00  0.00     0.212 HD
ENDBRANCH  28  31
ENDBRANCH  25  28
ENDBRANCH  17  25
ENDBRANCH  12  17
BRANCH  11  33
HETATM   33  O3  UNL     1       3.212   0.498  40.542  1.00  0.00    -0.357 OA
ATOM     34  H3  UNL     1       3.281   0.700  39.616  1.00  0.00     0.217 HD
ENDBRANCH  11  33
BRANCH  13  35
HETATM   35  O10 UNL     1       7.262   2.791  41.473  1.00  0.00    -0.357 OA
ATOM     36  H10 UNL     1       7.685   3.392  42.075  1.00  0.00     0.217 HD
ENDBRANCH  13  35
BRANCH  10  37
HETATM   37  O2  UNL     1       3.136  -0.342  43.131  1.00  0.00    -0.356 OA
ATOM     38  H2  UNL     1       3.222  -1.247  43.409  1.00  0.00     0.218 HD
ENDBRANCH  10  37
TORSDOF 14
ENDMDL
MODEL 5
REMARK VINA RESULT: -4.837044780      1.815      2.440
REMARK  14 active torsions:
REMARK  status: ('A' for Active; 'I' for Inactive)
REMARK    1  A    between atoms: C3_10  and  O2_11 
REMARK    2  A    between atoms: C4_13  and  O3_14 
REMARK    3  A    between atoms: C5_16  and  C6_17 
REMARK    4  A    between atoms: C6_17  and  O4_18 
REMARK    5  A    between atoms: C6_17  and  C9_25 
REMARK    6  A    between atoms: O4_18  and  C7_19 
REMARK    7  A    between atoms: C7_19  and  O5_20 
REMARK    8  A    between atoms: C7_19  and  C8_22 
REMARK    9  A    between atoms: C8_22  and  O6_23 
REMARK   10  A    between atoms: C9_25  and  O7_26 
REMARK   11  A    between atoms: C9_25  and  C10_28 
REMARK   12  A    between atoms: C10_28  and  O8_29 
REMARK   13  A    between atoms: C10_28  and  O9_31 
REMARK   14  A    between atoms: C11_33  and  O10_34 
ROOT
HETATM    1  O1  UNL     1       4.732   2.053  40.284  1.00  0.00    -0.267 OA
HETATM    2  C1  UNL     1       5.341   1.592  39.292  1.00  0.00     0.285 C 
HETATM    3  N1  UNL     1       4.528   1.417  38.097  1.00  0.00    -0.252 N 
ATOM      4  H1  UNL     1       3.522   1.529  38.225  1.00  0.00     0.187 HD
HETATM    5  N2  UNL     1       4.939   1.117  36.804  1.00  0.00    -0.008 NA
HETATM    6  N3  UNL     1       6.207   1.680  36.605  1.00  0.00     0.005 NA
HETATM    7  N4  UNL     1       7.255   0.769  36.948  1.00  0.00    -0.005 NA
HETATM    8  N5  UNL     1       7.508   1.031  38.277  1.00  0.00    -0.234 N 
HETATM    9  C2  UNL     1       8.851   1.025  38.824  1.00  0.00     0.124 A 
HETATM   10  C3  UNL     1       9.982   0.331  38.446  1.00  0.00     0.131 A 
HETATM   11  C4  UNL     1      11.170   0.540  39.137  1.00  0.00     0.113 A 
HETATM   12  C5  UNL     1      11.220   1.441  40.197  1.00  0.00     0.045 A 
HETATM   13  C11 UNL     1      10.080   2.124  40.551  1.00  0.00     0.113 A 
HETATM   14  C12 UNL     1       8.859   1.919  39.866  1.00  0.00     0.137 A 
HETATM   15  O11 UNL     1       7.559   2.410  39.963  1.00  0.00    -0.310 OA
HETATM   16  C13 UNL     1       6.715   1.306  39.485  1.00  0.00     0.343 C 
ENDROOT
BRANCH  12  17
HETATM   17  C6  UNL     1      12.556   1.429  40.973  1.00  0.00     0.197 C 
BRANCH  17  18
HETATM   18  O4  UNL     1      12.391   1.447  42.225  1.00  0.00    -0.346 OA
BRANCH  18  19
HETATM   19  C7  UNL     1      12.208   1.420  43.453  1.00  0.00     0.281 C 
BRANCH  19  20
HETATM   20  O5  UNL     1      10.961   1.428  44.084  1.00  0.00    -0.369 OA
ATOM     21  H5  UNL     1      10.185   1.869  43.760  1.00  0.00     0.212 HD
ENDBRANCH  19  20
BRANCH  19  22
HETATM   22  C8  UNL     1      12.893   2.750  44.129  1.00  0.00     0.224 C 
BRANCH  22  23
HETATM   23  O6  UNL     1      12.028   3.759  43.783  1.00  0.00    -0.396 OA
ATOM     24  H6  UNL     1      12.557   4.542  43.880  1.00  0.00     0.209 HD
ENDBRANCH  22  23
ENDBRANCH  19  22
ENDBRANCH  18  19
ENDBRANCH  17  18
BRANCH  17  25
HETATM   25  C9  UNL     1      13.383   2.586  40.527  1.00  0.00     0.206 C 
BRANCH  25  26
HETATM   26  O7  UNL     1      13.008   3.816  41.041  1.00  0.00    -0.388 OA
ATOM     27  H7  UNL     1      12.253   3.803  41.618  1.00  0.00     0.210 HD
ENDBRANCH  25  26
BRANCH  25  28
HETATM   28  C10 UNL     1      14.864   2.405  40.736  1.00  0.00     0.285 C 
BRANCH  28  29
HETATM   29  O8  UNL     1      15.391   3.188  41.761  1.00  0.00    -0.369 OA
ATOM     30  H8  UNL     1      16.253   3.541  41.573  1.00  0.00     0.212 HD
ENDBRANCH  28  29
BRANCH  28  31
HETATM   31  O9  UNL     1      15.012   1.061  41.192  1.00  0.00    -0.369 OA
ATOM     32  H9  UNL     1      15.749   0.715  40.702  1.00  0.00     0.212 HD
ENDBRANCH  28  31
ENDBRANCH  25  28
ENDBRANCH  17  25
ENDBRANCH  12  17
BRANCH  11  33
HETATM   33  O3  UNL     1      12.323  -0.141  38.784  1.00  0.00    -0.357 OA
ATOM     34  H3  UNL     1      12.851   0.149  38.050  1.00  0.00     0.217 HD
ENDBRANCH  11  33
BRANCH  13  35
HETATM   35  O10 UNL     1      10.056   3.004  41.522  1.00  0.00    -0.357 OA
ATOM     36  H10 UNL     1      10.016   2.754  42.438  1.00  0.00     0.217 HD
ENDBRANCH  13  35
BRANCH  10  37
HETATM   37  O2  UNL     1      10.008  -0.558  37.411  1.00  0.00    -0.356 OA
ATOM     38  H2  UNL     1       9.919  -1.497  37.525  1.00  0.00     0.218 HD
ENDBRANCH  10  37
TORSDOF 14
ENDMDL
