MODEL 1
REMARK VINA RESULT: -5.293628106      0.000      0.000
REMARK  16 active torsions:
REMARK  status: ('A' for Active; 'I' for Inactive)
REMARK    1  A    between atoms: N2_4  and  O1_6 
REMARK    2  A    between atoms: O1_6  and  C1_7 
REMARK    3  A    between atoms: C1_7  and  O2_8 
REMARK    4  A    between atoms: C2_10  and  O3_11 
REMARK    5  A    between atoms: C3_13  and  N3_14 
REMARK    6  A    between atoms: C4_15  and  N4_16 
REMARK    7  A    between atoms: C5_22  and  N7_23 
REMARK    8  A    between atoms: C6_28  and  N9_29 
REMARK    9  A    between atoms: C8_36  and  C9_37 
REMARK   10  A    between atoms: C9_37  and  C10_38 
REMARK   11  A    between atoms: C9_37  and  C11_41 
REMARK   12  A    between atoms: C10_38  and  O5_39 
REMARK   13  A    between atoms: C11_41  and  N11_42 
REMARK   14  A    between atoms: C11_41  and  C12_46 
REMARK   15  A    between atoms: C12_46  and  O6_47 
REMARK   16  A    between atoms: C12_46  and  O7_49 
ROOT
HETATM    1  C1  UNL     1      14.025   1.510  42.878  1.00  0.00     0.246 C 
HETATM    2  C2  UNL     1      13.992   1.288  41.320  1.00  0.00     0.235 C 
HETATM    3  C3  UNL     1      14.644   2.579  40.895  1.00  0.00     0.299 C 
HETATM    4  O4  UNL     1      15.284   3.117  41.966  1.00  0.00    -0.351 OA
HETATM    5  C8  UNL     1      15.350   2.103  42.935  1.00  0.00     0.200 C 
ENDROOT
BRANCH   3   6
HETATM    6  N3  UNL     1      15.533   2.408  39.773  1.00  0.00     0.020 N 
HETATM    7  C4  UNL     1      16.843   2.221  39.755  1.00  0.00     0.711 A 
HETATM    8  N5  UNL     1      17.244   2.112  38.436  1.00  0.00    -0.095 N 
HETATM    9  N6  UNL     1      16.166   2.239  37.705  1.00  0.00     0.106 N 
ATOM     10  H5  UNL     1      18.195   1.962  38.099  1.00  0.00     0.207 HD
HETATM   11  C5  UNL     1      16.048   2.207  36.354  1.00  0.00     0.727 A 
HETATM   12  C7  UNL     1      15.105   2.421  38.482  1.00  0.00     0.752 A 
HETATM   13  N8  UNL     1      14.832   2.363  35.833  1.00  0.00    -0.020 N 
HETATM   14  C6  UNL     1      13.750   2.547  36.609  1.00  0.00     0.705 A 
ATOM     15  H8  UNL     1      14.720   2.342  34.819  1.00  0.00     0.203 HD
HETATM   16  N10 UNL     1      13.854   2.582  37.954  1.00  0.00    -0.019 N 
ATOM     17  H10 UNL     1      13.038   2.723  38.549  1.00  0.00     0.203 HD
BRANCH   7  18
HETATM   18  N4  UNL     1      17.690   2.145  40.724  1.00  0.00    -0.233 N 
ATOM     19  H42 UNL     1      17.401   2.265  41.695  1.00  0.00     0.174 HD
ATOM     20  H41 UNL     1      18.693   1.964  40.712  1.00  0.00     0.174 HD
ENDBRANCH   7  18
BRANCH  11  21
HETATM   21  N7  UNL     1      17.110   2.026  35.640  1.00  0.00    -0.232 N 
ATOM     22  H72 UNL     1      17.859   1.385  35.901  1.00  0.00     0.174 HD
ATOM     23  H71 UNL     1      17.212   2.548  34.771  1.00  0.00     0.174 HD
ENDBRANCH  11  21
BRANCH  14  24
HETATM   24  N9  UNL     1      12.595   2.695  36.069  1.00  0.00    -0.234 N 
ATOM     25  H92 UNL     1      12.511   3.265  35.228  1.00  0.00     0.174 HD
ATOM     26  H91 UNL     1      11.781   2.242  36.482  1.00  0.00     0.174 HD
ENDBRANCH  14  24
ENDBRANCH   3   6
BRANCH   2  27
HETATM   27  O3  UNL     1      14.705   0.156  41.022  1.00  0.00    -0.385 OA
ATOM     28  H3  UNL     1      14.108  -0.500  40.683  1.00  0.00     0.210 HD
ENDBRANCH   2  27
BRANCH   1  29
HETATM   29  O1  UNL     1      12.915   2.343  43.070  1.00  0.00    -0.220 OA
BRANCH  29  30
HETATM   30  N2  UNL     1      12.463   2.790  44.263  1.00  0.00    -0.211 N 
HETATM   31  N1  UNL     1      12.049   2.042  45.203  1.00  0.00    -0.326 N 
ATOM     32  H12 UNL     1      12.066   1.038  45.029  1.00  0.00     0.178 HD
ATOM     33  H11 UNL     1      11.709   2.380  46.103  1.00  0.00     0.178 HD
ATOM     34  H2  UNL     1      12.454   3.798  44.419  1.00  0.00     0.215 HD
ENDBRANCH  29  30
ENDBRANCH   1  29
BRANCH   1  35
HETATM   35  O2  UNL     1      13.840   0.261  43.465  1.00  0.00    -0.360 OA
ATOM     36  H2  UNL     1      14.368  -0.407  43.044  1.00  0.00     0.213 HD
ENDBRANCH   1  35
BRANCH   5  37
HETATM   37  C9  UNL     1      16.023   2.544  44.162  1.00  0.00     0.079 C 
BRANCH  37  38
HETATM   38  C10 UNL     1      15.866   1.640  45.307  1.00  0.00     0.173 C 
BRANCH  38  39
HETATM   39  O5  UNL     1      14.776   1.693  46.102  1.00  0.00    -0.400 OA
ATOM     40  H5  UNL     1      14.552   0.977  46.684  1.00  0.00     0.209 HD
ENDBRANCH  38  39
ENDBRANCH  37  38
BRANCH  37  41
HETATM   41  C11 UNL     1      15.948   4.009  44.445  1.00  0.00     0.246 C 
BRANCH  41  42
HETATM   42  N11 UNL     1      15.523   4.427  45.724  1.00  0.00    -0.070 N 
ATOM     43 3H11 UNL     1      14.707   5.031  45.621  1.00  0.00     0.274 HD
ATOM     44 2H11 UNL     1      15.117   3.630  46.215  1.00  0.00     0.274 HD
ATOM     45 1H11 UNL     1      16.198   4.884  46.337  1.00  0.00     0.274 HD
ENDBRANCH  41  42
BRANCH  41  46
HETATM   46  C12 UNL     1      17.184   4.793  44.075  1.00  0.00     0.284 C 
BRANCH  46  47
HETATM   47  O6  UNL     1      17.120   6.137  44.434  1.00  0.00    -0.369 OA
ATOM     48  H6  UNL     1      17.973   6.539  44.555  1.00  0.00     0.212 HD
ENDBRANCH  46  47
BRANCH  46  49
HETATM   49  O7  UNL     1      17.449   4.730  42.712  1.00  0.00    -0.369 OA
ATOM     50  H7  UNL     1      18.172   4.145  42.518  1.00  0.00     0.212 HD
ENDBRANCH  46  49
ENDBRANCH  41  46
ENDBRANCH  37  41
ENDBRANCH   5  37
TORSDOF 16
ENDMDL
MODEL 2
REMARK VINA RESULT: -5.247097626      2.207      3.425
REMARK  16 active torsions:
REMARK  status: ('A' for Active; 'I' for Inactive)
REMARK    1  A    between atoms: N2_4  and  O1_6 
REMARK    2  A    between atoms: O1_6  and  C1_7 
REMARK    3  A    between atoms: C1_7  and  O2_8 
REMARK    4  A    between atoms: C2_10  and  O3_11 
REMARK    5  A    between atoms: C3_13  and  N3_14 
REMARK    6  A    between atoms: C4_15  and  N4_16 
REMARK    7  A    between atoms: C5_22  and  N7_23 
REMARK    8  A    between atoms: C6_28  and  N9_29 
REMARK    9  A    between atoms: C8_36  and  C9_37 
REMARK   10  A    between atoms: C9_37  and  C10_38 
REMARK   11  A    between atoms: C9_37  and  C11_41 
REMARK   12  A    between atoms: C10_38  and  O5_39 
REMARK   13  A    between atoms: C11_41  and  N11_42 
REMARK   14  A    between atoms: C11_41  and  C12_46 
REMARK   15  A    between atoms: C12_46  and  O6_47 
REMARK   16  A    between atoms: C12_46  and  O7_49 
ROOT
HETATM    1  C1  UNL     1      12.924   3.140  42.667  1.00  0.00     0.246 C 
HETATM    2  C2  UNL     1      13.385   2.958  41.173  1.00  0.00     0.235 C 
HETATM    3  C3  UNL     1      14.807   2.527  41.429  1.00  0.00     0.299 C 
HETATM    4  O4  UNL     1      14.915   2.125  42.723  1.00  0.00    -0.351 OA
HETATM    5  C8  UNL     1      13.603   1.969  43.197  1.00  0.00     0.200 C 
ENDROOT
BRANCH   3   6
HETATM    6  N3  UNL     1      15.249   1.503  40.514  1.00  0.00     0.020 N 
HETATM    7  C4  UNL     1      15.873   0.362  40.761  1.00  0.00     0.711 A 
HETATM    8  N5  UNL     1      16.085  -0.281  39.556  1.00  0.00    -0.095 N 
HETATM    9  N6  UNL     1      15.586   0.491  38.626  1.00  0.00     0.106 N 
ATOM     10  H5  UNL     1      16.543  -1.183  39.419  1.00  0.00     0.207 HD
HETATM   11  C5  UNL     1      15.555   0.293  37.284  1.00  0.00     0.727 A 
HETATM   12  C7  UNL     1      15.068   1.586  39.169  1.00  0.00     0.752 A 
HETATM   13  N8  UNL     1      14.987   1.233  36.530  1.00  0.00    -0.020 N 
HETATM   14  C6  UNL     1      14.459   2.346  37.068  1.00  0.00     0.705 A 
ATOM     15  H8  UNL     1      14.953   1.105  35.518  1.00  0.00     0.203 HD
HETATM   16  N10 UNL     1      14.484   2.555  38.401  1.00  0.00    -0.019 N 
ATOM     17  H10 UNL     1      14.086   3.398  38.817  1.00  0.00     0.203 HD
BRANCH   7  18
HETATM   18  N4  UNL     1      16.265  -0.151  41.877  1.00  0.00    -0.233 N 
ATOM     19  H42 UNL     1      17.237  -0.423  42.026  1.00  0.00     0.174 HD
ATOM     20  H41 UNL     1      15.745  -0.354  42.730  1.00  0.00     0.174 HD
ENDBRANCH   7  18
BRANCH  11  21
HETATM   21  N7  UNL     1      16.071  -0.790  36.802  1.00  0.00    -0.232 N 
ATOM     22  H72 UNL     1      15.515  -1.557  36.424  1.00  0.00     0.174 HD
ATOM     23  H71 UNL     1      17.086  -0.890  36.797  1.00  0.00     0.174 HD
ENDBRANCH  11  21
BRANCH  14  24
HETATM   24  N9  UNL     1      13.922   3.229  36.308  1.00  0.00    -0.234 N 
ATOM     25  H92 UNL     1      13.996   3.123  35.297  1.00  0.00     0.174 HD
ATOM     26  H91 UNL     1      13.428   4.020  36.720  1.00  0.00     0.174 HD
ENDBRANCH  14  24
ENDBRANCH   3   6
BRANCH   2  27
HETATM   27  O3  UNL     1      12.593   2.010  40.580  1.00  0.00    -0.385 OA
ATOM     28  H3  UNL     1      12.507   2.217  39.658  1.00  0.00     0.210 HD
ENDBRANCH   2  27
BRANCH   1  29
HETATM   29  O1  UNL     1      13.443   4.405  42.973  1.00  0.00    -0.220 OA
BRANCH  29  30
HETATM   30  N2  UNL     1      13.347   5.027  44.169  1.00  0.00    -0.211 N 
HETATM   31  N1  UNL     1      12.272   5.147  44.835  1.00  0.00    -0.326 N 
ATOM     32  H12 UNL     1      11.432   4.741  44.424  1.00  0.00     0.178 HD
ATOM     33  H11 UNL     1      12.200   5.617  45.737  1.00  0.00     0.178 HD
ATOM     34  H2  UNL     1      14.198   5.427  44.565  1.00  0.00     0.215 HD
ENDBRANCH  29  30
ENDBRANCH   1  29
BRANCH   1  35
HETATM   35  O2  UNL     1      11.531   3.142  42.659  1.00  0.00    -0.360 OA
ATOM     36  H2  UNL     1      11.185   3.427  41.822  1.00  0.00     0.213 HD
ENDBRANCH   1  35
BRANCH   5  37
HETATM   37  C9  UNL     1      13.561   1.534  44.597  1.00  0.00     0.079 C 
BRANCH  37  38
HETATM   38  C10 UNL     1      14.875   1.393  45.235  1.00  0.00     0.173 C 
BRANCH  38  39
HETATM   39  O5  UNL     1      15.716   0.391  44.902  1.00  0.00    -0.400 OA
ATOM     40  H5  UNL     1      16.580   0.565  44.547  1.00  0.00     0.209 HD
ENDBRANCH  38  39
ENDBRANCH  37  38
BRANCH  37  41
HETATM   41  C11 UNL     1      12.542   0.490  44.917  1.00  0.00     0.246 C 
BRANCH  41  42
HETATM   42  N11 UNL     1      12.863  -0.494  45.876  1.00  0.00    -0.070 N 
ATOM     43 3H11 UNL     1      13.674  -0.182  46.411  1.00  0.00     0.274 HD
ATOM     44 2H11 UNL     1      12.142  -0.500  46.598  1.00  0.00     0.274 HD
ATOM     45 1H11 UNL     1      13.022  -1.450  45.559  1.00  0.00     0.274 HD
ENDBRANCH  41  42
BRANCH  41  46
HETATM   46  C12 UNL     1      11.161   1.020  45.221  1.00  0.00     0.284 C 
BRANCH  46  47
HETATM   47  O6  UNL     1      10.260   0.862  44.172  1.00  0.00    -0.369 OA
ATOM     48  H6  UNL     1      10.427   1.440  43.437  1.00  0.00     0.212 HD
ENDBRANCH  46  47
BRANCH  46  49
HETATM   49  O7  UNL     1      11.186   2.367  45.560  1.00  0.00    -0.369 OA
ATOM     50  H7  UNL     1      10.851   2.519  46.436  1.00  0.00     0.212 HD
ENDBRANCH  46  49
ENDBRANCH  41  46
ENDBRANCH  37  41
ENDBRANCH   5  37
TORSDOF 16
ENDMDL
MODEL 3
REMARK VINA RESULT: -5.211270209      1.430      2.682
REMARK  16 active torsions:
REMARK  status: ('A' for Active; 'I' for Inactive)
REMARK    1  A    between atoms: N2_4  and  O1_6 
REMARK    2  A    between atoms: O1_6  and  C1_7 
REMARK    3  A    between atoms: C1_7  and  O2_8 
REMARK    4  A    between atoms: C2_10  and  O3_11 
REMARK    5  A    between atoms: C3_13  and  N3_14 
REMARK    6  A    between atoms: C4_15  and  N4_16 
REMARK    7  A    between atoms: C5_22  and  N7_23 
REMARK    8  A    between atoms: C6_28  and  N9_29 
REMARK    9  A    between atoms: C8_36  and  C9_37 
REMARK   10  A    between atoms: C9_37  and  C10_38 
REMARK   11  A    between atoms: C9_37  and  C11_41 
REMARK   12  A    between atoms: C10_38  and  O5_39 
REMARK   13  A    between atoms: C11_41  and  N11_42 
REMARK   14  A    between atoms: C11_41  and  C12_46 
REMARK   15  A    between atoms: C12_46  and  O6_47 
REMARK   16  A    between atoms: C12_46  and  O7_49 
ROOT
HETATM    1  C1  UNL     1      12.865   2.432  43.145  1.00  0.00     0.246 C 
HETATM    2  C2  UNL     1      12.370   2.139  41.680  1.00  0.00     0.235 C 
HETATM    3  C3  UNL     1      13.405   2.939  40.931  1.00  0.00     0.299 C 
HETATM    4  O4  UNL     1      14.450   3.190  41.763  1.00  0.00    -0.351 OA
HETATM    5  C8  UNL     1      14.287   2.335  42.865  1.00  0.00     0.200 C 
ENDROOT
BRANCH   3   6
HETATM    6  N3  UNL     1      13.834   2.291  39.716  1.00  0.00     0.020 N 
HETATM    7  C4  UNL     1      13.113   1.790  38.726  1.00  0.00     0.711 A 
HETATM    8  N5  UNL     1      13.980   1.272  37.782  1.00  0.00    -0.095 N 
HETATM    9  N6  UNL     1      15.191   1.475  38.234  1.00  0.00     0.106 N 
ATOM     10  H5  UNL     1      13.725   0.819  36.904  1.00  0.00     0.207 HD
HETATM   11  C5  UNL     1      16.376   1.141  37.664  1.00  0.00     0.727 A 
HETATM   12  C7  UNL     1      15.144   2.092  39.408  1.00  0.00     0.752 A 
HETATM   13  N8  UNL     1      17.492   1.454  38.323  1.00  0.00    -0.020 N 
HETATM   14  C6  UNL     1      17.457   2.079  39.512  1.00  0.00     0.705 A 
ATOM     15  H8  UNL     1      18.394   1.212  37.914  1.00  0.00     0.203 HD
HETATM   16  N10 UNL     1      16.284   2.416  40.089  1.00  0.00    -0.019 N 
ATOM     17  H10 UNL     1      16.251   2.890  40.992  1.00  0.00     0.203 HD
BRANCH   7  18
HETATM   18  N4  UNL     1      11.835   1.733  38.569  1.00  0.00    -0.233 N 
ATOM     19  H42 UNL     1      11.336   2.418  38.001  1.00  0.00     0.174 HD
ATOM     20  H41 UNL     1      11.154   1.068  38.934  1.00  0.00     0.174 HD
ENDBRANCH   7  18
BRANCH  11  21
HETATM   21  N7  UNL     1      16.371   0.541  36.520  1.00  0.00    -0.232 N 
ATOM     22  H72 UNL     1      15.545   0.088  36.128  1.00  0.00     0.174 HD
ATOM     23  H71 UNL     1      17.231   0.516  35.974  1.00  0.00     0.174 HD
ENDBRANCH  11  21
BRANCH  14  24
HETATM   24  N9  UNL     1      18.553   2.363  40.116  1.00  0.00    -0.234 N 
ATOM     25  H92 UNL     1      19.025   3.241  39.901  1.00  0.00     0.174 HD
ATOM     26  H91 UNL     1      18.938   1.712  40.801  1.00  0.00     0.174 HD
ENDBRANCH  14  24
ENDBRANCH   3   6
BRANCH   2  27
HETATM   27  O3  UNL     1      12.417   0.787  41.462  1.00  0.00    -0.385 OA
ATOM     28  H3  UNL     1      11.929   0.350  42.149  1.00  0.00     0.210 HD
ENDBRANCH   2  27
BRANCH   1  29
HETATM   29  O1  UNL     1      12.318   3.700  43.383  1.00  0.00    -0.220 OA
BRANCH  29  30
HETATM   30  N2  UNL     1      12.145   4.268  44.597  1.00  0.00    -0.211 N 
HETATM   31  N1  UNL     1      12.354   5.493  44.856  1.00  0.00    -0.326 N 
ATOM     32  H12 UNL     1      12.674   6.076  44.083  1.00  0.00     0.178 HD
ATOM     33  H11 UNL     1      12.224   5.921  45.773  1.00  0.00     0.178 HD
ATOM     34  H2  UNL     1      11.824   3.670  45.359  1.00  0.00     0.215 HD
ENDBRANCH  29  30
ENDBRANCH   1  29
BRANCH   1  35
HETATM   35  O2  UNL     1      12.291   1.462  43.964  1.00  0.00    -0.360 OA
ATOM     36  H2  UNL     1      12.732   0.625  43.879  1.00  0.00     0.213 HD
ENDBRANCH   1  35
BRANCH   5  37
HETATM   37  C9  UNL     1      15.354   2.496  43.860  1.00  0.00     0.079 C 
BRANCH  37  38
HETATM   38  C10 UNL     1      15.312   1.534  44.966  1.00  0.00     0.173 C 
BRANCH  38  39
HETATM   39  O5  UNL     1      14.474   1.700  46.012  1.00  0.00    -0.400 OA
ATOM     40  H5  UNL     1      14.469   2.502  46.521  1.00  0.00     0.209 HD
ENDBRANCH  38  39
ENDBRANCH  37  38
BRANCH  37  41
HETATM   41  C11 UNL     1      15.702   3.907  44.207  1.00  0.00     0.246 C 
BRANCH  41  42
HETATM   42  N11 UNL     1      15.536   4.333  45.542  1.00  0.00    -0.070 N 
ATOM     43 3H11 UNL     1      14.819   3.759  45.986  1.00  0.00     0.274 HD
ATOM     44 2H11 UNL     1      16.361   4.068  46.080  1.00  0.00     0.274 HD
ATOM     45 1H11 UNL     1      15.328   5.316  45.717  1.00  0.00     0.274 HD
ENDBRANCH  41  42
BRANCH  41  46
HETATM   46  C12 UNL     1      17.059   4.365  43.727  1.00  0.00     0.284 C 
BRANCH  46  47
HETATM   47  O6  UNL     1      17.311   5.711  43.972  1.00  0.00    -0.369 OA
ATOM     48  H6  UNL     1      17.184   5.963  44.879  1.00  0.00     0.212 HD
ENDBRANCH  46  47
BRANCH  46  49
HETATM   49  O7  UNL     1      17.229   4.142  42.365  1.00  0.00    -0.369 OA
ATOM     50  H7  UNL     1      18.044   4.510  42.045  1.00  0.00     0.212 HD
ENDBRANCH  46  49
ENDBRANCH  41  46
ENDBRANCH  37  41
ENDBRANCH   5  37
TORSDOF 16
ENDMDL
MODEL 4
REMARK VINA RESULT: -5.102859392      2.447      3.935
REMARK  16 active torsions:
REMARK  status: ('A' for Active; 'I' for Inactive)
REMARK    1  A    between atoms: N2_4  and  O1_6 
REMARK    2  A    between atoms: O1_6  and  C1_7 
REMARK    3  A    between atoms: C1_7  and  O2_8 
REMARK    4  A    between atoms: C2_10  and  O3_11 
REMARK    5  A    between atoms: C3_13  and  N3_14 
REMARK    6  A    between atoms: C4_15  and  N4_16 
REMARK    7  A    between atoms: C5_22  and  N7_23 
REMARK    8  A    between atoms: C6_28  and  N9_29 
REMARK    9  A    between atoms: C8_36  and  C9_37 
REMARK   10  A    between atoms: C9_37  and  C10_38 
REMARK   11  A    between atoms: C9_37  and  C11_41 
REMARK   12  A    between atoms: C10_38  and  O5_39 
REMARK   13  A    between atoms: C11_41  and  N11_42 
REMARK   14  A    between atoms: C11_41  and  C12_46 
REMARK   15  A    between atoms: C12_46  and  O6_47 
REMARK   16  A    between atoms: C12_46  and  O7_49 
ROOT
HETATM    1  C1  UNL     1      12.765   3.145  42.422  1.00  0.00     0.246 C 
HETATM    2  C2  UNL     1      13.129   3.213  40.892  1.00  0.00     0.235 C 
HETATM    3  C3  UNL     1      14.518   2.634  40.967  1.00  0.00     0.299 C 
HETATM    4  O4  UNL     1      14.659   1.988  42.154  1.00  0.00    -0.351 OA
HETATM    5  C8  UNL     1      13.364   1.847  42.680  1.00  0.00     0.200 C 
ENDROOT
BRANCH   3   6
HETATM    6  N3  UNL     1      14.819   1.770  39.851  1.00  0.00     0.020 N 
HETATM    7  C4  UNL     1      14.650   1.975  38.555  1.00  0.00     0.711 A 
HETATM    8  N5  UNL     1      15.091   0.852  37.881  1.00  0.00    -0.095 N 
HETATM    9  N6  UNL     1      15.508   0.009  38.790  1.00  0.00     0.106 N 
ATOM     10  H5  UNL     1      15.090   0.708  36.871  1.00  0.00     0.207 HD
HETATM   11  C5  UNL     1      16.027  -1.233  38.622  1.00  0.00     0.727 A 
HETATM   12  C7  UNL     1      15.359   0.531  40.001  1.00  0.00     0.752 A 
HETATM   13  N8  UNL     1      16.383  -1.911  39.712  1.00  0.00    -0.020 N 
HETATM   14  C6  UNL     1      16.238  -1.393  40.944  1.00  0.00     0.705 A 
ATOM     15  H8  UNL     1      16.776  -2.847  39.609  1.00  0.00     0.203 HD
HETATM   16  N10 UNL     1      15.722  -0.159  41.125  1.00  0.00    -0.019 N 
ATOM     17  H10 UNL     1      15.608   0.241  42.057  1.00  0.00     0.203 HD
BRANCH   7  18
HETATM   18  N4  UNL     1      14.166   2.992  37.926  1.00  0.00    -0.233 N 
ATOM     19  H42 UNL     1      13.317   3.460  38.243  1.00  0.00     0.174 HD
ATOM     20  H41 UNL     1      14.502   3.474  37.092  1.00  0.00     0.174 HD
ENDBRANCH   7  18
BRANCH  11  21
HETATM   21  N7  UNL     1      16.153  -1.698  37.422  1.00  0.00    -0.232 N 
ATOM     22  H72 UNL     1      16.862  -2.382  37.157  1.00  0.00     0.174 HD
ATOM     23  H71 UNL     1      15.515  -1.370  36.698  1.00  0.00     0.174 HD
ENDBRANCH  11  21
BRANCH  14  24
HETATM   24  N9  UNL     1      16.592  -2.077  41.969  1.00  0.00    -0.234 N 
ATOM     25  H92 UNL     1      16.099  -2.945  42.180  1.00  0.00     0.174 HD
ATOM     26  H91 UNL     1      17.358  -1.751  42.558  1.00  0.00     0.174 HD
ENDBRANCH  14  24
ENDBRANCH   3   6
BRANCH   2  27
HETATM   27  O3  UNL     1      12.225   2.458  40.191  1.00  0.00    -0.385 OA
ATOM     28  H3  UNL     1      12.690   1.753  39.755  1.00  0.00     0.210 HD
ENDBRANCH   2  27
BRANCH   1  29
HETATM   29  O1  UNL     1      13.408   4.286  42.919  1.00  0.00    -0.220 OA
BRANCH  29  30
HETATM   30  N2  UNL     1      13.352   4.729  44.195  1.00  0.00    -0.211 N 
HETATM   31  N1  UNL     1      12.296   5.138  44.770  1.00  0.00    -0.326 N 
ATOM     32  H12 UNL     1      11.440   5.124  44.216  1.00  0.00     0.178 HD
ATOM     33  H11 UNL     1      12.254   5.472  45.732  1.00  0.00     0.178 HD
ATOM     34  H2  UNL     1      14.218   4.735  44.733  1.00  0.00     0.215 HD
ENDBRANCH  29  30
ENDBRANCH   1  29
BRANCH   1  35
HETATM   35  O2  UNL     1      11.379   3.256  42.510  1.00  0.00    -0.360 OA
ATOM     36  H2  UNL     1      11.016   2.639  43.134  1.00  0.00     0.213 HD
ENDBRANCH   1  35
BRANCH   5  37
HETATM   37  C9  UNL     1      13.359   1.160  43.976  1.00  0.00     0.079 C 
BRANCH  37  38
HETATM   38  C10 UNL     1      12.078   1.205  44.689  1.00  0.00     0.173 C 
BRANCH  38  39
HETATM   39  O5  UNL     1      11.651   2.331  45.300  1.00  0.00    -0.400 OA
ATOM     40  H5  UNL     1      11.594   2.391  46.247  1.00  0.00     0.209 HD
ENDBRANCH  38  39
ENDBRANCH  37  38
BRANCH  37  41
HETATM   41  C11 UNL     1      14.594   1.330  44.799  1.00  0.00     0.246 C 
BRANCH  41  42
HETATM   42  N11 UNL     1      14.455   1.685  46.158  1.00  0.00    -0.070 N 
ATOM     43 3H11 UNL     1      14.947   2.563  46.322  1.00  0.00     0.274 HD
ATOM     44 2H11 UNL     1      13.489   1.966  46.330  1.00  0.00     0.274 HD
ATOM     45 1H11 UNL     1      14.735   1.010  46.870  1.00  0.00     0.274 HD
ENDBRANCH  41  42
BRANCH  41  46
HETATM   46  C12 UNL     1      15.584   0.193  44.704  1.00  0.00     0.284 C 
BRANCH  46  47
HETATM   47  O6  UNL     1      16.684   0.479  43.900  1.00  0.00    -0.369 OA
ATOM     48  H6  UNL     1      16.835  -0.166  43.219  1.00  0.00     0.212 HD
ENDBRANCH  46  47
BRANCH  46  49
HETATM   49  O7  UNL     1      14.994  -0.969  44.220  1.00  0.00    -0.369 OA
ATOM     50  H7  UNL     1      15.607  -1.694  44.197  1.00  0.00     0.212 HD
ENDBRANCH  46  49
ENDBRANCH  41  46
ENDBRANCH  37  41
ENDBRANCH   5  37
TORSDOF 16
ENDMDL
MODEL 5
REMARK VINA RESULT: -5.091079883      2.225      3.772
REMARK  16 active torsions:
REMARK  status: ('A' for Active; 'I' for Inactive)
REMARK    1  A    between atoms: N2_4  and  O1_6 
REMARK    2  A    between atoms: O1_6  and  C1_7 
REMARK    3  A    between atoms: C1_7  and  O2_8 
REMARK    4  A    between atoms: C2_10  and  O3_11 
REMARK    5  A    between atoms: C3_13  and  N3_14 
REMARK    6  A    between atoms: C4_15  and  N4_16 
REMARK    7  A    between atoms: C5_22  and  N7_23 
REMARK    8  A    between atoms: C6_28  and  N9_29 
REMARK    9  A    between atoms: C8_36  and  C9_37 
REMARK   10  A    between atoms: C9_37  and  C10_38 
REMARK   11  A    between atoms: C9_37  and  C11_41 
REMARK   12  A    between atoms: C10_38  and  O5_39 
REMARK   13  A    between atoms: C11_41  and  N11_42 
REMARK   14  A    between atoms: C11_41  and  C12_46 
REMARK   15  A    between atoms: C12_46  and  O6_47 
REMARK   16  A    between atoms: C12_46  and  O7_49 
ROOT
HETATM    1  C1  UNL     1      14.930   3.743  43.606  1.00  0.00     0.246 C 
HETATM    2  C2  UNL     1      13.976   3.820  42.357  1.00  0.00     0.235 C 
HETATM    3  C3  UNL     1      14.452   2.584  41.636  1.00  0.00     0.299 C 
HETATM    4  O4  UNL     1      15.138   1.805  42.512  1.00  0.00    -0.351 OA
HETATM    5  C8  UNL     1      14.849   2.305  43.792  1.00  0.00     0.200 C 
ENDROOT
BRANCH   3   6
HETATM    6  N3  UNL     1      13.375   1.859  41.009  1.00  0.00     0.020 N 
HETATM    7  C4  UNL     1      12.470   1.057  41.547  1.00  0.00     0.711 A 
HETATM    8  N5  UNL     1      11.646   0.598  40.537  1.00  0.00    -0.095 N 
HETATM    9  N6  UNL     1      12.081   1.135  39.426  1.00  0.00     0.106 N 
ATOM     10  H5  UNL     1      10.853  -0.036  40.638  1.00  0.00     0.207 HD
HETATM   11  C5  UNL     1      11.601   0.984  38.166  1.00  0.00     0.727 A 
HETATM   12  C7  UNL     1      13.131   1.908  39.671  1.00  0.00     0.752 A 
HETATM   13  N8  UNL     1      12.219   1.639  37.183  1.00  0.00    -0.020 N 
HETATM   14  C6  UNL     1      13.283   2.425  37.419  1.00  0.00     0.705 A 
ATOM     15  H8  UNL     1      11.875   1.540  36.228  1.00  0.00     0.203 HD
HETATM   16  N10 UNL     1      13.770   2.582  38.668  1.00  0.00    -0.019 N 
ATOM     17  H10 UNL     1      14.578   3.177  38.855  1.00  0.00     0.203 HD
BRANCH   7  18
HETATM   18  N4  UNL     1      12.299   0.694  42.773  1.00  0.00    -0.233 N 
ATOM     19  H42 UNL     1      11.377   0.449  43.133  1.00  0.00     0.174 HD
ATOM     20  H41 UNL     1      12.975   0.586  43.529  1.00  0.00     0.174 HD
ENDBRANCH   7  18
BRANCH  11  21
HETATM   21  N7  UNL     1      10.575   0.221  37.977  1.00  0.00    -0.232 N 
ATOM     22  H72 UNL     1       9.632   0.577  37.824  1.00  0.00     0.174 HD
ATOM     23  H71 UNL     1      10.707  -0.790  37.980  1.00  0.00     0.174 HD
ENDBRANCH  11  21
BRANCH  14  24
HETATM   24  N9  UNL     1      13.851   3.038  36.446  1.00  0.00    -0.234 N 
ATOM     25  H92 UNL     1      13.412   3.875  36.063  1.00  0.00     0.174 HD
ATOM     26  H91 UNL     1      14.731   2.686  36.070  1.00  0.00     0.174 HD
ENDBRANCH  14  24
ENDBRANCH   3   6
BRANCH   2  27
HETATM   27  O3  UNL     1      12.677   3.769  42.792  1.00  0.00    -0.385 OA
ATOM     28  H3  UNL     1      12.108   3.652  42.040  1.00  0.00     0.210 HD
ENDBRANCH   2  27
BRANCH   1  29
HETATM   29  O1  UNL     1      16.117   4.283  43.091  1.00  0.00    -0.220 OA
BRANCH  29  30
HETATM   30  N2  UNL     1      17.185   4.675  43.821  1.00  0.00    -0.211 N 
HETATM   31  N1  UNL     1      17.191   5.666  44.614  1.00  0.00    -0.326 N 
ATOM     32  H12 UNL     1      16.321   6.192  44.695  1.00  0.00     0.178 HD
ATOM     33  H11 UNL     1      17.997   5.962  45.165  1.00  0.00     0.178 HD
ATOM     34  H2  UNL     1      18.046   4.136  43.728  1.00  0.00     0.215 HD
ENDBRANCH  29  30
ENDBRANCH   1  29
BRANCH   1  35
HETATM   35  O2  UNL     1      14.374   4.563  44.586  1.00  0.00    -0.360 OA
ATOM     36  H2  UNL     1      14.090   4.064  45.342  1.00  0.00     0.213 HD
ENDBRANCH   1  35
BRANCH   5  37
HETATM   37  C9  UNL     1      15.530   1.554  44.853  1.00  0.00     0.079 C 
BRANCH  37  38
HETATM   38  C10 UNL     1      15.511   0.097  44.682  1.00  0.00     0.173 C 
BRANCH  38  39
HETATM   39  O5  UNL     1      14.357  -0.575  44.487  1.00  0.00    -0.400 OA
ATOM     40  H5  UNL     1      13.699  -0.265  43.875  1.00  0.00     0.209 HD
ENDBRANCH  38  39
ENDBRANCH  37  38
BRANCH  37  41
HETATM   41  C11 UNL     1      15.327   2.072  46.240  1.00  0.00     0.246 C 
BRANCH  41  42
HETATM   42  N11 UNL     1      14.874   1.178  47.233  1.00  0.00    -0.070 N 
ATOM     43 3H11 UNL     1      14.659   0.281  46.798  1.00  0.00     0.274 HD
ATOM     44 2H11 UNL     1      15.659   0.923  47.833  1.00  0.00     0.274 HD
ATOM     45 1H11 UNL     1      14.088   1.459  47.819  1.00  0.00     0.274 HD
ENDBRANCH  41  42
BRANCH  41  46
HETATM   46  C12 UNL     1      16.486   2.860  46.801  1.00  0.00     0.284 C 
BRANCH  46  47
HETATM   47  O6  UNL     1      16.231   4.224  46.913  1.00  0.00    -0.369 OA
ATOM     48  H6  UNL     1      16.177   4.528  47.811  1.00  0.00     0.212 HD
ENDBRANCH  46  47
BRANCH  46  49
HETATM   49  O7  UNL     1      17.637   2.705  46.037  1.00  0.00    -0.369 OA
ATOM     50  H7  UNL     1      18.097   1.901  46.248  1.00  0.00     0.212 HD
ENDBRANCH  46  49
ENDBRANCH  41  46
ENDBRANCH  37  41
ENDBRANCH   5  37
TORSDOF 16
ENDMDL
