MODEL 1
REMARK VINA RESULT: -5.365591450      0.000      0.000
REMARK  14 active torsions:
REMARK  status: ('A' for Active; 'I' for Inactive)
REMARK    1  A    between atoms: N1_1  and  C1_4 
REMARK    2  A    between atoms: C1_4  and  O1_5 
REMARK    3  A    between atoms: C1_4  and  C13_37 
REMARK    4  A    between atoms: O1_5  and  C2_6 
REMARK    5  A    between atoms: C2_6  and  C3_7 
REMARK    6  A    between atoms: C3_7  and  O2_8 
REMARK    7  A    between atoms: C4_10  and  C5_11 
REMARK    8  A    between atoms: C5_11  and  O3_12 
REMARK    9  A    between atoms: C6_15  and  N2_16 
REMARK   10  A    between atoms: C9_21  and  N4_22 
REMARK   11  A    between atoms: C10_27  and  N6_28 
REMARK   12  A    between atoms: C12_34  and  O5_35 
REMARK   13  A    between atoms: C14_40  and  N9_41 
REMARK   14  A    between atoms: N10_44  and  N11_45 
ROOT
HETATM    1  C3  UNL     1      11.822   1.631  41.127  1.00  0.00     0.137 C 
HETATM    2  C4  UNL     1      12.132   0.281  40.655  1.00  0.00     0.187 C 
HETATM    3  O4  UNL     1      12.118   0.380  39.242  1.00  0.00    -0.353 OA
HETATM    4  C6  UNL     1      12.589   1.644  38.914  1.00  0.00     0.263 C 
HETATM    5  C12 UNL     1      12.791   2.430  40.152  1.00  0.00     0.206 C 
ENDROOT
BRANCH   1   6
HETATM    6  C2  UNL     1      12.103   2.056  42.504  1.00  0.00     0.220 C 
BRANCH   6   7
HETATM    7  O1  UNL     1      12.236   3.356  42.877  1.00  0.00    -0.330 OA
BRANCH   7   8
HETATM    8  C1  UNL     1      12.948   4.024  43.791  1.00  0.00     0.183 C 
BRANCH   8   9
HETATM    9  N1  UNL     1      12.282   4.704  44.656  1.00  0.00    -0.377 N 
ATOM     10  H12 UNL     1      11.325   4.411  44.859  1.00  0.00     0.158 HD
ATOM     11  H11 UNL     1      12.761   5.496  45.083  1.00  0.00     0.158 HD
ENDBRANCH   8   9
BRANCH   8  12
HETATM   12  C13 UNL     1      14.429   4.044  43.885  1.00  0.00     0.188 A 
HETATM   13  N8  UNL     1      15.099   4.581  44.914  1.00  0.00    -0.168 N 
HETATM   14  C14 UNL     1      16.416   4.447  44.696  1.00  0.00     0.713 A 
ATOM     15  H8  UNL     1      14.676   5.021  45.731  1.00  0.00     0.186 HD
HETATM   16  N10 UNL     1      16.587   3.820  43.521  1.00  0.00    -0.025 N 
HETATM   17  N12 UNL     1      15.362   3.589  43.054  1.00  0.00    -0.245 N 
ATOM     18  H12 UNL     1      15.163   3.122  42.170  1.00  0.00     0.191 HD
BRANCH  14  19
HETATM   19  N9  UNL     1      17.350   4.850  45.478  1.00  0.00    -0.231 N 
ATOM     20  H92 UNL     1      17.580   4.454  46.390  1.00  0.00     0.174 HD
ATOM     21  H91 UNL     1      17.990   5.623  45.295  1.00  0.00     0.174 HD
ENDBRANCH  14  19
BRANCH  16  22
HETATM   22  N11 UNL     1      17.798   3.479  42.914  1.00  0.00    -0.309 N 
ATOM     23 2H11 UNL     1      18.188   3.870  42.056  1.00  0.00     0.179 HD
ATOM     24 1H11 UNL     1      18.476   2.787  43.234  1.00  0.00     0.179 HD
ENDBRANCH  16  22
ENDBRANCH   8  12
ENDBRANCH   7   8
ENDBRANCH   6   7
ENDBRANCH   1   6
BRANCH   1  25
HETATM   25  O2  UNL     1      10.575   2.098  40.680  1.00  0.00    -0.382 OA
ATOM     26  H2  UNL     1       9.979   1.385  40.488  1.00  0.00     0.210 HD
ENDBRANCH   1  25
BRANCH   2  27
HETATM   27  C5  UNL     1      13.413  -0.350  41.060  1.00  0.00     0.199 C 
BRANCH  27  28
HETATM   28  O3  UNL     1      13.646  -1.625  40.576  1.00  0.00    -0.398 OA
ATOM     29  H3  UNL     1      14.408  -2.073  40.925  1.00  0.00     0.209 HD
ENDBRANCH  27  28
ENDBRANCH   2  27
BRANCH   5  30
HETATM   30  O5  UNL     1      14.017   2.407  40.735  1.00  0.00    -0.388 OA
ATOM     31  H5  UNL     1      14.641   2.602  40.047  1.00  0.00     0.210 HD
ENDBRANCH   5  30
BRANCH   4  32
HETATM   32  N2  UNL     1      13.694   1.604  37.997  1.00  0.00    -0.297 N 
HETATM   33  C7  UNL     1      14.147   2.640  37.287  1.00  0.00     0.188 A 
HETATM   34  N3  UNL     1      15.186   2.286  36.529  1.00  0.00    -0.346 N 
HETATM   35  C8  UNL     1      15.411   0.977  36.760  1.00  0.00     0.123 A 
ATOM     36  H3  UNL     1      15.711   2.891  35.896  1.00  0.00     0.167 HD
HETATM   37  C9  UNL     1      16.366   0.145  36.227  1.00  0.00     0.145 A 
HETATM   38  C11 UNL     1      14.464   0.559  37.686  1.00  0.00     0.157 A 
HETATM   39  N5  UNL     1      16.372  -1.140  36.634  1.00  0.00    -0.175 N 
HETATM   40  C10 UNL     1      15.460  -1.557  37.529  1.00  0.00     0.679 A 
ATOM     41  H5  UNL     1      17.064  -1.792  36.265  1.00  0.00     0.186 HD
HETATM   42  N7  UNL     1      14.514  -0.740  38.060  1.00  0.00    -0.174 N 
ATOM     43  H7  UNL     1      13.844  -1.104  38.737  1.00  0.00     0.186 HD
BRANCH  37  44
HETATM   44  N4  UNL     1      17.242   0.529  35.370  1.00  0.00    -0.383 N 
ATOM     45  H42 UNL     1      17.626   1.471  35.445  1.00  0.00     0.157 HD
ATOM     46  H41 UNL     1      17.582  -0.059  34.609  1.00  0.00     0.157 HD
ENDBRANCH  37  44
BRANCH  40  47
HETATM   47  N6  UNL     1      15.469  -2.793  37.918  1.00  0.00    -0.234 N 
ATOM     48  H62 UNL     1      15.341  -3.511  37.206  1.00  0.00     0.174 HD
ATOM     49  H61 UNL     1      15.598  -3.007  38.907  1.00  0.00     0.174 HD
ENDBRANCH  40  47
ENDBRANCH   4  32
TORSDOF 14
ENDMDL
MODEL 2
REMARK VINA RESULT: -5.318818718      2.347      7.475
REMARK  14 active torsions:
REMARK  status: ('A' for Active; 'I' for Inactive)
REMARK    1  A    between atoms: N1_1  and  C1_4 
REMARK    2  A    between atoms: C1_4  and  O1_5 
REMARK    3  A    between atoms: C1_4  and  C13_37 
REMARK    4  A    between atoms: O1_5  and  C2_6 
REMARK    5  A    between atoms: C2_6  and  C3_7 
REMARK    6  A    between atoms: C3_7  and  O2_8 
REMARK    7  A    between atoms: C4_10  and  C5_11 
REMARK    8  A    between atoms: C5_11  and  O3_12 
REMARK    9  A    between atoms: C6_15  and  N2_16 
REMARK   10  A    between atoms: C9_21  and  N4_22 
REMARK   11  A    between atoms: C10_27  and  N6_28 
REMARK   12  A    between atoms: C12_34  and  O5_35 
REMARK   13  A    between atoms: C14_40  and  N9_41 
REMARK   14  A    between atoms: N10_44  and  N11_45 
ROOT
HETATM    1  C3  UNL     1      14.546   0.681  38.790  1.00  0.00     0.137 C 
HETATM    2  C4  UNL     1      13.629   1.589  39.479  1.00  0.00     0.187 C 
HETATM    3  O4  UNL     1      13.845   1.343  40.857  1.00  0.00    -0.353 OA
HETATM    4  C6  UNL     1      15.190   1.034  41.014  1.00  0.00     0.263 C 
HETATM    5  C12 UNL     1      15.833   0.952  39.682  1.00  0.00     0.206 C 
ENDROOT
BRANCH   1   6
HETATM    6  C2  UNL     1      14.915   0.872  37.381  1.00  0.00     0.220 C 
BRANCH   6   7
HETATM    7  O1  UNL     1      15.916   0.187  36.767  1.00  0.00    -0.330 OA
BRANCH   7   8
HETATM    8  C1  UNL     1      16.882   0.481  35.889  1.00  0.00     0.183 C 
BRANCH   8   9
HETATM    9  N1  UNL     1      17.105  -0.387  34.967  1.00  0.00    -0.377 N 
ATOM     10  H12 UNL     1      16.502  -0.376  34.144  1.00  0.00     0.158 HD
ATOM     11  H11 UNL     1      17.879  -1.032  35.126  1.00  0.00     0.158 HD
ENDBRANCH   8   9
BRANCH   8  12
HETATM   12  C13 UNL     1      17.706   1.715  35.896  1.00  0.00     0.188 A 
HETATM   13  N8  UNL     1      18.239   2.256  34.792  1.00  0.00    -0.168 N 
HETATM   14  C14 UNL     1      18.932   3.353  35.132  1.00  0.00     0.713 A 
ATOM     15  H8  UNL     1      18.135   1.892  33.845  1.00  0.00     0.186 HD
HETATM   16  N10 UNL     1      18.840   3.513  36.462  1.00  0.00    -0.025 N 
HETATM   17  N12 UNL     1      18.089   2.503  36.896  1.00  0.00    -0.245 N 
ATOM     18  H12 UNL     1      17.840   2.352  37.873  1.00  0.00     0.191 HD
BRANCH  14  19
HETATM   19  N9  UNL     1      19.571   4.117  34.323  1.00  0.00    -0.231 N 
ATOM     20  H92 UNL     1      19.189   4.556  33.486  1.00  0.00     0.174 HD
ATOM     21  H91 UNL     1      20.550   4.388  34.408  1.00  0.00     0.174 HD
ENDBRANCH  14  19
BRANCH  16  22
HETATM   22  N11 UNL     1      19.411   4.530  37.232  1.00  0.00    -0.309 N 
ATOM     23 2H11 UNL     1      20.361   4.893  37.163  1.00  0.00     0.179 HD
ATOM     24 1H11 UNL     1      18.966   5.060  37.980  1.00  0.00     0.179 HD
ENDBRANCH  16  22
ENDBRANCH   8  12
ENDBRANCH   7   8
ENDBRANCH   6   7
ENDBRANCH   1   6
BRANCH   1  25
HETATM   25  O2  UNL     1      14.312  -0.671  39.089  1.00  0.00    -0.382 OA
ATOM     26  H2  UNL     1      15.122  -1.162  39.159  1.00  0.00     0.210 HD
ENDBRANCH   1  25
BRANCH   2  27
HETATM   27  C5  UNL     1      13.748   3.050  39.247  1.00  0.00     0.199 C 
BRANCH  27  28
HETATM   28  O3  UNL     1      13.325   3.870  40.280  1.00  0.00    -0.398 OA
ATOM     29  H3  UNL     1      13.878   4.617  40.476  1.00  0.00     0.209 HD
ENDBRANCH  27  28
ENDBRANCH   2  27
BRANCH   5  30
HETATM   30  O5  UNL     1      16.414   2.071  39.179  1.00  0.00    -0.388 OA
ATOM     31  H5  UNL     1      17.286   1.816  38.902  1.00  0.00     0.210 HD
ENDBRANCH   5  30
BRANCH   4  32
HETATM   32  N2  UNL     1      15.842   1.867  41.986  1.00  0.00    -0.297 N 
HETATM   33  C7  UNL     1      17.157   1.903  42.216  1.00  0.00     0.188 A 
HETATM   34  N3  UNL     1      17.454   2.779  43.176  1.00  0.00    -0.346 N 
HETATM   35  C8  UNL     1      16.289   3.327  43.579  1.00  0.00     0.123 A 
ATOM     36  H3  UNL     1      18.383   2.993  43.538  1.00  0.00     0.167 HD
HETATM   37  C9  UNL     1      16.057   4.280  44.542  1.00  0.00     0.145 A 
HETATM   38  C11 UNL     1      15.282   2.744  42.822  1.00  0.00     0.157 A 
HETATM   39  N5  UNL     1      14.779   4.658  44.749  1.00  0.00    -0.175 N 
HETATM   40  C10 UNL     1      13.795   4.101  44.023  1.00  0.00     0.679 A 
ATOM     41  H5  UNL     1      14.561   5.363  45.453  1.00  0.00     0.186 HD
HETATM   42  N7  UNL     1      14.018   3.159  43.070  1.00  0.00    -0.174 N 
ATOM     43  H7  UNL     1      13.238   2.767  42.545  1.00  0.00     0.186 HD
BRANCH  37  44
HETATM   44  N4  UNL     1      16.986   4.820  45.244  1.00  0.00    -0.383 N 
ATOM     45  H42 UNL     1      17.779   5.249  44.767  1.00  0.00     0.157 HD
ATOM     46  H41 UNL     1      16.980   4.845  46.263  1.00  0.00     0.157 HD
ENDBRANCH  37  44
BRANCH  40  47
HETATM   47  N6  UNL     1      12.569   4.467  44.225  1.00  0.00    -0.234 N 
ATOM     48  H62 UNL     1      12.352   4.913  45.116  1.00  0.00     0.174 HD
ATOM     49  H61 UNL     1      11.870   4.300  43.501  1.00  0.00     0.174 HD
ENDBRANCH  40  47
ENDBRANCH   4  32
TORSDOF 14
ENDMDL
MODEL 3
REMARK VINA RESULT: -5.260769907      1.972      6.985
REMARK  14 active torsions:
REMARK  status: ('A' for Active; 'I' for Inactive)
REMARK    1  A    between atoms: N1_1  and  C1_4 
REMARK    2  A    between atoms: C1_4  and  O1_5 
REMARK    3  A    between atoms: C1_4  and  C13_37 
REMARK    4  A    between atoms: O1_5  and  C2_6 
REMARK    5  A    between atoms: C2_6  and  C3_7 
REMARK    6  A    between atoms: C3_7  and  O2_8 
REMARK    7  A    between atoms: C4_10  and  C5_11 
REMARK    8  A    between atoms: C5_11  and  O3_12 
REMARK    9  A    between atoms: C6_15  and  N2_16 
REMARK   10  A    between atoms: C9_21  and  N4_22 
REMARK   11  A    between atoms: C10_27  and  N6_28 
REMARK   12  A    between atoms: C12_34  and  O5_35 
REMARK   13  A    between atoms: C14_40  and  N9_41 
REMARK   14  A    between atoms: N10_44  and  N11_45 
ROOT
HETATM    1  C3  UNL     1      12.831   0.866  39.719  1.00  0.00     0.137 C 
HETATM    2  C4  UNL     1      12.135   1.336  40.917  1.00  0.00     0.187 C 
HETATM    3  O4  UNL     1      12.920   0.870  41.999  1.00  0.00    -0.353 OA
HETATM    4  C6  UNL     1      14.246   0.897  41.586  1.00  0.00     0.263 C 
HETATM    5  C12 UNL     1      14.307   1.268  40.153  1.00  0.00     0.206 C 
ENDROOT
BRANCH   1   6
HETATM    6  C2  UNL     1      12.571   1.440  38.393  1.00  0.00     0.220 C 
BRANCH   6   7
HETATM    7  O1  UNL     1      13.428   1.331  37.345  1.00  0.00    -0.330 OA
BRANCH   7   8
HETATM    8  C1  UNL     1      14.187   2.173  36.634  1.00  0.00     0.183 C 
BRANCH   8   9
HETATM    9  N1  UNL     1      13.567   3.052  35.929  1.00  0.00    -0.377 N 
ATOM     10  H12 UNL     1      13.022   3.760  36.421  1.00  0.00     0.158 HD
ATOM     11  H11 UNL     1      13.665   2.978  34.917  1.00  0.00     0.158 HD
ENDBRANCH   8   9
BRANCH   8  12
HETATM   12  C13 UNL     1      15.671   2.172  36.594  1.00  0.00     0.188 A 
HETATM   13  N8  UNL     1      16.381   1.998  35.471  1.00  0.00    -0.168 N 
HETATM   14  C14 UNL     1      17.689   2.040  35.770  1.00  0.00     0.713 A 
ATOM     15  H8  UNL     1      15.991   1.856  34.540  1.00  0.00     0.186 HD
HETATM   16  N10 UNL     1      17.812   2.243  37.091  1.00  0.00    -0.025 N 
HETATM   17  N12 UNL     1      16.569   2.319  37.562  1.00  0.00    -0.245 N 
ATOM     18  H12 UNL     1      16.336   2.470  38.543  1.00  0.00     0.191 HD
BRANCH  14  19
HETATM   19  N9  UNL     1      18.653   1.910  34.933  1.00  0.00    -0.231 N 
ATOM     20  H92 UNL     1      19.380   2.601  34.745  1.00  0.00     0.174 HD
ATOM     21  H91 UNL     1      18.823   1.097  34.342  1.00  0.00     0.174 HD
ENDBRANCH  14  19
BRANCH  16  22
HETATM   22  N11 UNL     1      18.998   2.354  37.821  1.00  0.00    -0.309 N 
ATOM     23 2H11 UNL     1      19.385   1.672  38.473  1.00  0.00     0.179 HD
ATOM     24 1H11 UNL     1      19.656   3.133  37.815  1.00  0.00     0.179 HD
ENDBRANCH  16  22
ENDBRANCH   8  12
ENDBRANCH   7   8
ENDBRANCH   6   7
ENDBRANCH   1   6
BRANCH   1  25
HETATM   25  O2  UNL     1      12.957  -0.531  39.667  1.00  0.00    -0.382 OA
ATOM     26  H2  UNL     1      13.818  -0.819  39.945  1.00  0.00     0.210 HD
ENDBRANCH   1  25
BRANCH   2  27
HETATM   27  C5  UNL     1      11.915   2.792  41.100  1.00  0.00     0.199 C 
BRANCH  27  28
HETATM   28  O3  UNL     1      11.133   3.161  42.182  1.00  0.00    -0.398 OA
ATOM     29  H3  UNL     1      10.199   3.223  42.022  1.00  0.00     0.209 HD
ENDBRANCH  27  28
ENDBRANCH   2  27
BRANCH   5  30
HETATM   30  O5  UNL     1      14.450   2.580  39.836  1.00  0.00    -0.388 OA
ATOM     31  H5  UNL     1      15.053   2.943  40.474  1.00  0.00     0.210 HD
ENDBRANCH   5  30
BRANCH   4  32
HETATM   32  N2  UNL     1      15.090   1.645  42.475  1.00  0.00    -0.297 N 
HETATM   33  C7  UNL     1      16.390   1.421  42.679  1.00  0.00     0.188 A 
HETATM   34  N3  UNL     1      16.895   2.285  43.559  1.00  0.00    -0.346 N 
HETATM   35  C8  UNL     1      15.885   3.096  43.936  1.00  0.00     0.123 A 
ATOM     36  H3  UNL     1      17.861   2.326  43.886  1.00  0.00     0.167 HD
HETATM   37  C9  UNL     1      15.889   4.147  44.820  1.00  0.00     0.145 A 
HETATM   38  C11 UNL     1      14.753   2.682  43.246  1.00  0.00     0.157 A 
HETATM   39  N5  UNL     1      14.727   4.801  45.017  1.00  0.00    -0.175 N 
HETATM   40  C10 UNL     1      13.624   4.410  44.357  1.00  0.00     0.679 A 
ATOM     41  H5  UNL     1      14.685   5.588  45.665  1.00  0.00     0.186 HD
HETATM   42  N7  UNL     1      13.614   3.372  43.481  1.00  0.00    -0.174 N 
ATOM     43  H7  UNL     1      12.751   3.114  43.002  1.00  0.00     0.186 HD
BRANCH  37  44
HETATM   44  N4  UNL     1      16.934   4.532  45.460  1.00  0.00    -0.383 N 
ATOM     45  H42 UNL     1      17.498   3.836  45.949  1.00  0.00     0.157 HD
ATOM     46  H41 UNL     1      17.238   5.504  45.510  1.00  0.00     0.157 HD
ENDBRANCH  37  44
BRANCH  40  47
HETATM   47  N6  UNL     1      12.509   5.040  44.549  1.00  0.00    -0.234 N 
ATOM     48  H62 UNL     1      12.500   5.776  45.255  1.00  0.00     0.174 HD
ATOM     49  H61 UNL     1      11.688   4.786  44.000  1.00  0.00     0.174 HD
ENDBRANCH  40  47
ENDBRANCH   4  32
TORSDOF 14
ENDMDL
MODEL 4
REMARK VINA RESULT: -5.199870918      2.100      7.660
REMARK  14 active torsions:
REMARK  status: ('A' for Active; 'I' for Inactive)
REMARK    1  A    between atoms: N1_1  and  C1_4 
REMARK    2  A    between atoms: C1_4  and  O1_5 
REMARK    3  A    between atoms: C1_4  and  C13_37 
REMARK    4  A    between atoms: O1_5  and  C2_6 
REMARK    5  A    between atoms: C2_6  and  C3_7 
REMARK    6  A    between atoms: C3_7  and  O2_8 
REMARK    7  A    between atoms: C4_10  and  C5_11 
REMARK    8  A    between atoms: C5_11  and  O3_12 
REMARK    9  A    between atoms: C6_15  and  N2_16 
REMARK   10  A    between atoms: C9_21  and  N4_22 
REMARK   11  A    between atoms: C10_27  and  N6_28 
REMARK   12  A    between atoms: C12_34  and  O5_35 
REMARK   13  A    between atoms: C14_40  and  N9_41 
REMARK   14  A    between atoms: N10_44  and  N11_45 
ROOT
HETATM    1  C3  UNL     1      14.527   1.000  37.765  1.00  0.00     0.137 C 
HETATM    2  C4  UNL     1      13.129   0.666  38.038  1.00  0.00     0.187 C 
HETATM    3  O4  UNL     1      13.075   0.450  39.436  1.00  0.00    -0.353 OA
HETATM    4  C6  UNL     1      13.986   1.319  40.022  1.00  0.00     0.263 C 
HETATM    5  C12 UNL     1      14.742   2.024  38.962  1.00  0.00     0.206 C 
ENDROOT
BRANCH   1   6
HETATM    6  C2  UNL     1      14.939   1.658  36.518  1.00  0.00     0.220 C 
BRANCH   6   7
HETATM    7  O1  UNL     1      16.144   2.264  36.351  1.00  0.00    -0.330 OA
BRANCH   7   8
HETATM    8  C1  UNL     1      17.325   1.922  35.821  1.00  0.00     0.183 C 
BRANCH   8   9
HETATM    9  N1  UNL     1      18.110   2.887  35.495  1.00  0.00    -0.377 N 
ATOM     10  H12 UNL     1      17.690   3.740  35.125  1.00  0.00     0.158 HD
ATOM     11  H11 UNL     1      19.108   2.730  35.632  1.00  0.00     0.158 HD
ENDBRANCH   8   9
BRANCH   8  12
HETATM   12  C13 UNL     1      17.793   0.535  35.581  1.00  0.00     0.188 A 
HETATM   13  N8  UNL     1      17.966  -0.368  36.556  1.00  0.00    -0.168 N 
HETATM   14  C14 UNL     1      18.403  -1.516  36.017  1.00  0.00     0.713 A 
ATOM     15  H8  UNL     1      17.794  -0.207  37.548  1.00  0.00     0.186 HD
HETATM   16  N10 UNL     1      18.508  -1.345  34.689  1.00  0.00    -0.025 N 
HETATM   17  N12 UNL     1      18.130  -0.089  34.457  1.00  0.00    -0.245 N 
ATOM     18  H12 UNL     1      18.104   0.340  33.532  1.00  0.00     0.191 HD
BRANCH  14  19
HETATM   19  N9  UNL     1      18.672  -2.592  36.661  1.00  0.00    -0.231 N 
ATOM     20  H92 UNL     1      19.528  -2.780  37.183  1.00  0.00     0.174 HD
ATOM     21  H91 UNL     1      18.065  -3.408  36.739  1.00  0.00     0.174 HD
ENDBRANCH  14  19
BRANCH  16  22
HETATM   22  N11 UNL     1      18.925  -2.287  33.746  1.00  0.00    -0.309 N 
ATOM     23 2H11 UNL     1      18.374  -2.680  32.983  1.00  0.00     0.179 HD
ATOM     24 1H11 UNL     1      19.843  -2.727  33.678  1.00  0.00     0.179 HD
ENDBRANCH  16  22
ENDBRANCH   8  12
ENDBRANCH   7   8
ENDBRANCH   6   7
ENDBRANCH   1   6
BRANCH   1  25
HETATM   25  O2  UNL     1      15.421  -0.016  38.139  1.00  0.00    -0.382 OA
ATOM     26  H2  UNL     1      14.972  -0.834  38.313  1.00  0.00     0.210 HD
ENDBRANCH   1  25
BRANCH   2  27
HETATM   27  C5  UNL     1      12.069   1.641  37.680  1.00  0.00     0.199 C 
BRANCH  27  28
HETATM   28  O3  UNL     1      10.764   1.230  37.890  1.00  0.00    -0.398 OA
ATOM     29  H3  UNL     1      10.360   1.514  38.702  1.00  0.00     0.209 HD
ENDBRANCH  27  28
ENDBRANCH   2  27
BRANCH   5  30
HETATM   30  O5  UNL     1      14.273   3.221  38.526  1.00  0.00    -0.388 OA
ATOM     31  H5  UNL     1      13.387   3.297  38.860  1.00  0.00     0.210 HD
ENDBRANCH   5  30
BRANCH   4  32
HETATM   32  N2  UNL     1      13.393   2.143  41.038  1.00  0.00    -0.297 N 
HETATM   33  C7  UNL     1      12.094   2.433  41.137  1.00  0.00     0.188 A 
HETATM   34  N3  UNL     1      11.855   3.218  42.188  1.00  0.00    -0.346 N 
HETATM   35  C8  UNL     1      13.042   3.442  42.787  1.00  0.00     0.123 A 
ATOM     36  H3  UNL     1      10.948   3.580  42.483  1.00  0.00     0.167 HD
HETATM   37  C9  UNL     1      13.332   4.185  43.906  1.00  0.00     0.145 A 
HETATM   38  C11 UNL     1      14.003   2.760  42.053  1.00  0.00     0.157 A 
HETATM   39  N5  UNL     1      14.620   4.245  44.299  1.00  0.00    -0.175 N 
HETATM   40  C10 UNL     1      15.560   3.590  43.596  1.00  0.00     0.679 A 
ATOM     41  H5  UNL     1      14.880   4.784  45.125  1.00  0.00     0.186 HD
HETATM   42  N7  UNL     1      15.280   2.854  42.490  1.00  0.00    -0.174 N 
ATOM     43  H7  UNL     1      16.029   2.373  41.991  1.00  0.00     0.186 HD
BRANCH  37  44
HETATM   44  N4  UNL     1      12.445   4.817  44.587  1.00  0.00    -0.383 N 
ATOM     45  H42 UNL     1      12.113   4.412  45.462  1.00  0.00     0.157 HD
ATOM     46  H41 UNL     1      12.047   5.712  44.301  1.00  0.00     0.157 HD
ENDBRANCH  37  44
BRANCH  40  47
HETATM   47  N6  UNL     1      16.797   3.649  43.977  1.00  0.00    -0.234 N 
ATOM     48  H62 UNL     1      17.078   3.058  44.758  1.00  0.00     0.174 HD
ATOM     49  H61 UNL     1      17.441   4.276  43.493  1.00  0.00     0.174 HD
ENDBRANCH  40  47
ENDBRANCH   4  32
TORSDOF 14
ENDMDL
MODEL 5
REMARK VINA RESULT: -5.178229600      1.892      7.021
REMARK  14 active torsions:
REMARK  status: ('A' for Active; 'I' for Inactive)
REMARK    1  A    between atoms: N1_1  and  C1_4 
REMARK    2  A    between atoms: C1_4  and  O1_5 
REMARK    3  A    between atoms: C1_4  and  C13_37 
REMARK    4  A    between atoms: O1_5  and  C2_6 
REMARK    5  A    between atoms: C2_6  and  C3_7 
REMARK    6  A    between atoms: C3_7  and  O2_8 
REMARK    7  A    between atoms: C4_10  and  C5_11 
REMARK    8  A    between atoms: C5_11  and  O3_12 
REMARK    9  A    between atoms: C6_15  and  N2_16 
REMARK   10  A    between atoms: C9_21  and  N4_22 
REMARK   11  A    between atoms: C10_27  and  N6_28 
REMARK   12  A    between atoms: C12_34  and  O5_35 
REMARK   13  A    between atoms: C14_40  and  N9_41 
REMARK   14  A    between atoms: N10_44  and  N11_45 
ROOT
HETATM    1  C3  UNL     1      13.575   1.373  40.907  1.00  0.00     0.137 C 
HETATM    2  C4  UNL     1      13.101   1.290  42.289  1.00  0.00     0.187 C 
HETATM    3  O4  UNL     1      14.277   1.312  43.076  1.00  0.00    -0.353 OA
HETATM    4  C6  UNL     1      15.195   2.125  42.423  1.00  0.00     0.263 C 
HETATM    5  C12 UNL     1      14.641   2.535  41.112  1.00  0.00     0.206 C 
ENDROOT
BRANCH   1   6
HETATM    6  C2  UNL     1      12.686   1.756  39.802  1.00  0.00     0.220 C 
BRANCH   6   7
HETATM    7  O1  UNL     1      13.090   2.488  38.731  1.00  0.00    -0.330 OA
BRANCH   7   8
HETATM    8  C1  UNL     1      13.564   2.220  37.509  1.00  0.00     0.183 C 
BRANCH   8   9
HETATM    9  N1  UNL     1      12.722   2.284  36.539  1.00  0.00    -0.377 N 
ATOM     10  H12 UNL     1      13.044   2.016  35.609  1.00  0.00     0.158 HD
ATOM     11  H11 UNL     1      11.781   2.602  36.771  1.00  0.00     0.158 HD
ENDBRANCH   8   9
BRANCH   8  12
HETATM   12  C13 UNL     1      14.967   1.857  37.188  1.00  0.00     0.188 A 
HETATM   13  N8  UNL     1      15.608   2.279  36.090  1.00  0.00    -0.168 N 
HETATM   14  C14 UNL     1      16.850   1.772  36.088  1.00  0.00     0.713 A 
ATOM     15  H8  UNL     1      15.215   2.887  35.372  1.00  0.00     0.186 HD
HETATM   16  N10 UNL     1      17.002   1.023  37.192  1.00  0.00    -0.025 N 
HETATM   17  N12 UNL     1      15.841   1.095  37.838  1.00  0.00    -0.245 N 
ATOM     18  H12 UNL     1      15.646   0.625  38.722  1.00  0.00     0.191 HD
BRANCH  14  19
HETATM   19  N9  UNL     1      17.740   1.972  35.184  1.00  0.00    -0.231 N 
ATOM     20  H92 UNL     1      17.586   1.948  34.176  1.00  0.00     0.174 HD
ATOM     21  H91 UNL     1      18.724   2.181  35.353  1.00  0.00     0.174 HD
ENDBRANCH  14  19
BRANCH  16  22
HETATM   22  N11 UNL     1      18.142   0.316  37.582  1.00  0.00    -0.309 N 
ATOM     23 2H11 UNL     1      18.756   0.525  38.370  1.00  0.00     0.179 HD
ATOM     24 1H11 UNL     1      18.534  -0.515  37.140  1.00  0.00     0.179 HD
ENDBRANCH  16  22
ENDBRANCH   8  12
ENDBRANCH   7   8
ENDBRANCH   6   7
ENDBRANCH   1   6
BRANCH   1  25
HETATM   25  O2  UNL     1      14.424   0.313  40.550  1.00  0.00    -0.382 OA
ATOM     26  H2  UNL     1      14.290   0.042  39.650  1.00  0.00     0.210 HD
ENDBRANCH   1  25
BRANCH   2  27
HETATM   27  C5  UNL     1      12.183   2.337  42.802  1.00  0.00     0.199 C 
BRANCH  27  28
HETATM   28  O3  UNL     1      11.852   2.256  44.144  1.00  0.00    -0.398 OA
ATOM     29  H3  UNL     1      11.500   1.424  44.440  1.00  0.00     0.209 HD
ENDBRANCH  27  28
ENDBRANCH   2  27
BRANCH   5  30
HETATM   30  O5  UNL     1      13.948   3.700  41.044  1.00  0.00    -0.388 OA
ATOM     31  H5  UNL     1      13.523   3.806  41.886  1.00  0.00     0.210 HD
ENDBRANCH   5  30
BRANCH   4  32
HETATM   32  N2  UNL     1      15.699   3.178  43.259  1.00  0.00    -0.297 N 
HETATM   33  C7  UNL     1      15.152   3.581  44.409  1.00  0.00     0.188 A 
HETATM   34  N3  UNL     1      15.854   4.575  44.953  1.00  0.00    -0.346 N 
HETATM   35  C8  UNL     1      16.890   4.822  44.126  1.00  0.00     0.123 A 
ATOM     36  H3  UNL     1      15.646   5.058  45.828  1.00  0.00     0.167 HD
HETATM   37  C9  UNL     1      17.899   5.747  44.238  1.00  0.00     0.145 A 
HETATM   38  C11 UNL     1      16.781   3.935  43.063  1.00  0.00     0.157 A 
HETATM   39  N5  UNL     1      18.824   5.784  43.257  1.00  0.00    -0.175 N 
HETATM   40  C10 UNL     1      18.729   4.932  42.223  1.00  0.00     0.679 A 
ATOM     41  H5  UNL     1      19.590   6.455  43.301  1.00  0.00     0.186 HD
HETATM   42  N7  UNL     1      17.734   4.014  42.106  1.00  0.00    -0.174 N 
ATOM     43  H7  UNL     1      17.706   3.388  41.302  1.00  0.00     0.186 HD
BRANCH  37  44
HETATM   44  N4  UNL     1      18.002   6.569  45.220  1.00  0.00    -0.383 N 
ATOM     45  H42 UNL     1      17.238   7.219  45.401  1.00  0.00     0.157 HD
ATOM     46  H41 UNL     1      18.814   6.611  45.836  1.00  0.00     0.157 HD
ENDBRANCH  37  44
BRANCH  40  47
HETATM   47  N6  UNL     1      19.619   4.970  41.282  1.00  0.00    -0.234 N 
ATOM     48  H62 UNL     1      20.169   4.127  41.121  1.00  0.00     0.174 HD
ATOM     49  H61 UNL     1      19.742   5.827  40.743  1.00  0.00     0.174 HD
ENDBRANCH  40  47
ENDBRANCH   4  32
TORSDOF 14
ENDMDL
