MODEL 1
REMARK VINA RESULT: -6.213411528      0.000      0.000
REMARK  15 active torsions:
REMARK  status: ('A' for Active; 'I' for Inactive)
REMARK    1  A    between atoms: N1_1  and  C1_4 
REMARK    2  A    between atoms: N3_8  and  C3_9 
REMARK    3  A    between atoms: C3_9  and  C4_10 
REMARK    4  A    between atoms: C5_12  and  N4_13 
REMARK    5  A    between atoms: C6_16  and  O2_17 
REMARK    6  A    between atoms: C7_19  and  N6_20 
REMARK    7  A    between atoms: N6_20  and  O3_21 
REMARK    8  A    between atoms: N6_20  and  O4_23 
REMARK    9  A    between atoms: O4_23  and  N7_24 
REMARK   10  A    between atoms: N7_24  and  N8_25 
REMARK   11  A    between atoms: C8_28  and  O5_29 
REMARK   12  A    between atoms: C8_28  and  C9_31 
REMARK   13  A    between atoms: C9_31  and  O6_32 
REMARK   14  A    between atoms: C10_34  and  O7_35 
REMARK   15  A    between atoms: C11_39  and  N11_40 
ROOT
HETATM    1  C4  UNL     1      13.972   0.525  39.383  1.00  0.00     0.176 C 
HETATM    2  O1  UNL     1      13.698   0.137  40.720  1.00  0.00    -0.352 OA
HETATM    3  C5  UNL     1      13.902   1.394  41.321  1.00  0.00     0.285 C 
HETATM    4  C8  UNL     1      12.918   2.236  40.621  1.00  0.00     0.152 C 
HETATM    5  C10 UNL     1      12.958   1.642  39.201  1.00  0.00     0.190 C 
ENDROOT
BRANCH   1   6
HETATM    6  C3  UNL     1      13.807  -0.609  38.434  1.00  0.00     0.200 C 
BRANCH   6   7
HETATM    7  N3  UNL     1      14.924  -0.644  37.515  1.00  0.00    -0.101 N 
HETATM    8  C2  UNL     1      15.791   0.182  36.914  1.00  0.00     0.747 A 
HETATM    9  N2  UNL     1      16.263   1.413  36.688  1.00  0.00    -0.019 N 
HETATM   10  N10 UNL     1      16.397  -0.843  36.285  1.00  0.00     0.107 N 
HETATM   11  C1  UNL     1      17.302   1.638  35.867  1.00  0.00     0.705 A 
ATOM     12  H2  UNL     1      15.820   2.205  37.153  1.00  0.00     0.203 HD
HETATM   13  N12 UNL     1      17.883   0.589  35.256  1.00  0.00    -0.020 N 
HETATM   14  C11 UNL     1      17.437  -0.677  35.457  1.00  0.00     0.725 A 
ATOM     15  H12 UNL     1      18.673   0.748  34.630  1.00  0.00     0.203 HD
HETATM   16  N9  UNL     1      15.542  -1.655  36.878  1.00  0.00     0.033 NA
BRANCH  11  17
HETATM   17  N1  UNL     1      17.768   2.819  35.639  1.00  0.00    -0.234 N 
ATOM     18  H12 UNL     1      17.881   3.458  36.426  1.00  0.00     0.174 HD
ATOM     19  H11 UNL     1      18.025   3.139  34.706  1.00  0.00     0.174 HD
ENDBRANCH  11  17
BRANCH  14  20
HETATM   20  N11 UNL     1      17.966  -1.700  34.891  1.00  0.00    -0.232 N 
ATOM     21 2H11 UNL     1      18.347  -2.487  35.416  1.00  0.00     0.174 HD
ATOM     22 1H11 UNL     1      18.016  -1.743  33.873  1.00  0.00     0.174 HD
ENDBRANCH  14  20
ENDBRANCH   6   7
ENDBRANCH   1   6
BRANCH   5  23
HETATM   23  O7  UNL     1      11.738   1.089  38.865  1.00  0.00    -0.390 OA
ATOM     24  H7  UNL     1      11.363   1.584  38.146  1.00  0.00     0.210 HD
ENDBRANCH   5  23
BRANCH   3  25
HETATM   25  N4  UNL     1      13.879   1.374  42.744  1.00  0.00    -0.238 N 
HETATM   26  N5  UNL     1      13.660   0.529  43.706  1.00  0.00    -0.271 N 
HETATM   27  C6  UNL     1      13.870   1.446  44.651  1.00  0.00     0.201 A 
ATOM     28  H5  UNL     1      13.418  -0.461  43.729  1.00  0.00     0.189 HD
HETATM   29  C7  UNL     1      14.103   2.340  43.650  1.00  0.00     0.210 A 
BRANCH  27  30
HETATM   30  O2  UNL     1      13.874   1.536  46.031  1.00  0.00    -0.343 OA
ATOM     31  H2  UNL     1      13.411   2.001  46.717  1.00  0.00     0.219 HD
ENDBRANCH  27  30
BRANCH  29  32
HETATM   32  N6  UNL     1      14.448   3.747  43.594  1.00  0.00     0.012 NA
BRANCH  32  33
HETATM   33  O3  UNL     1      15.452   3.892  42.673  1.00  0.00    -0.281 OA
ATOM     34  H3  UNL     1      15.418   4.785  42.347  1.00  0.00     0.240 HD
ENDBRANCH  32  33
BRANCH  32  35
HETATM   35  O4  UNL     1      13.371   4.405  43.173  1.00  0.00    -0.136 OA
BRANCH  35  36
HETATM   36  N7  UNL     1      12.342   4.256  44.038  1.00  0.00     0.036 NA
BRANCH  36  37
HETATM   37  N8  UNL     1      12.341   5.404  44.858  1.00  0.00    -0.321 N 
ATOM     38  H82 UNL     1      12.958   5.575  45.652  1.00  0.00     0.174 HD
ATOM     39  H81 UNL     1      11.608   6.014  44.498  1.00  0.00     0.174 HD
ENDBRANCH  36  37
ENDBRANCH  35  36
ENDBRANCH  32  35
ENDBRANCH  29  32
ENDBRANCH   3  25
BRANCH   4  40
HETATM   40  O5  UNL     1      13.313   3.571  40.613  1.00  0.00    -0.380 OA
ATOM     41  H5  UNL     1      12.785   4.089  41.210  1.00  0.00     0.211 HD
ENDBRANCH   4  40
BRANCH   4  42
HETATM   42  C9  UNL     1      11.507   2.173  41.075  1.00  0.00     0.209 C 
BRANCH  42  43
HETATM   43  O6  UNL     1      11.041   3.391  41.588  1.00  0.00    -0.398 OA
ATOM     44  H6  UNL     1      10.938   3.382  42.532  1.00  0.00     0.209 HD
ENDBRANCH  42  43
ENDBRANCH   4  42
TORSDOF 15
ENDMDL
MODEL 2
REMARK VINA RESULT: -6.155328244      0.832      1.764
REMARK  15 active torsions:
REMARK  status: ('A' for Active; 'I' for Inactive)
REMARK    1  A    between atoms: N1_1  and  C1_4 
REMARK    2  A    between atoms: N3_8  and  C3_9 
REMARK    3  A    between atoms: C3_9  and  C4_10 
REMARK    4  A    between atoms: C5_12  and  N4_13 
REMARK    5  A    between atoms: C6_16  and  O2_17 
REMARK    6  A    between atoms: C7_19  and  N6_20 
REMARK    7  A    between atoms: N6_20  and  O3_21 
REMARK    8  A    between atoms: N6_20  and  O4_23 
REMARK    9  A    between atoms: O4_23  and  N7_24 
REMARK   10  A    between atoms: N7_24  and  N8_25 
REMARK   11  A    between atoms: C8_28  and  O5_29 
REMARK   12  A    between atoms: C8_28  and  C9_31 
REMARK   13  A    between atoms: C9_31  and  O6_32 
REMARK   14  A    between atoms: C10_34  and  O7_35 
REMARK   15  A    between atoms: C11_39  and  N11_40 
ROOT
HETATM    1  C4  UNL     1      14.547   1.203  39.074  1.00  0.00     0.176 C 
HETATM    2  O1  UNL     1      14.227   0.613  40.323  1.00  0.00    -0.352 OA
HETATM    3  C5  UNL     1      14.224   1.795  41.088  1.00  0.00     0.285 C 
HETATM    4  C8  UNL     1      13.194   2.600  40.411  1.00  0.00     0.152 C 
HETATM    5  C10 UNL     1      13.414   2.207  38.939  1.00  0.00     0.190 C 
ENDROOT
BRANCH   1   6
HETATM    6  C3  UNL     1      14.599   0.192  37.982  1.00  0.00     0.200 C 
BRANCH   6   7
HETATM    7  N3  UNL     1      15.679   0.509  37.073  1.00  0.00    -0.101 N 
HETATM    8  C2  UNL     1      16.556  -0.098  36.262  1.00  0.00     0.747 A 
HETATM    9  N2  UNL     1      17.069  -1.209  35.724  1.00  0.00    -0.019 N 
HETATM   10  N10 UNL     1      17.094   1.081  35.892  1.00  0.00     0.107 N 
HETATM   11  C1  UNL     1      18.086  -1.171  34.845  1.00  0.00     0.705 A 
ATOM     12  H2  UNL     1      16.678  -2.113  35.988  1.00  0.00     0.203 HD
HETATM   13  N12 UNL     1      18.599   0.024  34.500  1.00  0.00    -0.020 N 
HETATM   14  C11 UNL     1      18.107   1.177  35.021  1.00  0.00     0.725 A 
ATOM     15  H12 UNL     1      19.370   0.065  33.834  1.00  0.00     0.203 HD
HETATM   16  N9  UNL     1      16.229   1.676  36.693  1.00  0.00     0.033 NA
BRANCH  11  17
HETATM   17  N1  UNL     1      18.592  -2.234  34.319  1.00  0.00    -0.234 N 
ATOM     18  H12 UNL     1      19.583  -2.237  34.081  1.00  0.00     0.174 HD
ATOM     19  H11 UNL     1      18.041  -3.071  34.131  1.00  0.00     0.174 HD
ENDBRANCH  11  17
BRANCH  14  20
HETATM   20  N11 UNL     1      18.572   2.334  34.715  1.00  0.00    -0.232 N 
ATOM     21 2H11 UNL     1      18.383   2.786  33.820  1.00  0.00     0.174 HD
ATOM     22 1H11 UNL     1      19.157   2.835  35.383  1.00  0.00     0.174 HD
ENDBRANCH  14  20
ENDBRANCH   6   7
ENDBRANCH   1   6
BRANCH   5  23
HETATM   23  O7  UNL     1      12.304   1.563  38.430  1.00  0.00    -0.390 OA
ATOM     24  H7  UNL     1      12.126   1.897  37.559  1.00  0.00     0.210 HD
ENDBRANCH   5  23
BRANCH   3  25
HETATM   25  N4  UNL     1      14.098   1.585  42.490  1.00  0.00    -0.238 N 
HETATM   26  N5  UNL     1      13.862   0.609  43.315  1.00  0.00    -0.271 N 
HETATM   27  C6  UNL     1      13.947   1.403  44.385  1.00  0.00     0.201 A 
ATOM     28  H5  UNL     1      13.681  -0.386  43.192  1.00  0.00     0.189 HD
HETATM   29  C7  UNL     1      14.196   2.432  43.528  1.00  0.00     0.210 A 
BRANCH  27  30
HETATM   30  O2  UNL     1      13.845   1.308  45.760  1.00  0.00    -0.343 OA
ATOM     31  H2  UNL     1      13.204   1.474  46.441  1.00  0.00     0.219 HD
ENDBRANCH  27  30
BRANCH  29  32
HETATM   32  N6  UNL     1      14.456   3.850  43.681  1.00  0.00     0.012 NA
BRANCH  32  33
HETATM   33  O3  UNL     1      15.530   4.163  42.889  1.00  0.00    -0.281 OA
ATOM     34  H3  UNL     1      15.346   4.996  42.470  1.00  0.00     0.240 HD
ENDBRANCH  32  33
BRANCH  32  35
HETATM   35  O4  UNL     1      13.384   4.502  43.240  1.00  0.00    -0.136 OA
BRANCH  35  36
HETATM   36  N7  UNL     1      12.331   4.319  44.069  1.00  0.00     0.036 NA
BRANCH  36  37
HETATM   37  N8  UNL     1      12.312   5.428  44.941  1.00  0.00    -0.321 N 
ATOM     38  H82 UNL     1      13.047   5.685  45.600  1.00  0.00     0.174 HD
ATOM     39  H81 UNL     1      11.428   5.909  44.778  1.00  0.00     0.174 HD
ENDBRANCH  36  37
ENDBRANCH  35  36
ENDBRANCH  32  35
ENDBRANCH  29  32
ENDBRANCH   3  25
BRANCH   4  40
HETATM   40  O5  UNL     1      13.414   3.961  40.601  1.00  0.00    -0.380 OA
ATOM     41  H5  UNL     1      14.238   4.233  40.215  1.00  0.00     0.211 HD
ENDBRANCH   4  40
BRANCH   4  42
HETATM   42  C9  UNL     1      11.773   2.312  40.726  1.00  0.00     0.209 C 
BRANCH  42  43
HETATM   43  O6  UNL     1      11.210   3.237  41.615  1.00  0.00    -0.398 OA
ATOM     44  H6  UNL     1      11.820   3.914  41.883  1.00  0.00     0.209 HD
ENDBRANCH  42  43
ENDBRANCH   4  42
TORSDOF 15
ENDMDL
MODEL 3
REMARK VINA RESULT: -6.110810250      0.976      2.017
REMARK  15 active torsions:
REMARK  status: ('A' for Active; 'I' for Inactive)
REMARK    1  A    between atoms: N1_1  and  C1_4 
REMARK    2  A    between atoms: N3_8  and  C3_9 
REMARK    3  A    between atoms: C3_9  and  C4_10 
REMARK    4  A    between atoms: C5_12  and  N4_13 
REMARK    5  A    between atoms: C6_16  and  O2_17 
REMARK    6  A    between atoms: C7_19  and  N6_20 
REMARK    7  A    between atoms: N6_20  and  O3_21 
REMARK    8  A    between atoms: N6_20  and  O4_23 
REMARK    9  A    between atoms: O4_23  and  N7_24 
REMARK   10  A    between atoms: N7_24  and  N8_25 
REMARK   11  A    between atoms: C8_28  and  O5_29 
REMARK   12  A    between atoms: C8_28  and  C9_31 
REMARK   13  A    between atoms: C9_31  and  O6_32 
REMARK   14  A    between atoms: C10_34  and  O7_35 
REMARK   15  A    between atoms: C11_39  and  N11_40 
ROOT
HETATM    1  C4  UNL     1      13.928   0.950  39.497  1.00  0.00     0.176 C 
HETATM    2  O1  UNL     1      13.457   0.436  40.732  1.00  0.00    -0.352 OA
HETATM    3  C5  UNL     1      13.323   1.667  41.402  1.00  0.00     0.285 C 
HETATM    4  C8  UNL     1      12.375   2.390  40.538  1.00  0.00     0.152 C 
HETATM    5  C10 UNL     1      12.801   1.905  39.140  1.00  0.00     0.190 C 
ENDROOT
BRANCH   1   6
HETATM    6  C3  UNL     1      14.151  -0.131  38.497  1.00  0.00     0.200 C 
BRANCH   6   7
HETATM    7  N3  UNL     1      15.190   0.265  37.572  1.00  0.00    -0.101 N 
HETATM    8  C2  UNL     1      16.103  -0.276  36.754  1.00  0.00     0.747 A 
HETATM    9  N2  UNL     1      16.698  -1.347  36.217  1.00  0.00    -0.019 N 
HETATM   10  N10 UNL     1      16.540   0.938  36.369  1.00  0.00     0.107 N 
HETATM   11  C1  UNL     1      17.698  -1.235  35.326  1.00  0.00     0.705 A 
ATOM     12  H2  UNL     1      16.384  -2.277  36.493  1.00  0.00     0.203 HD
HETATM   13  N12 UNL     1      18.108  -0.005  34.965  1.00  0.00    -0.020 N 
HETATM   14  C11 UNL     1      17.531   1.109  35.485  1.00  0.00     0.725 A 
ATOM     15  H12 UNL     1      18.865   0.093  34.289  1.00  0.00     0.203 HD
HETATM   16  N9  UNL     1      15.640   1.468  37.176  1.00  0.00     0.033 NA
BRANCH  11  17
HETATM   17  N1  UNL     1      18.281  -2.258  34.801  1.00  0.00    -0.234 N 
ATOM     18  H12 UNL     1      17.709  -3.054  34.521  1.00  0.00     0.174 HD
ATOM     19  H11 UNL     1      19.289  -2.303  34.655  1.00  0.00     0.174 HD
ENDBRANCH  11  17
BRANCH  14  20
HETATM   20  N11 UNL     1      17.897   2.297  35.163  1.00  0.00    -0.232 N 
ATOM     21 2H11 UNL     1      17.370   3.128  35.429  1.00  0.00     0.174 HD
ATOM     22 1H11 UNL     1      18.749   2.431  34.619  1.00  0.00     0.174 HD
ENDBRANCH  14  20
ENDBRANCH   6   7
ENDBRANCH   1   6
BRANCH   5  23
HETATM   23  O7  UNL     1      11.785   1.192  38.536  1.00  0.00    -0.390 OA
ATOM     24  H7  UNL     1      10.998   1.272  39.062  1.00  0.00     0.210 HD
ENDBRANCH   5  23
BRANCH   3  25
HETATM   25  N4  UNL     1      13.014   1.549  42.787  1.00  0.00    -0.238 N 
HETATM   26  N5  UNL     1      13.032   0.644  43.719  1.00  0.00    -0.271 N 
HETATM   27  C6  UNL     1      12.571   1.489  44.643  1.00  0.00     0.201 A 
ATOM     28  H5  UNL     1      13.298  -0.340  43.737  1.00  0.00     0.189 HD
HETATM   29  C7  UNL     1      12.549   2.446  43.673  1.00  0.00     0.210 A 
BRANCH  27  30
HETATM   30  O2  UNL     1      12.242   1.483  45.986  1.00  0.00    -0.343 OA
ATOM     31  H2  UNL     1      11.848   2.062  46.627  1.00  0.00     0.219 HD
ENDBRANCH  27  30
BRANCH  29  32
HETATM   32  N6  UNL     1      12.177   3.846  43.625  1.00  0.00     0.012 NA
BRANCH  32  33
HETATM   33  O3  UNL     1      11.787   4.216  44.885  1.00  0.00    -0.281 OA
ATOM     34  H3  UNL     1      11.195   4.955  44.798  1.00  0.00     0.240 HD
ENDBRANCH  32  33
BRANCH  32  35
HETATM   35  O4  UNL     1      13.262   4.535  43.282  1.00  0.00    -0.136 OA
BRANCH  35  36
HETATM   36  N7  UNL     1      13.650   5.357  44.284  1.00  0.00     0.036 NA
BRANCH  36  37
HETATM   37  N8  UNL     1      14.767   4.746  44.891  1.00  0.00    -0.321 N 
ATOM     38  H82 UNL     1      14.740   3.969  45.551  1.00  0.00     0.174 HD
ATOM     39  H81 UNL     1      15.590   5.234  44.539  1.00  0.00     0.174 HD
ENDBRANCH  36  37
ENDBRANCH  35  36
ENDBRANCH  32  35
ENDBRANCH  29  32
ENDBRANCH   3  25
BRANCH   4  40
HETATM   40  O5  UNL     1      12.536   3.768  40.657  1.00  0.00    -0.380 OA
ATOM     41  H5  UNL     1      12.970   4.130  39.893  1.00  0.00     0.211 HD
ENDBRANCH   4  40
BRANCH   4  42
HETATM   42  C9  UNL     1      10.932   2.078  40.681  1.00  0.00     0.209 C 
BRANCH  42  43
HETATM   43  O6  UNL     1      10.210   3.101  41.310  1.00  0.00    -0.398 OA
ATOM     44  H6  UNL     1       9.952   3.795  40.715  1.00  0.00     0.209 HD
ENDBRANCH  42  43
ENDBRANCH   4  42
TORSDOF 15
ENDMDL
MODEL 4
REMARK VINA RESULT: -5.913284419      1.252      1.638
REMARK  15 active torsions:
REMARK  status: ('A' for Active; 'I' for Inactive)
REMARK    1  A    between atoms: N1_1  and  C1_4 
REMARK    2  A    between atoms: N3_8  and  C3_9 
REMARK    3  A    between atoms: C3_9  and  C4_10 
REMARK    4  A    between atoms: C5_12  and  N4_13 
REMARK    5  A    between atoms: C6_16  and  O2_17 
REMARK    6  A    between atoms: C7_19  and  N6_20 
REMARK    7  A    between atoms: N6_20  and  O3_21 
REMARK    8  A    between atoms: N6_20  and  O4_23 
REMARK    9  A    between atoms: O4_23  and  N7_24 
REMARK   10  A    between atoms: N7_24  and  N8_25 
REMARK   11  A    between atoms: C8_28  and  O5_29 
REMARK   12  A    between atoms: C8_28  and  C9_31 
REMARK   13  A    between atoms: C9_31  and  O6_32 
REMARK   14  A    between atoms: C10_34  and  O7_35 
REMARK   15  A    between atoms: C11_39  and  N11_40 
ROOT
HETATM    1  C4  UNL     1      14.678   1.286  39.024  1.00  0.00     0.176 C 
HETATM    2  O1  UNL     1      14.354   0.673  40.261  1.00  0.00    -0.352 OA
HETATM    3  C5  UNL     1      14.313   1.845  41.041  1.00  0.00     0.285 C 
HETATM    4  C8  UNL     1      13.274   2.635  40.358  1.00  0.00     0.152 C 
HETATM    5  C10 UNL     1      13.524   2.266  38.885  1.00  0.00     0.190 C 
ENDROOT
BRANCH   1   6
HETATM    6  C3  UNL     1      14.769   0.291  37.920  1.00  0.00     0.200 C 
BRANCH   6   7
HETATM    7  N3  UNL     1      16.154   0.093  37.553  1.00  0.00    -0.101 N 
HETATM    8  C2  UNL     1      16.906  -0.186  36.480  1.00  0.00     0.747 A 
HETATM    9  N2  UNL     1      17.020  -0.456  35.175  1.00  0.00    -0.019 N 
HETATM   10  N10 UNL     1      18.038  -0.142  37.209  1.00  0.00     0.107 N 
HETATM   11  C1  UNL     1      18.213  -0.677  34.595  1.00  0.00     0.705 A 
ATOM     12  H2  UNL     1      16.177  -0.494  34.602  1.00  0.00     0.203 HD
HETATM   13  N12 UNL     1      19.322  -0.625  35.355  1.00  0.00    -0.020 N 
HETATM   14  C11 UNL     1      19.251  -0.354  36.683  1.00  0.00     0.725 A 
ATOM     15  H12 UNL     1      20.232  -0.792  34.926  1.00  0.00     0.203 HD
HETATM   16  N9  UNL     1      17.294   0.133  38.264  1.00  0.00     0.033 NA
BRANCH  11  17
HETATM   17  N1  UNL     1      18.338  -0.939  33.338  1.00  0.00    -0.234 N 
ATOM     18  H12 UNL     1      18.924  -0.329  32.769  1.00  0.00     0.174 HD
ATOM     19  H11 UNL     1      17.874  -1.729  32.891  1.00  0.00     0.174 HD
ENDBRANCH  11  17
BRANCH  14  20
HETATM   20  N11 UNL     1      20.288  -0.297  37.438  1.00  0.00    -0.232 N 
ATOM     21 2H11 UNL     1      21.010   0.416  37.332  1.00  0.00     0.174 HD
ATOM     22 1H11 UNL     1      20.410  -0.986  38.180  1.00  0.00     0.174 HD
ENDBRANCH  14  20
ENDBRANCH   6   7
ENDBRANCH   1   6
BRANCH   5  23
HETATM   23  O7  UNL     1      12.437   1.603  38.352  1.00  0.00    -0.390 OA
ATOM     24  H7  UNL     1      12.748   0.897  37.798  1.00  0.00     0.210 HD
ENDBRANCH   5  23
BRANCH   3  25
HETATM   25  N4  UNL     1      14.172   1.614  42.438  1.00  0.00    -0.238 N 
HETATM   26  N5  UNL     1      13.939   0.625  43.247  1.00  0.00    -0.271 N 
HETATM   27  C6  UNL     1      13.999   1.405  44.328  1.00  0.00     0.201 A 
ATOM     28  H5  UNL     1      13.773  -0.372  43.108  1.00  0.00     0.189 HD
HETATM   29  C7  UNL     1      14.245   2.449  43.489  1.00  0.00     0.210 A 
BRANCH  27  30
HETATM   30  O2  UNL     1      13.880   1.290  45.700  1.00  0.00    -0.343 OA
ATOM     31  H2  UNL     1      13.477   1.755  46.423  1.00  0.00     0.219 HD
ENDBRANCH  27  30
BRANCH  29  32
HETATM   32  N6  UNL     1      14.483   3.868  43.663  1.00  0.00     0.012 NA
BRANCH  32  33
HETATM   33  O3  UNL     1      15.560   4.207  42.886  1.00  0.00    -0.281 OA
ATOM     34  H3  UNL     1      15.666   5.150  42.937  1.00  0.00     0.240 HD
ENDBRANCH  32  33
BRANCH  32  35
HETATM   35  O4  UNL     1      13.406   4.511  43.222  1.00  0.00    -0.136 OA
BRANCH  35  36
HETATM   36  N7  UNL     1      12.347   4.299  44.036  1.00  0.00     0.036 NA
BRANCH  36  37
HETATM   37  N8  UNL     1      12.307   5.390  44.931  1.00  0.00    -0.321 N 
ATOM     38  H82 UNL     1      11.884   6.300  44.748  1.00  0.00     0.174 HD
ATOM     39  H81 UNL     1      12.781   5.084  45.780  1.00  0.00     0.174 HD
ENDBRANCH  36  37
ENDBRANCH  35  36
ENDBRANCH  32  35
ENDBRANCH  29  32
ENDBRANCH   3  25
BRANCH   4  40
HETATM   40  O5  UNL     1      13.460   3.999  40.569  1.00  0.00    -0.380 OA
ATOM     41  H5  UNL     1      13.746   4.173  41.458  1.00  0.00     0.211 HD
ENDBRANCH   4  40
BRANCH   4  42
HETATM   42  C9  UNL     1      11.856   2.311  40.649  1.00  0.00     0.209 C 
BRANCH  42  43
HETATM   43  O6  UNL     1      11.256   3.218  41.533  1.00  0.00    -0.398 OA
ATOM     44  H6  UNL     1      10.952   2.810  42.335  1.00  0.00     0.209 HD
ENDBRANCH  42  43
ENDBRANCH   4  42
TORSDOF 15
ENDMDL
MODEL 5
REMARK VINA RESULT: -5.907001926      1.167      1.559
REMARK  15 active torsions:
REMARK  status: ('A' for Active; 'I' for Inactive)
REMARK    1  A    between atoms: N1_1  and  C1_4 
REMARK    2  A    between atoms: N3_8  and  C3_9 
REMARK    3  A    between atoms: C3_9  and  C4_10 
REMARK    4  A    between atoms: C5_12  and  N4_13 
REMARK    5  A    between atoms: C6_16  and  O2_17 
REMARK    6  A    between atoms: C7_19  and  N6_20 
REMARK    7  A    between atoms: N6_20  and  O3_21 
REMARK    8  A    between atoms: N6_20  and  O4_23 
REMARK    9  A    between atoms: O4_23  and  N7_24 
REMARK   10  A    between atoms: N7_24  and  N8_25 
REMARK   11  A    between atoms: C8_28  and  O5_29 
REMARK   12  A    between atoms: C8_28  and  C9_31 
REMARK   13  A    between atoms: C9_31  and  O6_32 
REMARK   14  A    between atoms: C10_34  and  O7_35 
REMARK   15  A    between atoms: C11_39  and  N11_40 
ROOT
HETATM    1  C4  UNL     1      13.697   0.888  39.612  1.00  0.00     0.176 C 
HETATM    2  O1  UNL     1      13.803   0.559  40.988  1.00  0.00    -0.352 OA
HETATM    3  C5  UNL     1      14.022   1.863  41.471  1.00  0.00     0.285 C 
HETATM    4  C8  UNL     1      12.815   2.571  41.012  1.00  0.00     0.152 C 
HETATM    5  C10 UNL     1      12.562   1.897  39.651  1.00  0.00     0.190 C 
ENDROOT
BRANCH   1   6
HETATM    6  C3  UNL     1      13.418  -0.312  38.777  1.00  0.00     0.200 C 
BRANCH   6   7
HETATM    7  N3  UNL     1      14.520  -0.544  37.870  1.00  0.00    -0.101 N 
HETATM    8  C2  UNL     1      15.402   0.135  37.124  1.00  0.00     0.747 A 
HETATM    9  N2  UNL     1      15.905   1.291  36.678  1.00  0.00    -0.019 N 
HETATM   10  N10 UNL     1      15.971  -1.004  36.683  1.00  0.00     0.107 N 
HETATM   11  C1  UNL     1      16.940   1.334  35.820  1.00  0.00     0.705 A 
ATOM     12  H2  UNL     1      15.492   2.166  36.997  1.00  0.00     0.203 HD
HETATM   13  N12 UNL     1      17.482   0.176  35.402  1.00  0.00    -0.020 N 
HETATM   14  C11 UNL     1      17.003  -1.020  35.830  1.00  0.00     0.725 A 
ATOM     15  H12 UNL     1      18.268   0.196  34.752  1.00  0.00     0.203 HD
HETATM   16  N9  UNL     1      15.101  -1.670  37.419  1.00  0.00     0.033 NA
BRANCH  11  17
HETATM   17  N1  UNL     1      17.435   2.441  35.382  1.00  0.00    -0.234 N 
ATOM     18  H12 UNL     1      18.129   2.924  35.951  1.00  0.00     0.174 HD
ATOM     19  H11 UNL     1      17.161   2.852  34.490  1.00  0.00     0.174 HD
ENDBRANCH  11  17
BRANCH  14  20
HETATM   20  N11 UNL     1      17.496  -2.143  35.452  1.00  0.00    -0.232 N 
ATOM     21 2H11 UNL     1      18.014  -2.254  34.580  1.00  0.00     0.174 HD
ATOM     22 1H11 UNL     1      17.372  -2.970  36.037  1.00  0.00     0.174 HD
ENDBRANCH  14  20
ENDBRANCH   6   7
ENDBRANCH   1   6
BRANCH   5  23
HETATM   23  O7  UNL     1      11.360   1.218  39.654  1.00  0.00    -0.390 OA
ATOM     24  H7  UNL     1      10.795   1.595  40.320  1.00  0.00     0.210 HD
ENDBRANCH   5  23
BRANCH   3  25
HETATM   25  N4  UNL     1      14.353   1.927  42.854  1.00  0.00    -0.238 N 
HETATM   26  N5  UNL     1      14.510   1.121  43.860  1.00  0.00    -0.271 N 
HETATM   27  C6  UNL     1      14.805   2.115  44.699  1.00  0.00     0.201 A 
ATOM     28  H5  UNL     1      14.435   0.110  43.968  1.00  0.00     0.189 HD
HETATM   29  C7  UNL     1      14.645   2.970  43.651  1.00  0.00     0.210 A 
BRANCH  27  30
HETATM   30  O2  UNL     1      15.135   2.289  46.031  1.00  0.00    -0.343 OA
ATOM     31  H2  UNL     1      15.668   2.865  46.565  1.00  0.00     0.219 HD
ENDBRANCH  27  30
BRANCH  29  32
HETATM   32  N6  UNL     1      14.746   4.405  43.475  1.00  0.00     0.012 NA
BRANCH  32  33
HETATM   33  O3  UNL     1      13.496   4.935  43.654  1.00  0.00    -0.281 OA
ATOM     34  H3  UNL     1      13.596   5.870  43.793  1.00  0.00     0.240 HD
ENDBRANCH  32  33
BRANCH  32  35
HETATM   35  O4  UNL     1      15.557   4.867  44.423  1.00  0.00    -0.136 OA
BRANCH  35  36
HETATM   36  N7  UNL     1      16.813   5.030  43.951  1.00  0.00     0.036 NA
BRANCH  36  37
HETATM   37  N8  UNL     1      17.432   5.984  44.785  1.00  0.00    -0.321 N 
ATOM     38  H82 UNL     1      18.298   5.852  45.307  1.00  0.00     0.174 HD
ATOM     39  H81 UNL     1      16.845   6.817  44.757  1.00  0.00     0.174 HD
ENDBRANCH  36  37
ENDBRANCH  35  36
ENDBRANCH  32  35
ENDBRANCH  29  32
ENDBRANCH   3  25
BRANCH   4  40
HETATM   40  O5  UNL     1      13.059   3.932  40.856  1.00  0.00    -0.380 OA
ATOM     41  H5  UNL     1      12.511   4.448  41.437  1.00  0.00     0.211 HD
ENDBRANCH   4  40
BRANCH   4  42
HETATM   42  C9  UNL     1      11.574   2.411  41.810  1.00  0.00     0.209 C 
BRANCH  42  43
HETATM   43  O6  UNL     1      10.588   3.351  41.484  1.00  0.00    -0.398 OA
ATOM     44  H6  UNL     1      10.946   4.165  41.149  1.00  0.00     0.209 HD
ENDBRANCH  42  43
ENDBRANCH   4  42
TORSDOF 15
ENDMDL
