MODEL 1
REMARK VINA RESULT: -6.892142948      0.000      0.000
REMARK  12 active torsions:
REMARK  status: ('A' for Active; 'I' for Inactive)
REMARK       I    between atoms: N1_1  and  C1_4 
REMARK       I    between atoms: C1_4  and  N2_5 
REMARK       I    between atoms: C1_4  and  N6_12 
REMARK    1  A    between atoms: N2_5  and  N3_7 
REMARK    2  A    between atoms: N3_7  and  N4_8 
REMARK    3  A    between atoms: N4_8  and  N5_9 
REMARK    4  A    between atoms: N6_12  and  O1_14 
REMARK    5  A    between atoms: O1_14  and  N7_15 
REMARK    6  A    between atoms: N7_15  and  O2_16 
REMARK       I    between atoms: N7_15  and  C2_18 
REMARK       I    between atoms: C2_18  and  N8_20 
REMARK    7  A    between atoms: N8_20  and  C3_22 
REMARK    8  A    between atoms: C3_22  and  C4_23 
REMARK    9  A    between atoms: C5_25  and  N9_26 
REMARK   10  A    between atoms: C8_31  and  N11_32 
REMARK   11  A    between atoms: C11_41  and  O5_42 
REMARK   12  A    between atoms: C12_44  and  O6_45 
ROOT
HETATM    1  C4  UNL     1      13.475   0.156  40.238  1.00  0.00     0.173 C 
HETATM    2  O4  UNL     1      13.563   0.236  38.872  1.00  0.00    -0.354 OA
HETATM    3  C5  UNL     1      14.268   1.376  38.539  1.00  0.00     0.262 C 
HETATM    4  C11 UNL     1      15.098   1.772  39.730  1.00  0.00     0.198 C 
HETATM    5  C12 UNL     1      14.794   0.666  40.714  1.00  0.00     0.181 C 
ENDROOT
BRANCH   1   6
HETATM    6  C3  UNL     1      12.300   0.910  40.772  1.00  0.00     0.158 C 
BRANCH   6   7
HETATM    7  N8  UNL     1      12.627   1.732  41.902  1.00  0.00    -0.342 N 
HETATM    8  C2  UNL     1      11.921   2.920  42.237  1.00  0.00     0.347 C 
HETATM    9  N7  UNL     1      12.241   3.721  43.339  1.00  0.00     0.050 NA
HETATM   10  O3  UNL     1      10.964   3.241  41.485  1.00  0.00    -0.249 OA
ATOM     11  H8  UNL     1      13.407   1.450  42.495  1.00  0.00     0.163 HD
BRANCH   9  12
HETATM   12  O1  UNL     1      13.456   4.289  43.282  1.00  0.00    -0.132 OA
BRANCH  12  13
HETATM   13  N6  UNL     1      14.009   4.525  44.460  1.00  0.00    -0.074 N 
HETATM   14  C1  UNL     1      15.370   4.214  44.714  1.00  0.00     0.710 C 
HETATM   15  N1  UNL     1      15.790   4.062  45.939  1.00  0.00    -0.232 N 
HETATM   16  N2  UNL     1      16.331   4.053  43.687  1.00  0.00    -0.117 N 
ATOM     17  H12 UNL     1      16.769   3.839  46.122  1.00  0.00     0.174 HD
ATOM     18  H11 UNL     1      15.098   4.179  46.679  1.00  0.00     0.174 HD
ATOM     19  H2  UNL     1      16.160   3.415  42.909  1.00  0.00     0.202 HD
ATOM     20  H6  UNL     1      13.446   4.940  45.202  1.00  0.00     0.215 HD
BRANCH  16  21
HETATM   21  N3  UNL     1      17.515   4.781  43.761  1.00  0.00     0.005 NA
BRANCH  21  22
HETATM   22  N4  UNL     1      17.293   6.129  44.069  1.00  0.00    -0.015 NA
BRANCH  22  23
HETATM   23  N5  UNL     1      18.108   6.538  45.129  1.00  0.00    -0.330 N 
ATOM     24  H52 UNL     1      18.780   5.928  45.595  1.00  0.00     0.173 HD
ATOM     25  H51 UNL     1      17.934   7.515  45.364  1.00  0.00     0.173 HD
ENDBRANCH  22  23
ENDBRANCH  21  22
ENDBRANCH  16  21
ENDBRANCH  12  13
ENDBRANCH   9  12
BRANCH   9  26
HETATM   26  O2  UNL     1      12.184   3.008  44.510  1.00  0.00    -0.279 OA
ATOM     27  H2  UNL     1      12.507   3.577  45.199  1.00  0.00     0.240 HD
ENDBRANCH   9  26
ENDBRANCH   6   7
ENDBRANCH   1   6
BRANCH   5  28
HETATM   28  O6  UNL     1      15.744  -0.338  40.509  1.00  0.00    -0.390 OA
ATOM     29  H6  UNL     1      16.153  -0.185  39.666  1.00  0.00     0.210 HD
ENDBRANCH   5  28
BRANCH   3  30
HETATM   30  N9  UNL     1      15.196   1.133  37.436  1.00  0.00    -0.297 N 
HETATM   31  C6  UNL     1      15.682   2.113  36.681  1.00  0.00     0.188 A 
HETATM   32  N10 UNL     1      16.504   1.588  35.754  1.00  0.00    -0.346 N 
HETATM   33  C7  UNL     1      16.526   0.259  35.940  1.00  0.00     0.122 A 
ATOM     34  H10 UNL     1      17.017   2.105  35.040  1.00  0.00     0.167 HD
HETATM   35  C8  UNL     1      17.187  -0.741  35.287  1.00  0.00     0.131 A 
HETATM   36  C10 UNL     1      15.699  -0.012  37.001  1.00  0.00     0.142 A 
HETATM   37  N12 UNL     1      16.980  -2.006  35.745  1.00  0.00    -0.337 N 
HETATM   38  C9  UNL     1      16.167  -2.261  36.786  1.00  0.00     0.183 A 
ATOM     39  H12 UNL     1      17.455  -2.782  35.285  1.00  0.00     0.168 HD
HETATM   40  N13 UNL     1      15.516  -1.269  37.428  1.00  0.00    -0.336 N 
ATOM     41  H13 UNL     1      14.902  -1.470  38.217  1.00  0.00     0.168 HD
BRANCH  35  42
HETATM   42  N11 UNL     1      17.964  -0.502  34.293  1.00  0.00    -0.383 N 
ATOM     43 2H11 UNL     1      18.576   0.314  34.274  1.00  0.00     0.157 HD
ATOM     44 1H11 UNL     1      18.003  -1.118  33.481  1.00  0.00     0.157 HD
ENDBRANCH  35  42
ENDBRANCH   3  30
BRANCH   4  45
HETATM   45  O5  UNL     1      14.695   3.013  40.155  1.00  0.00    -0.388 OA
ATOM     46  H5  UNL     1      14.321   2.931  41.024  1.00  0.00     0.210 HD
ENDBRANCH   4  45
TORSDOF 12
ENDMDL
MODEL 2
REMARK VINA RESULT: -6.810515099      1.015      2.190
REMARK  12 active torsions:
REMARK  status: ('A' for Active; 'I' for Inactive)
REMARK       I    between atoms: N1_1  and  C1_4 
REMARK       I    between atoms: C1_4  and  N2_5 
REMARK       I    between atoms: C1_4  and  N6_12 
REMARK    1  A    between atoms: N2_5  and  N3_7 
REMARK    2  A    between atoms: N3_7  and  N4_8 
REMARK    3  A    between atoms: N4_8  and  N5_9 
REMARK    4  A    between atoms: N6_12  and  O1_14 
REMARK    5  A    between atoms: O1_14  and  N7_15 
REMARK    6  A    between atoms: N7_15  and  O2_16 
REMARK       I    between atoms: N7_15  and  C2_18 
REMARK       I    between atoms: C2_18  and  N8_20 
REMARK    7  A    between atoms: N8_20  and  C3_22 
REMARK    8  A    between atoms: C3_22  and  C4_23 
REMARK    9  A    between atoms: C5_25  and  N9_26 
REMARK   10  A    between atoms: C8_31  and  N11_32 
REMARK   11  A    between atoms: C11_41  and  O5_42 
REMARK   12  A    between atoms: C12_44  and  O6_45 
ROOT
HETATM    1  C4  UNL     1      13.467   1.353  39.853  1.00  0.00     0.173 C 
HETATM    2  O4  UNL     1      14.550   0.576  39.533  1.00  0.00    -0.354 OA
HETATM    3  C5  UNL     1      14.114  -0.506  38.793  1.00  0.00     0.262 C 
HETATM    4  C11 UNL     1      12.786  -0.148  38.186  1.00  0.00     0.198 C 
HETATM    5  C12 UNL     1      12.599   1.280  38.642  1.00  0.00     0.181 C 
ENDROOT
BRANCH   1   6
HETATM    6  C3  UNL     1      12.799   0.899  41.112  1.00  0.00     0.158 C 
BRANCH   6   7
HETATM    7  N8  UNL     1      12.966   1.820  42.199  1.00  0.00    -0.342 N 
HETATM    8  C2  UNL     1      12.106   2.930  42.425  1.00  0.00     0.347 C 
HETATM    9  N7  UNL     1      12.269   3.828  43.486  1.00  0.00     0.050 NA
HETATM   10  O3  UNL     1      11.158   3.086  41.611  1.00  0.00    -0.249 OA
ATOM     11  H8  UNL     1      13.742   1.672  42.844  1.00  0.00     0.163 HD
BRANCH   9  12
HETATM   12  O1  UNL     1      13.408   4.536  43.447  1.00  0.00    -0.132 OA
BRANCH  12  13
HETATM   13  N6  UNL     1      14.024   4.654  44.612  1.00  0.00    -0.074 N 
HETATM   14  C1  UNL     1      15.369   4.240  44.783  1.00  0.00     0.710 C 
HETATM   15  N1  UNL     1      15.829   3.977  45.975  1.00  0.00    -0.232 N 
HETATM   16  N2  UNL     1      16.276   4.090  43.705  1.00  0.00    -0.117 N 
ATOM     17  H12 UNL     1      16.797   3.680  46.098  1.00  0.00     0.174 HD
ATOM     18  H11 UNL     1      15.176   4.085  46.751  1.00  0.00     0.174 HD
ATOM     19  H2  UNL     1      16.031   3.521  42.895  1.00  0.00     0.202 HD
ATOM     20  H6  UNL     1      13.520   5.051  45.405  1.00  0.00     0.215 HD
BRANCH  16  21
HETATM   21  N3  UNL     1      17.507   4.735  43.774  1.00  0.00     0.005 NA
BRANCH  21  22
HETATM   22  N4  UNL     1      17.384   6.081  44.139  1.00  0.00    -0.015 NA
BRANCH  22  23
HETATM   23  N5  UNL     1      18.242   6.389  45.199  1.00  0.00    -0.330 N 
ATOM     24  H52 UNL     1      18.809   5.697  45.689  1.00  0.00     0.173 HD
ATOM     25  H51 UNL     1      18.217   7.388  45.407  1.00  0.00     0.173 HD
ENDBRANCH  22  23
ENDBRANCH  21  22
ENDBRANCH  16  21
ENDBRANCH  12  13
ENDBRANCH   9  12
BRANCH   9  26
HETATM   26  O2  UNL     1      12.236   3.183  44.697  1.00  0.00    -0.279 OA
ATOM     27  H2  UNL     1      11.589   3.628  45.232  1.00  0.00     0.240 HD
ENDBRANCH   9  26
ENDBRANCH   6   7
ENDBRANCH   1   6
BRANCH   5  28
HETATM   28  O6  UNL     1      13.160   2.101  37.660  1.00  0.00    -0.390 OA
ATOM     29  H6  UNL     1      12.451   2.539  37.205  1.00  0.00     0.210 HD
ENDBRANCH   5  28
BRANCH   3  30
HETATM   30  N9  UNL     1      15.022  -0.803  37.687  1.00  0.00    -0.297 N 
HETATM   31  C6  UNL     1      15.205  -2.036  37.223  1.00  0.00     0.188 A 
HETATM   32  N10 UNL     1      16.091  -1.997  36.211  1.00  0.00    -0.346 N 
HETATM   33  C7  UNL     1      16.462  -0.719  36.047  1.00  0.00     0.122 A 
ATOM     34  H10 UNL     1      16.420  -2.795  35.667  1.00  0.00     0.167 HD
HETATM   35  C8  UNL     1      17.327  -0.126  35.172  1.00  0.00     0.131 A 
HETATM   36  C10 UNL     1      15.781   0.020  36.982  1.00  0.00     0.142 A 
HETATM   37  N12 UNL     1      17.472   1.223  35.282  1.00  0.00    -0.337 N 
HETATM   38  C9  UNL     1      16.801   1.938  36.202  1.00  0.00     0.183 A 
ATOM     39  H12 UNL     1      18.109   1.705  34.647  1.00  0.00     0.168 HD
HETATM   40  N13 UNL     1      15.947   1.347  37.064  1.00  0.00    -0.336 N 
ATOM     41  H13 UNL     1      15.441   1.896  37.758  1.00  0.00     0.168 HD
BRANCH  35  42
HETATM   42  N11 UNL     1      17.970  -0.805  34.292  1.00  0.00    -0.383 N 
ATOM     43 2H11 UNL     1      17.658  -1.729  33.994  1.00  0.00     0.157 HD
ATOM     44 1H11 UNL     1      18.819  -0.449  33.854  1.00  0.00     0.157 HD
ENDBRANCH  35  42
ENDBRANCH   3  30
BRANCH   4  45
HETATM   45  O5  UNL     1      11.833  -1.009  38.669  1.00  0.00    -0.388 OA
ATOM     46  H5  UNL     1      11.692  -0.822  39.589  1.00  0.00     0.210 HD
ENDBRANCH   4  45
TORSDOF 12
ENDMDL
MODEL 3
REMARK VINA RESULT: -6.641175691      1.463      1.778
REMARK  12 active torsions:
REMARK  status: ('A' for Active; 'I' for Inactive)
REMARK       I    between atoms: N1_1  and  C1_4 
REMARK       I    between atoms: C1_4  and  N2_5 
REMARK       I    between atoms: C1_4  and  N6_12 
REMARK    1  A    between atoms: N2_5  and  N3_7 
REMARK    2  A    between atoms: N3_7  and  N4_8 
REMARK    3  A    between atoms: N4_8  and  N5_9 
REMARK    4  A    between atoms: N6_12  and  O1_14 
REMARK    5  A    between atoms: O1_14  and  N7_15 
REMARK    6  A    between atoms: N7_15  and  O2_16 
REMARK       I    between atoms: N7_15  and  C2_18 
REMARK       I    between atoms: C2_18  and  N8_20 
REMARK    7  A    between atoms: N8_20  and  C3_22 
REMARK    8  A    between atoms: C3_22  and  C4_23 
REMARK    9  A    between atoms: C5_25  and  N9_26 
REMARK   10  A    between atoms: C8_31  and  N11_32 
REMARK   11  A    between atoms: C11_41  and  O5_42 
REMARK   12  A    between atoms: C12_44  and  O6_45 
ROOT
HETATM    1  C4  UNL     1      13.025   0.179  39.301  1.00  0.00     0.173 C 
HETATM    2  O4  UNL     1      13.381   0.471  38.009  1.00  0.00    -0.354 OA
HETATM    3  C5  UNL     1      14.276   1.522  38.024  1.00  0.00     0.262 C 
HETATM    4  C11 UNL     1      14.906   1.577  39.389  1.00  0.00     0.198 C 
HETATM    5  C12 UNL     1      14.282   0.385  40.077  1.00  0.00     0.181 C 
ENDROOT
BRANCH   1   6
HETATM    6  C3  UNL     1      11.874   1.011  39.769  1.00  0.00     0.158 C 
BRANCH   6   7
HETATM    7  N8  UNL     1      11.621   0.878  41.175  1.00  0.00    -0.342 N 
HETATM    8  C2  UNL     1      11.583   1.979  42.073  1.00  0.00     0.347 C 
HETATM    9  N7  UNL     1      11.336   1.848  43.444  1.00  0.00     0.050 NA
HETATM   10  O3  UNL     1      11.785   3.119  41.579  1.00  0.00    -0.249 OA
ATOM     11  H8  UNL     1      11.460  -0.057  41.551  1.00  0.00     0.163 HD
BRANCH   9  12
HETATM   12  O1  UNL     1      12.266   1.151  44.114  1.00  0.00    -0.132 OA
BRANCH  12  13
HETATM   13  N6  UNL     1      13.038   1.880  44.904  1.00  0.00    -0.074 N 
HETATM   14  C1  UNL     1      14.267   2.419  44.446  1.00  0.00     0.710 C 
HETATM   15  N1  UNL     1      15.188   2.769  45.301  1.00  0.00    -0.232 N 
HETATM   16  N2  UNL     1      14.566   2.607  43.075  1.00  0.00    -0.117 N 
ATOM     17  H12 UNL     1      16.073   3.157  44.971  1.00  0.00     0.174 HD
ATOM     18  H11 UNL     1      14.973   2.633  46.288  1.00  0.00     0.174 HD
ATOM     19  H2  UNL     1      14.466   1.840  42.410  1.00  0.00     0.202 HD
ATOM     20  H6  UNL     1      12.742   2.058  45.864  1.00  0.00     0.215 HD
BRANCH  16  21
HETATM   21  N3  UNL     1      15.000   3.861  42.653  1.00  0.00     0.005 NA
BRANCH  21  22
HETATM   22  N4  UNL     1      16.397   3.955  42.612  1.00  0.00    -0.015 NA
BRANCH  22  23
HETATM   23  N5  UNL     1      16.952   2.837  41.983  1.00  0.00    -0.330 N 
ATOM     24  H52 UNL     1      16.998   1.911  42.408  1.00  0.00     0.173 HD
ATOM     25  H51 UNL     1      17.300   3.079  41.054  1.00  0.00     0.173 HD
ENDBRANCH  22  23
ENDBRANCH  21  22
ENDBRANCH  16  21
ENDBRANCH  12  13
ENDBRANCH   9  12
BRANCH   9  26
HETATM   26  O2  UNL     1      10.128   1.240  43.679  1.00  0.00    -0.279 OA
ATOM     27  H2  UNL     1       9.454   1.814  43.334  1.00  0.00     0.240 HD
ENDBRANCH   9  26
ENDBRANCH   6   7
ENDBRANCH   1   6
BRANCH   5  28
HETATM   28  O6  UNL     1      15.118  -0.709  39.842  1.00  0.00    -0.390 OA
ATOM     29  H6  UNL     1      15.101  -1.261  40.614  1.00  0.00     0.210 HD
ENDBRANCH   5  28
BRANCH   3  30
HETATM   30  N9  UNL     1      15.359   1.322  37.063  1.00  0.00    -0.297 N 
HETATM   31  C6  UNL     1      15.965   2.332  36.446  1.00  0.00     0.188 A 
HETATM   32  N10 UNL     1      16.914   1.842  35.627  1.00  0.00    -0.346 N 
HETATM   33  C7  UNL     1      16.893   0.505  35.739  1.00  0.00     0.122 A 
ATOM     34  H10 UNL     1      17.535   2.387  35.030  1.00  0.00     0.167 HD
HETATM   35  C8  UNL     1      17.636  -0.471  35.140  1.00  0.00     0.131 A 
HETATM   36  C10 UNL     1      15.911   0.193  36.646  1.00  0.00     0.142 A 
HETATM   37  N12 UNL     1      17.348  -1.754  35.490  1.00  0.00    -0.337 N 
HETATM   38  C9  UNL     1      16.383  -2.050  36.379  1.00  0.00     0.183 A 
ATOM     39  H12 UNL     1      17.880  -2.514  35.065  1.00  0.00     0.168 HD
HETATM   40  N13 UNL     1      15.652  -1.081  36.969  1.00  0.00    -0.336 N 
ATOM     41  H13 UNL     1      14.922  -1.313  37.642  1.00  0.00     0.168 HD
BRANCH  35  42
HETATM   42  N11 UNL     1      18.558  -0.194  34.290  1.00  0.00    -0.383 N 
ATOM     43 2H11 UNL     1      18.903   0.758  34.164  1.00  0.00     0.157 HD
ATOM     44 1H11 UNL     1      18.986  -0.913  33.707  1.00  0.00     0.157 HD
ENDBRANCH  35  42
ENDBRANCH   3  30
BRANCH   4  45
HETATM   45  O5  UNL     1      14.590   2.778  39.972  1.00  0.00    -0.388 OA
ATOM     46  H5  UNL     1      13.981   2.621  40.683  1.00  0.00     0.210 HD
ENDBRANCH   4  45
TORSDOF 12
ENDMDL
MODEL 4
REMARK VINA RESULT: -6.484393462      3.831      6.242
REMARK  12 active torsions:
REMARK  status: ('A' for Active; 'I' for Inactive)
REMARK       I    between atoms: N1_1  and  C1_4 
REMARK       I    between atoms: C1_4  and  N2_5 
REMARK       I    between atoms: C1_4  and  N6_12 
REMARK    1  A    between atoms: N2_5  and  N3_7 
REMARK    2  A    between atoms: N3_7  and  N4_8 
REMARK    3  A    between atoms: N4_8  and  N5_9 
REMARK    4  A    between atoms: N6_12  and  O1_14 
REMARK    5  A    between atoms: O1_14  and  N7_15 
REMARK    6  A    between atoms: N7_15  and  O2_16 
REMARK       I    between atoms: N7_15  and  C2_18 
REMARK       I    between atoms: C2_18  and  N8_20 
REMARK    7  A    between atoms: N8_20  and  C3_22 
REMARK    8  A    between atoms: C3_22  and  C4_23 
REMARK    9  A    between atoms: C5_25  and  N9_26 
REMARK   10  A    between atoms: C8_31  and  N11_32 
REMARK   11  A    between atoms: C11_41  and  O5_42 
REMARK   12  A    between atoms: C12_44  and  O6_45 
ROOT
HETATM    1  C4  UNL     1      13.240   1.613  39.698  1.00  0.00     0.173 C 
HETATM    2  O4  UNL     1      14.385   0.897  39.464  1.00  0.00    -0.354 OA
HETATM    3  C5  UNL     1      14.044  -0.305  38.876  1.00  0.00     0.262 C 
HETATM    4  C11 UNL     1      12.687  -0.144  38.247  1.00  0.00     0.198 C 
HETATM    5  C12 UNL     1      12.378   1.309  38.519  1.00  0.00     0.181 C 
ENDROOT
BRANCH   1   6
HETATM    6  C3  UNL     1      12.619   1.269  41.014  1.00  0.00     0.158 C 
BRANCH   6   7
HETATM    7  N8  UNL     1      11.186   1.219  40.962  1.00  0.00    -0.342 N 
HETATM    8  C2  UNL     1      10.353   2.347  41.199  1.00  0.00     0.347 C 
HETATM    9  N7  UNL     1       8.956   2.298  41.148  1.00  0.00     0.050 NA
HETATM   10  O3  UNL     1      10.933   3.432  41.466  1.00  0.00    -0.249 OA
ATOM     11  H8  UNL     1      10.741   0.328  40.744  1.00  0.00     0.163 HD
BRANCH   9  12
HETATM   12  O1  UNL     1       8.391   1.508  42.074  1.00  0.00    -0.132 OA
BRANCH  12  13
HETATM   13  N6  UNL     1       7.193   1.049  41.751  1.00  0.00    -0.074 N 
HETATM   14  C1  UNL     1       6.077   1.916  41.628  1.00  0.00     0.710 C 
HETATM   15  N1  UNL     1       4.866   1.442  41.716  1.00  0.00    -0.232 N 
HETATM   16  N2  UNL     1       6.201   3.309  41.406  1.00  0.00    -0.117 N 
ATOM     17  H12 UNL     1       4.063   2.065  41.627  1.00  0.00     0.174 HD
ATOM     18  H11 UNL     1       4.777   0.438  41.875  1.00  0.00     0.174 HD
ATOM     19  H2  UNL     1       6.787   3.883  42.012  1.00  0.00     0.202 HD
ATOM     20  H6  UNL     1       7.069   0.050  41.587  1.00  0.00     0.215 HD
BRANCH  16  21
HETATM   21  N3  UNL     1       5.505   3.880  40.344  1.00  0.00     0.005 NA
BRANCH  21  22
HETATM   22  N4  UNL     1       5.772   3.240  39.127  1.00  0.00    -0.015 NA
BRANCH  22  23
HETATM   23  N5  UNL     1       5.380   4.040  38.049  1.00  0.00    -0.330 N 
ATOM     24  H52 UNL     1       4.619   3.800  37.413  1.00  0.00     0.173 HD
ATOM     25  H51 UNL     1       5.954   4.881  37.993  1.00  0.00     0.173 HD
ENDBRANCH  22  23
ENDBRANCH  21  22
ENDBRANCH  16  21
ENDBRANCH  12  13
ENDBRANCH   9  12
BRANCH   9  26
HETATM   26  O2  UNL     1       8.515   1.863  39.924  1.00  0.00    -0.279 OA
ATOM     27  H2  UNL     1       9.263   1.871  39.338  1.00  0.00     0.240 HD
ENDBRANCH   9  26
ENDBRANCH   6   7
ENDBRANCH   1   6
BRANCH   5  28
HETATM   28  O6  UNL     1      12.861   2.041  37.432  1.00  0.00    -0.390 OA
ATOM     29  H6  UNL     1      12.919   1.455  36.687  1.00  0.00     0.210 HD
ENDBRANCH   5  28
BRANCH   3  30
HETATM   30  N9  UNL     1      14.970  -0.663  37.804  1.00  0.00    -0.297 N 
HETATM   31  C6  UNL     1      15.200  -1.923  37.447  1.00  0.00     0.188 A 
HETATM   32  N10 UNL     1      16.092  -1.939  36.439  1.00  0.00    -0.346 N 
HETATM   33  C7  UNL     1      16.420  -0.667  36.169  1.00  0.00     0.122 A 
ATOM     34  H10 UNL     1      16.453  -2.769  35.968  1.00  0.00     0.167 HD
HETATM   35  C8  UNL     1      17.270  -0.120  35.251  1.00  0.00     0.131 A 
HETATM   36  C10 UNL     1      15.706   0.124  37.034  1.00  0.00     0.142 A 
HETATM   37  N12 UNL     1      17.367   1.237  35.246  1.00  0.00    -0.337 N 
HETATM   38  C9  UNL     1      16.664   2.004  36.099  1.00  0.00     0.183 A 
ATOM     39  H12 UNL     1      17.992   1.685  34.576  1.00  0.00     0.168 HD
HETATM   40  N13 UNL     1      15.825   1.458  37.004  1.00  0.00    -0.336 N 
ATOM     41  H13 UNL     1      15.294   2.046  37.647  1.00  0.00     0.168 HD
BRANCH  35  42
HETATM   42  N11 UNL     1      17.944  -0.849  34.435  1.00  0.00    -0.383 N 
ATOM     43 2H11 UNL     1      18.474  -0.442  33.665  1.00  0.00     0.157 HD
ATOM     44 1H11 UNL     1      17.978  -1.864  34.525  1.00  0.00     0.157 HD
ENDBRANCH  35  42
ENDBRANCH   3  30
BRANCH   4  45
HETATM   45  O5  UNL     1      11.815  -1.016  38.851  1.00  0.00    -0.388 OA
ATOM     46  H5  UNL     1      11.155  -1.273  38.219  1.00  0.00     0.210 HD
ENDBRANCH   4  45
TORSDOF 12
ENDMDL
MODEL 5
REMARK VINA RESULT: -6.415753845      4.178      6.616
REMARK  12 active torsions:
REMARK  status: ('A' for Active; 'I' for Inactive)
REMARK       I    between atoms: N1_1  and  C1_4 
REMARK       I    between atoms: C1_4  and  N2_5 
REMARK       I    between atoms: C1_4  and  N6_12 
REMARK    1  A    between atoms: N2_5  and  N3_7 
REMARK    2  A    between atoms: N3_7  and  N4_8 
REMARK    3  A    between atoms: N4_8  and  N5_9 
REMARK    4  A    between atoms: N6_12  and  O1_14 
REMARK    5  A    between atoms: O1_14  and  N7_15 
REMARK    6  A    between atoms: N7_15  and  O2_16 
REMARK       I    between atoms: N7_15  and  C2_18 
REMARK       I    between atoms: C2_18  and  N8_20 
REMARK    7  A    between atoms: N8_20  and  C3_22 
REMARK    8  A    between atoms: C3_22  and  C4_23 
REMARK    9  A    between atoms: C5_25  and  N9_26 
REMARK   10  A    between atoms: C8_31  and  N11_32 
REMARK   11  A    between atoms: C11_41  and  O5_42 
REMARK   12  A    between atoms: C12_44  and  O6_45 
ROOT
HETATM    1  C4  UNL     1      12.540   1.969  39.289  1.00  0.00     0.173 C 
HETATM    2  O4  UNL     1      13.731   1.291  39.283  1.00  0.00    -0.354 OA
HETATM    3  C5  UNL     1      13.495  -0.015  38.901  1.00  0.00     0.262 C 
HETATM    4  C11 UNL     1      12.194  -0.050  38.148  1.00  0.00     0.198 C 
HETATM    5  C12 UNL     1      11.800   1.408  38.122  1.00  0.00     0.181 C 
ENDROOT
BRANCH   1   6
HETATM    6  C3  UNL     1      11.820   1.832  40.593  1.00  0.00     0.158 C 
BRANCH   6   7
HETATM    7  N8  UNL     1      10.448   2.247  40.522  1.00  0.00    -0.342 N 
HETATM    8  C2  UNL     1       9.351   1.358  40.685  1.00  0.00     0.347 C 
HETATM    9  N7  UNL     1       8.014   1.763  40.616  1.00  0.00     0.050 NA
HETATM   10  O3  UNL     1       9.630   0.149  40.901  1.00  0.00    -0.249 OA
ATOM     11  H8  UNL     1      10.250   3.231  40.345  1.00  0.00     0.163 HD
BRANCH   9  12
HETATM   12  O1  UNL     1       7.635   2.237  39.419  1.00  0.00    -0.132 OA
BRANCH  12  13
HETATM   13  N6  UNL     1       6.769   1.474  38.773  1.00  0.00    -0.074 N 
HETATM   14  C1  UNL     1       7.194   0.532  37.801  1.00  0.00     0.710 C 
HETATM   15  N1  UNL     1       6.356   0.094  36.903  1.00  0.00    -0.232 N 
HETATM   16  N2  UNL     1       8.513   0.020  37.744  1.00  0.00    -0.117 N 
ATOM     17  H12 UNL     1       6.661  -0.584  36.204  1.00  0.00     0.174 HD
ATOM     18  H11 UNL     1       5.406   0.462  36.944  1.00  0.00     0.174 HD
ATOM     19  H2  UNL     1       9.315   0.650  37.723  1.00  0.00     0.202 HD
ATOM     20  H6  UNL     1       5.774   1.565  38.978  1.00  0.00     0.215 HD
BRANCH  16  21
HETATM   21  N3  UNL     1       8.692  -1.360  37.717  1.00  0.00     0.005 NA
BRANCH  21  22
HETATM   22  N4  UNL     1       8.138  -1.991  38.838  1.00  0.00    -0.015 NA
BRANCH  22  23
HETATM   23  N5  UNL     1       9.135  -2.581  39.620  1.00  0.00    -0.330 N 
ATOM     24  H52 UNL     1       9.530  -2.150  40.455  1.00  0.00     0.173 HD
ATOM     25  H51 UNL     1       9.405  -3.489  39.239  1.00  0.00     0.173 HD
ENDBRANCH  22  23
ENDBRANCH  21  22
ENDBRANCH  16  21
ENDBRANCH  12  13
ENDBRANCH   9  12
BRANCH   9  26
HETATM   26  O2  UNL     1       7.738   2.737  41.542  1.00  0.00    -0.279 OA
ATOM     27  H2  UNL     1       7.023   2.417  42.080  1.00  0.00     0.240 HD
ENDBRANCH   9  26
ENDBRANCH   6   7
ENDBRANCH   1   6
BRANCH   5  28
HETATM   28  O6  UNL     1      12.345   1.960  36.960  1.00  0.00    -0.390 OA
ATOM     29  H6  UNL     1      12.391   2.901  37.077  1.00  0.00     0.210 HD
ENDBRANCH   5  28
BRANCH   3  30
HETATM   30  N9  UNL     1      14.528  -0.505  37.991  1.00  0.00    -0.297 N 
HETATM   31  C6  UNL     1      14.821  -1.797  37.870  1.00  0.00     0.188 A 
HETATM   32  N10 UNL     1      15.804  -1.942  36.963  1.00  0.00    -0.346 N 
HETATM   33  C7  UNL     1      16.125  -0.718  36.516  1.00  0.00     0.122 A 
ATOM     34  H10 UNL     1      16.229  -2.821  36.669  1.00  0.00     0.167 HD
HETATM   35  C8  UNL     1      17.045  -0.295  35.599  1.00  0.00     0.131 A 
HETATM   36  C10 UNL     1      15.314   0.174  37.171  1.00  0.00     0.142 A 
HETATM   37  N12 UNL     1      17.109   1.046  35.379  1.00  0.00    -0.337 N 
HETATM   38  C9  UNL     1      16.310   1.913  36.026  1.00  0.00     0.183 A 
ATOM     39  H12 UNL     1      17.783   1.404  34.702  1.00  0.00     0.168 HD
HETATM   40  N13 UNL     1      15.402   1.489  36.930  1.00  0.00    -0.336 N 
ATOM     41  H13 UNL     1      14.798   2.152  37.416  1.00  0.00     0.168 HD
BRANCH  35  42
HETATM   42  N11 UNL     1      17.810  -1.119  34.979  1.00  0.00    -0.383 N 
ATOM     43 2H11 UNL     1      17.643  -1.380  34.007  1.00  0.00     0.157 HD
ATOM     44 1H11 UNL     1      18.618  -1.546  35.432  1.00  0.00     0.157 HD
ENDBRANCH  35  42
ENDBRANCH   3  30
BRANCH   4  45
HETATM   45  O5  UNL     1      11.310  -0.847  38.831  1.00  0.00    -0.388 OA
ATOM     46  H5  UNL     1      10.478  -0.842  38.374  1.00  0.00     0.210 HD
ENDBRANCH   4  45
TORSDOF 12
ENDMDL
