MODEL 1
REMARK VINA RESULT: -5.449302933      0.000      0.000
REMARK  0 active torsions:
REMARK  status: ('A' for Active; 'I' for Inactive)
ROOT
HETATM    1 CL1  UNL     1      68.829  37.919   1.317  1.00  0.00    -0.116 Cl
HETATM    2  C1  UNL     1      68.192  38.281  -0.295  1.00  0.00     0.161 C 
HETATM    3  C2  UNL     1      66.740  38.009  -0.340  1.00  0.00     0.106 C 
HETATM    4  C3  UNL     1      66.038  38.765  -1.149  1.00  0.00     0.137 C 
HETATM    5  O1  UNL     1      64.679  38.614  -1.289  1.00  0.00    -0.340 OA
HETATM    6  C4  UNL     1      63.853  37.783  -0.500  1.00  0.00     0.203 C 
HETATM    7  C5  UNL     1      64.625  37.283   0.707  1.00  0.00     0.202 C 
HETATM    8  O2  UNL     1      65.972  37.041   0.365  1.00  0.00    -0.348 OA
HETATM    9  S1  UNL     1      67.214  39.918  -1.928  1.00  0.00    -0.091 SA
HETATM   10  C6  UNL     1      68.460  39.725  -0.573  1.00  0.00     0.037 C 
HETATM   11  C7  UNL     1      69.787  40.010  -1.174  1.00  0.00     0.023 C 
HETATM   12  C8  UNL     1      69.717  41.423  -1.759  1.00  0.00     0.002 C 
HETATM   13  C9  UNL     1      69.278  42.419  -0.718  1.00  0.00     0.000 C 
HETATM   14  C10 UNL     1      67.996  42.047  -0.037  1.00  0.00     0.002 C 
HETATM   15  C11 UNL     1      68.179  40.645   0.560  1.00  0.00     0.023 C 
ENDROOT
TORSDOF 0
ENDMDL
MODEL 2
REMARK VINA RESULT: -5.032688124      3.208      4.867
REMARK  0 active torsions:
REMARK  status: ('A' for Active; 'I' for Inactive)
ROOT
HETATM    1 CL1  UNL     1      69.615  38.260   1.939  1.00  0.00    -0.116 Cl
HETATM    2  C1  UNL     1      70.106  39.577   0.862  1.00  0.00     0.161 C 
HETATM    3  C2  UNL     1      71.148  39.106  -0.073  1.00  0.00     0.106 C 
HETATM    4  C3  UNL     1      71.159  39.673  -1.256  1.00  0.00     0.137 C 
HETATM    5  O1  UNL     1      72.079  39.331  -2.218  1.00  0.00    -0.340 OA
HETATM    6  C4  UNL     1      72.992  38.255  -2.145  1.00  0.00     0.203 C 
HETATM    7  C5  UNL     1      72.637  37.356  -0.975  1.00  0.00     0.202 C 
HETATM    8  O2  UNL     1      72.158  38.120   0.108  1.00  0.00    -0.348 OA
HETATM    9  S1  UNL     1      69.793  40.880  -1.261  1.00  0.00    -0.091 SA
HETATM   10  C6  UNL     1      68.893  40.022   0.110  1.00  0.00     0.037 C 
HETATM   11  C7  UNL     1      68.078  41.057   0.795  1.00  0.00     0.023 C 
HETATM   12  C8  UNL     1      67.159  41.673  -0.264  1.00  0.00     0.002 C 
HETATM   13  C9  UNL     1      66.356  40.611  -0.967  1.00  0.00     0.000 C 
HETATM   14  C10 UNL     1      67.192  39.510  -1.545  1.00  0.00     0.002 C 
HETATM   15  C11 UNL     1      68.036  38.924  -0.405  1.00  0.00     0.023 C 
ENDROOT
TORSDOF 0
ENDMDL
MODEL 3
REMARK VINA RESULT: -4.964295200      3.103      4.230
REMARK  0 active torsions:
REMARK  status: ('A' for Active; 'I' for Inactive)
ROOT
HETATM    1 CL1  UNL     1      71.457  41.105   0.197  1.00  0.00    -0.116 Cl
HETATM    2  C1  UNL     1      70.515  39.655  -0.185  1.00  0.00     0.161 C 
HETATM    3  C2  UNL     1      70.576  38.699   0.941  1.00  0.00     0.106 C 
HETATM    4  C3  UNL     1      69.517  37.945   1.113  1.00  0.00     0.137 C 
HETATM    5  O1  UNL     1      69.445  37.012   2.120  1.00  0.00    -0.340 OA
HETATM    6  C4  UNL     1      70.378  36.852   3.168  1.00  0.00     0.203 C 
HETATM    7  C5  UNL     1      71.334  38.030   3.192  1.00  0.00     0.202 C 
HETATM    8  O2  UNL     1      71.617  38.464   1.881  1.00  0.00    -0.348 OA
HETATM    9  S1  UNL     1      68.328  38.421  -0.184  1.00  0.00    -0.091 SA
HETATM   10  C6  UNL     1      69.104  40.084  -0.429  1.00  0.00     0.037 C 
HETATM   11  C7  UNL     1      68.805  40.488  -1.826  1.00  0.00     0.023 C 
HETATM   12  C8  UNL     1      67.282  40.484  -1.975  1.00  0.00     0.002 C 
HETATM   13  C9  UNL     1      66.632  41.345  -0.926  1.00  0.00     0.000 C 
HETATM   14  C10 UNL     1      67.043  40.997   0.474  1.00  0.00     0.002 C 
HETATM   15  C11 UNL     1      68.574  41.079   0.539  1.00  0.00     0.023 C 
ENDROOT
TORSDOF 0
ENDMDL
MODEL 4
REMARK VINA RESULT: -4.904110479      2.620      3.130
REMARK  0 active torsions:
REMARK  status: ('A' for Active; 'I' for Inactive)
ROOT
HETATM    1 CL1  UNL     1      70.442  36.955  -0.999  1.00  0.00    -0.116 Cl
HETATM    2  C1  UNL     1      69.984  38.663  -0.919  1.00  0.00     0.161 C 
HETATM    3  C2  UNL     1      68.513  38.791  -0.853  1.00  0.00     0.106 C 
HETATM    4  C3  UNL     1      68.055  39.822  -0.184  1.00  0.00     0.137 C 
HETATM    5  O1  UNL     1      66.708  40.061  -0.050  1.00  0.00    -0.340 OA
HETATM    6  C4  UNL     1      65.669  39.188  -0.443  1.00  0.00     0.203 C 
HETATM    7  C5  UNL     1      66.242  37.826  -0.786  1.00  0.00     0.202 C 
HETATM    8  O2  UNL     1      67.500  37.961  -1.408  1.00  0.00    -0.348 OA
HETATM    9  S1  UNL     1      69.512  40.725   0.434  1.00  0.00    -0.091 SA
HETATM   10  C6  UNL     1      70.613  39.242   0.307  1.00  0.00     0.037 C 
HETATM   11  C7  UNL     1      71.994  39.755   0.119  1.00  0.00     0.023 C 
HETATM   12  C8  UNL     1      72.301  40.658   1.317  1.00  0.00     0.002 C 
HETATM   13  C9  UNL     1      72.078  39.930   2.615  1.00  0.00     0.000 C 
HETATM   14  C10 UNL     1      70.716  39.315   2.732  1.00  0.00     0.002 C 
HETATM   15  C11 UNL     1      70.521  38.392   1.522  1.00  0.00     0.023 C 
ENDROOT
TORSDOF 0
ENDMDL
MODEL 5
REMARK VINA RESULT: -4.838046580      3.755      5.458
REMARK  0 active torsions:
REMARK  status: ('A' for Active; 'I' for Inactive)
ROOT
HETATM    1 CL1  UNL     1      71.371  39.959  -1.716  1.00  0.00    -0.116 Cl
HETATM    2  C1  UNL     1      70.794  38.968  -0.367  1.00  0.00     0.161 C 
HETATM    3  C2  UNL     1      71.479  39.362   0.881  1.00  0.00     0.106 C 
HETATM    4  C3  UNL     1      70.785  39.226   1.986  1.00  0.00     0.137 C 
HETATM    5  O1  UNL     1      71.305  39.551   3.216  1.00  0.00    -0.340 OA
HETATM    6  C4  UNL     1      72.535  40.206   3.447  1.00  0.00     0.203 C 
HETATM    7  C5  UNL     1      73.083  40.751   2.142  1.00  0.00     0.202 C 
HETATM    8  O2  UNL     1      72.792  39.872   1.078  1.00  0.00    -0.348 OA
HETATM    9  S1  UNL     1      69.156  38.573   1.494  1.00  0.00    -0.091 SA
HETATM   10  C6  UNL     1      69.320  39.186  -0.244  1.00  0.00     0.037 C 
HETATM   11  C7  UNL     1      68.483  38.296  -1.088  1.00  0.00     0.023 C 
HETATM   12  C8  UNL     1      67.057  38.368  -0.534  1.00  0.00     0.002 C 
HETATM   13  C9  UNL     1      66.575  39.792  -0.462  1.00  0.00     0.000 C 
HETATM   14  C10 UNL     1      67.499  40.701   0.292  1.00  0.00     0.002 C 
HETATM   15  C11 UNL     1      68.882  40.601  -0.365  1.00  0.00     0.023 C 
ENDROOT
TORSDOF 0
ENDMDL
