MODEL 1
REMARK VINA RESULT: -6.194132866      0.000      0.000
REMARK  0 active torsions:
REMARK  status: ('A' for Active; 'I' for Inactive)
ROOT
HETATM    1  N1  UNL     1      72.125  39.159   3.947  1.00  0.00    -0.189 NA
HETATM    2  C1  UNL     1      71.325  39.060   3.120  1.00  0.00     0.125 C 
HETATM    3  C2  UNL     1      70.320  38.911   2.082  1.00  0.00     0.156 A 
HETATM    4  N2  UNL     1      69.683  39.812   1.400  1.00  0.00    -0.344 N 
ATOM      5  H2  UNL     1      69.877  40.798   1.574  1.00  0.00     0.167 HD
HETATM    6  C3  UNL     1      68.805  39.488   0.499  1.00  0.00     0.036 A 
HETATM    7  C4  UNL     1      68.576  38.151   0.294  1.00  0.00     0.011 A 
HETATM    8  S1  UNL     1      69.650  37.457   1.424  1.00  0.00    -0.064 SA
HETATM    9  C5  UNL     1      67.539  37.942  -0.769  1.00  0.00     0.086 C 
HETATM   10  C6  UNL     1      66.796  39.272  -0.634  1.00  0.00     0.189 C 
HETATM   11  F1  UNL     1      66.015  39.410  -1.725  1.00  0.00    -0.248 F 
HETATM   12  C7  UNL     1      67.906  40.224  -0.464  1.00  0.00     0.038 C 
HETATM   13  C8  UNL     1      67.481  41.569   0.109  1.00  0.00     0.023 C 
HETATM   14  C9  UNL     1      68.094  42.561  -0.843  1.00  0.00    -0.013 C 
HETATM   15  C10 UNL     1      69.618  42.509  -0.777  1.00  0.00     0.005 C 
HETATM   16  C11 UNL     1      69.979  41.194  -1.460  1.00  0.00     0.006 C 
HETATM   17  C12 UNL     1      68.644  40.552  -1.737  1.00  0.00     0.003 C 
HETATM   18  C13 UNL     1      67.894  41.817  -2.176  1.00  0.00     0.010 C 
ENDROOT
TORSDOF 0
ENDMDL
MODEL 2
REMARK VINA RESULT: -6.160370822      2.030      3.722
REMARK  0 active torsions:
REMARK  status: ('A' for Active; 'I' for Inactive)
ROOT
HETATM    1  N1  UNL     1      70.847  35.555   2.389  1.00  0.00    -0.189 NA
HETATM    2  C1  UNL     1      70.275  36.443   1.922  1.00  0.00     0.125 C 
HETATM    3  C2  UNL     1      69.574  37.577   1.346  1.00  0.00     0.156 A 
HETATM    4  N2  UNL     1      68.526  37.610   0.581  1.00  0.00    -0.344 N 
ATOM      5  H2  UNL     1      68.080  36.734   0.309  1.00  0.00     0.167 HD
HETATM    6  C3  UNL     1      68.031  38.733   0.155  1.00  0.00     0.036 A 
HETATM    7  C4  UNL     1      68.660  39.887   0.545  1.00  0.00     0.011 A 
HETATM    8  S1  UNL     1      69.926  39.264   1.504  1.00  0.00    -0.064 SA
HETATM    9  C5  UNL     1      67.974  41.091  -0.029  1.00  0.00     0.086 C 
HETATM   10  C6  UNL     1      67.342  40.435  -1.257  1.00  0.00     0.189 C 
HETATM   11  F1  UNL     1      66.418  41.290  -1.740  1.00  0.00    -0.248 F 
HETATM   12  C7  UNL     1      66.866  39.155  -0.707  1.00  0.00     0.038 C 
HETATM   13  C8  UNL     1      66.564  38.104  -1.766  1.00  0.00     0.023 C 
HETATM   14  C9  UNL     1      65.182  37.631  -1.400  1.00  0.00    -0.013 C 
HETATM   15  C10 UNL     1      65.190  36.917  -0.051  1.00  0.00     0.005 C 
HETATM   16  C11 UNL     1      65.388  38.037   0.965  1.00  0.00     0.006 C 
HETATM   17  C12 UNL     1      65.608  39.262   0.116  1.00  0.00     0.003 C 
HETATM   18  C13 UNL     1      64.549  38.963  -0.954  1.00  0.00     0.010 C 
ENDROOT
TORSDOF 0
ENDMDL
MODEL 3
REMARK VINA RESULT: -5.738722091      2.347      2.842
REMARK  0 active torsions:
REMARK  status: ('A' for Active; 'I' for Inactive)
ROOT
HETATM    1  N1  UNL     1      74.325  42.015  -1.035  1.00  0.00    -0.189 NA
HETATM    2  C1  UNL     1      73.380  41.352  -0.983  1.00  0.00     0.125 C 
HETATM    3  C2  UNL     1      72.207  40.499  -0.923  1.00  0.00     0.156 A 
HETATM    4  N2  UNL     1      70.979  40.787  -0.621  1.00  0.00    -0.344 N 
ATOM      5  H2  UNL     1      70.738  41.748  -0.379  1.00  0.00     0.167 HD
HETATM    6  C3  UNL     1      70.048  39.881  -0.620  1.00  0.00     0.036 A 
HETATM    7  C4  UNL     1      70.414  38.601  -0.953  1.00  0.00     0.011 A 
HETATM    8  S1  UNL     1      72.084  38.802  -1.244  1.00  0.00    -0.064 SA
HETATM    9  C5  UNL     1      69.235  37.676  -0.903  1.00  0.00     0.086 C 
HETATM   10  C6  UNL     1      68.377  38.448   0.101  1.00  0.00     0.189 C 
HETATM   11  F1  UNL     1      67.131  37.936   0.044  1.00  0.00    -0.248 F 
HETATM   12  C7  UNL     1      68.565  39.838  -0.343  1.00  0.00     0.038 C 
HETATM   13  C8  UNL     1      68.177  40.877   0.700  1.00  0.00     0.023 C 
HETATM   14  C9  UNL     1      67.270  41.809  -0.059  1.00  0.00    -0.013 C 
HETATM   15  C10 UNL     1      68.038  42.543  -1.154  1.00  0.00     0.005 C 
HETATM   16  C11 UNL     1      68.299  41.474  -2.210  1.00  0.00     0.006 C 
HETATM   17  C12 UNL     1      67.783  40.207  -1.578  1.00  0.00     0.003 C 
HETATM   18  C13 UNL     1      66.517  40.796  -0.941  1.00  0.00     0.010 C 
ENDROOT
TORSDOF 0
ENDMDL
MODEL 4
REMARK VINA RESULT: -5.676914046      2.880      4.462
REMARK  0 active torsions:
REMARK  status: ('A' for Active; 'I' for Inactive)
ROOT
HETATM    1  N1  UNL     1      64.349  35.569   1.326  1.00  0.00    -0.189 NA
HETATM    2  C1  UNL     1      64.960  36.426   0.849  1.00  0.00     0.125 C 
HETATM    3  C2  UNL     1      65.707  37.509   0.236  1.00  0.00     0.156 A 
HETATM    4  N2  UNL     1      66.917  37.921   0.460  1.00  0.00    -0.344 N 
ATOM      5  H2  UNL     1      67.481  37.449   1.166  1.00  0.00     0.167 HD
HETATM    6  C3  UNL     1      67.426  38.920  -0.196  1.00  0.00     0.036 A 
HETATM    7  C4  UNL     1      66.635  39.526  -1.138  1.00  0.00     0.011 A 
HETATM    8  S1  UNL     1      65.205  38.604  -1.008  1.00  0.00    -0.064 SA
HETATM    9  C5  UNL     1      67.362  40.658  -1.801  1.00  0.00     0.086 C 
HETATM   10  C6  UNL     1      68.346  40.991  -0.679  1.00  0.00     0.189 C 
HETATM   11  F1  UNL     1      69.302  41.784  -1.204  1.00  0.00    -0.248 F 
HETATM   12  C7  UNL     1      68.747  39.652  -0.218  1.00  0.00     0.038 C 
HETATM   13  C8  UNL     1      69.397  39.642   1.158  1.00  0.00     0.023 C 
HETATM   14  C9  UNL     1      70.660  38.852   0.939  1.00  0.00    -0.013 C 
HETATM   15  C10 UNL     1      70.341  37.402   0.587  1.00  0.00     0.005 C 
HETATM   16  C11 UNL     1      69.797  37.473  -0.836  1.00  0.00     0.006 C 
HETATM   17  C12 UNL     1      69.727  38.951  -1.124  1.00  0.00     0.003 C 
HETATM   18  C13 UNL     1      71.053  39.352  -0.464  1.00  0.00     0.010 C 
ENDROOT
TORSDOF 0
ENDMDL
MODEL 5
REMARK VINA RESULT: -5.576709563      3.228      5.814
REMARK  0 active torsions:
REMARK  status: ('A' for Active; 'I' for Inactive)
ROOT
HETATM    1  N1  UNL     1      65.635  37.509  -1.276  1.00  0.00    -0.189 NA
HETATM    2  C1  UNL     1      66.621  37.891  -0.811  1.00  0.00     0.125 C 
HETATM    3  C2  UNL     1      67.858  38.394  -0.240  1.00  0.00     0.156 A 
HETATM    4  N2  UNL     1      68.653  37.857   0.634  1.00  0.00    -0.344 N 
ATOM      5  H2  UNL     1      68.426  36.940   1.016  1.00  0.00     0.167 HD
HETATM    6  C3  UNL     1      69.731  38.462   1.033  1.00  0.00     0.036 A 
HETATM    7  C4  UNL     1      70.000  39.694   0.493  1.00  0.00     0.011 A 
HETATM    8  S1  UNL     1      68.669  39.890  -0.557  1.00  0.00    -0.064 SA
HETATM    9  C5  UNL     1      71.270  40.260   1.055  1.00  0.00     0.086 C 
HETATM   10  C6  UNL     1      71.285  39.514   2.391  1.00  0.00     0.189 C 
HETATM   11  F1  UNL     1      72.521  39.651   2.914  1.00  0.00    -0.248 F 
HETATM   12  C7  UNL     1      70.860  38.163   1.990  1.00  0.00     0.038 C 
HETATM   13  C8  UNL     1      70.377  37.301   3.148  1.00  0.00     0.023 C 
HETATM   14  C9  UNL     1      71.155  36.023   2.976  1.00  0.00    -0.013 C 
HETATM   15  C10 UNL     1      70.752  35.309   1.689  1.00  0.00     0.005 C 
HETATM   16  C11 UNL     1      71.356  36.164   0.580  1.00  0.00     0.006 C 
HETATM   17  C12 UNL     1      71.932  37.350   1.310  1.00  0.00     0.003 C 
HETATM   18  C13 UNL     1      72.510  36.591   2.512  1.00  0.00     0.010 C 
ENDROOT
TORSDOF 0
ENDMDL
