MODEL 1
REMARK VINA RESULT: -4.303688857      0.000      0.000
REMARK  0 active torsions:
REMARK  status: ('A' for Active; 'I' for Inactive)
ROOT
HETATM    1  C1  UNL     1      67.476  38.078  -1.219  1.00  0.00     0.065 C 
HETATM    2  C2  UNL     1      68.523  38.499  -0.261  1.00  0.00     0.004 C 
HETATM    3  N1  UNL     1      69.371  37.589   0.017  1.00  0.00    -0.386 N 
ATOM      4  H1  UNL     1      69.187  36.713  -0.472  1.00  0.00     0.160 HD
HETATM    5  C3  UNL     1      70.513  37.522   0.855  1.00  0.00     0.032 C 
HETATM    6  C4  UNL     1      70.953  36.049   0.879  1.00  0.00     0.039 C 
HETATM    7  C5  UNL     1      70.223  37.900   2.278  1.00  0.00     0.039 C 
HETATM    8  C6  UNL     1      71.710  38.256   0.284  1.00  0.00     0.116 C 
HETATM    9  S1  UNL     1      71.639  40.026   0.510  1.00  0.00    -0.094 SA
HETATM   10  S2  UNL     1      69.896  40.769  -0.500  1.00  0.00    -0.075 SA
HETATM   11  C7  UNL     1      68.491  39.860   0.257  1.00  0.00     0.174 C 
HETATM   12 BR1  UNL     1      66.829  40.771  -0.113  1.00  0.00    -0.072 Br
ENDROOT
TORSDOF 0
ENDMDL
MODEL 2
REMARK VINA RESULT: -4.287839908      3.041      4.651
REMARK  0 active torsions:
REMARK  status: ('A' for Active; 'I' for Inactive)
ROOT
HETATM    1  C1  UNL     1      71.517  40.870   0.144  1.00  0.00     0.065 C 
HETATM    2  C2  UNL     1      70.069  40.577   0.244  1.00  0.00     0.004 C 
HETATM    3  N1  UNL     1      69.358  41.157  -0.641  1.00  0.00    -0.386 N 
ATOM      4  H1  UNL     1      69.909  41.732  -1.278  1.00  0.00     0.160 HD
HETATM    5  C3  UNL     1      67.972  41.182  -0.936  1.00  0.00     0.032 C 
HETATM    6  C4  UNL     1      67.773  42.258  -2.016  1.00  0.00     0.039 C 
HETATM    7  C5  UNL     1      67.127  41.594   0.234  1.00  0.00     0.039 C 
HETATM    8  C6  UNL     1      67.483  39.906  -1.593  1.00  0.00     0.116 C 
HETATM    9  S1  UNL     1      67.222  38.564  -0.443  1.00  0.00    -0.094 SA
HETATM   10  S2  UNL     1      69.091  38.114   0.510  1.00  0.00    -0.075 SA
HETATM   11  C7  UNL     1      69.607  39.689   1.301  1.00  0.00     0.174 C 
HETATM   12 BR1  UNL     1      70.950  39.352   2.648  1.00  0.00    -0.072 Br
ENDROOT
TORSDOF 0
ENDMDL
MODEL 3
REMARK VINA RESULT: -3.930349723      3.336      4.533
REMARK  0 active torsions:
REMARK  status: ('A' for Active; 'I' for Inactive)
ROOT
HETATM    1  C1  UNL     1      70.631  34.570   2.253  1.00  0.00     0.065 C 
HETATM    2  C2  UNL     1      71.035  35.954   1.916  1.00  0.00     0.004 C 
HETATM    3  N1  UNL     1      70.315  36.503   1.019  1.00  0.00    -0.386 N 
ATOM      4  H1  UNL     1      69.571  35.893   0.679  1.00  0.00     0.160 HD
HETATM    5  C3  UNL     1      70.317  37.773   0.388  1.00  0.00     0.032 C 
HETATM    6  C4  UNL     1      69.294  37.694  -0.757  1.00  0.00     0.039 C 
HETATM    7  C5  UNL     1      71.634  38.115  -0.243  1.00  0.00     0.039 C 
HETATM    8  C6  UNL     1      69.788  38.878   1.281  1.00  0.00     0.116 C 
HETATM    9  S1  UNL     1      70.978  39.463   2.477  1.00  0.00    -0.094 SA
HETATM   10  S2  UNL     1      71.521  37.823   3.751  1.00  0.00    -0.075 SA
HETATM   11  C7  UNL     1      72.173  36.539   2.611  1.00  0.00     0.174 C 
HETATM   12 BR1  UNL     1      73.211  35.238   3.593  1.00  0.00    -0.072 Br
ENDROOT
TORSDOF 0
ENDMDL
MODEL 4
REMARK VINA RESULT: -3.903822591      2.254      4.109
REMARK  0 active torsions:
REMARK  status: ('A' for Active; 'I' for Inactive)
ROOT
HETATM    1  C1  UNL     1      69.545  37.715   1.664  1.00  0.00     0.065 C 
HETATM    2  C2  UNL     1      68.783  38.270   0.523  1.00  0.00     0.004 C 
HETATM    3  N1  UNL     1      67.565  37.898   0.480  1.00  0.00    -0.386 N 
ATOM      4  H1  UNL     1      67.314  37.274   1.248  1.00  0.00     0.160 HD
HETATM    5  C3  UNL     1      66.481  38.157  -0.396  1.00  0.00     0.032 C 
HETATM    6  C4  UNL     1      65.341  37.215   0.027  1.00  0.00     0.039 C 
HETATM    7  C5  UNL     1      66.790  37.832  -1.828  1.00  0.00     0.039 C 
HETATM    8  C6  UNL     1      65.896  39.545  -0.221  1.00  0.00     0.116 C 
HETATM    9  S1  UNL     1      66.853  40.829  -1.013  1.00  0.00    -0.094 SA
HETATM   10  S2  UNL     1      68.814  40.849  -0.140  1.00  0.00    -0.075 SA
HETATM   11  C7  UNL     1      69.467  39.154  -0.411  1.00  0.00     0.174 C 
HETATM   12 BR1  UNL     1      71.387  39.137  -0.203  1.00  0.00    -0.072 Br
ENDROOT
TORSDOF 0
ENDMDL
MODEL 5
REMARK VINA RESULT: -3.899245590      2.329      2.985
REMARK  0 active torsions:
REMARK  status: ('A' for Active; 'I' for Inactive)
ROOT
HETATM    1  C1  UNL     1      70.845  37.237  -1.288  1.00  0.00     0.065 C 
HETATM    2  C2  UNL     1      70.721  36.970   0.163  1.00  0.00     0.004 C 
HETATM    3  N1  UNL     1      71.588  36.154   0.617  1.00  0.00    -0.386 N 
ATOM      4  H1  UNL     1      72.230  35.817  -0.100  1.00  0.00     0.160 HD
HETATM    5  C3  UNL     1      71.858  35.609   1.898  1.00  0.00     0.032 C 
HETATM    6  C4  UNL     1      72.925  34.520   1.694  1.00  0.00     0.039 C 
HETATM    7  C5  UNL     1      70.670  34.928   2.511  1.00  0.00     0.039 C 
HETATM    8  C6  UNL     1      72.518  36.600   2.836  1.00  0.00     0.116 C 
HETATM    9  S1  UNL     1      71.375  37.764   3.565  1.00  0.00    -0.094 SA
HETATM   10  S2  UNL     1      70.460  38.894   1.986  1.00  0.00    -0.075 SA
HETATM   11  C7  UNL     1      69.664  37.638   0.909  1.00  0.00     0.174 C 
HETATM   12 BR1  UNL     1      68.344  38.472  -0.228  1.00  0.00    -0.072 Br
ENDROOT
TORSDOF 0
ENDMDL
