MODEL 1
REMARK VINA RESULT: -6.533907030      0.000      0.000
REMARK  0 active torsions:
REMARK  status: ('A' for Active; 'I' for Inactive)
ROOT
HETATM    1  F1  UNL     1      68.464  37.459  -2.031  1.00  0.00    -0.211 F 
HETATM    2  C1  UNL     1      67.481  37.993  -1.227  1.00  0.00     0.098 C 
HETATM    3  C2  UNL     1      66.279  37.453  -1.319  1.00  0.00     0.081 C 
HETATM    4  C3  UNL     1      65.056  37.833  -0.575  1.00  0.00     0.218 C 
HETATM    5  C4  UNL     1      63.846  37.074  -0.989  1.00  0.00     0.078 C 
HETATM    6  C5  UNL     1      63.072  36.992   0.313  1.00  0.00     0.032 C 
HETATM    7  C6  UNL     1      64.156  37.086   1.334  1.00  0.00     0.172 C 
HETATM    8  O1  UNL     1      65.280  37.606   0.762  1.00  0.00    -0.350 OA
HETATM    9  O2  UNL     1      64.894  39.226  -0.763  1.00  0.00    -0.195 OA
HETATM   10  O3  UNL     1      65.641  39.810   0.115  1.00  0.00    -0.226 OA
HETATM   11  C7  UNL     1      66.872  40.216  -0.335  1.00  0.00     0.102 C 
HETATM   12  C8  UNL     1      67.364  41.291   0.625  1.00  0.00     0.041 C 
HETATM   13  C9  UNL     1      68.749  41.737   0.268  1.00  0.00     0.003 C 
HETATM   14  C10 UNL     1      68.867  42.184  -1.153  1.00  0.00     0.000 C 
HETATM   15  C11 UNL     1      68.139  41.351  -2.138  1.00  0.00     0.003 C 
HETATM   16  C12 UNL     1      66.812  40.847  -1.702  1.00  0.00     0.041 C 
HETATM   17  C13 UNL     1      67.907  39.121  -0.352  1.00  0.00     0.111 C 
ENDROOT
TORSDOF 0
ENDMDL
MODEL 2
REMARK VINA RESULT: -6.408281803      3.694      4.924
REMARK  0 active torsions:
REMARK  status: ('A' for Active; 'I' for Inactive)
ROOT
HETATM    1  F1  UNL     1      70.637  37.086  -2.070  1.00  0.00    -0.211 F 
HETATM    2  C1  UNL     1      70.470  37.520  -0.773  1.00  0.00     0.098 C 
HETATM    3  C2  UNL     1      70.704  36.641   0.184  1.00  0.00     0.081 C 
HETATM    4  C3  UNL     1      70.600  36.845   1.647  1.00  0.00     0.218 C 
HETATM    5  C4  UNL     1      70.848  35.612   2.441  1.00  0.00     0.078 C 
HETATM    6  C5  UNL     1      71.489  36.176   3.695  1.00  0.00     0.032 C 
HETATM    7  C6  UNL     1      72.100  37.443   3.199  1.00  0.00     0.172 C 
HETATM    8  O1  UNL     1      71.524  37.795   2.013  1.00  0.00    -0.350 OA
HETATM    9  O2  UNL     1      69.309  37.372   1.884  1.00  0.00    -0.195 OA
HETATM   10  O3  UNL     1      69.385  38.647   1.685  1.00  0.00    -0.226 OA
HETATM   11  C7  UNL     1      68.983  39.075   0.445  1.00  0.00     0.102 C 
HETATM   12  C8  UNL     1      68.654  40.556   0.570  1.00  0.00     0.041 C 
HETATM   13  C9  UNL     1      68.289  41.140  -0.760  1.00  0.00     0.003 C 
HETATM   14  C10 UNL     1      67.186  40.395  -1.440  1.00  0.00     0.000 C 
HETATM   15  C11 UNL     1      67.266  38.919  -1.336  1.00  0.00     0.003 C 
HETATM   16  C12 UNL     1      67.729  38.388  -0.029  1.00  0.00     0.041 C 
HETATM   17  C13 UNL     1      70.041  38.939  -0.620  1.00  0.00     0.111 C 
ENDROOT
TORSDOF 0
ENDMDL
MODEL 3
REMARK VINA RESULT: -6.120126627      1.796      2.698
REMARK  0 active torsions:
REMARK  status: ('A' for Active; 'I' for Inactive)
ROOT
HETATM    1  F1  UNL     1      69.677  39.745   1.533  1.00  0.00    -0.211 F 
HETATM    2  C1  UNL     1      68.679  39.965   0.609  1.00  0.00     0.098 C 
HETATM    3  C2  UNL     1      67.967  38.915   0.241  1.00  0.00     0.081 C 
HETATM    4  C3  UNL     1      66.848  38.874  -0.727  1.00  0.00     0.218 C 
HETATM    5  C4  UNL     1      66.324  37.505  -0.978  1.00  0.00     0.078 C 
HETATM    6  C5  UNL     1      64.854  37.778  -1.234  1.00  0.00     0.032 C 
HETATM    7  C6  UNL     1      64.629  39.044  -0.478  1.00  0.00     0.172 C 
HETATM    8  O1  UNL     1      65.826  39.650  -0.233  1.00  0.00    -0.350 OA
HETATM    9  O2  UNL     1      67.325  39.480  -1.913  1.00  0.00    -0.195 OA
HETATM   10  O3  UNL     1      67.184  40.756  -1.764  1.00  0.00    -0.226 OA
HETATM   11  C7  UNL     1      68.305  41.428  -1.348  1.00  0.00     0.102 C 
HETATM   12  C8  UNL     1      68.110  42.891  -1.722  1.00  0.00     0.041 C 
HETATM   13  C9  UNL     1      69.249  43.729  -1.226  1.00  0.00     0.003 C 
HETATM   14  C10 UNL     1      70.581  43.226  -1.680  1.00  0.00     0.000 C 
HETATM   15  C11 UNL     1      70.745  41.753  -1.644  1.00  0.00     0.003 C 
HETATM   16  C12 UNL     1      69.555  40.962  -2.048  1.00  0.00     0.041 C 
HETATM   17  C13 UNL     1      68.534  41.372   0.140  1.00  0.00     0.111 C 
ENDROOT
TORSDOF 0
ENDMDL
MODEL 4
REMARK VINA RESULT: -6.025111148      3.499      4.779
REMARK  0 active torsions:
REMARK  status: ('A' for Active; 'I' for Inactive)
ROOT
HETATM    1  F1  UNL     1      67.957  37.675  -1.208  1.00  0.00    -0.211 F 
HETATM    2  C1  UNL     1      68.911  38.280  -0.421  1.00  0.00     0.098 C 
HETATM    3  C2  UNL     1      69.214  37.677   0.715  1.00  0.00     0.081 C 
HETATM    4  C3  UNL     1      70.195  38.110   1.736  1.00  0.00     0.218 C 
HETATM    5  C4  UNL     1      70.223  37.241   2.944  1.00  0.00     0.078 C 
HETATM    6  C5  UNL     1      71.682  37.324   3.351  1.00  0.00     0.032 C 
HETATM    7  C6  UNL     1      72.358  37.623   2.055  1.00  0.00     0.172 C 
HETATM    8  O1  UNL     1      71.444  38.100   1.161  1.00  0.00    -0.350 OA
HETATM    9  O2  UNL     1      69.870  39.448   2.058  1.00  0.00    -0.195 OA
HETATM   10  O3  UNL     1      70.432  40.194   1.165  1.00  0.00    -0.226 OA
HETATM   11  C7  UNL     1      69.622  40.583   0.128  1.00  0.00     0.102 C 
HETATM   12  C8  UNL     1      70.263  41.813  -0.500  1.00  0.00     0.041 C 
HETATM   13  C9  UNL     1      69.497  42.263  -1.705  1.00  0.00     0.003 C 
HETATM   14  C10 UNL     1      68.047  42.492  -1.421  1.00  0.00     0.000 C 
HETATM   15  C11 UNL     1      67.412  41.485  -0.538  1.00  0.00     0.003 C 
HETATM   16  C12 UNL     1      68.247  40.993   0.586  1.00  0.00     0.041 C 
HETATM   17  C13 UNL     1      69.481  39.547  -0.958  1.00  0.00     0.111 C 
ENDROOT
TORSDOF 0
ENDMDL
MODEL 5
REMARK VINA RESULT: -5.931814496      3.936      5.667
REMARK  0 active torsions:
REMARK  status: ('A' for Active; 'I' for Inactive)
ROOT
HETATM    1  F1  UNL     1      69.872  39.493   2.676  1.00  0.00    -0.211 F 
HETATM    2  C1  UNL     1      70.015  38.765   1.516  1.00  0.00     0.098 C 
HETATM    3  C2  UNL     1      71.249  38.558   1.092  1.00  0.00     0.081 C 
HETATM    4  C3  UNL     1      71.679  37.815  -0.115  1.00  0.00     0.218 C 
HETATM    5  C4  UNL     1      73.148  37.851  -0.345  1.00  0.00     0.078 C 
HETATM    6  C5  UNL     1      73.393  36.497  -0.986  1.00  0.00     0.032 C 
HETATM    7  C6  UNL     1      72.268  35.680  -0.445  1.00  0.00     0.172 C 
HETATM    8  O1  UNL     1      71.289  36.504   0.027  1.00  0.00    -0.350 OA
HETATM    9  O2  UNL     1      70.963  38.372  -1.200  1.00  0.00    -0.195 OA
HETATM   10  O3  UNL     1      69.809  37.791  -1.223  1.00  0.00    -0.226 OA
HETATM   11  C7  UNL     1      68.790  38.479  -0.613  1.00  0.00     0.102 C 
HETATM   12  C8  UNL     1      67.485  37.930  -1.172  1.00  0.00     0.041 C 
HETATM   13  C9  UNL     1      66.305  38.559  -0.498  1.00  0.00     0.003 C 
HETATM   14  C10 UNL     1      66.332  40.053  -0.551  1.00  0.00     0.000 C 
HETATM   15  C11 UNL     1      67.662  40.667  -0.324  1.00  0.00     0.003 C 
HETATM   16  C12 UNL     1      68.814  39.952  -0.928  1.00  0.00     0.041 C 
HETATM   17  C13 UNL     1      68.747  38.305   0.883  1.00  0.00     0.111 C 
ENDROOT
TORSDOF 0
ENDMDL
