MODEL 1
REMARK VINA RESULT: -5.240067676      0.000      0.000
REMARK  0 active torsions:
REMARK  status: ('A' for Active; 'I' for Inactive)
ROOT
HETATM    1  C1  UNL     1      70.751  39.010   2.844  1.00  0.00     0.043 C 
HETATM    2  C2  UNL     1      69.709  38.299   2.077  1.00  0.00     0.158 C 
HETATM    3  O1  UNL     1      69.713  36.931   2.294  1.00  0.00    -0.274 OA
HETATM    4  N1  UNL     1      70.560  36.160   1.543  1.00  0.00    -0.258 N 
ATOM      5  H1  UNL     1      70.809  35.229   1.877  1.00  0.00     0.195 HD
HETATM    6  C3  UNL     1      71.041  36.570   0.448  1.00  0.00     0.110 C 
HETATM    7 CL1  UNL     1      72.122  35.449  -0.404  1.00  0.00    -0.067 Cl
HETATM    8  C4  UNL     1      70.757  37.926  -0.165  1.00  0.00     0.019 C 
HETATM    9  C5  UNL     1      72.101  38.631  -0.204  1.00  0.00     0.023 C 
HETATM   10  C6  UNL     1      70.405  37.570  -1.589  1.00  0.00     0.023 C 
HETATM   11  C7  UNL     1      69.706  38.650   0.577  1.00  0.00     0.010 C 
HETATM   12  C8  UNL     1      69.781  40.134   0.585  1.00  0.00     0.015 C 
HETATM   13  C9  UNL     1      69.769  40.824  -0.719  1.00  0.00     0.011 C 
HETATM   14  C10 UNL     1      68.334  40.913  -1.248  1.00  0.00     0.074 C 
HETATM   15  S1  UNL     1      67.554  39.329  -1.044  1.00  0.00    -0.168 SA
HETATM   16  C11 UNL     1      68.350  38.216   0.083  1.00  0.00     0.087 C 
ENDROOT
TORSDOF 0
ENDMDL
MODEL 2
REMARK VINA RESULT: -4.837552566      2.447      3.229
REMARK  0 active torsions:
REMARK  status: ('A' for Active; 'I' for Inactive)
ROOT
HETATM    1  C1  UNL     1      68.155  40.675   0.378  1.00  0.00     0.043 C 
HETATM    2  C2  UNL     1      68.893  39.647  -0.382  1.00  0.00     0.158 C 
HETATM    3  O1  UNL     1      68.277  38.407  -0.358  1.00  0.00    -0.274 OA
HETATM    4  N1  UNL     1      68.538  37.576   0.699  1.00  0.00    -0.258 N 
ATOM      5  H1  UNL     1      67.890  36.816   0.904  1.00  0.00     0.195 HD
HETATM    6  C3  UNL     1      69.561  37.726   1.428  1.00  0.00     0.110 C 
HETATM    7 CL1  UNL     1      69.755  36.565   2.757  1.00  0.00    -0.067 Cl
HETATM    8  C4  UNL     1      70.605  38.807   1.240  1.00  0.00     0.019 C 
HETATM    9  C5  UNL     1      70.538  39.645   2.503  1.00  0.00     0.023 C 
HETATM   10  C6  UNL     1      71.895  38.026   1.296  1.00  0.00     0.023 C 
HETATM   11  C7  UNL     1      70.386  39.564  -0.010  1.00  0.00     0.010 C 
HETATM   12  C8  UNL     1      70.810  40.987  -0.024  1.00  0.00     0.015 C 
HETATM   13  C9  UNL     1      72.226  41.280   0.270  1.00  0.00     0.011 C 
HETATM   14  C10 UNL     1      73.079  41.028  -0.978  1.00  0.00     0.074 C 
HETATM   15  S1  UNL     1      72.595  39.474  -1.693  1.00  0.00    -0.168 SA
HETATM   16  C11 UNL     1      71.029  38.834  -1.160  1.00  0.00     0.087 C 
ENDROOT
TORSDOF 0
ENDMDL
MODEL 3
REMARK VINA RESULT: -4.785555044      2.808      4.063
REMARK  0 active torsions:
REMARK  status: ('A' for Active; 'I' for Inactive)
ROOT
HETATM    1  C1  UNL     1      69.898  37.831  -0.368  1.00  0.00     0.043 C 
HETATM    2  C2  UNL     1      71.319  37.563  -0.069  1.00  0.00     0.158 C 
HETATM    3  O1  UNL     1      71.742  36.321  -0.513  1.00  0.00    -0.274 OA
HETATM    4  N1  UNL     1      71.538  35.240   0.302  1.00  0.00    -0.258 N 
ATOM      5  H1  UNL     1      71.550  34.304  -0.104  1.00  0.00     0.195 HD
HETATM    6  C3  UNL     1      71.335  35.370   1.544  1.00  0.00     0.110 C 
HETATM    7 CL1  UNL     1      71.087  33.869   2.460  1.00  0.00    -0.067 Cl
HETATM    8  C4  UNL     1      71.291  36.694   2.278  1.00  0.00     0.019 C 
HETATM    9  C5  UNL     1      69.878  36.797   2.823  1.00  0.00     0.023 C 
HETATM   10  C6  UNL     1      72.201  36.442   3.455  1.00  0.00     0.023 C 
HETATM   11  C7  UNL     1      71.693  37.814   1.404  1.00  0.00     0.010 C 
HETATM   12  C8  UNL     1      71.084  39.141   1.678  1.00  0.00     0.015 C 
HETATM   13  C9  UNL     1      71.276  39.715   3.024  1.00  0.00     0.011 C 
HETATM   14  C10 UNL     1      72.668  40.348   3.125  1.00  0.00     0.074 C 
HETATM   15  S1  UNL     1      73.856  39.223   2.432  1.00  0.00    -0.168 SA
HETATM   16  C11 UNL     1      73.194  37.939   1.403  1.00  0.00     0.087 C 
ENDROOT
TORSDOF 0
ENDMDL
MODEL 4
REMARK VINA RESULT: -4.668377129      2.250      3.272
REMARK  0 active torsions:
REMARK  status: ('A' for Active; 'I' for Inactive)
ROOT
HETATM    1  C1  UNL     1      71.415  36.452  -0.862  1.00  0.00     0.043 C 
HETATM    2  C2  UNL     1      71.499  37.925  -0.895  1.00  0.00     0.158 C 
HETATM    3  O1  UNL     1      72.697  38.413  -0.400  1.00  0.00    -0.274 OA
HETATM    4  N1  UNL     1      72.808  38.601   0.952  1.00  0.00    -0.258 N 
ATOM      5  H1  UNL     1      73.736  38.658   1.370  1.00  0.00     0.195 HD
HETATM    6  C3  UNL     1      71.790  38.708   1.696  1.00  0.00     0.110 C 
HETATM    7 CL1  UNL     1      72.105  38.950   3.427  1.00  0.00    -0.067 Cl
HETATM    8  C4  UNL     1      70.357  38.644   1.213  1.00  0.00     0.019 C 
HETATM    9  C5  UNL     1      69.764  37.423   1.892  1.00  0.00     0.023 C 
HETATM   10  C6  UNL     1      69.740  39.855   1.867  1.00  0.00     0.023 C 
HETATM   11  C7  UNL     1      70.280  38.622  -0.262  1.00  0.00     0.010 C 
HETATM   12  C8  UNL     1      69.133  37.900  -0.871  1.00  0.00     0.015 C 
HETATM   13  C9  UNL     1      67.775  38.339  -0.498  1.00  0.00     0.011 C 
HETATM   14  C10 UNL     1      67.394  39.590  -1.297  1.00  0.00     0.074 C 
HETATM   15  S1  UNL     1      68.763  40.723  -1.266  1.00  0.00    -0.168 SA
HETATM   16  C11 UNL     1      70.326  40.032  -0.790  1.00  0.00     0.087 C 
ENDROOT
TORSDOF 0
ENDMDL
MODEL 5
REMARK VINA RESULT: -4.654704353      3.153      4.346
REMARK  0 active torsions:
REMARK  status: ('A' for Active; 'I' for Inactive)
ROOT
HETATM    1  C1  UNL     1      68.112  38.348  -1.153  1.00  0.00     0.043 C 
HETATM    2  C2  UNL     1      68.411  38.867   0.197  1.00  0.00     0.158 C 
HETATM    3  O1  UNL     1      67.869  40.120   0.430  1.00  0.00    -0.274 OA
HETATM    4  N1  UNL     1      68.584  41.218   0.029  1.00  0.00    -0.258 N 
ATOM      5  H1  UNL     1      68.099  42.106  -0.096  1.00  0.00     0.195 HD
HETATM    6  C3  UNL     1      69.828  41.160  -0.190  1.00  0.00     0.110 C 
HETATM    7 CL1  UNL     1      70.606  42.671  -0.703  1.00  0.00    -0.067 Cl
HETATM    8  C4  UNL     1      70.673  39.912  -0.045  1.00  0.00     0.019 C 
HETATM    9  C5  UNL     1      71.200  39.627  -1.439  1.00  0.00     0.023 C 
HETATM   10  C6  UNL     1      71.840  40.404   0.776  1.00  0.00     0.023 C 
HETATM   11  C7  UNL     1      69.907  38.803   0.559  1.00  0.00     0.010 C 
HETATM   12  C8  UNL     1      70.284  37.422   0.162  1.00  0.00     0.015 C 
HETATM   13  C9  UNL     1      71.678  37.000   0.401  1.00  0.00     0.011 C 
HETATM   14  C10 UNL     1      71.859  36.611   1.872  1.00  0.00     0.074 C 
HETATM   15  S1  UNL     1      71.092  37.853   2.887  1.00  0.00    -0.168 SA
HETATM   16  C11 UNL     1      69.944  38.923   2.061  1.00  0.00     0.087 C 
ENDROOT
TORSDOF 0
ENDMDL
