MODEL 1
REMARK VINA RESULT: -6.624669635      0.000      0.000
REMARK  5 active torsions:
REMARK  status: ('A' for Active; 'I' for Inactive)
REMARK    1  A    between atoms: O1_2  and  C2_3 
REMARK    2  A    between atoms: C4_5  and  C5_6 
REMARK    3  A    between atoms: C7_9  and  C8_10 
REMARK    4  A    between atoms: C15_23  and  O2_24 
REMARK    5  A    between atoms: C17_26  and  O3_27 
ROOT
HETATM    1  C5  UNL     1     -15.240  10.549  -6.878  1.00  0.00    -0.018 A 
HETATM    2  C6  UNL     1     -15.847  11.732  -6.499  1.00  0.00     0.062 A 
HETATM    3  S1  UNL     1     -14.880  12.915  -7.264  1.00  0.00    -0.103 SA
HETATM    4  C7  UNL     1     -13.756  11.913  -8.033  1.00  0.00     0.011 A 
HETATM    5  C13 UNL     1     -14.156  10.653  -7.680  1.00  0.00     0.029 A 
ENDROOT
BRANCH   1   6
HETATM    6  C4  UNL     1     -15.705   9.267  -6.265  1.00  0.00    -0.020 A 
HETATM    7  C3  UNL     1     -16.208   9.142  -5.012  1.00  0.00     0.052 A 
HETATM    8  C2  UNL     1     -16.739   7.949  -4.564  1.00  0.00     0.105 A 
HETATM    9  C17 UNL     1     -16.786   6.818  -5.377  1.00  0.00     0.135 A 
HETATM   10  C15 UNL     1     -16.268   6.939  -6.684  1.00  0.00     0.105 A 
HETATM   11  C14 UNL     1     -15.746   8.137  -7.092  1.00  0.00     0.052 A 
BRANCH   8  12
HETATM   12  O1  UNL     1     -17.258   7.801  -3.309  1.00  0.00    -0.353 OA
HETATM   13  C1  UNL     1     -16.856   8.595  -2.226  1.00  0.00     0.210 C 
ENDBRANCH   8  12
BRANCH   9  14
HETATM   14  O3  UNL     1     -17.281   5.612  -5.021  1.00  0.00    -0.351 OA
HETATM   15  C18 UNL     1     -16.715   4.560  -4.332  1.00  0.00     0.210 C 
ENDBRANCH   9  14
BRANCH  10  16
HETATM   16  O2  UNL     1     -16.326   5.805  -7.496  1.00  0.00    -0.353 OA
HETATM   17  C16 UNL     1     -17.330   5.881  -8.518  1.00  0.00     0.210 C 
ENDBRANCH  10  16
ENDBRANCH   1   6
BRANCH   4  18
HETATM   18  C8  UNL     1     -12.513  12.274  -8.835  1.00  0.00     0.063 C 
HETATM   19  C9  UNL     1     -11.397  12.433  -7.795  1.00  0.00     0.044 C 
HETATM   20  C10 UNL     1     -12.847  13.597  -9.492  1.00  0.00     0.047 C 
HETATM   21  C11 UNL     1     -11.698  14.165 -10.237  1.00  0.00     0.085 C 
HETATM   22  S2  UNL     1     -11.241  13.021 -11.550  1.00  0.00    -0.095 SA
HETATM   23  C12 UNL     1     -11.657  11.375 -11.013  1.00  0.00     0.134 C 
HETATM   24  N1  UNL     1     -11.494  10.347 -11.758  1.00  0.00    -0.380 N 
HETATM   25  N2  UNL     1     -12.191  11.212  -9.688  1.00  0.00    -0.357 N 
ATOM     26  H12 UNL     1     -11.115  10.464 -12.698  1.00  0.00     0.158 HD
ATOM     27  H11 UNL     1     -11.733   9.405 -11.450  1.00  0.00     0.158 HD
ATOM     28  H2  UNL     1     -12.345  10.263  -9.348  1.00  0.00     0.162 HD
ENDBRANCH   4  18
TORSDOF 5
ENDMDL
MODEL 2
REMARK VINA RESULT: -6.564229118      4.750      6.227
REMARK  5 active torsions:
REMARK  status: ('A' for Active; 'I' for Inactive)
REMARK    1  A    between atoms: O1_2  and  C2_3 
REMARK    2  A    between atoms: C4_5  and  C5_6 
REMARK    3  A    between atoms: C7_9  and  C8_10 
REMARK    4  A    between atoms: C15_23  and  O2_24 
REMARK    5  A    between atoms: C17_26  and  O3_27 
ROOT
HETATM    1  C5  UNL     1     -16.666   8.405  -3.752  1.00  0.00    -0.018 A 
HETATM    2  C6  UNL     1     -17.181   7.887  -2.579  1.00  0.00     0.062 A 
HETATM    3  S1  UNL     1     -16.686   9.032  -1.410  1.00  0.00    -0.103 SA
HETATM    4  C7  UNL     1     -15.859  10.119  -2.407  1.00  0.00     0.011 A 
HETATM    5  C13 UNL     1     -15.983   9.569  -3.654  1.00  0.00     0.029 A 
ENDROOT
BRANCH   1   6
HETATM    6  C4  UNL     1     -16.748   7.591  -5.003  1.00  0.00    -0.020 A 
HETATM    7  C3  UNL     1     -16.100   7.876  -6.160  1.00  0.00     0.052 A 
HETATM    8  C2  UNL     1     -16.120   7.005  -7.231  1.00  0.00     0.105 A 
HETATM    9  C17 UNL     1     -16.804   5.792  -7.175  1.00  0.00     0.135 A 
HETATM   10  C15 UNL     1     -17.478   5.484  -5.974  1.00  0.00     0.105 A 
HETATM   11  C14 UNL     1     -17.438   6.374  -4.934  1.00  0.00     0.052 A 
BRANCH   8  12
HETATM   12  O1  UNL     1     -15.469   7.267  -8.404  1.00  0.00    -0.353 OA
HETATM   13  C1  UNL     1     -15.916   8.234  -9.316  1.00  0.00     0.210 C 
ENDBRANCH   8  12
BRANCH   9  14
HETATM   14  O3  UNL     1     -16.881   4.884  -8.174  1.00  0.00    -0.351 OA
HETATM   15  C18 UNL     1     -17.806   4.714  -9.182  1.00  0.00     0.210 C 
ENDBRANCH   9  14
BRANCH  10  16
HETATM   16  O2  UNL     1     -18.153   4.264  -5.922  1.00  0.00    -0.353 OA
HETATM   17  C16 UNL     1     -17.535   3.302  -5.055  1.00  0.00     0.210 C 
ENDBRANCH  10  16
ENDBRANCH   1   6
BRANCH   4  18
HETATM   18  C8  UNL     1     -15.054  11.358  -2.043  1.00  0.00     0.063 C 
HETATM   19  C9  UNL     1     -13.650  10.840  -1.706  1.00  0.00     0.044 C 
HETATM   20  C10 UNL     1     -15.742  11.922  -0.817  1.00  0.00     0.047 C 
HETATM   21  C11 UNL     1     -15.022  13.087  -0.249  1.00  0.00     0.085 C 
HETATM   22  S2  UNL     1     -14.981  14.397  -1.484  1.00  0.00    -0.095 SA
HETATM   23  C12 UNL     1     -14.996  13.634  -3.092  1.00  0.00     0.134 C 
HETATM   24  N1  UNL     1     -15.023  14.316  -4.176  1.00  0.00    -0.380 N 
HETATM   25  N2  UNL     1     -14.972  12.198  -3.160  1.00  0.00    -0.357 N 
ATOM     26  H12 UNL     1     -15.040  15.335  -4.127  1.00  0.00     0.158 HD
ATOM     27  H11 UNL     1     -15.032  13.879  -5.097  1.00  0.00     0.158 HD
ATOM     28  H2  UNL     1     -14.890  11.764  -4.079  1.00  0.00     0.162 HD
ENDBRANCH   4  18
TORSDOF 5
ENDMDL
MODEL 3
REMARK VINA RESULT: -6.557882782      4.605      6.045
REMARK  5 active torsions:
REMARK  status: ('A' for Active; 'I' for Inactive)
REMARK    1  A    between atoms: O1_2  and  C2_3 
REMARK    2  A    between atoms: C4_5  and  C5_6 
REMARK    3  A    between atoms: C7_9  and  C8_10 
REMARK    4  A    between atoms: C15_23  and  O2_24 
REMARK    5  A    between atoms: C17_26  and  O3_27 
ROOT
HETATM    1  C5  UNL     1     -16.728   8.304  -3.781  1.00  0.00    -0.018 A 
HETATM    2  C6  UNL     1     -17.340   7.919  -2.603  1.00  0.00     0.062 A 
HETATM    3  S1  UNL     1     -16.879   9.155  -1.516  1.00  0.00    -0.103 SA
HETATM    4  C7  UNL     1     -15.945  10.113  -2.551  1.00  0.00     0.011 A 
HETATM    5  C13 UNL     1     -16.008   9.448  -3.746  1.00  0.00     0.029 A 
ENDROOT
BRANCH   1   6
HETATM    6  C4  UNL     1     -16.759   7.374  -4.952  1.00  0.00    -0.020 A 
HETATM    7  C3  UNL     1     -17.476   6.225  -5.012  1.00  0.00     0.052 A 
HETATM    8  C2  UNL     1     -17.559   5.487  -6.176  1.00  0.00     0.105 A 
HETATM    9  C17 UNL     1     -16.912   5.888  -7.344  1.00  0.00     0.135 A 
HETATM   10  C15 UNL     1     -16.167   7.085  -7.292  1.00  0.00     0.105 A 
HETATM   11  C14 UNL     1     -16.105   7.788  -6.119  1.00  0.00     0.052 A 
BRANCH   8  12
HETATM   12  O1  UNL     1     -18.281   4.331  -6.264  1.00  0.00    -0.353 OA
HETATM   13  C1  UNL     1     -17.778   3.092  -5.841  1.00  0.00     0.210 C 
ENDBRANCH   8  12
BRANCH   9  14
HETATM   14  O3  UNL     1     -16.935   5.228  -8.523  1.00  0.00    -0.351 OA
HETATM   15  C18 UNL     1     -17.901   5.144  -9.503  1.00  0.00     0.210 C 
ENDBRANCH   9  14
BRANCH  10  16
HETATM   16  O2  UNL     1     -15.529   7.485  -8.467  1.00  0.00    -0.353 OA
HETATM   17  C16 UNL     1     -15.982   8.753  -8.964  1.00  0.00     0.210 C 
ENDBRANCH  10  16
ENDBRANCH   1   6
BRANCH   4  18
HETATM   18  C8  UNL     1     -15.118  11.354  -2.251  1.00  0.00     0.063 C 
HETATM   19  C9  UNL     1     -13.703  10.834  -1.965  1.00  0.00     0.044 C 
HETATM   20  C10 UNL     1     -15.747  11.949  -1.008  1.00  0.00     0.047 C 
HETATM   21  C11 UNL     1     -14.996  13.121  -0.498  1.00  0.00     0.085 C 
HETATM   22  S2  UNL     1     -15.003  14.404  -1.762  1.00  0.00    -0.095 SA
HETATM   23  C12 UNL     1     -15.094  13.607  -3.351  1.00  0.00     0.134 C 
HETATM   24  N1  UNL     1     -15.166  14.265  -4.447  1.00  0.00    -0.380 N 
HETATM   25  N2  UNL     1     -15.081  12.169  -3.388  1.00  0.00    -0.357 N 
ATOM     26  H12 UNL     1     -15.175  15.285  -4.420  1.00  0.00     0.158 HD
ATOM     27  H11 UNL     1     -15.218  13.808  -5.357  1.00  0.00     0.158 HD
ATOM     28  H2  UNL     1     -15.042  11.715  -4.300  1.00  0.00     0.162 HD
ENDBRANCH   4  18
TORSDOF 5
ENDMDL
MODEL 4
REMARK VINA RESULT: -6.410827802      4.568      7.617
REMARK  5 active torsions:
REMARK  status: ('A' for Active; 'I' for Inactive)
REMARK    1  A    between atoms: O1_2  and  C2_3 
REMARK    2  A    between atoms: C4_5  and  C5_6 
REMARK    3  A    between atoms: C7_9  and  C8_10 
REMARK    4  A    between atoms: C15_23  and  O2_24 
REMARK    5  A    between atoms: C17_26  and  O3_27 
ROOT
HETATM    1  C5  UNL     1     -15.587   9.628  -5.638  1.00  0.00    -0.018 A 
HETATM    2  C6  UNL     1     -15.213   9.821  -6.955  1.00  0.00     0.062 A 
HETATM    3  S1  UNL     1     -15.613   8.328  -7.684  1.00  0.00    -0.103 SA
HETATM    4  C7  UNL     1     -16.233   7.509  -6.341  1.00  0.00     0.011 A 
HETATM    5  C13 UNL     1     -16.120   8.424  -5.329  1.00  0.00     0.029 A 
ENDROOT
BRANCH   1   6
HETATM    6  C4  UNL     1     -15.240  10.671  -4.625  1.00  0.00    -0.020 A 
HETATM    7  C3  UNL     1     -15.585  11.980  -4.709  1.00  0.00     0.052 A 
HETATM    8  C2  UNL     1     -15.343  12.857  -3.670  1.00  0.00     0.105 A 
HETATM    9  C17 UNL     1     -14.736  12.440  -2.487  1.00  0.00     0.135 A 
HETATM   10  C15 UNL     1     -14.377  11.079  -2.389  1.00  0.00     0.105 A 
HETATM   11  C14 UNL     1     -14.630  10.240  -3.441  1.00  0.00     0.052 A 
BRANCH   8  12
HETATM   12  O1  UNL     1     -15.687  14.178  -3.728  1.00  0.00    -0.353 OA
HETATM   13  C1  UNL     1     -17.000  14.606  -3.970  1.00  0.00     0.210 C 
ENDBRANCH   8  12
BRANCH   9  14
HETATM   14  O3  UNL     1     -14.457  13.227  -1.424  1.00  0.00    -0.351 OA
HETATM   15  C18 UNL     1     -15.252  13.682  -0.393  1.00  0.00     0.210 C 
ENDBRANCH   9  14
BRANCH  10  16
HETATM   16  O2  UNL     1     -13.779  10.666  -1.197  1.00  0.00    -0.353 OA
HETATM   17  C16 UNL     1     -12.374  10.398  -1.323  1.00  0.00     0.210 C 
ENDBRANCH  10  16
ENDBRANCH   1   6
BRANCH   4  18
HETATM   18  C8  UNL     1     -16.702   6.068  -6.207  1.00  0.00     0.063 C 
HETATM   19  C9  UNL     1     -17.979   5.982  -7.052  1.00  0.00     0.044 C 
HETATM   20  C10 UNL     1     -17.005   5.894  -4.733  1.00  0.00     0.047 C 
HETATM   21  C11 UNL     1     -17.585   4.565  -4.427  1.00  0.00     0.085 C 
HETATM   22  S2  UNL     1     -16.389   3.296  -4.876  1.00  0.00    -0.095 SA
HETATM   23  C12 UNL     1     -15.408   3.921  -6.224  1.00  0.00     0.134 C 
HETATM   24  N1  UNL     1     -14.436   3.260  -6.730  1.00  0.00    -0.380 N 
HETATM   25  N2  UNL     1     -15.736   5.216  -6.755  1.00  0.00    -0.357 N 
ATOM     26  H12 UNL     1     -14.203   2.340  -6.353  1.00  0.00     0.158 HD
ATOM     27  H11 UNL     1     -13.874   3.618  -7.502  1.00  0.00     0.158 HD
ATOM     28  H2  UNL     1     -15.233   5.535  -7.583  1.00  0.00     0.162 HD
ENDBRANCH   4  18
TORSDOF 5
ENDMDL
MODEL 5
REMARK VINA RESULT: -6.392690823      4.294      6.604
REMARK  5 active torsions:
REMARK  status: ('A' for Active; 'I' for Inactive)
REMARK    1  A    between atoms: O1_2  and  C2_3 
REMARK    2  A    between atoms: C4_5  and  C5_6 
REMARK    3  A    between atoms: C7_9  and  C8_10 
REMARK    4  A    between atoms: C15_23  and  O2_24 
REMARK    5  A    between atoms: C17_26  and  O3_27 
ROOT
HETATM    1  C5  UNL     1     -15.604  11.392  -5.002  1.00  0.00    -0.018 A 
HETATM    2  C6  UNL     1     -15.639  12.447  -5.894  1.00  0.00     0.062 A 
HETATM    3  S1  UNL     1     -15.481  13.809  -4.874  1.00  0.00    -0.103 SA
HETATM    4  C7  UNL     1     -15.373  13.034  -3.375  1.00  0.00     0.011 A 
HETATM    5  C13 UNL     1     -15.461  11.706  -3.694  1.00  0.00     0.029 A 
ENDROOT
BRANCH   1   6
HETATM    6  C4  UNL     1     -15.883  10.010  -5.502  1.00  0.00    -0.020 A 
HETATM    7  C3  UNL     1     -15.513   9.534  -6.716  1.00  0.00     0.052 A 
HETATM    8  C2  UNL     1     -15.689   8.207  -7.055  1.00  0.00     0.105 A 
HETATM    9  C17 UNL     1     -16.253   7.294  -6.166  1.00  0.00     0.135 A 
HETATM   10  C15 UNL     1     -16.637   7.779  -4.897  1.00  0.00     0.105 A 
HETATM   11  C14 UNL     1     -16.449   9.102  -4.599  1.00  0.00     0.052 A 
BRANCH   8  12
HETATM   12  O1  UNL     1     -15.318   7.703  -8.269  1.00  0.00    -0.353 OA
HETATM   13  C1  UNL     1     -16.096   7.866  -9.424  1.00  0.00     0.210 C 
ENDBRANCH   8  12
BRANCH   9  14
HETATM   14  O3  UNL     1     -16.466   5.983  -6.413  1.00  0.00    -0.351 OA
HETATM   15  C18 UNL     1     -15.606   4.905  -6.427  1.00  0.00     0.210 C 
ENDBRANCH   9  14
BRANCH  10  16
HETATM   16  O2  UNL     1     -17.191   6.857  -4.008  1.00  0.00    -0.353 OA
HETATM   17  C16 UNL     1     -17.360   7.370  -2.679  1.00  0.00     0.210 C 
ENDBRANCH  10  16
ENDBRANCH   1   6
BRANCH   4  18
HETATM   18  C8  UNL     1     -15.313  13.623  -1.973  1.00  0.00     0.063 C 
HETATM   19  C9  UNL     1     -14.226  12.821  -1.247  1.00  0.00     0.044 C 
HETATM   20  C10 UNL     1     -16.682  13.356  -1.382  1.00  0.00     0.047 C 
HETATM   21  C11 UNL     1     -16.776  13.771   0.038  1.00  0.00     0.085 C 
HETATM   22  S2  UNL     1     -16.491  15.545   0.141  1.00  0.00    -0.095 SA
HETATM   23  C12 UNL     1     -15.411  16.005  -1.198  1.00  0.00     0.134 C 
HETATM   24  N1  UNL     1     -15.067  17.219  -1.417  1.00  0.00    -0.380 N 
HETATM   25  N2  UNL     1     -14.913  14.962  -2.054  1.00  0.00    -0.357 N 
ATOM     26  H12 UNL     1     -15.420  17.958  -0.809  1.00  0.00     0.158 HD
ATOM     27  H11 UNL     1     -14.449  17.482  -2.184  1.00  0.00     0.158 HD
ATOM     28  H2  UNL     1     -14.226  15.214  -2.763  1.00  0.00     0.162 HD
ENDBRANCH   4  18
TORSDOF 5
ENDMDL
