MODEL 1
REMARK VINA RESULT: -6.924529973      0.000      0.000
REMARK  6 active torsions:
REMARK  status: ('A' for Active; 'I' for Inactive)
REMARK    1  A    between atoms: O1_2  and  C2_3 
REMARK    2  A    between atoms: C2_3  and  C3_5 
REMARK    3  A    between atoms: C9_14  and  N2_15 
REMARK    4  A    between atoms: N2_15  and  C10_17 
REMARK    5  A    between atoms: C11_19  and  C12_20 
REMARK    6  A    between atoms: C14_23  and  C15_24 
ROOT
HETATM    1  C3  UNL     1     -15.040  12.639  -6.714  1.00  0.00     0.089 A 
HETATM    2  C4  UNL     1     -15.113  13.996  -6.978  1.00  0.00     0.027 A 
HETATM    3  C5  UNL     1     -16.060  14.869  -6.260  1.00  0.00     0.069 C 
HETATM    4  N1  UNL     1     -14.320  14.577  -7.902  1.00  0.00    -0.326 N 
ATOM      5  H1  UNL     1     -14.394  15.579  -8.077  1.00  0.00     0.169 HD
HETATM    6  C6  UNL     1     -13.438  13.846  -8.588  1.00  0.00     0.253 A 
HETATM    7  O3  UNL     1     -12.714  14.427  -9.444  1.00  0.00    -0.268 OA
HETATM    8  C7  UNL     1     -13.305  12.502  -8.386  1.00  0.00     0.034 A 
HETATM    9  C8  UNL     1     -12.310  11.674  -9.155  1.00  0.00     0.056 C 
HETATM   10  C9  UNL     1     -14.125  11.884  -7.425  1.00  0.00     0.062 A 
ENDROOT
BRANCH  10  11
HETATM   11  N2  UNL     1     -14.020  10.528  -7.231  1.00  0.00    -0.349 N 
ATOM     12  H2  UNL     1     -13.058  10.238  -7.050  1.00  0.00     0.166 HD
BRANCH  11  13
HETATM   13  C10 UNL     1     -14.929   9.422  -7.222  1.00  0.00     0.082 A 
HETATM   14  S1  UNL     1     -15.732   8.928  -8.686  1.00  0.00    -0.068 SA
HETATM   15  C11 UNL     1     -16.654   7.643  -8.092  1.00  0.00     0.059 A 
HETATM   16  C14 UNL     1     -16.324   7.603  -6.719  1.00  0.00    -0.025 A 
HETATM   17  C18 UNL     1     -15.424   8.545  -6.320  1.00  0.00    -0.020 A 
HETATM   18  C19 UNL     1     -14.902   8.593  -4.885  1.00  0.00     0.052 C 
BRANCH  15  19
HETATM   19  C12 UNL     1     -17.548   6.814  -8.868  1.00  0.00     0.163 C 
HETATM   20  C13 UNL     1     -18.953   6.685  -8.391  1.00  0.00     0.097 C 
HETATM   21  O4  UNL     1     -17.245   6.209  -9.882  1.00  0.00    -0.292 OA
ENDBRANCH  15  19
BRANCH  16  22
HETATM   22  C15 UNL     1     -16.966   6.546  -5.893  1.00  0.00     0.012 C 
HETATM   23  C16 UNL     1     -17.364   6.810  -4.494  1.00  0.00     0.015 C 
HETATM   24  C17 UNL     1     -16.124   5.283  -5.865  1.00  0.00     0.015 C 
ENDBRANCH  16  22
ENDBRANCH  11  13
ENDBRANCH  10  11
BRANCH   1  25
HETATM   25  C2  UNL     1     -15.942  12.061  -5.730  1.00  0.00     0.297 C 
HETATM   26  O2  UNL     1     -17.132  11.791  -5.909  1.00  0.00    -0.259 OA
BRANCH  25  27
HETATM   27  O1  UNL     1     -15.457  11.767  -4.442  1.00  0.00    -0.322 OA
HETATM   28  C1  UNL     1     -15.355  12.714  -3.425  1.00  0.00     0.213 C 
ENDBRANCH  25  27
ENDBRANCH   1  25
TORSDOF 6
ENDMDL
MODEL 2
REMARK VINA RESULT: -6.721765495      1.553      2.313
REMARK  6 active torsions:
REMARK  status: ('A' for Active; 'I' for Inactive)
REMARK    1  A    between atoms: O1_2  and  C2_3 
REMARK    2  A    between atoms: C2_3  and  C3_5 
REMARK    3  A    between atoms: C9_14  and  N2_15 
REMARK    4  A    between atoms: N2_15  and  C10_17 
REMARK    5  A    between atoms: C11_19  and  C12_20 
REMARK    6  A    between atoms: C14_23  and  C15_24 
ROOT
HETATM    1  C3  UNL     1     -15.428  12.456  -5.972  1.00  0.00     0.089 A 
HETATM    2  C4  UNL     1     -15.541  13.804  -6.269  1.00  0.00     0.027 A 
HETATM    3  C5  UNL     1     -16.415  14.693  -5.482  1.00  0.00     0.069 C 
HETATM    4  N1  UNL     1     -14.856  14.359  -7.289  1.00  0.00    -0.326 N 
ATOM      5  H1  UNL     1     -14.958  15.355  -7.488  1.00  0.00     0.169 HD
HETATM    6  C6  UNL     1     -14.045  13.611  -8.042  1.00  0.00     0.253 A 
HETATM    7  O3  UNL     1     -13.422  14.169  -8.988  1.00  0.00    -0.268 OA
HETATM    8  C7  UNL     1     -13.878  12.276  -7.813  1.00  0.00     0.034 A 
HETATM    9  C8  UNL     1     -12.963  11.429  -8.657  1.00  0.00     0.056 C 
HETATM   10  C9  UNL     1     -14.586  11.684  -6.751  1.00  0.00     0.062 A 
ENDROOT
BRANCH  10  11
HETATM   11  N2  UNL     1     -14.448  10.336  -6.527  1.00  0.00    -0.349 N 
ATOM     12  H2  UNL     1     -13.507  10.092  -6.215  1.00  0.00     0.166 HD
BRANCH  11  13
HETATM   13  C10 UNL     1     -15.300   9.189  -6.626  1.00  0.00     0.082 A 
HETATM   14  S1  UNL     1     -15.782   8.323  -5.194  1.00  0.00    -0.068 SA
HETATM   15  C11 UNL     1     -16.726   7.109  -5.893  1.00  0.00     0.059 A 
HETATM   16  C14 UNL     1     -16.659   7.391  -7.275  1.00  0.00    -0.025 A 
HETATM   17  C18 UNL     1     -15.909   8.480  -7.601  1.00  0.00    -0.020 A 
HETATM   18  C19 UNL     1     -15.794   8.967  -9.045  1.00  0.00     0.052 C 
BRANCH  15  19
HETATM   19  C12 UNL     1     -17.419   6.060  -5.180  1.00  0.00     0.163 C 
HETATM   20  C13 UNL     1     -16.618   4.884  -4.740  1.00  0.00     0.097 C 
HETATM   21  O4  UNL     1     -18.608   6.059  -4.909  1.00  0.00    -0.292 OA
ENDBRANCH  15  19
BRANCH  16  22
HETATM   22  C15 UNL     1     -17.418   6.497  -8.191  1.00  0.00     0.012 C 
HETATM   23  C16 UNL     1     -18.895   6.457  -8.165  1.00  0.00     0.015 C 
HETATM   24  C17 UNL     1     -16.951   5.057  -8.066  1.00  0.00     0.015 C 
ENDBRANCH  16  22
ENDBRANCH  11  13
ENDBRANCH  10  11
BRANCH   1  25
HETATM   25  C2  UNL     1     -16.215  11.905  -4.880  1.00  0.00     0.297 C 
HETATM   26  O2  UNL     1     -17.435  11.725  -4.885  1.00  0.00    -0.259 OA
BRANCH  25  27
HETATM   27  O1  UNL     1     -15.568  11.529  -3.687  1.00  0.00    -0.322 OA
HETATM   28  C1  UNL     1     -14.984  12.440  -2.810  1.00  0.00     0.213 C 
ENDBRANCH  25  27
ENDBRANCH   1  25
TORSDOF 6
ENDMDL
MODEL 3
REMARK VINA RESULT: -6.619401793      1.550      1.884
REMARK  6 active torsions:
REMARK  status: ('A' for Active; 'I' for Inactive)
REMARK    1  A    between atoms: O1_2  and  C2_3 
REMARK    2  A    between atoms: C2_3  and  C3_5 
REMARK    3  A    between atoms: C9_14  and  N2_15 
REMARK    4  A    between atoms: N2_15  and  C10_17 
REMARK    5  A    between atoms: C11_19  and  C12_20 
REMARK    6  A    between atoms: C14_23  and  C15_24 
ROOT
HETATM    1  C3  UNL     1     -15.963  12.448  -5.237  1.00  0.00     0.089 A 
HETATM    2  C4  UNL     1     -16.143  13.759  -5.643  1.00  0.00     0.027 A 
HETATM    3  C5  UNL     1     -17.000  14.688  -4.884  1.00  0.00     0.069 C 
HETATM    4  N1  UNL     1     -15.541  14.242  -6.749  1.00  0.00    -0.326 N 
ATOM      5  H1  UNL     1     -15.691  15.212  -7.027  1.00  0.00     0.169 HD
HETATM    6  C6  UNL     1     -14.750  13.455  -7.483  1.00  0.00     0.253 A 
HETATM    7  O3  UNL     1     -14.205  13.945  -8.512  1.00  0.00    -0.268 OA
HETATM    8  C7  UNL     1     -14.521  12.152  -7.150  1.00  0.00     0.034 A 
HETATM    9  C8  UNL     1     -13.628  11.262  -7.973  1.00  0.00     0.056 C 
HETATM   10  C9  UNL     1     -15.142  11.635  -5.998  1.00  0.00     0.062 A 
ENDROOT
BRANCH  10  11
HETATM   11  N2  UNL     1     -14.941  10.317  -5.666  1.00  0.00    -0.349 N 
ATOM     12  H2  UNL     1     -14.049  10.171  -5.193  1.00  0.00     0.166 HD
BRANCH  11  13
HETATM   13  C10 UNL     1     -15.677   9.099  -5.823  1.00  0.00     0.082 A 
HETATM   14  S1  UNL     1     -15.890   8.394  -7.401  1.00  0.00    -0.068 SA
HETATM   15  C11 UNL     1     -16.813   7.040  -6.992  1.00  0.00     0.059 A 
HETATM   16  C14 UNL     1     -16.955   7.146  -5.591  1.00  0.00    -0.025 A 
HETATM   17  C18 UNL     1     -16.346   8.229  -5.034  1.00  0.00    -0.020 A 
HETATM   18  C19 UNL     1     -16.339   8.453  -3.522  1.00  0.00     0.052 C 
BRANCH  15  19
HETATM   19  C12 UNL     1     -17.304   6.041  -7.913  1.00  0.00     0.163 C 
HETATM   20  C13 UNL     1     -18.625   6.287  -8.554  1.00  0.00     0.097 C 
HETATM   21  O4  UNL     1     -16.723   5.010  -8.210  1.00  0.00    -0.292 OA
ENDBRANCH  15  19
BRANCH  16  22
HETATM   22  C15 UNL     1     -17.718   6.072  -4.899  1.00  0.00     0.012 C 
HETATM   23  C16 UNL     1     -18.538   6.368  -3.706  1.00  0.00     0.015 C 
HETATM   24  C17 UNL     1     -16.813   4.913  -4.518  1.00  0.00     0.015 C 
ENDBRANCH  16  22
ENDBRANCH  11  13
ENDBRANCH  10  11
BRANCH   1  25
HETATM   25  C2  UNL     1     -16.662  11.972  -4.054  1.00  0.00     0.297 C 
HETATM   26  O2  UNL     1     -16.206  11.934  -2.909  1.00  0.00    -0.259 OA
BRANCH  25  27
HETATM   27  O1  UNL     1     -17.983  11.502  -4.179  1.00  0.00    -0.322 OA
HETATM   28  C1  UNL     1     -19.050  12.000  -3.434  1.00  0.00     0.213 C 
ENDBRANCH  25  27
ENDBRANCH   1  25
TORSDOF 6
ENDMDL
MODEL 4
REMARK VINA RESULT: -6.476466388      2.885      4.171
REMARK  6 active torsions:
REMARK  status: ('A' for Active; 'I' for Inactive)
REMARK    1  A    between atoms: O1_2  and  C2_3 
REMARK    2  A    between atoms: C2_3  and  C3_5 
REMARK    3  A    between atoms: C9_14  and  N2_15 
REMARK    4  A    between atoms: N2_15  and  C10_17 
REMARK    5  A    between atoms: C11_19  and  C12_20 
REMARK    6  A    between atoms: C14_23  and  C15_24 
ROOT
HETATM    1  C3  UNL     1     -14.935  11.922  -3.078  1.00  0.00     0.089 A 
HETATM    2  C4  UNL     1     -15.187  13.247  -2.767  1.00  0.00     0.027 A 
HETATM    3  C5  UNL     1     -14.960  13.775  -1.410  1.00  0.00     0.069 C 
HETATM    4  N1  UNL     1     -15.650  14.111  -3.694  1.00  0.00    -0.326 N 
ATOM      5  H1  UNL     1     -15.829  15.082  -3.438  1.00  0.00     0.169 HD
HETATM    6  C6  UNL     1     -15.877  13.700  -4.944  1.00  0.00     0.253 A 
HETATM    7  O3  UNL     1     -16.310  14.540  -5.782  1.00  0.00    -0.268 OA
HETATM    8  C7  UNL     1     -15.652  12.411  -5.330  1.00  0.00     0.034 A 
HETATM    9  C8  UNL     1     -15.903  11.943  -6.739  1.00  0.00     0.056 C 
HETATM   10  C9  UNL     1     -15.168  11.499  -4.374  1.00  0.00     0.062 A 
ENDROOT
BRANCH  10  11
HETATM   11  N2  UNL     1     -14.964  10.191  -4.743  1.00  0.00    -0.349 N 
ATOM     12  H2  UNL     1     -14.007  10.024  -5.056  1.00  0.00     0.166 HD
BRANCH  11  13
HETATM   13  C10 UNL     1     -15.765   9.006  -4.797  1.00  0.00     0.082 A 
HETATM   14  S1  UNL     1     -16.674   8.492  -3.403  1.00  0.00    -0.068 SA
HETATM   15  C11 UNL     1     -17.381   7.088  -4.020  1.00  0.00     0.059 A 
HETATM   16  C14 UNL     1     -16.893   7.023  -5.343  1.00  0.00    -0.025 A 
HETATM   17  C18 UNL     1     -16.061   8.042  -5.696  1.00  0.00    -0.020 A 
HETATM   18  C19 UNL     1     -15.504   8.164  -7.114  1.00  0.00     0.052 C 
BRANCH  15  19
HETATM   19  C12 UNL     1     -18.276   6.207  -3.304  1.00  0.00     0.163 C 
HETATM   20  C13 UNL     1     -17.678   5.303  -2.283  1.00  0.00     0.097 C 
HETATM   21  O4  UNL     1     -19.482   6.142  -3.469  1.00  0.00    -0.292 OA
ENDBRANCH  15  19
BRANCH  16  22
HETATM   22  C15 UNL     1     -17.352   5.886  -6.185  1.00  0.00     0.012 C 
HETATM   23  C16 UNL     1     -16.385   4.946  -6.790  1.00  0.00     0.015 C 
HETATM   24  C17 UNL     1     -18.244   6.366  -7.318  1.00  0.00     0.015 C 
ENDBRANCH  16  22
ENDBRANCH  11  13
ENDBRANCH  10  11
BRANCH   1  25
HETATM   25  C2  UNL     1     -14.467  11.027  -2.031  1.00  0.00     0.297 C 
HETATM   26  O2  UNL     1     -15.126  10.635  -1.065  1.00  0.00    -0.259 OA
BRANCH  25  27
HETATM   27  O1  UNL     1     -13.146  10.541  -2.082  1.00  0.00    -0.322 OA
HETATM   28  C1  UNL     1     -12.297  10.506  -0.978  1.00  0.00     0.213 C 
ENDBRANCH  25  27
ENDBRANCH   1  25
TORSDOF 6
ENDMDL
MODEL 5
REMARK VINA RESULT: -6.455117979      2.441      3.382
REMARK  6 active torsions:
REMARK  status: ('A' for Active; 'I' for Inactive)
REMARK    1  A    between atoms: O1_2  and  C2_3 
REMARK    2  A    between atoms: C2_3  and  C3_5 
REMARK    3  A    between atoms: C9_14  and  N2_15 
REMARK    4  A    between atoms: N2_15  and  C10_17 
REMARK    5  A    between atoms: C11_19  and  C12_20 
REMARK    6  A    between atoms: C14_23  and  C15_24 
ROOT
HETATM    1  C3  UNL     1     -16.184  12.416  -4.358  1.00  0.00     0.089 A 
HETATM    2  C4  UNL     1     -16.488  13.702  -4.772  1.00  0.00     0.027 A 
HETATM    3  C5  UNL     1     -17.174  14.655  -3.881  1.00  0.00     0.069 C 
HETATM    4  N1  UNL     1     -16.167  14.136  -6.008  1.00  0.00    -0.326 N 
ATOM      5  H1  UNL     1     -16.403  15.088  -6.289  1.00  0.00     0.169 HD
HETATM    6  C6  UNL     1     -15.543  13.326  -6.866  1.00  0.00     0.253 A 
HETATM    7  O3  UNL     1     -15.260  13.770  -8.014  1.00  0.00    -0.268 OA
HETATM    8  C7  UNL     1     -15.209  12.045  -6.534  1.00  0.00     0.034 A 
HETATM    9  C8  UNL     1     -14.502  11.128  -7.497  1.00  0.00     0.056 C 
HETATM   10  C9  UNL     1     -15.537  11.579  -5.247  1.00  0.00     0.062 A 
ENDROOT
BRANCH  10  11
HETATM   11  N2  UNL     1     -15.230  10.283  -4.910  1.00  0.00    -0.349 N 
ATOM     12  H2  UNL     1     -14.277  10.192  -4.555  1.00  0.00     0.166 HD
BRANCH  11  13
HETATM   13  C10 UNL     1     -15.920   9.028  -4.933  1.00  0.00     0.082 A 
HETATM   14  S1  UNL     1     -16.791   8.474  -3.531  1.00  0.00    -0.068 SA
HETATM   15  C11 UNL     1     -17.362   6.994  -4.111  1.00  0.00     0.059 A 
HETATM   16  C14 UNL     1     -16.858   6.936  -5.429  1.00  0.00    -0.025 A 
HETATM   17  C18 UNL     1     -16.119   8.016  -5.806  1.00  0.00    -0.020 A 
HETATM   18  C19 UNL     1     -15.564   8.147  -7.224  1.00  0.00     0.052 C 
BRANCH  15  19
HETATM   19  C12 UNL     1     -18.179   6.056  -3.375  1.00  0.00     0.163 C 
HETATM   20  C13 UNL     1     -17.481   5.093  -2.478  1.00  0.00     0.097 C 
HETATM   21  O4  UNL     1     -19.395   5.988  -3.429  1.00  0.00    -0.292 OA
ENDBRANCH  15  19
BRANCH  16  22
HETATM   22  C15 UNL     1     -17.205   5.739  -6.240  1.00  0.00     0.012 C 
HETATM   23  C16 UNL     1     -16.152   4.876  -6.815  1.00  0.00     0.015 C 
HETATM   24  C17 UNL     1     -18.131   6.101  -7.388  1.00  0.00     0.015 C 
ENDBRANCH  16  22
ENDBRANCH  11  13
ENDBRANCH  10  11
BRANCH   1  25
HETATM   25  C2  UNL     1     -16.583  11.991  -3.025  1.00  0.00     0.297 C 
HETATM   26  O2  UNL     1     -17.740  11.822  -2.634  1.00  0.00    -0.259 OA
BRANCH  25  27
HETATM   27  O1  UNL     1     -15.591  11.739  -2.058  1.00  0.00    -0.322 OA
HETATM   28  C1  UNL     1     -14.563  12.631  -1.762  1.00  0.00     0.213 C 
ENDBRANCH  25  27
ENDBRANCH   1  25
TORSDOF 6
ENDMDL
