MODEL 1
REMARK VINA RESULT: -6.650721042      0.000      0.000
REMARK  7 active torsions:
REMARK  status: ('A' for Active; 'I' for Inactive)
REMARK    1  A    between atoms: C2_2  and  O1_3 
REMARK    2  A    between atoms: O1_3  and  C3_4 
REMARK    3  A    between atoms: C3_4  and  C4_5 
REMARK    4  A    between atoms: C4_5  and  N1_6 
REMARK    5  A    between atoms: C15_20  and  C16_21 
REMARK    6  A    between atoms: C16_21  and  O2_22 
REMARK    7  A    between atoms: N4_24  and  O3_26 
ROOT
HETATM    1  N1  UNL     1     -15.243  11.735  -5.571  1.00  0.00    -0.379 N 
HETATM    2  C5  UNL     1     -15.903  12.958  -5.809  1.00  0.00     0.129 C 
HETATM    3  C6  UNL     1     -15.253  14.124  -5.094  1.00  0.00     0.077 C 
HETATM    4  C7  UNL     1     -14.990  13.746  -3.649  1.00  0.00     0.021 A 
HETATM    5  N2  UNL     1     -14.996  14.765  -2.721  1.00  0.00    -0.349 N 
ATOM      6  H2  UNL     1     -15.163  15.740  -2.971  1.00  0.00     0.166 HD
HETATM    7  C8  UNL     1     -14.758  14.355  -1.427  1.00  0.00     0.131 A 
HETATM    8  C9  UNL     1     -14.739  15.288  -0.327  1.00  0.00     0.119 C 
HETATM    9  N3  UNL     1     -14.717  16.021   0.569  1.00  0.00    -0.190 NA
HETATM   10  C10 UNL     1     -14.543  13.074  -1.154  1.00  0.00     0.045 A 
HETATM   11  C11 UNL     1     -14.515  12.055  -2.063  1.00  0.00    -0.028 A 
HETATM   12  C12 UNL     1     -14.767  12.447  -3.354  1.00  0.00    -0.001 A 
HETATM   13  C13 UNL     1     -15.032  11.290  -4.252  1.00  0.00     0.143 C 
HETATM   14  C14 UNL     1     -16.113  10.457  -3.640  1.00  0.00     0.018 C 
HETATM   15  C15 UNL     1     -16.967  10.714  -2.531  1.00  0.00     0.012 C 
HETATM   16  C17 UNL     1     -16.836  11.378  -1.246  1.00  0.00     0.004 C 
HETATM   17  C18 UNL     1     -15.986  10.970  -0.134  1.00  0.00     0.076 C 
HETATM   18  C19 UNL     1     -14.955   9.966  -0.708  1.00  0.00     0.024 C 
HETATM   19  C20 UNL     1     -14.070  10.687  -1.657  1.00  0.00     0.042 C 
HETATM   20  S1  UNL     1     -14.813  12.297   0.508  1.00  0.00    -0.118 SA
ENDROOT
BRANCH   1  21
HETATM   21  C4  UNL     1     -15.328  10.828  -6.635  1.00  0.00     0.085 C 
BRANCH  21  22
HETATM   22  C3  UNL     1     -14.317  10.977  -7.746  1.00  0.00     0.211 C 
BRANCH  22  23
HETATM   23  O1  UNL     1     -13.053  11.315  -7.309  1.00  0.00    -0.387 OA
BRANCH  23  24
HETATM   24  C2  UNL     1     -12.403  12.181  -8.174  1.00  0.00     0.163 C 
HETATM   25  C1  UNL     1     -12.614  13.621  -7.742  1.00  0.00     0.033 C 
ENDBRANCH  23  24
ENDBRANCH  22  23
ENDBRANCH  21  22
ENDBRANCH   1  21
BRANCH  15  26
HETATM   26  C16 UNL     1     -18.375  10.980  -3.087  1.00  0.00     0.169 C 
HETATM   27  N4  UNL     1     -19.376  10.555  -2.475  1.00  0.00    -0.247 N 
ATOM     28  H4  UNL     1     -19.203  10.038  -1.614  1.00  0.00     0.196 HD
BRANCH  26  29
HETATM   29  O2  UNL     1     -18.468  11.688  -4.249  1.00  0.00    -0.344 OA
ATOM     30  H2  UNL     1     -17.734  12.246  -4.480  1.00  0.00     0.219 HD
ENDBRANCH  26  29
BRANCH  27  31
HETATM   31  O3  UNL     1     -20.686  10.716  -2.849  1.00  0.00    -0.288 OA
ATOM     32  H3  UNL     1     -21.316  11.306  -2.453  1.00  0.00     0.244 HD
ENDBRANCH  27  31
ENDBRANCH  15  26
TORSDOF 7
ENDMDL
MODEL 2
REMARK VINA RESULT: -6.545370642      2.551      4.081
REMARK  7 active torsions:
REMARK  status: ('A' for Active; 'I' for Inactive)
REMARK    1  A    between atoms: C2_2  and  O1_3 
REMARK    2  A    between atoms: O1_3  and  C3_4 
REMARK    3  A    between atoms: C3_4  and  C4_5 
REMARK    4  A    between atoms: C4_5  and  N1_6 
REMARK    5  A    between atoms: C15_20  and  C16_21 
REMARK    6  A    between atoms: C16_21  and  O2_22 
REMARK    7  A    between atoms: N4_24  and  O3_26 
ROOT
HETATM    1  N1  UNL     1     -15.596   9.897  -4.036  1.00  0.00    -0.379 N 
HETATM    2  C5  UNL     1     -14.194   9.781  -3.940  1.00  0.00     0.129 C 
HETATM    3  C6  UNL     1     -13.682  10.019  -2.534  1.00  0.00     0.077 C 
HETATM    4  C7  UNL     1     -14.316  11.276  -1.972  1.00  0.00     0.021 A 
HETATM    5  N2  UNL     1     -13.587  11.987  -1.043  1.00  0.00    -0.349 N 
ATOM      6  H2  UNL     1     -12.662  11.697  -0.727  1.00  0.00     0.166 HD
HETATM    7  C8  UNL     1     -14.215  13.122  -0.577  1.00  0.00     0.131 A 
HETATM    8  C9  UNL     1     -13.592  13.990   0.392  1.00  0.00     0.119 C 
HETATM    9  N3  UNL     1     -13.110  14.698   1.171  1.00  0.00    -0.190 NA
HETATM   10  C10 UNL     1     -15.422  13.454  -1.018  1.00  0.00     0.045 A 
HETATM   11  C11 UNL     1     -16.166  12.752  -1.923  1.00  0.00    -0.028 A 
HETATM   12  C12 UNL     1     -15.545  11.628  -2.408  1.00  0.00    -0.001 A 
HETATM   13  C13 UNL     1     -16.241  11.070  -3.599  1.00  0.00     0.143 C 
HETATM   14  C14 UNL     1     -16.403  12.166  -4.605  1.00  0.00     0.018 C 
HETATM   15  C15 UNL     1     -15.853  13.477  -4.644  1.00  0.00     0.012 C 
HETATM   16  C17 UNL     1     -15.536  14.505  -3.668  1.00  0.00     0.004 C 
HETATM   17  C18 UNL     1     -16.479  15.232  -2.826  1.00  0.00     0.076 C 
HETATM   18  C19 UNL     1     -17.807  14.434  -2.856  1.00  0.00     0.024 C 
HETATM   19  C20 UNL     1     -17.588  13.125  -2.190  1.00  0.00     0.042 C 
HETATM   20  S1  UNL     1     -16.116  15.173  -0.979  1.00  0.00    -0.118 SA
ENDROOT
BRANCH   1  21
HETATM   21  C4  UNL     1     -16.166   9.085  -5.025  1.00  0.00     0.085 C 
BRANCH  21  22
HETATM   22  C3  UNL     1     -15.340   8.829  -6.262  1.00  0.00     0.211 C 
BRANCH  22  23
HETATM   23  O1  UNL     1     -15.340   9.875  -7.160  1.00  0.00    -0.387 OA
BRANCH  23  24
HETATM   24  C2  UNL     1     -15.340   9.448  -8.479  1.00  0.00     0.163 C 
HETATM   25  C1  UNL     1     -16.087   8.133  -8.610  1.00  0.00     0.033 C 
ENDBRANCH  23  24
ENDBRANCH  22  23
ENDBRANCH  21  22
ENDBRANCH   1  21
BRANCH  15  26
HETATM   26  C16 UNL     1     -14.786  13.496  -5.750  1.00  0.00     0.169 C 
HETATM   27  N4  UNL     1     -14.478  12.439  -6.336  1.00  0.00    -0.247 N 
ATOM     28  H4  UNL     1     -14.963  11.592  -6.042  1.00  0.00     0.196 HD
BRANCH  26  29
HETATM   29  O2  UNL     1     -14.215  14.698  -6.050  1.00  0.00    -0.344 OA
ATOM     30  H2  UNL     1     -13.628  14.729  -6.797  1.00  0.00     0.219 HD
ENDBRANCH  26  29
BRANCH  27  31
HETATM   31  O3  UNL     1     -13.550  12.305  -7.337  1.00  0.00    -0.288 OA
ATOM     32  H3  UNL     1     -13.601  11.711  -8.077  1.00  0.00     0.244 HD
ENDBRANCH  27  31
ENDBRANCH  15  26
TORSDOF 7
ENDMDL
MODEL 3
REMARK VINA RESULT: -6.509413912      3.157      4.297
REMARK  7 active torsions:
REMARK  status: ('A' for Active; 'I' for Inactive)
REMARK    1  A    between atoms: C2_2  and  O1_3 
REMARK    2  A    between atoms: O1_3  and  C3_4 
REMARK    3  A    between atoms: C3_4  and  C4_5 
REMARK    4  A    between atoms: C4_5  and  N1_6 
REMARK    5  A    between atoms: C15_20  and  C16_21 
REMARK    6  A    between atoms: C16_21  and  O2_22 
REMARK    7  A    between atoms: N4_24  and  O3_26 
ROOT
HETATM    1  N1  UNL     1     -13.655  13.187  -7.153  1.00  0.00    -0.379 N 
HETATM    2  C5  UNL     1     -14.797  13.698  -7.804  1.00  0.00     0.129 C 
HETATM    3  C6  UNL     1     -15.780  14.338  -6.845  1.00  0.00     0.077 C 
HETATM    4  C7  UNL     1     -16.007  13.414  -5.665  1.00  0.00     0.021 A 
HETATM    5  N2  UNL     1     -17.234  13.482  -5.040  1.00  0.00    -0.349 N 
ATOM      6  H2  UNL     1     -17.971  14.121  -5.337  1.00  0.00     0.166 HD
HETATM    7  C8  UNL     1     -17.380  12.612  -3.981  1.00  0.00     0.131 A 
HETATM    8  C9  UNL     1     -18.604  12.542  -3.220  1.00  0.00     0.119 C 
HETATM    9  N3  UNL     1     -19.576  12.472  -2.596  1.00  0.00    -0.190 NA
HETATM   10  C10 UNL     1     -16.388  11.802  -3.632  1.00  0.00     0.045 A 
HETATM   11  C11 UNL     1     -15.161  11.735  -4.227  1.00  0.00    -0.028 A 
HETATM   12  C12 UNL     1     -15.008  12.584  -5.295  1.00  0.00    -0.001 A 
HETATM   13  C13 UNL     1     -13.794  12.268  -6.096  1.00  0.00     0.143 C 
HETATM   14  C14 UNL     1     -13.839  10.818  -6.464  1.00  0.00     0.018 C 
HETATM   15  C15 UNL     1     -14.881   9.859  -6.332  1.00  0.00     0.012 C 
HETATM   16  C17 UNL     1     -15.926   9.581  -5.362  1.00  0.00     0.004 C 
HETATM   17  C18 UNL     1     -15.744   9.154  -3.980  1.00  0.00     0.076 C 
HETATM   18  C19 UNL     1     -14.268   9.451  -3.614  1.00  0.00     0.024 C 
HETATM   19  C20 UNL     1     -14.066  10.921  -3.619  1.00  0.00     0.042 C 
HETATM   20  S1  UNL     1     -16.610  10.220  -2.691  1.00  0.00    -0.118 SA
ENDROOT
BRANCH   1  21
HETATM   21  C4  UNL     1     -12.494  13.215  -7.937  1.00  0.00     0.085 C 
BRANCH  21  22
HETATM   22  C3  UNL     1     -12.359  14.353  -8.921  1.00  0.00     0.211 C 
BRANCH  22  23
HETATM   23  O1  UNL     1     -12.297  13.949 -10.238  1.00  0.00    -0.387 OA
BRANCH  23  24
HETATM   24  C2  UNL     1     -11.029  13.530 -10.609  1.00  0.00     0.163 C 
HETATM   25  C1  UNL     1     -11.104  12.207 -11.350  1.00  0.00     0.033 C 
ENDBRANCH  23  24
ENDBRANCH  22  23
ENDBRANCH  21  22
ENDBRANCH   1  21
BRANCH  15  26
HETATM   26  C16 UNL     1     -15.422   9.570  -7.742  1.00  0.00     0.169 C 
HETATM   27  N4  UNL     1     -15.337   8.421  -8.218  1.00  0.00    -0.247 N 
ATOM     28  H4  UNL     1     -14.899   7.711  -7.630  1.00  0.00     0.196 HD
BRANCH  26  29
HETATM   29  O2  UNL     1     -15.987  10.609  -8.422  1.00  0.00    -0.344 OA
ATOM     30  H2  UNL     1     -16.882  10.840  -8.201  1.00  0.00     0.219 HD
ENDBRANCH  26  29
BRANCH  27  31
HETATM   31  O3  UNL     1     -15.773   8.017  -9.454  1.00  0.00    -0.288 OA
ATOM     32  H3  UNL     1     -15.705   8.509 -10.263  1.00  0.00     0.244 HD
ENDBRANCH  27  31
ENDBRANCH  15  26
TORSDOF 7
ENDMDL
MODEL 4
REMARK VINA RESULT: -6.407426604      2.712      4.640
REMARK  7 active torsions:
REMARK  status: ('A' for Active; 'I' for Inactive)
REMARK    1  A    between atoms: C2_2  and  O1_3 
REMARK    2  A    between atoms: O1_3  and  C3_4 
REMARK    3  A    between atoms: C3_4  and  C4_5 
REMARK    4  A    between atoms: C4_5  and  N1_6 
REMARK    5  A    between atoms: C15_20  and  C16_21 
REMARK    6  A    between atoms: C16_21  and  O2_22 
REMARK    7  A    between atoms: N4_24  and  O3_26 
ROOT
HETATM    1  N1  UNL     1     -15.670  13.250  -5.785  1.00  0.00    -0.379 N 
HETATM    2  C5  UNL     1     -14.448  12.606  -5.501  1.00  0.00     0.129 C 
HETATM    3  C6  UNL     1     -14.599  11.107  -5.341  1.00  0.00     0.077 C 
HETATM    4  C7  UNL     1     -15.770  10.813  -4.424  1.00  0.00     0.021 A 
HETATM    5  N2  UNL     1     -15.712   9.653  -3.681  1.00  0.00    -0.349 N 
ATOM      6  H2  UNL     1     -14.928   9.002  -3.734  1.00  0.00     0.166 HD
HETATM    7  C8  UNL     1     -16.801   9.448  -2.863  1.00  0.00     0.131 A 
HETATM    8  C9  UNL     1     -16.902   8.289  -2.009  1.00  0.00     0.119 C 
HETATM    9  N3  UNL     1     -17.002   7.366  -1.319  1.00  0.00    -0.190 NA
HETATM   10  C10 UNL     1     -17.798  10.324  -2.835  1.00  0.00     0.045 A 
HETATM   11  C11 UNL     1     -17.881  11.468  -3.577  1.00  0.00    -0.028 A 
HETATM   12  C12 UNL     1     -16.794  11.693  -4.383  1.00  0.00    -0.001 A 
HETATM   13  C13 UNL     1     -16.777  13.077  -4.932  1.00  0.00     0.143 C 
HETATM   14  C14 UNL     1     -16.905  14.036  -3.791  1.00  0.00     0.018 C 
HETATM   15  C15 UNL     1     -16.843  13.821  -2.387  1.00  0.00     0.012 C 
HETATM   16  C17 UNL     1     -17.264  12.774  -1.472  1.00  0.00     0.004 C 
HETATM   17  C18 UNL     1     -18.633  12.359  -1.189  1.00  0.00     0.076 C 
HETATM   18  C19 UNL     1     -19.516  12.935  -2.325  1.00  0.00     0.024 C 
HETATM   19  C20 UNL     1     -19.141  12.270  -3.598  1.00  0.00     0.042 C 
HETATM   20  S1  UNL     1     -18.979  10.522  -1.419  1.00  0.00    -0.118 SA
ENDROOT
BRANCH   1  21
HETATM   21  C4  UNL     1     -15.534  14.403  -6.568  1.00  0.00     0.085 C 
BRANCH  21  22
HETATM   22  C3  UNL     1     -14.767  14.268  -7.861  1.00  0.00     0.211 C 
BRANCH  22  23
HETATM   23  O1  UNL     1     -13.564  14.943  -7.870  1.00  0.00    -0.387 OA
BRANCH  23  24
HETATM   24  C2  UNL     1     -12.680  14.448  -8.816  1.00  0.00     0.163 C 
HETATM   25  C1  UNL     1     -12.062  13.147  -8.334  1.00  0.00     0.033 C 
ENDBRANCH  23  24
ENDBRANCH  22  23
ENDBRANCH  21  22
ENDBRANCH   1  21
BRANCH  15  26
HETATM   26  C16 UNL     1     -15.513  14.410  -1.889  1.00  0.00     0.169 C 
HETATM   27  N4  UNL     1     -15.359  15.647  -1.844  1.00  0.00    -0.247 N 
ATOM     28  H4  UNL     1     -16.145  16.220  -2.150  1.00  0.00     0.196 HD
BRANCH  26  29
HETATM   29  O2  UNL     1     -14.542  13.531  -1.507  1.00  0.00    -0.344 OA
ATOM     30  H2  UNL     1     -14.822  12.675  -1.206  1.00  0.00     0.219 HD
ENDBRANCH  26  29
BRANCH  27  31
HETATM   31  O3  UNL     1     -14.234  16.311  -1.425  1.00  0.00    -0.288 OA
ATOM     32  H3  UNL     1     -14.134  16.790  -0.611  1.00  0.00     0.244 HD
ENDBRANCH  27  31
ENDBRANCH  15  26
TORSDOF 7
ENDMDL
MODEL 5
REMARK VINA RESULT: -6.341872096      2.639      4.037
REMARK  7 active torsions:
REMARK  status: ('A' for Active; 'I' for Inactive)
REMARK    1  A    between atoms: C2_2  and  O1_3 
REMARK    2  A    between atoms: O1_3  and  C3_4 
REMARK    3  A    between atoms: C3_4  and  C4_5 
REMARK    4  A    between atoms: C4_5  and  N1_6 
REMARK    5  A    between atoms: C15_20  and  C16_21 
REMARK    6  A    between atoms: C16_21  and  O2_22 
REMARK    7  A    between atoms: N4_24  and  O3_26 
ROOT
HETATM    1  N1  UNL     1     -15.812   9.879  -3.765  1.00  0.00    -0.379 N 
HETATM    2  C5  UNL     1     -14.405   9.939  -3.836  1.00  0.00     0.129 C 
HETATM    3  C6  UNL     1     -13.762  10.209  -2.491  1.00  0.00     0.077 C 
HETATM    4  C7  UNL     1     -14.474  11.364  -1.814  1.00  0.00     0.021 A 
HETATM    5  N2  UNL     1     -13.733  12.141  -0.950  1.00  0.00    -0.349 N 
ATOM      6  H2  UNL     1     -12.747  11.964  -0.754  1.00  0.00     0.166 HD
HETATM    7  C8  UNL     1     -14.435  13.177  -0.374  1.00  0.00     0.131 A 
HETATM    8  C9  UNL     1     -13.813  14.095   0.548  1.00  0.00     0.119 C 
HETATM    9  N3  UNL     1     -13.333  14.842   1.291  1.00  0.00    -0.190 NA
HETATM   10  C10 UNL     1     -15.719  13.362  -0.659  1.00  0.00     0.045 A 
HETATM   11  C11 UNL     1     -16.473  12.591  -1.497  1.00  0.00    -0.028 A 
HETATM   12  C12 UNL     1     -15.781  11.566  -2.091  1.00  0.00    -0.001 A 
HETATM   13  C13 UNL     1     -16.540  10.950  -3.214  1.00  0.00     0.143 C 
HETATM   14  C14 UNL     1     -16.954  12.038  -4.153  1.00  0.00     0.018 C 
HETATM   15  C15 UNL     1     -16.580  13.409  -4.208  1.00  0.00     0.012 C 
HETATM   16  C17 UNL     1     -16.277  14.447  -3.238  1.00  0.00     0.004 C 
HETATM   17  C18 UNL     1     -17.195  15.031  -2.266  1.00  0.00     0.076 C 
HETATM   18  C19 UNL     1     -18.408  14.071  -2.171  1.00  0.00     0.024 C 
HETATM   19  C20 UNL     1     -17.951  12.787  -1.584  1.00  0.00     0.042 C 
HETATM   20  S1  UNL     1     -16.609  14.978  -0.477  1.00  0.00    -0.118 SA
ENDROOT
BRANCH   1  21
HETATM   21  C4  UNL     1     -16.391   9.022  -4.710  1.00  0.00     0.085 C 
BRANCH  21  22
HETATM   22  C3  UNL     1     -15.451   8.270  -5.621  1.00  0.00     0.211 C 
BRANCH  22  23
HETATM   23  O1  UNL     1     -15.398   8.771  -6.905  1.00  0.00    -0.387 OA
BRANCH  23  24
HETATM   24  C2  UNL     1     -15.758   7.832  -7.859  1.00  0.00     0.163 C 
HETATM   25  C1  UNL     1     -15.868   8.483  -9.227  1.00  0.00     0.033 C 
ENDBRANCH  23  24
ENDBRANCH  22  23
ENDBRANCH  21  22
ENDBRANCH   1  21
BRANCH  15  26
HETATM   26  C16 UNL     1     -15.663  13.588  -5.429  1.00  0.00     0.169 C 
HETATM   27  N4  UNL     1     -15.298  14.730  -5.772  1.00  0.00    -0.247 N 
ATOM     28  H4  UNL     1     -15.638  15.510  -5.209  1.00  0.00     0.196 HD
BRANCH  26  29
HETATM   29  O2  UNL     1     -15.278  12.461  -6.094  1.00  0.00    -0.344 OA
ATOM     30  H2  UNL     1     -14.719  12.572  -6.854  1.00  0.00     0.219 HD
ENDBRANCH  26  29
BRANCH  27  31
HETATM   31  O3  UNL     1     -14.486  15.041  -6.832  1.00  0.00    -0.288 OA
ATOM     32  H3  UNL     1     -14.467  15.865  -7.305  1.00  0.00     0.244 HD
ENDBRANCH  27  31
ENDBRANCH  15  26
TORSDOF 7
ENDMDL
