MODEL 1
REMARK VINA RESULT: -8.040489296      0.000      0.000
REMARK  6 active torsions:
REMARK  status: ('A' for Active; 'I' for Inactive)
REMARK    1  A    between atoms: N2_7  and  C5_8 
REMARK    2  A    between atoms: C5_8  and  C6_9 
REMARK    3  A    between atoms: C6_9  and  O1_10 
REMARK    4  A    between atoms: C6_9  and  C7_12 
REMARK    5  A    between atoms: C7_12  and  N3_13 
REMARK    6  A    between atoms: C11_19  and  C12_20 
ROOT
HETATM    1  C1  UNL     1     -16.778   6.122  -5.386  1.00  0.00     0.049 C 
HETATM    2  C2  UNL     1     -16.275   7.493  -5.467  1.00  0.00    -0.052 A 
HETATM    3  C3  UNL     1     -15.651   8.017  -6.606  1.00  0.00     0.039 A 
HETATM    4  C4  UNL     1     -15.179   9.306  -6.678  1.00  0.00     0.064 A 
HETATM    5  N1  UNL     1     -14.556  10.085  -7.593  1.00  0.00    -0.296 N 
ATOM      6  H1  UNL     1     -14.291   9.794  -8.534  1.00  0.00     0.187 HD
HETATM    7  N2  UNL     1     -14.344  11.294  -7.069  1.00  0.00    -0.273 N 
HETATM    8  C10 UNL     1     -14.826  11.326  -5.802  1.00  0.00     0.137 A 
HETATM    9  N4  UNL     1     -14.821  12.338  -4.924  1.00  0.00    -0.334 N 
ATOM     10  H4  UNL     1     -14.401  13.217  -5.226  1.00  0.00     0.168 HD
HETATM   11  C11 UNL     1     -15.322  12.292  -3.681  1.00  0.00     0.090 A 
HETATM   12  S1  UNL     1     -16.033  10.798  -3.169  1.00  0.00    -0.070 SA
HETATM   13  C17 UNL     1     -15.940   9.630  -4.436  1.00  0.00     0.029 A 
HETATM   14  C18 UNL     1     -16.411   8.336  -4.373  1.00  0.00    -0.038 A 
HETATM   15  C19 UNL     1     -17.047   7.925  -3.099  1.00  0.00     0.050 C 
HETATM   16  C20 UNL     1     -15.341  10.089  -5.570  1.00  0.00     0.055 A 
ENDROOT
BRANCH  11  17
HETATM   17  C12 UNL     1     -15.290  13.428  -2.774  1.00  0.00     0.045 A 
HETATM   18  C13 UNL     1     -15.877  14.634  -3.003  1.00  0.00     0.037 A 
HETATM   19  C14 UNL     1     -16.656  15.034  -4.204  1.00  0.00     0.070 C 
HETATM   20  N5  UNL     1     -15.609  15.390  -1.924  1.00  0.00    -0.304 N 
HETATM   21  N6  UNL     1     -14.891  14.733  -1.035  1.00  0.00    -0.304 N 
ATOM     22  H5  UNL     1     -15.923  16.353  -1.808  1.00  0.00     0.186 HD
HETATM   23  C15 UNL     1     -14.679  13.493  -1.553  1.00  0.00     0.037 A 
ATOM     24  H6  UNL     1     -14.560  15.085  -0.137  1.00  0.00     0.186 HD
HETATM   25  C16 UNL     1     -13.909  12.415  -0.881  1.00  0.00     0.070 C 
ENDBRANCH  11  17
BRANCH   7  26
HETATM   26  C5  UNL     1     -13.705  12.389  -7.753  1.00  0.00     0.188 C 
BRANCH  26  27
HETATM   27  C6  UNL     1     -12.565  11.913  -8.619  1.00  0.00     0.176 C 
BRANCH  27  28
HETATM   28  O1  UNL     1     -11.685  11.210  -7.760  1.00  0.00    -0.389 OA
ATOM     29  H1  UNL     1     -11.932  10.294  -7.820  1.00  0.00     0.210 HD
ENDBRANCH  27  28
BRANCH  27  30
HETATM   30  C7  UNL     1     -11.735  13.091  -9.128  1.00  0.00     0.090 C 
BRANCH  30  31
HETATM   31  N3  UNL     1     -11.462  12.888 -10.496  1.00  0.00    -0.399 N 
HETATM   32  C8  UNL     1     -11.169  13.988 -11.315  1.00  0.00     0.148 C 
HETATM   33  C9  UNL     1     -11.647  11.616 -11.058  1.00  0.00     0.148 C 
ENDBRANCH  30  31
ENDBRANCH  27  30
ENDBRANCH  26  27
ENDBRANCH   7  26
TORSDOF 6
ENDMDL
MODEL 2
REMARK VINA RESULT: -8.026889300      0.084      1.648
REMARK  6 active torsions:
REMARK  status: ('A' for Active; 'I' for Inactive)
REMARK    1  A    between atoms: N2_7  and  C5_8 
REMARK    2  A    between atoms: C5_8  and  C6_9 
REMARK    3  A    between atoms: C6_9  and  O1_10 
REMARK    4  A    between atoms: C6_9  and  C7_12 
REMARK    5  A    between atoms: C7_12  and  N3_13 
REMARK    6  A    between atoms: C11_19  and  C12_20 
ROOT
HETATM    1  C1  UNL     1     -16.783   6.081  -5.391  1.00  0.00     0.049 C 
HETATM    2  C2  UNL     1     -16.287   7.455  -5.487  1.00  0.00    -0.052 A 
HETATM    3  C3  UNL     1     -15.662   7.968  -6.631  1.00  0.00     0.039 A 
HETATM    4  C4  UNL     1     -15.197   9.259  -6.717  1.00  0.00     0.064 A 
HETATM    5  N1  UNL     1     -14.576  10.030  -7.640  1.00  0.00    -0.296 N 
ATOM      6  H1  UNL     1     -14.307   9.729  -8.576  1.00  0.00     0.187 HD
HETATM    7  N2  UNL     1     -14.372  11.246  -7.129  1.00  0.00    -0.273 N 
HETATM    8  C10 UNL     1     -14.857  11.291  -5.864  1.00  0.00     0.137 A 
HETATM    9  N4  UNL     1     -14.860  12.313  -4.998  1.00  0.00    -0.334 N 
ATOM     10  H4  UNL     1     -14.444  13.191  -5.310  1.00  0.00     0.168 HD
HETATM   11  C11 UNL     1     -15.364  12.279  -3.756  1.00  0.00     0.090 A 
HETATM   12  S1  UNL     1     -16.068  10.788  -3.228  1.00  0.00    -0.070 SA
HETATM   13  C17 UNL     1     -15.966   9.605  -4.481  1.00  0.00     0.029 A 
HETATM   14  C18 UNL     1     -16.430   8.310  -4.404  1.00  0.00    -0.038 A 
HETATM   15  C19 UNL     1     -17.068   7.910  -3.127  1.00  0.00     0.050 C 
HETATM   16  C20 UNL     1     -15.366  10.054  -5.619  1.00  0.00     0.055 A 
ENDROOT
BRANCH  11  17
HETATM   17  C12 UNL     1     -15.340  13.426  -2.863  1.00  0.00     0.045 A 
HETATM   18  C13 UNL     1     -14.715  13.470  -1.655  1.00  0.00     0.037 A 
HETATM   19  C14 UNL     1     -13.944  12.376  -1.008  1.00  0.00     0.070 C 
HETATM   20  N5  UNL     1     -14.937  14.702  -1.165  1.00  0.00    -0.304 N 
HETATM   21  N6  UNL     1     -15.662  15.431  -1.990  1.00  0.00    -0.304 N 
ATOM     22  H5  UNL     1     -14.587  15.032  -0.266  1.00  0.00     0.186 HD
HETATM   23  C15 UNL     1     -15.926  14.644  -3.067  1.00  0.00     0.037 A 
ATOM     24  H6  UNL     1     -15.965  16.395  -1.849  1.00  0.00     0.186 HD
HETATM   25  C16 UNL     1     -16.722  15.066  -4.250  1.00  0.00     0.070 C 
ENDBRANCH  11  17
BRANCH   7  26
HETATM   26  C5  UNL     1     -13.737  12.336  -7.825  1.00  0.00     0.188 C 
BRANCH  26  27
HETATM   27  C6  UNL     1     -12.566  11.861  -8.650  1.00  0.00     0.176 C 
BRANCH  27  28
HETATM   28  O1  UNL     1     -11.684  11.218  -7.748  1.00  0.00    -0.389 OA
ATOM     29  H1  UNL     1     -11.061  10.740  -8.284  1.00  0.00     0.210 HD
ENDBRANCH  27  28
BRANCH  27  30
HETATM   30  C7  UNL     1     -11.762  13.044  -9.190  1.00  0.00     0.090 C 
BRANCH  30  31
HETATM   31  N3  UNL     1     -11.565  12.856 -10.573  1.00  0.00    -0.399 N 
HETATM   32  C8  UNL     1     -11.596  11.561 -11.109  1.00  0.00     0.148 C 
HETATM   33  C9  UNL     1     -11.178  13.943 -11.371  1.00  0.00     0.148 C 
ENDBRANCH  30  31
ENDBRANCH  27  30
ENDBRANCH  26  27
ENDBRANCH   7  26
TORSDOF 6
ENDMDL
MODEL 3
REMARK VINA RESULT: -7.950807213      1.077      1.295
REMARK  6 active torsions:
REMARK  status: ('A' for Active; 'I' for Inactive)
REMARK    1  A    between atoms: N2_7  and  C5_8 
REMARK    2  A    between atoms: C5_8  and  C6_9 
REMARK    3  A    between atoms: C6_9  and  O1_10 
REMARK    4  A    between atoms: C6_9  and  C7_12 
REMARK    5  A    between atoms: C7_12  and  N3_13 
REMARK    6  A    between atoms: C11_19  and  C12_20 
ROOT
HETATM    1  C1  UNL     1     -17.045   5.529  -6.831  1.00  0.00     0.049 C 
HETATM    2  C2  UNL     1     -16.478   6.857  -6.590  1.00  0.00    -0.052 A 
HETATM    3  C3  UNL     1     -15.918   7.648  -7.600  1.00  0.00     0.039 A 
HETATM    4  C4  UNL     1     -15.386   8.895  -7.370  1.00  0.00     0.064 A 
HETATM    5  N1  UNL     1     -14.796   9.871  -8.097  1.00  0.00    -0.296 N 
ATOM      6  H1  UNL     1     -14.620   9.836  -9.101  1.00  0.00     0.187 HD
HETATM    7  N2  UNL     1     -14.480  10.888  -7.292  1.00  0.00    -0.273 N 
HETATM    8  C10 UNL     1     -14.860  10.593  -6.024  1.00  0.00     0.137 A 
HETATM    9  N4  UNL     1     -14.733  11.331  -4.913  1.00  0.00    -0.334 N 
ATOM     10  H4  UNL     1     -14.292  12.246  -5.008  1.00  0.00     0.168 HD
HETATM   11  C11 UNL     1     -15.138  10.968  -3.687  1.00  0.00     0.090 A 
HETATM   12  S1  UNL     1     -15.884   9.414  -3.529  1.00  0.00    -0.070 SA
HETATM   13  C17 UNL     1     -15.952   8.627  -5.063  1.00  0.00     0.029 A 
HETATM   14  C18 UNL     1     -16.484   7.379  -5.304  1.00  0.00    -0.038 A 
HETATM   15  C19 UNL     1     -17.041   6.659  -4.134  1.00  0.00     0.050 C 
HETATM   16  C20 UNL     1     -15.419   9.356  -6.084  1.00  0.00     0.055 A 
ENDROOT
BRANCH  11  17
HETATM   17  C12 UNL     1     -14.975  11.817  -2.519  1.00  0.00     0.045 A 
HETATM   18  C13 UNL     1     -15.714  12.926  -2.243  1.00  0.00     0.037 A 
HETATM   19  C14 UNL     1     -16.818  13.490  -3.064  1.00  0.00     0.070 C 
HETATM   20  N5  UNL     1     -15.243  13.408  -1.079  1.00  0.00    -0.304 N 
HETATM   21  N6  UNL     1     -14.256  12.671  -0.610  1.00  0.00    -0.304 N 
ATOM     22  H5  UNL     1     -15.606  14.241  -0.617  1.00  0.00     0.186 HD
HETATM   23  C15 UNL     1     -14.072  11.662  -1.505  1.00  0.00     0.037 A 
ATOM     24  H6  UNL     1     -13.734  12.826   0.252  1.00  0.00     0.186 HD
HETATM   25  C16 UNL     1     -13.052  10.589  -1.372  1.00  0.00     0.070 C 
ENDBRANCH  11  17
BRANCH   7  26
HETATM   26  C5  UNL     1     -13.839  12.107  -7.716  1.00  0.00     0.188 C 
BRANCH  26  27
HETATM   27  C6  UNL     1     -12.662  11.830  -8.618  1.00  0.00     0.176 C 
BRANCH  27  28
HETATM   28  O1  UNL     1     -11.736  11.092  -7.842  1.00  0.00    -0.389 OA
ATOM     29  H1  UNL     1     -10.902  11.540  -7.929  1.00  0.00     0.210 HD
ENDBRANCH  27  28
BRANCH  27  30
HETATM   30  C7  UNL     1     -11.922  13.122  -8.963  1.00  0.00     0.090 C 
BRANCH  30  31
HETATM   31  N3  UNL     1     -11.513  13.057 -10.311  1.00  0.00    -0.399 N 
HETATM   32  C8  UNL     1     -11.153  14.233 -10.984  1.00  0.00     0.148 C 
HETATM   33  C9  UNL     1     -11.627  11.848 -11.012  1.00  0.00     0.148 C 
ENDBRANCH  30  31
ENDBRANCH  27  30
ENDBRANCH  26  27
ENDBRANCH   7  26
TORSDOF 6
ENDMDL
MODEL 4
REMARK VINA RESULT: -7.929121688      1.024      1.897
REMARK  6 active torsions:
REMARK  status: ('A' for Active; 'I' for Inactive)
REMARK    1  A    between atoms: N2_7  and  C5_8 
REMARK    2  A    between atoms: C5_8  and  C6_9 
REMARK    3  A    between atoms: C6_9  and  O1_10 
REMARK    4  A    between atoms: C6_9  and  C7_12 
REMARK    5  A    between atoms: C7_12  and  N3_13 
REMARK    6  A    between atoms: C11_19  and  C12_20 
ROOT
HETATM    1  C1  UNL     1     -17.028   5.522  -6.679  1.00  0.00     0.049 C 
HETATM    2  C2  UNL     1     -16.473   6.859  -6.467  1.00  0.00    -0.052 A 
HETATM    3  C3  UNL     1     -15.917   7.633  -7.492  1.00  0.00     0.039 A 
HETATM    4  C4  UNL     1     -15.396   8.888  -7.288  1.00  0.00     0.064 A 
HETATM    5  N1  UNL     1     -14.812   9.853  -8.036  1.00  0.00    -0.296 N 
ATOM      6  H1  UNL     1     -14.633   9.797  -9.038  1.00  0.00     0.187 HD
HETATM    7  N2  UNL     1     -14.507  10.890  -7.252  1.00  0.00    -0.273 N 
HETATM    8  C10 UNL     1     -14.888  10.620  -5.979  1.00  0.00     0.137 A 
HETATM    9  N4  UNL     1     -14.770  11.384  -4.885  1.00  0.00    -0.334 N 
ATOM     10  H4  UNL     1     -14.336  12.300  -4.999  1.00  0.00     0.168 HD
HETATM   11  C11 UNL     1     -15.175  11.044  -3.652  1.00  0.00     0.090 A 
HETATM   12  S1  UNL     1     -15.909   9.488  -3.461  1.00  0.00    -0.070 SA
HETATM   13  C17 UNL     1     -15.967   8.667  -4.978  1.00  0.00     0.029 A 
HETATM   14  C18 UNL     1     -16.487   7.409  -5.193  1.00  0.00    -0.038 A 
HETATM   15  C19 UNL     1     -17.041   6.711  -4.008  1.00  0.00     0.050 C 
HETATM   16  C20 UNL     1     -15.437   9.377  -6.013  1.00  0.00     0.055 A 
ENDROOT
BRANCH  11  17
HETATM   17  C12 UNL     1     -15.023  11.921  -2.502  1.00  0.00     0.045 A 
HETATM   18  C13 UNL     1     -14.126  11.747  -1.494  1.00  0.00     0.037 A 
HETATM   19  C14 UNL     1     -13.137  10.645  -1.358  1.00  0.00     0.070 C 
HETATM   20  N5  UNL     1     -14.317  12.771  -0.644  1.00  0.00    -0.304 N 
HETATM   21  N6  UNL     1     -15.276  13.575  -1.058  1.00  0.00    -0.304 N 
ATOM     22  H5  UNL     1     -13.784  12.909   0.214  1.00  0.00     0.186 HD
HETATM   23  C15 UNL     1     -15.734  13.055  -2.228  1.00  0.00     0.037 A 
ATOM     24  H6  UNL     1     -15.609  14.419  -0.592  1.00  0.00     0.186 HD
HETATM   25  C16 UNL     1     -16.826  13.645  -3.047  1.00  0.00     0.070 C 
ENDBRANCH  11  17
BRANCH   7  26
HETATM   26  C5  UNL     1     -13.875  12.105  -7.702  1.00  0.00     0.188 C 
BRANCH  26  27
HETATM   27  C6  UNL     1     -12.678  11.818  -8.574  1.00  0.00     0.176 C 
BRANCH  27  28
HETATM   28  O1  UNL     1     -11.752  11.125  -7.756  1.00  0.00    -0.389 OA
ATOM     29  H1  UNL     1     -11.834  10.206  -7.984  1.00  0.00     0.210 HD
ENDBRANCH  27  28
BRANCH  27  30
HETATM   30  C7  UNL     1     -11.955  13.110  -8.953  1.00  0.00     0.090 C 
BRANCH  30  31
HETATM   31  N3  UNL     1     -11.518  13.003 -10.288  1.00  0.00    -0.399 N 
HETATM   32  C8  UNL     1     -11.108  14.153 -10.978  1.00  0.00     0.148 C 
HETATM   33  C9  UNL     1     -11.653  11.782 -10.966  1.00  0.00     0.148 C 
ENDBRANCH  30  31
ENDBRANCH  27  30
ENDBRANCH  26  27
ENDBRANCH   7  26
TORSDOF 6
ENDMDL
MODEL 5
REMARK VINA RESULT: -7.434693445      2.288      5.800
REMARK  6 active torsions:
REMARK  status: ('A' for Active; 'I' for Inactive)
REMARK    1  A    between atoms: N2_7  and  C5_8 
REMARK    2  A    between atoms: C5_8  and  C6_9 
REMARK    3  A    between atoms: C6_9  and  O1_10 
REMARK    4  A    between atoms: C6_9  and  C7_12 
REMARK    5  A    between atoms: C7_12  and  N3_13 
REMARK    6  A    between atoms: C11_19  and  C12_20 
ROOT
HETATM    1  C1  UNL     1     -16.956   5.940  -6.867  1.00  0.00     0.049 C 
HETATM    2  C2  UNL     1     -16.385   7.223  -6.457  1.00  0.00    -0.052 A 
HETATM    3  C3  UNL     1     -16.230   7.604  -5.119  1.00  0.00     0.039 A 
HETATM    4  C4  UNL     1     -15.694   8.810  -4.737  1.00  0.00     0.064 A 
HETATM    5  N1  UNL     1     -15.419   9.451  -3.577  1.00  0.00    -0.296 N 
ATOM      6  H1  UNL     1     -15.594   9.083  -2.643  1.00  0.00     0.187 HD
HETATM    7  N2  UNL     1     -14.882  10.643  -3.852  1.00  0.00    -0.273 N 
HETATM    8  C10 UNL     1     -14.797  10.800  -5.196  1.00  0.00     0.137 A 
HETATM    9  N4  UNL     1     -14.323  11.840  -5.894  1.00  0.00    -0.334 N 
ATOM     10  H4  UNL     1     -13.971  12.637  -5.364  1.00  0.00     0.168 HD
HETATM   11  C11 UNL     1     -14.271  11.920  -7.232  1.00  0.00     0.090 A 
HETATM   12  S1  UNL     1     -14.869  10.566  -8.130  1.00  0.00    -0.070 SA
HETATM   13  C17 UNL     1     -15.432   9.339  -7.053  1.00  0.00     0.029 A 
HETATM   14  C18 UNL     1     -15.969   8.127  -7.425  1.00  0.00    -0.038 A 
HETATM   15  C19 UNL     1     -16.071   7.866  -8.881  1.00  0.00     0.050 C 
HETATM   16  C20 UNL     1     -15.303   9.659  -5.734  1.00  0.00     0.055 A 
ENDROOT
BRANCH  11  17
HETATM   17  C12 UNL     1     -13.739  13.077  -7.933  1.00  0.00     0.045 A 
HETATM   18  C13 UNL     1     -14.200  14.351  -7.811  1.00  0.00     0.037 A 
HETATM   19  C14 UNL     1     -15.324  14.816  -6.955  1.00  0.00     0.070 C 
HETATM   20  N5  UNL     1     -13.437  15.104  -8.622  1.00  0.00    -0.304 N 
HETATM   21  N6  UNL     1     -12.527  14.380  -9.244  1.00  0.00    -0.304 N 
ATOM     22  H5  UNL     1     -13.548  16.110  -8.741  1.00  0.00     0.186 HD
HETATM   23  C15 UNL     1     -12.702  13.099  -8.823  1.00  0.00     0.037 A 
ATOM     24  H6  UNL     1     -11.830  14.715  -9.909  1.00  0.00     0.186 HD
HETATM   25  C16 UNL     1     -11.886  11.941  -9.272  1.00  0.00     0.070 C 
ENDBRANCH  11  17
BRANCH   7  26
HETATM   26  C5  UNL     1     -14.460  11.603  -2.865  1.00  0.00     0.188 C 
BRANCH  26  27
HETATM   27  C6  UNL     1     -15.580  12.539  -2.485  1.00  0.00     0.176 C 
BRANCH  27  28
HETATM   28  O1  UNL     1     -16.771  11.944  -2.967  1.00  0.00    -0.389 OA
ATOM     29  H1  UNL     1     -17.164  12.578  -3.557  1.00  0.00     0.210 HD
ENDBRANCH  27  28
BRANCH  27  30
HETATM   30  C7  UNL     1     -15.477  13.857  -3.253  1.00  0.00     0.090 C 
BRANCH  30  31
HETATM   31  N3  UNL     1     -15.949  14.895  -2.425  1.00  0.00    -0.399 N 
HETATM   32  C8  UNL     1     -17.091  15.617  -2.800  1.00  0.00     0.148 C 
HETATM   33  C9  UNL     1     -15.183  15.305  -1.323  1.00  0.00     0.148 C 
ENDBRANCH  30  31
ENDBRANCH  27  30
ENDBRANCH  26  27
ENDBRANCH   7  26
TORSDOF 6
ENDMDL
