MODEL 1
REMARK VINA RESULT: -7.580961864      0.000      0.000
REMARK  8 active torsions:
REMARK  status: ('A' for Active; 'I' for Inactive)
REMARK    1  A    between atoms: C5_5  and  C6_6 
REMARK    2  A    between atoms: C5_5  and  C8_9 
REMARK    3  A    between atoms: C11_12  and  C12_13 
REMARK    4  A    between atoms: C12_13  and  N2_14 
REMARK    5  A    between atoms: N2_14  and  N3_16 
REMARK    6  A    between atoms: N3_16  and  C13_18 
REMARK    7  A    between atoms: C16_27  and  C17_28 
REMARK    8  A    between atoms: C17_28  and  O2_29 
ROOT
HETATM    1  C6  UNL     1     -17.604  11.770  -4.727  1.00  0.00     0.136 C 
HETATM    2  C7  UNL     1     -18.441  12.315  -3.663  1.00  0.00     0.060 C 
HETATM    3  N1  UNL     1     -19.124  12.720  -2.807  1.00  0.00    -0.197 NA
ENDROOT
BRANCH   1   4
HETATM    4  C5  UNL     1     -16.123  11.862  -4.466  1.00  0.00     0.003 C 
HETATM    5  C4  UNL     1     -15.560  10.634  -5.244  1.00  0.00     0.018 C 
HETATM    6  C3  UNL     1     -16.152   9.349  -4.866  1.00  0.00     0.034 C 
HETATM    7  C2  UNL     1     -16.155   9.207  -3.387  1.00  0.00    -0.085 C 
HETATM    8  C1  UNL     1     -16.645   8.107  -2.802  1.00  0.00     0.014 C 
HETATM    9  C20 UNL     1     -15.612  10.284  -2.575  1.00  0.00     0.019 C 
HETATM   10  C15 UNL     1     -15.860  11.678  -3.009  1.00  0.00     0.012 C 
HETATM   11  C19 UNL     1     -14.142  10.155  -2.290  1.00  0.00     0.010 C 
HETATM   12  C16 UNL     1     -14.779  12.466  -2.379  1.00  0.00     0.015 C 
HETATM   13  C18 UNL     1     -13.869  11.480  -1.614  1.00  0.00     0.008 C 
BRANCH  12  14
HETATM   14  C17 UNL     1     -15.314  13.384  -1.264  1.00  0.00     0.169 C 
BRANCH  14  15
HETATM   15  O2  UNL     1     -16.414  14.101  -1.679  1.00  0.00    -0.400 OA
ATOM     16  H2  UNL     1     -16.171  14.962  -2.000  1.00  0.00     0.209 HD
ENDBRANCH  14  15
ENDBRANCH  12  14
BRANCH   4  17
HETATM   17  C8  UNL     1     -15.448  12.997  -5.149  1.00  0.00     0.132 C 
HETATM   18  C9  UNL     1     -16.117  14.287  -5.339  1.00  0.00     0.035 C 
HETATM   19  C10 UNL     1     -15.077  14.893  -6.352  1.00  0.00     0.040 C 
HETATM   20  C11 UNL     1     -15.040  13.671  -7.272  1.00  0.00     0.161 C 
HETATM   21  O1  UNL     1     -14.950  12.608  -6.426  1.00  0.00    -0.374 OA
BRANCH  20  22
HETATM   22  C12 UNL     1     -13.948  13.743  -8.238  1.00  0.00     0.112 C 
BRANCH  22  23
HETATM   23  N2  UNL     1     -12.774  13.340  -7.921  1.00  0.00    -0.311 N 
ATOM     24  H2  UNL     1     -12.142  13.957  -7.410  1.00  0.00     0.185 HD
BRANCH  23  25
HETATM   25  N3  UNL     1     -12.364  12.059  -8.273  1.00  0.00    -0.279 N 
ATOM     26  H3  UNL     1     -12.348  11.295  -7.599  1.00  0.00     0.189 HD
BRANCH  25  27
HETATM   27  C13 UNL     1     -11.996  11.888  -9.529  1.00  0.00     0.180 A 
HETATM   28  N4  UNL     1     -12.082  10.773 -10.253  1.00  0.00    -0.330 N 
HETATM   29  C14 UNL     1     -11.658  10.816 -11.490  1.00  0.00     0.189 A 
ATOM     30  H4  UNL     1     -12.467   9.915  -9.858  1.00  0.00     0.168 HD
HETATM   31  N5  UNL     1     -11.170  11.966 -11.947  1.00  0.00    -0.320 N 
HETATM   32  S1  UNL     1     -11.308  12.997 -10.626  1.00  0.00     0.025 SA
ATOM     33  H5  UNL     1     -10.801  12.174 -12.875  1.00  0.00     0.175 HD
ENDBRANCH  25  27
ENDBRANCH  23  25
ENDBRANCH  22  23
ENDBRANCH  20  22
ENDBRANCH   4  17
ENDBRANCH   1   4
TORSDOF 8
ENDMDL
MODEL 2
REMARK VINA RESULT: -7.507664276      1.006      1.275
REMARK  8 active torsions:
REMARK  status: ('A' for Active; 'I' for Inactive)
REMARK    1  A    between atoms: C5_5  and  C6_6 
REMARK    2  A    between atoms: C5_5  and  C8_9 
REMARK    3  A    between atoms: C11_12  and  C12_13 
REMARK    4  A    between atoms: C12_13  and  N2_14 
REMARK    5  A    between atoms: N2_14  and  N3_16 
REMARK    6  A    between atoms: N3_16  and  C13_18 
REMARK    7  A    between atoms: C16_27  and  C17_28 
REMARK    8  A    between atoms: C17_28  and  O2_29 
ROOT
HETATM    1  C6  UNL     1     -16.905  11.739  -4.860  1.00  0.00     0.136 C 
HETATM    2  C7  UNL     1     -18.155  12.046  -4.173  1.00  0.00     0.060 C 
HETATM    3  N1  UNL     1     -19.158  12.260  -3.614  1.00  0.00    -0.197 NA
ENDROOT
BRANCH   1   4
HETATM    4  C5  UNL     1     -15.696  12.441  -4.301  1.00  0.00     0.003 C 
HETATM    5  C4  UNL     1     -14.587  11.349  -4.400  1.00  0.00     0.018 C 
HETATM    6  C3  UNL     1     -14.910  10.089  -3.725  1.00  0.00     0.034 C 
HETATM    7  C2  UNL     1     -15.400  10.362  -2.349  1.00  0.00    -0.085 C 
HETATM    8  C1  UNL     1     -15.754   9.362  -1.533  1.00  0.00     0.014 C 
HETATM    9  C20 UNL     1     -15.489  11.741  -1.894  1.00  0.00     0.019 C 
HETATM   10  C15 UNL     1     -15.928  12.769  -2.864  1.00  0.00     0.012 C 
HETATM   11  C19 UNL     1     -14.239  12.249  -1.233  1.00  0.00     0.010 C 
HETATM   12  C16 UNL     1     -15.393  14.041  -2.332  1.00  0.00     0.015 C 
HETATM   13  C18 UNL     1     -14.586  13.710  -1.057  1.00  0.00     0.008 C 
BRANCH  12  14
HETATM   14  C17 UNL     1     -16.513  14.960  -1.808  1.00  0.00     0.169 C 
BRANCH  14  15
HETATM   15  O2  UNL     1     -17.612  14.947  -2.639  1.00  0.00    -0.400 OA
ATOM     16  H2  UNL     1     -17.441  14.466  -3.439  1.00  0.00     0.209 HD
ENDBRANCH  14  15
ENDBRANCH  12  14
BRANCH   4  17
HETATM   17  C8  UNL     1     -15.150  13.515  -5.173  1.00  0.00     0.132 C 
HETATM   18  C9  UNL     1     -16.025  14.355  -5.995  1.00  0.00     0.035 C 
HETATM   19  C10 UNL     1     -14.892  15.008  -6.871  1.00  0.00     0.040 C 
HETATM   20  C11 UNL     1     -14.199  13.689  -7.220  1.00  0.00     0.161 C 
HETATM   21  O1  UNL     1     -14.140  13.011  -6.041  1.00  0.00    -0.374 OA
BRANCH  20  22
HETATM   22  C12 UNL     1     -12.894  13.901  -7.839  1.00  0.00     0.112 C 
BRANCH  22  23
HETATM   23  N2  UNL     1     -12.021  12.964  -7.847  1.00  0.00    -0.311 N 
ATOM     24  H2  UNL     1     -11.113  13.108  -7.404  1.00  0.00     0.185 HD
BRANCH  23  25
HETATM   25  N3  UNL     1     -12.313  11.751  -8.460  1.00  0.00    -0.279 N 
ATOM     26  H3  UNL     1     -12.753  10.984  -7.952  1.00  0.00     0.189 HD
BRANCH  25  27
HETATM   27  C13 UNL     1     -11.990  11.647  -9.735  1.00  0.00     0.180 A 
HETATM   28  N4  UNL     1     -12.120  10.578 -10.519  1.00  0.00    -0.330 N 
HETATM   29  C14 UNL     1     -11.735  10.686 -11.765  1.00  0.00     0.189 A 
ATOM     30  H4  UNL     1     -12.506   9.705 -10.161  1.00  0.00     0.168 HD
HETATM   31  N5  UNL     1     -11.241  11.853 -12.171  1.00  0.00    -0.320 N 
HETATM   32  S1  UNL     1     -11.317  12.807 -10.788  1.00  0.00     0.025 SA
ATOM     33  H5  UNL     1     -10.899  12.108 -13.097  1.00  0.00     0.175 HD
ENDBRANCH  25  27
ENDBRANCH  23  25
ENDBRANCH  22  23
ENDBRANCH  20  22
ENDBRANCH   4  17
ENDBRANCH   1   4
TORSDOF 8
ENDMDL
MODEL 3
REMARK VINA RESULT: -7.428346030      0.915      1.010
REMARK  8 active torsions:
REMARK  status: ('A' for Active; 'I' for Inactive)
REMARK    1  A    between atoms: C5_5  and  C6_6 
REMARK    2  A    between atoms: C5_5  and  C8_9 
REMARK    3  A    between atoms: C11_12  and  C12_13 
REMARK    4  A    between atoms: C12_13  and  N2_14 
REMARK    5  A    between atoms: N2_14  and  N3_16 
REMARK    6  A    between atoms: N3_16  and  C13_18 
REMARK    7  A    between atoms: C16_27  and  C17_28 
REMARK    8  A    between atoms: C17_28  and  O2_29 
ROOT
HETATM    1  C6  UNL     1     -17.668  11.749  -4.663  1.00  0.00     0.136 C 
HETATM    2  C7  UNL     1     -18.470  12.333  -3.594  1.00  0.00     0.060 C 
HETATM    3  N1  UNL     1     -19.127  12.770  -2.732  1.00  0.00    -0.197 NA
ENDROOT
BRANCH   1   4
HETATM    4  C5  UNL     1     -16.181  11.808  -4.431  1.00  0.00     0.003 C 
HETATM    5  C4  UNL     1     -15.667  10.531  -5.164  1.00  0.00     0.018 C 
HETATM    6  C3  UNL     1     -16.290   9.281  -4.722  1.00  0.00     0.034 C 
HETATM    7  C2  UNL     1     -16.271   9.203  -3.238  1.00  0.00    -0.085 C 
HETATM    8  C1  UNL     1     -16.782   8.144  -2.598  1.00  0.00     0.014 C 
HETATM    9  C20 UNL     1     -15.682  10.297  -2.483  1.00  0.00     0.019 C 
HETATM   10  C15 UNL     1     -15.897  11.678  -2.971  1.00  0.00     0.012 C 
HETATM   11  C19 UNL     1     -14.212  10.136  -2.217  1.00  0.00     0.010 C 
HETATM   12  C16 UNL     1     -14.783  12.459  -2.394  1.00  0.00     0.015 C 
HETATM   13  C18 UNL     1     -13.888  11.480  -1.603  1.00  0.00     0.008 C 
BRANCH  12  14
HETATM   14  C17 UNL     1     -15.270  13.440  -1.311  1.00  0.00     0.169 C 
BRANCH  14  15
HETATM   15  O2  UNL     1     -16.385  14.136  -1.720  1.00  0.00    -0.400 OA
ATOM     16  H2  UNL     1     -16.819  14.564  -0.991  1.00  0.00     0.209 HD
ENDBRANCH  14  15
ENDBRANCH  12  14
BRANCH   4  17
HETATM   17  C8  UNL     1     -15.485  12.892  -5.174  1.00  0.00     0.132 C 
HETATM   18  C9  UNL     1     -16.053  14.239  -5.278  1.00  0.00     0.035 C 
HETATM   19  C10 UNL     1     -15.079  14.770  -6.393  1.00  0.00     0.040 C 
HETATM   20  C11 UNL     1     -15.249  13.566  -7.322  1.00  0.00     0.161 C 
HETATM   21  O1  UNL     1     -15.164  12.484  -6.500  1.00  0.00    -0.374 OA
BRANCH  20  22
HETATM   22  C12 UNL     1     -14.266  13.560  -8.401  1.00  0.00     0.112 C 
BRANCH  22  23
HETATM   23  N2  UNL     1     -13.146  14.167  -8.260  1.00  0.00    -0.311 N 
ATOM     24  H2  UNL     1     -13.127  15.136  -7.940  1.00  0.00     0.185 HD
BRANCH  23  25
HETATM   25  N3  UNL     1     -11.958  13.503  -8.543  1.00  0.00    -0.279 N 
ATOM     26  H3  UNL     1     -11.313  13.216  -7.807  1.00  0.00     0.189 HD
BRANCH  25  27
HETATM   27  C13 UNL     1     -11.713  13.263  -9.817  1.00  0.00     0.180 A 
HETATM   28  N4  UNL     1     -11.455  14.154 -10.774  1.00  0.00    -0.330 N 
HETATM   29  C14 UNL     1     -11.238  13.703 -11.983  1.00  0.00     0.189 A 
ATOM     30  H4  UNL     1     -11.428  15.153 -10.571  1.00  0.00     0.168 HD
HETATM   31  N5  UNL     1     -11.285  12.388 -12.181  1.00  0.00    -0.320 N 
HETATM   32  S1  UNL     1     -11.640  11.780 -10.654  1.00  0.00     0.025 SA
ATOM     33  H5  UNL     1     -11.141  11.873 -13.049  1.00  0.00     0.175 HD
ENDBRANCH  25  27
ENDBRANCH  23  25
ENDBRANCH  22  23
ENDBRANCH  20  22
ENDBRANCH   4  17
ENDBRANCH   1   4
TORSDOF 8
ENDMDL
MODEL 4
REMARK VINA RESULT: -7.393149902      1.714      2.389
REMARK  8 active torsions:
REMARK  status: ('A' for Active; 'I' for Inactive)
REMARK    1  A    between atoms: C5_5  and  C6_6 
REMARK    2  A    between atoms: C5_5  and  C8_9 
REMARK    3  A    between atoms: C11_12  and  C12_13 
REMARK    4  A    between atoms: C12_13  and  N2_14 
REMARK    5  A    between atoms: N2_14  and  N3_16 
REMARK    6  A    between atoms: N3_16  and  C13_18 
REMARK    7  A    between atoms: C16_27  and  C17_28 
REMARK    8  A    between atoms: C17_28  and  O2_29 
ROOT
HETATM    1  C6  UNL     1     -16.848  14.170  -3.586  1.00  0.00     0.136 C 
HETATM    2  C7  UNL     1     -16.196  14.932  -2.527  1.00  0.00     0.060 C 
HETATM    3  N1  UNL     1     -15.702  15.541  -1.660  1.00  0.00    -0.197 NA
ENDROOT
BRANCH   1   4
HETATM    4  C5  UNL     1     -16.198  12.846  -3.894  1.00  0.00     0.003 C 
HETATM    5  C4  UNL     1     -17.287  12.115  -4.736  1.00  0.00     0.018 C 
HETATM    6  C3  UNL     1     -18.591  11.999  -4.077  1.00  0.00     0.034 C 
HETATM    7  C2  UNL     1     -18.417  11.484  -2.694  1.00  0.00    -0.085 C 
HETATM    8  C1  UNL     1     -19.472  11.289  -1.895  1.00  0.00     0.014 C 
HETATM    9  C20 UNL     1     -17.075  11.190  -2.217  1.00  0.00     0.019 C 
HETATM   10  C15 UNL     1     -15.975  12.092  -2.626  1.00  0.00     0.012 C 
HETATM   11  C19 UNL     1     -16.626   9.781  -2.483  1.00  0.00     0.010 C 
HETATM   12  C16 UNL     1     -14.750  11.275  -2.494  1.00  0.00     0.015 C 
HETATM   13  C18 UNL     1     -15.179   9.859  -2.050  1.00  0.00     0.008 C 
BRANCH  12  14
HETATM   14  C17 UNL     1     -13.864  11.753  -1.328  1.00  0.00     0.169 C 
BRANCH  14  15
HETATM   15  O2  UNL     1     -14.375  12.883  -0.731  1.00  0.00    -0.400 OA
ATOM     16  H2  UNL     1     -15.319  12.834  -0.636  1.00  0.00     0.209 HD
ENDBRANCH  14  15
ENDBRANCH  12  14
BRANCH   4  17
HETATM   17  C8  UNL     1     -15.067  12.927  -4.856  1.00  0.00     0.132 C 
HETATM   18  C9  UNL     1     -14.868  14.099  -5.712  1.00  0.00     0.035 C 
HETATM   19  C10 UNL     1     -13.790  13.459  -6.663  1.00  0.00     0.040 C 
HETATM   20  C11 UNL     1     -14.579  12.177  -6.935  1.00  0.00     0.161 C 
HETATM   21  O1  UNL     1     -15.036  11.790  -5.713  1.00  0.00    -0.374 OA
BRANCH  20  22
HETATM   22  C12 UNL     1     -13.768  11.164  -7.604  1.00  0.00     0.112 C 
BRANCH  22  23
HETATM   23  N2  UNL     1     -12.577  11.439  -7.988  1.00  0.00    -0.311 N 
ATOM     24  H2  UNL     1     -11.919  11.873  -7.341  1.00  0.00     0.185 HD
BRANCH  23  25
HETATM   25  N3  UNL     1     -12.184  11.143  -9.288  1.00  0.00    -0.279 N 
ATOM     26  H3  UNL     1     -12.163  10.186  -9.640  1.00  0.00     0.189 HD
BRANCH  25  27
HETATM   27  C13 UNL     1     -11.840  12.170 -10.042  1.00  0.00     0.180 A 
HETATM   28  N4  UNL     1     -11.390  12.139 -11.297  1.00  0.00    -0.330 N 
HETATM   29  C14 UNL     1     -11.102  13.280 -11.868  1.00  0.00     0.189 A 
ATOM     30  H4  UNL     1     -11.275  11.256 -11.794  1.00  0.00     0.168 HD
HETATM   31  N5  UNL     1     -11.277  14.396 -11.166  1.00  0.00    -0.320 N 
HETATM   32  S1  UNL     1     -11.850  13.837  -9.688  1.00  0.00     0.025 SA
ATOM     33  H5  UNL     1     -11.105  15.359 -11.455  1.00  0.00     0.175 HD
ENDBRANCH  25  27
ENDBRANCH  23  25
ENDBRANCH  22  23
ENDBRANCH  20  22
ENDBRANCH   4  17
ENDBRANCH   1   4
TORSDOF 8
ENDMDL
MODEL 5
REMARK VINA RESULT: -7.366320209      2.091      3.990
REMARK  8 active torsions:
REMARK  status: ('A' for Active; 'I' for Inactive)
REMARK    1  A    between atoms: C5_5  and  C6_6 
REMARK    2  A    between atoms: C5_5  and  C8_9 
REMARK    3  A    between atoms: C11_12  and  C12_13 
REMARK    4  A    between atoms: C12_13  and  N2_14 
REMARK    5  A    between atoms: N2_14  and  N3_16 
REMARK    6  A    between atoms: N3_16  and  C13_18 
REMARK    7  A    between atoms: C16_27  and  C17_28 
REMARK    8  A    between atoms: C17_28  and  O2_29 
ROOT
HETATM    1  C6  UNL     1     -16.247   9.082  -1.937  1.00  0.00     0.136 C 
HETATM    2  C7  UNL     1     -17.591   9.234  -1.391  1.00  0.00     0.060 C 
HETATM    3  N1  UNL     1     -18.654   9.370  -0.926  1.00  0.00    -0.197 NA
ENDROOT
BRANCH   1   4
HETATM    4  C5  UNL     1     -16.000   9.846  -3.212  1.00  0.00     0.003 C 
HETATM    5  C4  UNL     1     -14.444   9.872  -3.302  1.00  0.00     0.018 C 
HETATM    6  C3  UNL     1     -13.775  10.440  -2.129  1.00  0.00     0.034 C 
HETATM    7  C2  UNL     1     -14.404  11.736  -1.763  1.00  0.00    -0.085 C 
HETATM    8  C1  UNL     1     -13.959  12.448  -0.722  1.00  0.00     0.014 C 
HETATM    9  C20 UNL     1     -15.518  12.226  -2.560  1.00  0.00     0.019 C 
HETATM   10  C15 UNL     1     -16.503  11.243  -3.063  1.00  0.00     0.012 C 
HETATM   11  C19 UNL     1     -15.108  13.089  -3.720  1.00  0.00     0.010 C 
HETATM   12  C16 UNL     1     -17.127  11.899  -4.232  1.00  0.00     0.015 C 
HETATM   13  C18 UNL     1     -16.436  13.268  -4.421  1.00  0.00     0.008 C 
BRANCH  12  14
HETATM   14  C17 UNL     1     -18.594  12.284  -3.958  1.00  0.00     0.169 C 
BRANCH  14  15
HETATM   15  O2  UNL     1     -19.302  11.235  -3.418  1.00  0.00    -0.400 OA
ATOM     16  H2  UNL     1     -20.055  11.008  -3.951  1.00  0.00     0.209 HD
ENDBRANCH  14  15
ENDBRANCH  12  14
BRANCH   4  17
HETATM   17  C8  UNL     1     -16.369   9.110  -4.450  1.00  0.00     0.132 C 
HETATM   18  C9  UNL     1     -16.370   7.645  -4.502  1.00  0.00     0.035 C 
HETATM   19  C10 UNL     1     -16.502   7.510  -6.064  1.00  0.00     0.040 C 
HETATM   20  C11 UNL     1     -15.379   8.496  -6.392  1.00  0.00     0.161 C 
HETATM   21  O1  UNL     1     -15.598   9.553  -5.563  1.00  0.00    -0.374 OA
BRANCH  20  22
HETATM   22  C12 UNL     1     -15.358   8.855  -7.807  1.00  0.00     0.112 C 
BRANCH  22  23
HETATM   23  N2  UNL     1     -14.844   9.966  -8.185  1.00  0.00    -0.311 N 
ATOM     24  H2  UNL     1     -15.214  10.448  -9.005  1.00  0.00     0.185 HD
BRANCH  23  25
HETATM   25  N3  UNL     1     -13.780  10.513  -7.476  1.00  0.00    -0.279 N 
ATOM     26  H3  UNL     1     -13.437  10.094  -6.612  1.00  0.00     0.189 HD
BRANCH  25  27
HETATM   27  C13 UNL     1     -13.239  11.604  -7.984  1.00  0.00     0.180 A 
HETATM   28  N4  UNL     1     -12.299  11.679  -8.926  1.00  0.00    -0.330 N 
HETATM   29  C14 UNL     1     -11.896  12.870  -9.290  1.00  0.00     0.189 A 
ATOM     30  H4  UNL     1     -11.908  10.838  -9.349  1.00  0.00     0.168 HD
HETATM   31  N5  UNL     1     -12.449  13.927  -8.701  1.00  0.00    -0.320 N 
HETATM   32  S1  UNL     1     -13.544  13.243  -7.625  1.00  0.00     0.025 SA
ATOM     33  H5  UNL     1     -12.255  14.916  -8.864  1.00  0.00     0.175 HD
ENDBRANCH  25  27
ENDBRANCH  23  25
ENDBRANCH  22  23
ENDBRANCH  20  22
ENDBRANCH   4  17
ENDBRANCH   1   4
TORSDOF 8
ENDMDL
