MODEL 1
REMARK VINA RESULT: -6.900244165      0.000      0.000
REMARK  4 active torsions:
REMARK  status: ('A' for Active; 'I' for Inactive)
REMARK    1  A    between atoms: C2_2  and  O1_3 
REMARK    2  A    between atoms: O1_3  and  C3_4 
REMARK    3  A    between atoms: C3_4  and  O2_5 
REMARK    4  A    between atoms: C3_4  and  N1_7 
ROOT
HETATM    1  N1  UNL     1       3.411  14.935  15.133  1.00  0.00    -0.245 N 
HETATM    2  C4  UNL     1       2.445  13.947  14.618  1.00  0.00     0.176 A 
HETATM    3  N2  UNL     1       2.341  12.811  15.221  1.00  0.00    -0.280 N 
ATOM      4  H2  UNL     1       2.915  12.598  16.037  1.00  0.00     0.189 HD
HETATM    5  N3  UNL     1       1.427  11.883  14.729  1.00  0.00    -0.272 N 
ATOM      6  H3  UNL     1       1.321  10.975  15.180  1.00  0.00     0.189 HD
HETATM    7  C5  UNL     1       0.647  12.216  13.595  1.00  0.00     0.208 A 
HETATM    8  N4  UNL     1      -0.278  11.226  13.131  1.00  0.00    -0.062 NA
HETATM    9  N5  UNL     1       0.719  13.328  12.972  1.00  0.00    -0.312 N 
ATOM     10  H5  UNL     1       0.133  13.518  12.159  1.00  0.00     0.170 HD
HETATM   11  C6  UNL     1       1.660  14.307  13.462  1.00  0.00     0.156 A 
HETATM   12  N6  UNL     1       1.772  15.442  12.871  1.00  0.00    -0.323 N 
ATOM     13  H6  UNL     1       1.194  15.649  12.057  1.00  0.00     0.169 HD
HETATM   14  C7  UNL     1       2.712  16.427  13.352  1.00  0.00     0.140 A 
HETATM   15  N7  UNL     1       2.834  17.601  12.701  1.00  0.00    -0.328 N 
ATOM     16  H7  UNL     1       2.235  17.767  11.892  1.00  0.00     0.168 HD
HETATM   17  C8  UNL     1       3.700  18.564  13.056  1.00  0.00     0.142 A 
HETATM   18  N8  UNL     1       3.792  19.785  12.341  1.00  0.00    -0.081 NA
HETATM   19  C9  UNL     1       4.523  18.372  14.141  1.00  0.00     0.138 A 
HETATM   20  C10 UNL     1       5.476  19.366  14.574  1.00  0.00     0.107 C 
HETATM   21  N9  UNL     1       6.244  20.148  14.938  1.00  0.00    -0.191 NA
HETATM   22  C11 UNL     1       4.400  17.151  14.823  1.00  0.00     0.227 A 
HETATM   23  O3  UNL     1       5.162  17.025  15.780  1.00  0.00    -0.284 OA
HETATM   24  C12 UNL     1       3.511  16.176  14.456  1.00  0.00     0.141 A 
ENDROOT
BRANCH   1  25
HETATM   25  C3  UNL     1       4.062  14.604  16.316  1.00  0.00     0.271 C 
BRANCH  25  26
HETATM   26  O1  UNL     1       5.080  13.779  16.596  1.00  0.00    -0.317 OA
BRANCH  26  27
HETATM   27  C2  UNL     1       6.113  13.490  15.632  1.00  0.00     0.175 C 
HETATM   28  C1  UNL     1       5.719  12.192  14.968  1.00  0.00     0.034 C 
ENDBRANCH  26  27
ENDBRANCH  25  26
BRANCH  25  29
HETATM   29  O2  UNL     1       3.609  15.221  17.372  1.00  0.00    -0.326 OA
ATOM     30  H2  UNL     1       3.851  16.140  17.391  1.00  0.00     0.221 HD
ENDBRANCH  25  29
ENDBRANCH   1  25
TORSDOF 4
ENDMDL
MODEL 2
REMARK VINA RESULT: -6.747781396      2.886      4.698
REMARK  4 active torsions:
REMARK  status: ('A' for Active; 'I' for Inactive)
REMARK    1  A    between atoms: C2_2  and  O1_3 
REMARK    2  A    between atoms: O1_3  and  C3_4 
REMARK    3  A    between atoms: C3_4  and  O2_5 
REMARK    4  A    between atoms: C3_4  and  N1_7 
ROOT
HETATM    1  N1  UNL     1       2.139  12.767  14.585  1.00  0.00    -0.245 N 
HETATM    2  C4  UNL     1       2.646  11.515  15.177  1.00  0.00     0.176 A 
HETATM    3  N2  UNL     1       2.037  10.411  14.904  1.00  0.00    -0.280 N 
ATOM      4  H2  UNL     1       1.222  10.401  14.290  1.00  0.00     0.189 HD
HETATM    5  N3  UNL     1       2.522   9.233  15.467  1.00  0.00    -0.272 N 
ATOM      6  H3  UNL     1       2.064   8.342  15.273  1.00  0.00     0.189 HD
HETATM    7  C5  UNL     1       3.656   9.286  16.312  1.00  0.00     0.208 A 
HETATM    8  N4  UNL     1       4.113   8.046  16.864  1.00  0.00    -0.062 NA
HETATM    9  N5  UNL     1       4.287  10.357  16.606  1.00  0.00    -0.312 N 
ATOM     10  H5  UNL     1       5.100  10.341  17.221  1.00  0.00     0.170 HD
HETATM   11  C6  UNL     1       3.804  11.592  16.035  1.00  0.00     0.156 A 
HETATM   12  N6  UNL     1       4.401  12.698  16.299  1.00  0.00    -0.323 N 
ATOM     13  H6  UNL     1       5.216  12.700  16.912  1.00  0.00     0.169 HD
HETATM   14  C7  UNL     1       3.925  13.939  15.735  1.00  0.00     0.140 A 
HETATM   15  N7  UNL     1       4.548  15.093  16.048  1.00  0.00    -0.328 N 
ATOM     16  H7  UNL     1       5.361  15.049  16.663  1.00  0.00     0.168 HD
HETATM   17  C8  UNL     1       4.161  16.297  15.595  1.00  0.00     0.142 A 
HETATM   18  N8  UNL     1       4.851  17.483  15.950  1.00  0.00    -0.081 NA
HETATM   19  C9  UNL     1       3.068  16.392  14.765  1.00  0.00     0.138 A 
HETATM   20  C10 UNL     1       2.599  17.654  14.247  1.00  0.00     0.107 C 
HETATM   21  N9  UNL     1       2.208  18.653  13.820  1.00  0.00    -0.191 NA
HETATM   22  C11 UNL     1       2.415  15.193  14.437  1.00  0.00     0.227 A 
HETATM   23  O3  UNL     1       1.440  15.332  13.699  1.00  0.00    -0.284 OA
HETATM   24  C12 UNL     1       2.820  13.969  14.900  1.00  0.00     0.141 A 
ENDROOT
BRANCH   1  25
HETATM   25  C3  UNL     1       1.099  12.641  13.671  1.00  0.00     0.271 C 
BRANCH  25  26
HETATM   26  O1  UNL     1      -0.230  12.546  13.810  1.00  0.00    -0.317 OA
BRANCH  26  27
HETATM   27  C2  UNL     1      -0.955  11.368  13.402  1.00  0.00     0.175 C 
HETATM   28  C1  UNL     1      -2.257  11.388  14.169  1.00  0.00     0.034 C 
ENDBRANCH  26  27
ENDBRANCH  25  26
BRANCH  25  29
HETATM   29  O2  UNL     1       1.478  12.621  12.423  1.00  0.00    -0.326 OA
ATOM     30  H2  UNL     1       2.418  12.519  12.326  1.00  0.00     0.221 HD
ENDBRANCH  25  29
ENDBRANCH   1  25
TORSDOF 4
ENDMDL
MODEL 3
REMARK VINA RESULT: -4.945097580      2.217      3.397
REMARK  4 active torsions:
REMARK  status: ('A' for Active; 'I' for Inactive)
REMARK    1  A    between atoms: C2_2  and  O1_3 
REMARK    2  A    between atoms: O1_3  and  C3_4 
REMARK    3  A    between atoms: C3_4  and  O2_5 
REMARK    4  A    between atoms: C3_4  and  N1_7 
ROOT
HETATM    1  N1  UNL     1       2.175  11.839  15.023  1.00  0.00    -0.245 N 
HETATM    2  C4  UNL     1       1.120  11.144  14.264  1.00  0.00     0.176 A 
HETATM    3  N2  UNL     1       0.918   9.891  14.492  1.00  0.00    -0.280 N 
ATOM      4  H2  UNL     1       1.475   9.388  15.183  1.00  0.00     0.189 HD
HETATM    5  N3  UNL     1      -0.081   9.241  13.770  1.00  0.00    -0.272 N 
ATOM      6  H3  UNL     1      -0.267   8.250  13.924  1.00  0.00     0.189 HD
HETATM    7  C5  UNL     1      -0.834   9.972  12.821  1.00  0.00     0.208 A 
HETATM    8  N4  UNL     1      -1.849   9.256  12.107  1.00  0.00    -0.062 NA
HETATM    9  N5  UNL     1      -0.665  11.213  12.567  1.00  0.00    -0.312 N 
ATOM     10  H5  UNL     1      -1.236  11.693  11.871  1.00  0.00     0.170 HD
HETATM   11  C6  UNL     1       0.364  11.909  13.301  1.00  0.00     0.156 A 
HETATM   12  N6  UNL     1       0.575  13.156  13.084  1.00  0.00    -0.323 N 
ATOM     13  H6  UNL     1       0.013  13.653  12.392  1.00  0.00     0.169 HD
HETATM   14  C7  UNL     1       1.604  13.862  13.811  1.00  0.00     0.140 A 
HETATM   15  N7  UNL     1       1.829  15.165  13.548  1.00  0.00    -0.328 N 
ATOM     16  H7  UNL     1       1.243  15.623  12.850  1.00  0.00     0.168 HD
HETATM   17  C8  UNL     1       2.781  15.894  14.153  1.00  0.00     0.142 A 
HETATM   18  N8  UNL     1       2.979  17.264  13.843  1.00  0.00    -0.081 NA
HETATM   19  C9  UNL     1       3.590  15.308  15.097  1.00  0.00     0.138 A 
HETATM   20  C10 UNL     1       4.632  16.035  15.781  1.00  0.00     0.107 C 
HETATM   21  N9  UNL     1       5.470  16.598  16.341  1.00  0.00    -0.191 NA
HETATM   22  C11 UNL     1       3.360  13.951  15.375  1.00  0.00     0.227 A 
HETATM   23  O3  UNL     1       4.114  13.471  16.221  1.00  0.00    -0.284 OA
HETATM   24  C12 UNL     1       2.383  13.215  14.757  1.00  0.00     0.141 A 
ENDROOT
BRANCH   1  25
HETATM   25  C3  UNL     1       2.801  11.105  16.025  1.00  0.00     0.271 C 
BRANCH  25  26
HETATM   26  O1  UNL     1       3.862  10.287  16.028  1.00  0.00    -0.317 OA
BRANCH  26  27
HETATM   27  C2  UNL     1       3.794   8.956  16.580  1.00  0.00     0.175 C 
HETATM   28  C1  UNL     1       5.223   8.510  16.782  1.00  0.00     0.034 C 
ENDBRANCH  26  27
ENDBRANCH  25  26
BRANCH  25  29
HETATM   29  O2  UNL     1       2.265  11.239  17.207  1.00  0.00    -0.326 OA
ATOM     30  H2  UNL     1       1.315  11.213  17.183  1.00  0.00     0.221 HD
ENDBRANCH  25  29
ENDBRANCH   1  25
TORSDOF 4
ENDMDL
MODEL 4
REMARK VINA RESULT: -4.834170512      3.130      5.068
REMARK  4 active torsions:
REMARK  status: ('A' for Active; 'I' for Inactive)
REMARK    1  A    between atoms: C2_2  and  O1_3 
REMARK    2  A    between atoms: O1_3  and  C3_4 
REMARK    3  A    between atoms: C3_4  and  O2_5 
REMARK    4  A    between atoms: C3_4  and  N1_7 
ROOT
HETATM    1  N1  UNL     1       2.089  11.943  14.968  1.00  0.00    -0.245 N 
HETATM    2  C4  UNL     1       2.753  10.739  15.502  1.00  0.00     0.176 A 
HETATM    3  N2  UNL     1       2.148   9.604  15.401  1.00  0.00    -0.280 N 
ATOM      4  H2  UNL     1       1.230   9.537  14.961  1.00  0.00     0.189 HD
HETATM    5  N3  UNL     1       2.781   8.471  15.908  1.00  0.00    -0.272 N 
ATOM      6  H3  UNL     1       2.331   7.558  15.846  1.00  0.00     0.189 HD
HETATM    7  C5  UNL     1       4.055   8.603  16.510  1.00  0.00     0.208 A 
HETATM    8  N4  UNL     1       4.661   7.407  17.014  1.00  0.00    -0.062 NA
HETATM    9  N5  UNL     1       4.686   9.707  16.628  1.00  0.00    -0.312 N 
ATOM     10  H5  UNL     1       5.604   9.747  17.072  1.00  0.00     0.170 HD
HETATM   11  C6  UNL     1       4.051  10.896  16.111  1.00  0.00     0.156 A 
HETATM   12  N6  UNL     1       4.642  12.032  16.205  1.00  0.00    -0.323 N 
ATOM     13  H6  UNL     1       5.561  12.091  16.645  1.00  0.00     0.169 HD
HETATM   14  C7  UNL     1       4.015  13.228  15.693  1.00  0.00     0.140 A 
HETATM   15  N7  UNL     1       4.640  14.415  15.827  1.00  0.00    -0.328 N 
ATOM     16  H7  UNL     1       5.558  14.428  16.271  1.00  0.00     0.168 HD
HETATM   17  C8  UNL     1       4.122  15.581  15.408  1.00  0.00     0.142 A 
HETATM   18  N8  UNL     1       4.819  16.806  15.569  1.00  0.00    -0.081 NA
HETATM   19  C9  UNL     1       2.886  15.600  14.806  1.00  0.00     0.138 A 
HETATM   20  C10 UNL     1       2.274  16.819  14.336  1.00  0.00     0.107 C 
HETATM   21  N9  UNL     1       1.766  17.783  13.951  1.00  0.00    -0.191 NA
HETATM   22  C11 UNL     1       2.231  14.366  14.664  1.00  0.00     0.227 A 
HETATM   23  O3  UNL     1       1.127  14.437  14.127  1.00  0.00    -0.284 OA
HETATM   24  C12 UNL     1       2.769  13.180  15.090  1.00  0.00     0.141 A 
ENDROOT
BRANCH   1  25
HETATM   25  C3  UNL     1       0.897  11.738  14.282  1.00  0.00     0.271 C 
BRANCH  25  26
HETATM   26  O1  UNL     1       0.620  11.312  13.043  1.00  0.00    -0.317 OA
BRANCH  26  27
HETATM   27  C2  UNL     1      -0.693  10.839  12.677  1.00  0.00     0.175 C 
HETATM   28  C1  UNL     1      -0.728   9.372  13.037  1.00  0.00     0.034 C 
ENDBRANCH  26  27
ENDBRANCH  25  26
BRANCH  25  29
HETATM   29  O2  UNL     1      -0.176  11.999  14.977  1.00  0.00    -0.326 OA
ATOM     30  H2  UNL     1       0.016  12.443  15.795  1.00  0.00     0.221 HD
ENDBRANCH  25  29
ENDBRANCH   1  25
TORSDOF 4
ENDMDL
MODEL 5
REMARK VINA RESULT: -4.824955868      1.240      5.586
REMARK  4 active torsions:
REMARK  status: ('A' for Active; 'I' for Inactive)
REMARK    1  A    between atoms: C2_2  and  O1_3 
REMARK    2  A    between atoms: O1_3  and  C3_4 
REMARK    3  A    between atoms: C3_4  and  O2_5 
REMARK    4  A    between atoms: C3_4  and  N1_7 
ROOT
HETATM    1  N1  UNL     1       4.148  16.205  15.354  1.00  0.00    -0.245 N 
HETATM    2  C4  UNL     1       4.383  17.549  14.796  1.00  0.00     0.176 A 
HETATM    3  N2  UNL     1       5.219  18.329  15.392  1.00  0.00    -0.280 N 
ATOM      4  H2  UNL     1       5.710  18.025  16.233  1.00  0.00     0.189 HD
HETATM    5  N3  UNL     1       5.436  19.598  14.858  1.00  0.00    -0.272 N 
ATOM      6  H3  UNL     1       6.089  20.241  15.305  1.00  0.00     0.189 HD
HETATM    7  C5  UNL     1       4.737  19.983  13.689  1.00  0.00     0.208 A 
HETATM    8  N4  UNL     1       4.997  21.298  13.182  1.00  0.00    -0.062 NA
HETATM    9  N5  UNL     1       3.903  19.241  13.069  1.00  0.00    -0.312 N 
ATOM     10  H5  UNL     1       3.426  19.568  12.230  1.00  0.00     0.170 HD
HETATM   11  C6  UNL     1       3.661  17.922  13.603  1.00  0.00     0.156 A 
HETATM   12  N6  UNL     1       2.831  17.135  13.019  1.00  0.00    -0.323 N 
ATOM     13  H6  UNL     1       2.345  17.446  12.177  1.00  0.00     0.169 HD
HETATM   14  C7  UNL     1       2.580  15.814  13.546  1.00  0.00     0.140 A 
HETATM   15  N7  UNL     1       1.684  15.015  12.933  1.00  0.00    -0.328 N 
ATOM     16  H7  UNL     1       1.222  15.364  12.093  1.00  0.00     0.168 HD
HETATM   17  C8  UNL     1       1.364  13.784  13.366  1.00  0.00     0.142 A 
HETATM   18  N8  UNL     1       0.416  12.978  12.687  1.00  0.00    -0.081 NA
HETATM   19  C9  UNL     1       1.967  13.282  14.496  1.00  0.00     0.138 A 
HETATM   20  C10 UNL     1       1.668  11.970  15.014  1.00  0.00     0.107 C 
HETATM   21  N9  UNL     1       1.443  10.921  15.445  1.00  0.00    -0.191 NA
HETATM   22  C11 UNL     1       2.902  14.112  15.137  1.00  0.00     0.227 A 
HETATM   23  O3  UNL     1       3.407  13.621  16.146  1.00  0.00    -0.284 OA
HETATM   24  C12 UNL     1       3.224  15.364  14.686  1.00  0.00     0.141 A 
ENDROOT
BRANCH   1  25
HETATM   25  C3  UNL     1       4.947  15.836  16.431  1.00  0.00     0.271 C 
BRANCH  25  26
HETATM   26  O1  UNL     1       6.111  15.177  16.519  1.00  0.00    -0.317 OA
BRANCH  26  27
HETATM   27  C2  UNL     1       6.756  14.615  15.359  1.00  0.00     0.175 C 
HETATM   28  C1  UNL     1       6.525  13.124  15.429  1.00  0.00     0.034 C 
ENDBRANCH  26  27
ENDBRANCH  25  26
BRANCH  25  29
HETATM   29  O2  UNL     1       4.490  16.208  17.595  1.00  0.00    -0.326 OA
ATOM     30  H2  UNL     1       3.580  15.966  17.726  1.00  0.00     0.221 HD
ENDBRANCH  25  29
ENDBRANCH   1  25
TORSDOF 4
ENDMDL
