MODEL 1
REMARK VINA RESULT: -7.477430981      0.000      0.000
REMARK  2 active torsions:
REMARK  status: ('A' for Active; 'I' for Inactive)
REMARK    1  A    between atoms: C4_7  and  C5_8 
REMARK    2  A    between atoms: C11_28  and  N9_29 
ROOT
HETATM    1  C1  UNL     1       4.383  16.619  17.701  1.00  0.00     0.070 C 
HETATM    2  C2  UNL     1       3.857  15.585  16.754  1.00  0.00     0.035 A 
HETATM    3  N1  UNL     1       4.008  14.283  16.959  1.00  0.00    -0.338 N 
ATOM      4  H1  UNL     1       4.503  13.970  17.793  1.00  0.00     0.168 HD
HETATM    5  C3  UNL     1       3.534  13.368  16.106  1.00  0.00     0.167 A 
HETATM    6  O1  UNL     1       3.702  12.092  16.339  1.00  0.00    -0.272 OA
HETATM    7  C4  UNL     1       3.250  11.175  15.525  1.00  0.00     0.199 A 
HETATM    8  N6  UNL     1       2.590  11.500  14.409  1.00  0.00    -0.300 N 
ATOM      9  H6  UNL     1       2.248  10.763  13.791  1.00  0.00     0.171 HD
HETATM   10  C7  UNL     1       2.369  12.821  14.083  1.00  0.00     0.263 A 
HETATM   11  O2  UNL     1       1.768  12.984  13.060  1.00  0.00    -0.267 OA
HETATM   12  C8  UNL     1       2.848  13.740  14.946  1.00  0.00     0.100 A 
HETATM   13  C9  UNL     1       2.676  15.103  14.709  1.00  0.00     0.057 A 
HETATM   14  C10 UNL     1       2.020  15.538  13.604  1.00  0.00     0.128 A 
HETATM   15  N7  UNL     1       1.521  14.823  12.715  1.00  0.00    -0.384 N 
ATOM     16  H71 UNL     1       1.027  15.151  11.884  1.00  0.00     0.157 HD
ATOM     17  H72 UNL     1       1.612  13.813  12.829  1.00  0.00     0.157 HD
HETATM   18  N8  UNL     1       1.898  16.898  13.451  1.00  0.00    -0.176 N 
ATOM     19  H8  UNL     1       1.409  17.254  12.629  1.00  0.00     0.186 HD
HETATM   20  C11 UNL     1       2.388  17.774  14.329  1.00  0.00     0.678 A 
HETATM   21  N10 UNL     1       3.031  17.333  15.413  1.00  0.00    -0.189 N 
ATOM     22  H10 UNL     1       3.405  18.007  16.081  1.00  0.00     0.184 HD
HETATM   23  C12 UNL     1       3.194  16.040  15.637  1.00  0.00     0.086 A 
ENDROOT
BRANCH   7  24
HETATM   24  C5  UNL     1       3.499   9.791  15.892  1.00  0.00     0.187 A 
HETATM   25  N2  UNL     1       2.654   8.783  15.609  1.00  0.00    -0.263 N 
HETATM   26  N3  UNL     1       3.181   7.666  16.080  1.00  0.00    -0.003 NA
ATOM     27  H2  UNL     1       1.763   8.867  15.118  1.00  0.00     0.186 HD
HETATM   28  N4  UNL     1       4.338   7.932  16.655  1.00  0.00    -0.221 N 
HETATM   29  C6  UNL     1       5.192   6.950  17.279  1.00  0.00     0.197 C 
HETATM   30  N5  UNL     1       4.518   9.238  16.531  1.00  0.00    -0.266 N 
ATOM     31  H5  UNL     1       5.330   9.748  16.881  1.00  0.00     0.190 HD
ENDBRANCH   7  24
BRANCH  20  32
HETATM   32  N9  UNL     1       2.223  19.016  14.101  1.00  0.00    -0.234 N 
ATOM     33  H92 UNL     1       2.847  19.540  13.487  1.00  0.00     0.174 HD
ATOM     34  H91 UNL     1       1.442  19.492  14.551  1.00  0.00     0.174 HD
ENDBRANCH  20  32
TORSDOF 2
ENDMDL
MODEL 2
REMARK VINA RESULT: -7.404360251      1.318      2.904
REMARK  2 active torsions:
REMARK  status: ('A' for Active; 'I' for Inactive)
REMARK    1  A    between atoms: C4_7  and  C5_8 
REMARK    2  A    between atoms: C11_28  and  N9_29 
ROOT
HETATM    1  C1  UNL     1       1.399  16.271  11.924  1.00  0.00     0.070 C 
HETATM    2  C2  UNL     1       2.047  15.654  13.124  1.00  0.00     0.035 A 
HETATM    3  N1  UNL     1       2.047  14.346  13.345  1.00  0.00    -0.338 N 
ATOM      4  H1  UNL     1       1.588  13.733  12.672  1.00  0.00     0.168 HD
HETATM    5  C3  UNL     1       2.629  13.805  14.421  1.00  0.00     0.167 A 
HETATM    6  O1  UNL     1       2.610  12.511  14.608  1.00  0.00    -0.272 OA
HETATM    7  C4  UNL     1       3.170  11.954  15.649  1.00  0.00     0.199 A 
HETATM    8  N6  UNL     1       3.792  12.685  16.579  1.00  0.00    -0.300 N 
ATOM      9  H6  UNL     1       4.221  12.224  17.381  1.00  0.00     0.171 HD
HETATM   10  C7  UNL     1       3.860  14.057  16.463  1.00  0.00     0.263 A 
HETATM   11  O2  UNL     1       4.443  14.600  17.358  1.00  0.00    -0.267 OA
HETATM   12  C8  UNL     1       3.272  14.598  15.377  1.00  0.00     0.100 A 
HETATM   13  C9  UNL     1       3.285  15.976  15.166  1.00  0.00     0.057 A 
HETATM   14  C10 UNL     1       3.891  16.808  16.051  1.00  0.00     0.128 A 
HETATM   15  N7  UNL     1       4.475  16.469  17.098  1.00  0.00    -0.384 N 
ATOM     16  H71 UNL     1       4.931  17.095  17.763  1.00  0.00     0.157 HD
ATOM     17  H72 UNL     1       4.502  15.472  17.311  1.00  0.00     0.157 HD
HETATM   18  N8  UNL     1       3.855  18.151  15.764  1.00  0.00    -0.176 N 
ATOM     19  H8  UNL     1       4.303  18.799  16.412  1.00  0.00     0.186 HD
HETATM   20  C11 UNL     1       3.262  18.645  14.677  1.00  0.00     0.678 A 
HETATM   21  N10 UNL     1       2.669  17.816  13.814  1.00  0.00    -0.189 N 
ATOM     22  H10 UNL     1       2.216  18.199  12.984  1.00  0.00     0.184 HD
HETATM   23  C12 UNL     1       2.657  16.509  14.013  1.00  0.00     0.086 A 
ENDROOT
BRANCH   7  24
HETATM   24  C5  UNL     1       3.083  10.506  15.746  1.00  0.00     0.187 A 
HETATM   25  N2  UNL     1       2.121   9.778  15.152  1.00  0.00    -0.263 N 
HETATM   26  N3  UNL     1       2.336   8.506  15.440  1.00  0.00    -0.003 NA
ATOM     27  H2  UNL     1       1.359  10.143  14.580  1.00  0.00     0.186 HD
HETATM   28  N4  UNL     1       3.409   8.402  16.202  1.00  0.00    -0.221 N 
HETATM   29  C6  UNL     1       3.941   7.160  16.709  1.00  0.00     0.197 C 
HETATM   30  N5  UNL     1       3.854   9.636  16.380  1.00  0.00    -0.266 N 
ATOM     31  H5  UNL     1       4.678   9.883  16.929  1.00  0.00     0.190 HD
ENDBRANCH   7  24
BRANCH  20  32
HETATM   32  N9  UNL     1       3.282  19.905  14.497  1.00  0.00    -0.234 N 
ATOM     33  H92 UNL     1       3.882  20.520  15.046  1.00  0.00     0.174 HD
ATOM     34  H91 UNL     1       2.674  20.302  13.780  1.00  0.00     0.174 HD
ENDBRANCH  20  32
TORSDOF 2
ENDMDL
MODEL 3
REMARK VINA RESULT: -7.110391621      3.119      4.943
REMARK  2 active torsions:
REMARK  status: ('A' for Active; 'I' for Inactive)
REMARK    1  A    between atoms: C4_7  and  C5_8 
REMARK    2  A    between atoms: C11_28  and  N9_29 
ROOT
HETATM    1  C1  UNL     1       2.580  17.007  12.752  1.00  0.00     0.070 C 
HETATM    2  C2  UNL     1       2.320  15.661  13.355  1.00  0.00     0.035 A 
HETATM    3  N1  UNL     1       1.392  14.835  12.891  1.00  0.00    -0.338 N 
ATOM      4  H1  UNL     1       0.830  15.125  12.091  1.00  0.00     0.168 HD
HETATM    5  C3  UNL     1       1.168  13.635  13.437  1.00  0.00     0.167 A 
HETATM    6  O1  UNL     1       0.244  12.845  12.954  1.00  0.00    -0.272 OA
HETATM    7  C4  UNL     1       0.003  11.667  13.467  1.00  0.00     0.199 A 
HETATM    8  N6  UNL     1       0.695  11.211  14.515  1.00  0.00    -0.300 N 
ATOM      9  H6  UNL     1       0.486  10.287  14.895  1.00  0.00     0.171 HD
HETATM   10  C7  UNL     1       1.687  11.976  15.090  1.00  0.00     0.263 A 
HETATM   11  O2  UNL     1       2.233  11.459  16.021  1.00  0.00    -0.267 OA
HETATM   12  C8  UNL     1       1.909  13.185  14.535  1.00  0.00     0.100 A 
HETATM   13  C9  UNL     1       2.890  14.036  15.041  1.00  0.00     0.057 A 
HETATM   14  C10 UNL     1       3.649  13.667  16.104  1.00  0.00     0.128 A 
HETATM   15  N7  UNL     1       3.569  12.591  16.726  1.00  0.00    -0.384 N 
ATOM     16  H71 UNL     1       4.139  12.313  17.526  1.00  0.00     0.157 HD
ATOM     17  H72 UNL     1       2.869  11.922  16.406  1.00  0.00     0.157 HD
HETATM   18  N8  UNL     1       4.592  14.568  16.536  1.00  0.00    -0.176 N 
ATOM     19  H8  UNL     1       5.176  14.317  17.334  1.00  0.00     0.186 HD
HETATM   20  C11 UNL     1       4.779  15.755  15.959  1.00  0.00     0.678 A 
HETATM   21  N10 UNL     1       4.027  16.107  14.913  1.00  0.00    -0.189 N 
ATOM     22  H10 UNL     1       4.173  17.016  14.475  1.00  0.00     0.184 HD
HETATM   23  C12 UNL     1       3.096  15.299  14.433  1.00  0.00     0.086 A 
ENDROOT
BRANCH   7  24
HETATM   24  C5  UNL     1      -1.048  10.882  12.842  1.00  0.00     0.187 A 
HETATM   25  N2  UNL     1      -2.326  11.291  12.749  1.00  0.00    -0.263 N 
HETATM   26  N3  UNL     1      -3.011  10.346  12.129  1.00  0.00    -0.003 NA
ATOM     27  H2  UNL     1      -2.700  12.175  13.095  1.00  0.00     0.186 HD
HETATM   28  N4  UNL     1      -2.207   9.344  11.824  1.00  0.00    -0.221 N 
HETATM   29  C6  UNL     1      -2.615   8.140  11.143  1.00  0.00     0.197 C 
HETATM   30  N5  UNL     1      -1.008   9.689  12.268  1.00  0.00    -0.266 N 
ATOM     31  H5  UNL     1      -0.169   9.115  12.180  1.00  0.00     0.190 HD
ENDBRANCH   7  24
BRANCH  20  32
HETATM   32  N9  UNL     1       5.679  16.522  16.430  1.00  0.00    -0.234 N 
ATOM     33  H92 UNL     1       6.609  16.179  16.670  1.00  0.00     0.174 HD
ATOM     34  H91 UNL     1       5.453  17.507  16.570  1.00  0.00     0.174 HD
ENDBRANCH  20  32
TORSDOF 2
ENDMDL
MODEL 4
REMARK VINA RESULT: -6.941618398      2.545      7.235
REMARK  2 active torsions:
REMARK  status: ('A' for Active; 'I' for Inactive)
REMARK    1  A    between atoms: C4_7  and  C5_8 
REMARK    2  A    between atoms: C11_28  and  N9_29 
ROOT
HETATM    1  C1  UNL     1       3.974  12.186  17.171  1.00  0.00     0.070 C 
HETATM    2  C2  UNL     1       3.570  13.284  16.237  1.00  0.00     0.035 A 
HETATM    3  N1  UNL     1       4.055  14.515  16.326  1.00  0.00    -0.338 N 
ATOM      4  H1  UNL     1       4.730  14.727  17.060  1.00  0.00     0.168 HD
HETATM    5  C3  UNL     1       3.687  15.489  15.487  1.00  0.00     0.167 A 
HETATM    6  O1  UNL     1       4.184  16.693  15.604  1.00  0.00    -0.272 OA
HETATM    7  C4  UNL     1       3.844  17.664  14.798  1.00  0.00     0.199 A 
HETATM    8  N6  UNL     1       2.966  17.472  13.809  1.00  0.00    -0.300 N 
ATOM      9  H6  UNL     1       2.718  18.248  13.195  1.00  0.00     0.171 HD
HETATM   10  C7  UNL     1       2.390  16.235  13.612  1.00  0.00     0.263 A 
HETATM   11  O2  UNL     1       1.620  16.189  12.696  1.00  0.00    -0.267 OA
HETATM   12  C8  UNL     1       2.764  15.256  14.461  1.00  0.00     0.100 A 
HETATM   13  C9  UNL     1       2.241  13.969  14.347  1.00  0.00     0.057 A 
HETATM   14  C10 UNL     1       1.342  13.669  13.376  1.00  0.00     0.128 A 
HETATM   15  N7  UNL     1       0.895  14.455  12.518  1.00  0.00    -0.384 N 
ATOM     16  H71 UNL     1       0.219  14.229  11.788  1.00  0.00     0.157 HD
ATOM     17  H72 UNL     1       1.239  15.415  12.547  1.00  0.00     0.157 HD
HETATM   18  N8  UNL     1       0.879  12.376  13.338  1.00  0.00    -0.176 N 
ATOM     19  H8  UNL     1       0.201  12.123  12.618  1.00  0.00     0.186 HD
HETATM   20  C11 UNL     1       1.275  11.438  14.198  1.00  0.00     0.678 A 
HETATM   21  N10 UNL     1       2.161  11.746  15.149  1.00  0.00    -0.189 N 
ATOM     22  H10 UNL     1       2.460  11.025  15.805  1.00  0.00     0.184 HD
HETATM   23  C12 UNL     1       2.657  12.966  15.257  1.00  0.00     0.086 A 
ENDROOT
BRANCH   7  24
HETATM   24  C5  UNL     1       4.466  18.957  15.029  1.00  0.00     0.187 A 
HETATM   25  N2  UNL     1       5.741  19.237  14.707  1.00  0.00    -0.263 N 
HETATM   26  N3  UNL     1       5.981  20.491  15.049  1.00  0.00    -0.003 NA
ATOM     27  H2  UNL     1       6.406  18.595  14.275  1.00  0.00     0.186 HD
HETATM   28  N4  UNL     1       4.894  21.020  15.581  1.00  0.00    -0.221 N 
HETATM   29  C6  UNL     1       4.792  22.374  16.069  1.00  0.00     0.197 C 
HETATM   30  N5  UNL     1       3.976  20.067  15.561  1.00  0.00    -0.266 N 
ATOM     31  H5  UNL     1       3.022  20.172  15.908  1.00  0.00     0.190 HD
ENDBRANCH   7  24
BRANCH  20  32
HETATM   32  N9  UNL     1       0.789  10.267  14.082  1.00  0.00    -0.234 N 
ATOM     33  H92 UNL     1      -0.114  10.014  14.482  1.00  0.00     0.174 HD
ATOM     34  H91 UNL     1       1.328   9.567  13.572  1.00  0.00     0.174 HD
ENDBRANCH  20  32
TORSDOF 2
ENDMDL
MODEL 5
REMARK VINA RESULT: -6.787600023      2.079      7.705
REMARK  2 active torsions:
REMARK  status: ('A' for Active; 'I' for Inactive)
REMARK    1  A    between atoms: C4_7  and  C5_8 
REMARK    2  A    between atoms: C11_28  and  N9_29 
ROOT
HETATM    1  C1  UNL     1       0.458  12.886  12.661  1.00  0.00     0.070 C 
HETATM    2  C2  UNL     1       1.476  13.552  13.535  1.00  0.00     0.035 A 
HETATM    3  N1  UNL     1       1.752  14.846  13.454  1.00  0.00    -0.338 N 
ATOM      4  H1  UNL     1       1.254  15.415  12.770  1.00  0.00     0.168 HD
HETATM    5  C3  UNL     1       2.663  15.431  14.240  1.00  0.00     0.167 A 
HETATM    6  O1  UNL     1       2.912  16.711  14.134  1.00  0.00    -0.272 OA
HETATM    7  C4  UNL     1       3.796  17.309  14.888  1.00  0.00     0.199 A 
HETATM    8  N6  UNL     1       4.492  16.637  15.810  1.00  0.00    -0.300 N 
ATOM      9  H6  UNL     1       5.176  17.130  16.385  1.00  0.00     0.171 HD
HETATM   10  C7  UNL     1       4.296  15.284  15.991  1.00  0.00     0.263 A 
HETATM   11  O2  UNL     1       4.979  14.796  16.845  1.00  0.00    -0.267 OA
HETATM   12  C8  UNL     1       3.377  14.700  15.196  1.00  0.00     0.100 A 
HETATM   13  C9  UNL     1       3.103  13.337  15.299  1.00  0.00     0.057 A 
HETATM   14  C10 UNL     1       3.755  12.565  16.204  1.00  0.00     0.128 A 
HETATM   15  N7  UNL     1       4.628  12.948  17.006  1.00  0.00    -0.384 N 
ATOM     16  H71 UNL     1       5.119  12.368  17.687  1.00  0.00     0.157 HD
ATOM     17  H72 UNL     1       4.875  13.938  16.982  1.00  0.00     0.157 HD
HETATM   18  N8  UNL     1       3.423  11.232  16.237  1.00  0.00    -0.176 N 
ATOM     19  H8  UNL     1       3.898  10.628  16.907  1.00  0.00     0.186 HD
HETATM   20  C11 UNL     1       2.507  10.693  15.432  1.00  0.00     0.678 A 
HETATM   21  N10 UNL     1       1.871  11.464  14.546  1.00  0.00    -0.189 N 
ATOM     22  H10 UNL     1       1.171  11.047  13.931  1.00  0.00     0.184 HD
HETATM   23  C12 UNL     1       2.130  12.757  14.448  1.00  0.00     0.086 A 
ENDROOT
BRANCH   7  24
HETATM   24  C5  UNL     1       3.982  18.735  14.676  1.00  0.00     0.187 A 
HETATM   25  N2  UNL     1       4.193  19.285  13.467  1.00  0.00    -0.263 N 
HETATM   26  N3  UNL     1       4.319  20.590  13.631  1.00  0.00    -0.003 NA
ATOM     27  H2  UNL     1       4.247  18.783  12.580  1.00  0.00     0.186 HD
HETATM   28  N4  UNL     1       4.195  20.889  14.911  1.00  0.00    -0.221 N 
HETATM   29  C6  UNL     1       4.278  22.222  15.456  1.00  0.00     0.197 C 
HETATM   30  N5  UNL     1       3.989  19.741  15.537  1.00  0.00    -0.266 N 
ATOM     31  H5  UNL     1       3.854  19.644  16.544  1.00  0.00     0.190 HD
ENDBRANCH   7  24
BRANCH  20  32
HETATM   32  N9  UNL     1       2.266   9.447  15.537  1.00  0.00    -0.234 N 
ATOM     33  H92 UNL     1       1.683   8.951  14.863  1.00  0.00     0.174 HD
ATOM     34  H91 UNL     1       2.672   8.940  16.323  1.00  0.00     0.174 HD
ENDBRANCH  20  32
TORSDOF 2
ENDMDL
