MODEL 1
REMARK VINA RESULT: -7.953403733      0.000      0.000
REMARK  8 active torsions:
REMARK  status: ('A' for Active; 'I' for Inactive)
REMARK    1  A    between atoms: O1_2  and  C2_3 
REMARK    2  A    between atoms: C2_3  and  C3_5 
REMARK    3  A    between atoms: C3_5  and  C4_6 
REMARK    4  A    between atoms: N5_16  and  O3_17 
REMARK    5  A    between atoms: O3_17  and  C10_18 
REMARK    6  A    between atoms: C10_18  and  C11_19 
REMARK    7  A    between atoms: C11_19  and  C12_20 
REMARK    8  A    between atoms: C12_20  and  N6_21 
ROOT
HETATM    1  N6  UNL     1      31.284   0.885 -21.231  1.00  0.00    -0.279 N 
HETATM    2  N7  UNL     1      30.416   1.208 -20.285  1.00  0.00    -0.263 N 
ATOM      3  H7  UNL     1      29.402   1.233 -20.390  1.00  0.00     0.190 HD
HETATM    4  C13 UNL     1      31.088   1.493 -19.175  1.00  0.00     0.262 A 
HETATM    5  O4  UNL     1      30.583   1.847 -18.075  1.00  0.00    -0.267 OA
HETATM    6  C14 UNL     1      32.425   1.336 -19.435  1.00  0.00     0.118 A 
HETATM    7  C15 UNL     1      32.510   0.951 -20.742  1.00  0.00     0.136 A 
HETATM    8  C16 UNL     1      33.748   0.637 -21.428  1.00  0.00     0.119 C 
HETATM    9  N8  UNL     1      34.719   0.341 -21.967  1.00  0.00    -0.190 NA
ENDROOT
BRANCH   1  10
HETATM   10  C12 UNL     1      30.894   0.565 -22.610  1.00  0.00     0.152 C 
BRANCH  10  11
HETATM   11  C11 UNL     1      29.605  -0.230 -22.631  1.00  0.00     0.051 C 
BRANCH  11  12
HETATM   12  C10 UNL     1      28.521   0.579 -23.230  1.00  0.00     0.204 C 
BRANCH  12  13
HETATM   13  O3  UNL     1      28.513   0.535 -24.658  1.00  0.00    -0.262 OA
BRANCH  13  14
HETATM   14  N5  UNL     1      28.062   1.698 -25.051  1.00  0.00    -0.142 N 
HETATM   15  C3  UNL     1      28.669   2.430 -26.077  1.00  0.00     0.275 C 
HETATM   16  N1  UNL     1      27.638   2.921 -26.936  1.00  0.00    -0.077 NA
HETATM   17  N2  UNL     1      26.745   3.746 -26.218  1.00  0.00    -0.016 NA
HETATM   18  N3  UNL     1      26.234   3.074 -25.132  1.00  0.00     0.003 NA
HETATM   19  N4  UNL     1      26.660   1.778 -25.024  1.00  0.00     0.015 NA
BRANCH  15  20
HETATM   20  C2  UNL     1      29.264   3.679 -25.378  1.00  0.00     0.314 C 
HETATM   21  O2  UNL     1      29.457   3.781 -24.222  1.00  0.00    -0.260 OA
BRANCH  20  22
HETATM   22  O1  UNL     1      29.544   4.690 -26.309  1.00  0.00    -0.323 OA
HETATM   23  C1  UNL     1      30.716   5.466 -26.304  1.00  0.00     0.213 C 
ENDBRANCH  20  22
ENDBRANCH  15  20
BRANCH  15  24
HETATM   24  C4  UNL     1      29.862   1.922 -26.766  1.00  0.00     0.001 A 
HETATM   25  C5  UNL     1      31.072   1.819 -26.104  1.00  0.00     0.012 A 
HETATM   26  C6  UNL     1      32.265   1.667 -26.767  1.00  0.00     0.001 A 
HETATM   27  C7  UNL     1      32.243   1.605 -28.153  1.00  0.00     0.000 A 
HETATM   28  C8  UNL     1      31.070   1.685 -28.832  1.00  0.00     0.001 A 
HETATM   29  C9  UNL     1      29.881   1.846 -28.132  1.00  0.00     0.012 A 
ENDBRANCH  15  24
ENDBRANCH  13  14
ENDBRANCH  12  13
ENDBRANCH  11  12
ENDBRANCH  10  11
ENDBRANCH   1  10
TORSDOF 8
ENDMDL
MODEL 2
REMARK VINA RESULT: -7.824468436      2.617      6.141
REMARK  8 active torsions:
REMARK  status: ('A' for Active; 'I' for Inactive)
REMARK    1  A    between atoms: O1_2  and  C2_3 
REMARK    2  A    between atoms: C2_3  and  C3_5 
REMARK    3  A    between atoms: C3_5  and  C4_6 
REMARK    4  A    between atoms: N5_16  and  O3_17 
REMARK    5  A    between atoms: O3_17  and  C10_18 
REMARK    6  A    between atoms: C10_18  and  C11_19 
REMARK    7  A    between atoms: C11_19  and  C12_20 
REMARK    8  A    between atoms: C12_20  and  N6_21 
ROOT
HETATM    1  N6  UNL     1      27.957   2.984 -26.907  1.00  0.00    -0.279 N 
HETATM    2  N7  UNL     1      27.603   1.903 -27.583  1.00  0.00    -0.263 N 
ATOM      3  H7  UNL     1      27.141   1.082 -27.194  1.00  0.00     0.190 HD
HETATM    4  C13 UNL     1      27.951   2.066 -28.854  1.00  0.00     0.262 A 
HETATM    5  O4  UNL     1      27.773   1.233 -29.783  1.00  0.00    -0.267 OA
HETATM    6  C14 UNL     1      28.538   3.299 -28.979  1.00  0.00     0.118 A 
HETATM    7  C15 UNL     1      28.524   3.850 -27.730  1.00  0.00     0.136 A 
HETATM    8  C16 UNL     1      29.016   5.175 -27.409  1.00  0.00     0.119 C 
HETATM    9  N8  UNL     1      29.361   6.240 -27.154  1.00  0.00    -0.190 NA
ENDROOT
BRANCH   1  10
HETATM   10  C12 UNL     1      27.775   3.126 -25.457  1.00  0.00     0.152 C 
BRANCH  10  11
HETATM   11  C11 UNL     1      27.097   1.902 -24.880  1.00  0.00     0.051 C 
BRANCH  11  12
HETATM   12  C10 UNL     1      27.970   1.269 -23.867  1.00  0.00     0.204 C 
BRANCH  12  13
HETATM   13  O3  UNL     1      29.188   0.761 -24.415  1.00  0.00    -0.262 OA
BRANCH  13  14
HETATM   14  N5  UNL     1      30.121   1.052 -23.547  1.00  0.00    -0.142 N 
HETATM   15  C3  UNL     1      31.211   1.872 -23.863  1.00  0.00     0.275 C 
HETATM   16  N1  UNL     1      31.393   2.795 -22.788  1.00  0.00    -0.077 NA
HETATM   17  N2  UNL     1      31.643   2.106 -21.581  1.00  0.00    -0.016 NA
HETATM   18  N3  UNL     1      30.636   1.206 -21.321  1.00  0.00     0.003 NA
HETATM   19  N4  UNL     1      29.625   1.215 -22.243  1.00  0.00     0.015 NA
BRANCH  15  20
HETATM   20  C2  UNL     1      32.442   0.931 -23.825  1.00  0.00     0.314 C 
HETATM   21  O2  UNL     1      32.398  -0.237 -23.697  1.00  0.00    -0.260 OA
BRANCH  20  22
HETATM   22  O1  UNL     1      33.634   1.659 -23.960  1.00  0.00    -0.323 OA
HETATM   23  C1  UNL     1      34.741   1.228 -24.711  1.00  0.00     0.213 C 
ENDBRANCH  20  22
ENDBRANCH  15  20
BRANCH  15  24
HETATM   24  C4  UNL     1      31.361   2.446 -25.206  1.00  0.00     0.001 A 
HETATM   25  C5  UNL     1      31.331   1.639 -26.329  1.00  0.00     0.012 A 
HETATM   26  C6  UNL     1      31.783   2.061 -27.555  1.00  0.00     0.001 A 
HETATM   27  C7  UNL     1      32.276   3.354 -27.662  1.00  0.00     0.000 A 
HETATM   28  C8  UNL     1      32.303   4.178 -26.583  1.00  0.00     0.001 A 
HETATM   29  C9  UNL     1      31.845   3.717 -25.355  1.00  0.00     0.012 A 
ENDBRANCH  15  24
ENDBRANCH  13  14
ENDBRANCH  12  13
ENDBRANCH  11  12
ENDBRANCH  10  11
ENDBRANCH   1  10
TORSDOF 8
ENDMDL
MODEL 3
REMARK VINA RESULT: -7.778960859      1.343      2.026
REMARK  8 active torsions:
REMARK  status: ('A' for Active; 'I' for Inactive)
REMARK    1  A    between atoms: O1_2  and  C2_3 
REMARK    2  A    between atoms: C2_3  and  C3_5 
REMARK    3  A    between atoms: C3_5  and  C4_6 
REMARK    4  A    between atoms: N5_16  and  O3_17 
REMARK    5  A    between atoms: O3_17  and  C10_18 
REMARK    6  A    between atoms: C10_18  and  C11_19 
REMARK    7  A    between atoms: C11_19  and  C12_20 
REMARK    8  A    between atoms: C12_20  and  N6_21 
ROOT
HETATM    1  N6  UNL     1      32.348   1.038 -21.352  1.00  0.00    -0.279 N 
HETATM    2  N7  UNL     1      33.507   0.564 -21.781  1.00  0.00    -0.263 N 
ATOM      3  H7  UNL     1      33.740   0.351 -22.751  1.00  0.00     0.190 HD
HETATM    4  C13 UNL     1      34.314   0.412 -20.738  1.00  0.00     0.262 A 
HETATM    5  O4  UNL     1      35.496  -0.025 -20.775  1.00  0.00    -0.267 OA
HETATM    6  C14 UNL     1      33.638   0.813 -19.615  1.00  0.00     0.118 A 
HETATM    7  C15 UNL     1      32.400   1.202 -20.041  1.00  0.00     0.136 A 
HETATM    8  C16 UNL     1      31.364   1.737 -19.180  1.00  0.00     0.119 C 
HETATM    9  N8  UNL     1      30.554   2.205 -18.514  1.00  0.00    -0.190 NA
ENDROOT
BRANCH   1  10
HETATM   10  C12 UNL     1      31.196   1.275 -22.230  1.00  0.00     0.152 C 
BRANCH  10  11
HETATM   11  C11 UNL     1      30.290   0.063 -22.264  1.00  0.00     0.051 C 
BRANCH  11  12
HETATM   12  C10 UNL     1      28.996   0.414 -22.889  1.00  0.00     0.204 C 
BRANCH  12  13
HETATM   13  O3  UNL     1      29.010   0.291 -24.313  1.00  0.00    -0.262 OA
BRANCH  13  14
HETATM   14  N5  UNL     1      28.403   1.355 -24.771  1.00  0.00    -0.142 N 
HETATM   15  C3  UNL     1      28.884   2.079 -25.868  1.00  0.00     0.275 C 
HETATM   16  N1  UNL     1      27.776   2.369 -26.723  1.00  0.00    -0.077 NA
HETATM   17  N2  UNL     1      26.804   3.127 -26.035  1.00  0.00    -0.016 NA
HETATM   18  N3  UNL     1      26.411   2.479 -24.886  1.00  0.00     0.003 NA
HETATM   19  N4  UNL     1      27.003   1.260 -24.701  1.00  0.00     0.015 NA
BRANCH  15  20
HETATM   20  C2  UNL     1      29.331   3.442 -25.281  1.00  0.00     0.314 C 
HETATM   21  O2  UNL     1      29.502   3.664 -24.139  1.00  0.00    -0.260 OA
BRANCH  20  22
HETATM   22  O1  UNL     1      29.504   4.393 -26.297  1.00  0.00    -0.323 OA
HETATM   23  C1  UNL     1      30.567   5.312 -26.345  1.00  0.00     0.213 C 
ENDBRANCH  20  22
ENDBRANCH  15  20
BRANCH  15  24
HETATM   24  C4  UNL     1      30.114   1.675 -26.560  1.00  0.00     0.001 A 
HETATM   25  C5  UNL     1      31.331   1.680 -25.903  1.00  0.00     0.012 A 
HETATM   26  C6  UNL     1      32.530   1.632 -26.570  1.00  0.00     0.001 A 
HETATM   27  C7  UNL     1      32.508   1.564 -27.956  1.00  0.00     0.000 A 
HETATM   28  C8  UNL     1      31.330   1.539 -28.631  1.00  0.00     0.001 A 
HETATM   29  C9  UNL     1      30.134   1.597 -27.926  1.00  0.00     0.012 A 
ENDBRANCH  15  24
ENDBRANCH  13  14
ENDBRANCH  12  13
ENDBRANCH  11  12
ENDBRANCH  10  11
ENDBRANCH   1  10
TORSDOF 8
ENDMDL
MODEL 4
REMARK VINA RESULT: -7.686559259      3.173      6.850
REMARK  8 active torsions:
REMARK  status: ('A' for Active; 'I' for Inactive)
REMARK    1  A    between atoms: O1_2  and  C2_3 
REMARK    2  A    between atoms: C2_3  and  C3_5 
REMARK    3  A    between atoms: C3_5  and  C4_6 
REMARK    4  A    between atoms: N5_16  and  O3_17 
REMARK    5  A    between atoms: O3_17  and  C10_18 
REMARK    6  A    between atoms: C10_18  and  C11_19 
REMARK    7  A    between atoms: C11_19  and  C12_20 
REMARK    8  A    between atoms: C12_20  and  N6_21 
ROOT
HETATM    1  N6  UNL     1      30.447   1.271 -29.577  1.00  0.00    -0.279 N 
HETATM    2  N7  UNL     1      29.471   1.381 -28.689  1.00  0.00    -0.263 N 
ATOM      3  H7  UNL     1      29.591   1.453 -27.679  1.00  0.00     0.190 HD
HETATM    4  C13 UNL     1      28.310   1.382 -29.334  1.00  0.00     0.262 A 
HETATM    5  O4  UNL     1      27.169   1.467 -28.804  1.00  0.00    -0.267 OA
HETATM    6  C14 UNL     1      28.570   1.277 -30.676  1.00  0.00     0.118 A 
HETATM    7  C15 UNL     1      29.928   1.209 -30.792  1.00  0.00     0.136 A 
HETATM    8  C16 UNL     1      30.644   1.127 -32.049  1.00  0.00     0.119 C 
HETATM    9  N8  UNL     1      31.222   1.108 -33.043  1.00  0.00    -0.190 NA
ENDROOT
BRANCH   1  10
HETATM   10  C12 UNL     1      31.866   1.180 -29.212  1.00  0.00     0.152 C 
BRANCH  10  11
HETATM   11  C11 UNL     1      32.217   2.220 -28.170  1.00  0.00     0.051 C 
BRANCH  11  12
HETATM   12  C10 UNL     1      32.375   1.578 -26.846  1.00  0.00     0.204 C 
BRANCH  12  13
HETATM   13  O3  UNL     1      31.127   1.283 -26.215  1.00  0.00    -0.262 OA
BRANCH  13  14
HETATM   14  N5  UNL     1      31.301   1.529 -24.942  1.00  0.00    -0.142 N 
HETATM   15  C3  UNL     1      30.549   2.489 -24.255  1.00  0.00     0.275 C 
HETATM   16  N1  UNL     1      30.142   1.918 -23.010  1.00  0.00    -0.077 NA
HETATM   17  N2  UNL     1      31.268   1.547 -22.242  1.00  0.00    -0.016 NA
HETATM   18  N3  UNL     1      32.080   0.698 -22.957  1.00  0.00     0.003 NA
HETATM   19  N4  UNL     1      31.602   0.377 -24.198  1.00  0.00     0.015 NA
BRANCH  15  20
HETATM   20  C2  UNL     1      31.562   3.606 -23.895  1.00  0.00     0.314 C 
HETATM   21  O2  UNL     1      32.680   3.649 -24.257  1.00  0.00    -0.260 OA
BRANCH  20  22
HETATM   22  O1  UNL     1      30.970   4.572 -23.067  1.00  0.00    -0.323 OA
HETATM   23  C1  UNL     1      31.424   5.897 -22.952  1.00  0.00     0.213 C 
ENDBRANCH  20  22
ENDBRANCH  15  20
BRANCH  15  24
HETATM   24  C4  UNL     1      29.520   3.279 -24.942  1.00  0.00     0.001 A 
HETATM   25  C5  UNL     1      28.176   3.024 -24.735  1.00  0.00     0.012 A 
HETATM   26  C6  UNL     1      27.197   3.494 -25.575  1.00  0.00     0.001 A 
HETATM   27  C7  UNL     1      27.582   4.263 -26.664  1.00  0.00     0.000 A 
HETATM   28  C8  UNL     1      28.891   4.547 -26.886  1.00  0.00     0.001 A 
HETATM   29  C9  UNL     1      29.857   4.049 -26.021  1.00  0.00     0.012 A 
ENDBRANCH  15  24
ENDBRANCH  13  14
ENDBRANCH  12  13
ENDBRANCH  11  12
ENDBRANCH  10  11
ENDBRANCH   1  10
TORSDOF 8
ENDMDL
MODEL 5
REMARK VINA RESULT: -7.623903410      3.360      7.029
REMARK  8 active torsions:
REMARK  status: ('A' for Active; 'I' for Inactive)
REMARK    1  A    between atoms: O1_2  and  C2_3 
REMARK    2  A    between atoms: C2_3  and  C3_5 
REMARK    3  A    between atoms: C3_5  and  C4_6 
REMARK    4  A    between atoms: N5_16  and  O3_17 
REMARK    5  A    between atoms: O3_17  and  C10_18 
REMARK    6  A    between atoms: C10_18  and  C11_19 
REMARK    7  A    between atoms: C11_19  and  C12_20 
REMARK    8  A    between atoms: C12_20  and  N6_21 
ROOT
HETATM    1  N6  UNL     1      30.419   2.136 -30.881  1.00  0.00    -0.279 N 
HETATM    2  N7  UNL     1      29.450   1.670 -31.654  1.00  0.00    -0.263 N 
ATOM      3  H7  UNL     1      28.455   1.867 -31.546  1.00  0.00     0.190 HD
HETATM    4  C13 UNL     1      29.990   0.902 -32.592  1.00  0.00     0.262 A 
HETATM    5  O4  UNL     1      29.363   0.288 -33.498  1.00  0.00    -0.267 OA
HETATM    6  C14 UNL     1      31.348   0.893 -32.405  1.00  0.00     0.118 A 
HETATM    7  C15 UNL     1      31.582   1.683 -31.316  1.00  0.00     0.136 A 
HETATM    8  C16 UNL     1      32.896   1.984 -30.785  1.00  0.00     0.119 C 
HETATM    9  N8  UNL     1      33.936   2.265 -30.385  1.00  0.00    -0.190 NA
ENDROOT
BRANCH   1  10
HETATM   10  C12 UNL     1      30.178   2.978 -29.703  1.00  0.00     0.152 C 
BRANCH  10  11
HETATM   11  C11 UNL     1      28.703   3.287 -29.557  1.00  0.00     0.051 C 
BRANCH  11  12
HETATM   12  C10 UNL     1      28.079   2.342 -28.606  1.00  0.00     0.204 C 
BRANCH  12  13
HETATM   13  O3  UNL     1      28.990   1.859 -27.616  1.00  0.00    -0.262 OA
BRANCH  13  14
HETATM   14  N5  UNL     1      28.560   2.328 -26.473  1.00  0.00    -0.142 N 
HETATM   15  C3  UNL     1      29.348   3.145 -25.655  1.00  0.00     0.275 C 
HETATM   16  N1  UNL     1      28.534   4.231 -25.204  1.00  0.00    -0.077 NA
HETATM   17  N2  UNL     1      27.424   3.749 -24.478  1.00  0.00    -0.016 NA
HETATM   18  N3  UNL     1      26.708   2.847 -25.232  1.00  0.00     0.003 NA
HETATM   19  N4  UNL     1      27.196   2.662 -26.497  1.00  0.00     0.015 NA
BRANCH  15  20
HETATM   20  C2  UNL     1      29.640   2.288 -24.398  1.00  0.00     0.314 C 
HETATM   21  O2  UNL     1      30.137   2.684 -23.408  1.00  0.00    -0.260 OA
BRANCH  20  22
HETATM   22  O1  UNL     1      29.237   0.958 -24.593  1.00  0.00    -0.323 OA
HETATM   23  C1  UNL     1      28.610   0.171 -23.611  1.00  0.00     0.213 C 
ENDBRANCH  20  22
ENDBRANCH  15  20
BRANCH  15  24
HETATM   24  C4  UNL     1      30.715   3.515 -26.045  1.00  0.00     0.001 A 
HETATM   25  C5  UNL     1      31.008   4.799 -26.467  1.00  0.00     0.012 A 
HETATM   26  C6  UNL     1      32.164   5.108 -27.140  1.00  0.00     0.001 A 
HETATM   27  C7  UNL     1      33.071   4.088 -27.390  1.00  0.00     0.000 A 
HETATM   28  C8  UNL     1      32.821   2.820 -26.973  1.00  0.00     0.001 A 
HETATM   29  C9  UNL     1      31.639   2.539 -26.302  1.00  0.00     0.012 A 
ENDBRANCH  15  24
ENDBRANCH  13  14
ENDBRANCH  12  13
ENDBRANCH  11  12
ENDBRANCH  10  11
ENDBRANCH   1  10
TORSDOF 8
ENDMDL
