MODEL 1
REMARK VINA RESULT: -7.800974391      0.000      0.000
REMARK  11 active torsions:
REMARK  status: ('A' for Active; 'I' for Inactive)
REMARK    1  A    between atoms: N1_2  and  N2_4 
REMARK    2  A    between atoms: N3_6  and  O1_7 
REMARK    3  A    between atoms: N3_6  and  C2_9 
REMARK    4  A    between atoms: C3_12  and  C4_13 
REMARK    5  A    between atoms: C5_16  and  C6_17 
REMARK    6  A    between atoms: N5_18  and  N6_20 
REMARK       I    between atoms: N6_20  and  C7_22 
REMARK    7  A    between atoms: C7_22  and  C8_24 
REMARK    8  A    between atoms: C8_24  and  O5_25 
REMARK    9  A    between atoms: O5_25  and  C9_26 
REMARK   10  A    between atoms: C9_26  and  C10_28 
REMARK   11  A    between atoms: C10_28  and  O7_31 
ROOT
HETATM    1  C2  UNL     1      31.784   1.480 -29.261  1.00  0.00     0.197 A 
HETATM    2  N4  UNL     1      30.654   1.141 -29.840  1.00  0.00    -0.327 N 
ATOM      3  H4  UNL     1      30.660   0.468 -30.607  1.00  0.00     0.168 HD
HETATM    4  C3  UNL     1      29.530   1.655 -29.447  1.00  0.00     0.130 A 
HETATM    5  C5  UNL     1      29.563   2.554 -28.418  1.00  0.00     0.059 A 
HETATM    6  S1  UNL     1      31.269   2.594 -28.079  1.00  0.00    -0.046 SA
ENDROOT
BRANCH   5   7
HETATM    7  C6  UNL     1      28.535   3.312 -27.729  1.00  0.00     0.128 C 
HETATM    8  N5  UNL     1      27.844   2.723 -26.824  1.00  0.00    -0.308 N 
ATOM      9  H5  UNL     1      28.023   1.743 -26.603  1.00  0.00     0.186 HD
BRANCH   8  10
HETATM   10  N6  UNL     1      26.839   3.426 -26.135  1.00  0.00    -0.269 N 
HETATM   11  C7  UNL     1      26.010   2.720 -25.254  1.00  0.00     0.260 C 
HETATM   12  O4  UNL     1      26.198   1.473 -25.122  1.00  0.00    -0.269 OA
ATOM     13  H6  UNL     1      26.717   4.429 -26.273  1.00  0.00     0.190 HD
BRANCH  11  14
HETATM   14  C8  UNL     1      24.909   3.271 -24.439  1.00  0.00     0.283 C 
BRANCH  14  15
HETATM   15  O5  UNL     1      24.140   4.156 -25.208  1.00  0.00    -0.310 OA
BRANCH  15  16
HETATM   16  C9  UNL     1      22.816   3.983 -25.553  1.00  0.00     0.293 C 
HETATM   17  O6  UNL     1      22.351   2.807 -25.546  1.00  0.00    -0.262 OA
BRANCH  16  18
HETATM   18  C10 UNL     1      21.924   5.137 -25.933  1.00  0.00     0.138 C 
HETATM   19  C11 UNL     1      22.374   5.719 -27.260  1.00  0.00     0.056 C 
HETATM   20  C12 UNL     1      20.482   4.688 -26.054  1.00  0.00     0.056 C 
BRANCH  18  21
HETATM   21  O7  UNL     1      22.040   6.077 -24.920  1.00  0.00    -0.380 OA
ATOM     22  H7  UNL     1      21.997   5.599 -24.101  1.00  0.00     0.211 HD
ENDBRANCH  18  21
ENDBRANCH  16  18
ENDBRANCH  15  16
ENDBRANCH  14  15
ENDBRANCH  11  14
ENDBRANCH   8  10
ENDBRANCH   5   7
BRANCH   4  23
HETATM   23  C4  UNL     1      28.252   1.269 -30.106  1.00  0.00     0.228 C 
HETATM   24  O2  UNL     1      27.168   1.236 -29.520  1.00  0.00    -0.643 OA
HETATM   25  O3  UNL     1      28.229   0.916 -31.470  1.00  0.00    -0.643 OA
ENDBRANCH   4  23
BRANCH   1  26
HETATM   26  N3  UNL     1      33.126   1.017 -29.559  1.00  0.00    -0.124 N 
HETATM   27  N2  UNL     1      34.038   1.058 -28.709  1.00  0.00    -0.219 N 
ATOM     28  H2  UNL     1      33.846   1.425 -27.776  1.00  0.00     0.210 HD
BRANCH  27  29
HETATM   29  N1  UNL     1      35.322   0.605 -29.026  1.00  0.00    -0.325 N 
HETATM   30  C1  UNL     1      36.250   0.335 -27.924  1.00  0.00     0.169 C 
ATOM     31  H1  UNL     1      35.605   0.467 -29.996  1.00  0.00     0.181 HD
ENDBRANCH  27  29
BRANCH  26  32
HETATM   32  O1  UNL     1      33.328   0.535 -30.830  1.00  0.00    -0.265 OA
ATOM     33  H1  UNL     1      34.196   0.345 -31.169  1.00  0.00     0.247 HD
ENDBRANCH  26  32
ENDBRANCH   1  26
TORSDOF 11
ENDMDL
MODEL 2
REMARK VINA RESULT: -7.756735128      6.525      9.317
REMARK  11 active torsions:
REMARK  status: ('A' for Active; 'I' for Inactive)
REMARK    1  A    between atoms: N1_2  and  N2_4 
REMARK    2  A    between atoms: N3_6  and  O1_7 
REMARK    3  A    between atoms: N3_6  and  C2_9 
REMARK    4  A    between atoms: C3_12  and  C4_13 
REMARK    5  A    between atoms: C5_16  and  C6_17 
REMARK    6  A    between atoms: N5_18  and  N6_20 
REMARK       I    between atoms: N6_20  and  C7_22 
REMARK    7  A    between atoms: C7_22  and  C8_24 
REMARK    8  A    between atoms: C8_24  and  O5_25 
REMARK    9  A    between atoms: O5_25  and  C9_26 
REMARK   10  A    between atoms: C9_26  and  C10_28 
REMARK   11  A    between atoms: C10_28  and  O7_31 
ROOT
HETATM    1  C2  UNL     1      27.833   2.205 -24.545  1.00  0.00     0.197 A 
HETATM    2  N4  UNL     1      28.771   1.512 -23.937  1.00  0.00    -0.327 N 
ATOM      3  H4  UNL     1      28.556   0.587 -23.566  1.00  0.00     0.168 HD
HETATM    4  C3  UNL     1      29.967   1.995 -23.805  1.00  0.00     0.130 A 
HETATM    5  C5  UNL     1      30.215   3.239 -24.316  1.00  0.00     0.059 A 
HETATM    6  S1  UNL     1      28.654   3.635 -24.972  1.00  0.00    -0.046 SA
ENDROOT
BRANCH   5   7
HETATM    7  C6  UNL     1      31.399   4.077 -24.355  1.00  0.00     0.128 C 
HETATM    8  N5  UNL     1      31.248   5.350 -24.347  1.00  0.00    -0.308 N 
ATOM      9  H5  UNL     1      30.310   5.751 -24.314  1.00  0.00     0.186 HD
BRANCH   8  10
HETATM   10  N6  UNL     1      32.372   6.195 -24.384  1.00  0.00    -0.269 N 
HETATM   11  C7  UNL     1      32.527   7.059 -25.476  1.00  0.00     0.260 C 
HETATM   12  O4  UNL     1      31.646   7.036 -26.388  1.00  0.00    -0.269 OA
ATOM     13  H6  UNL     1      33.060   6.178 -23.632  1.00  0.00     0.190 HD
BRANCH  11  14
HETATM   14  C8  UNL     1      33.626   8.019 -25.698  1.00  0.00     0.283 C 
BRANCH  14  15
HETATM   15  O5  UNL     1      33.151   9.331 -25.559  1.00  0.00    -0.310 OA
BRANCH  15  16
HETATM   16  C9  UNL     1      32.776   9.930 -24.374  1.00  0.00     0.293 C 
HETATM   17  O6  UNL     1      32.915   9.268 -23.305  1.00  0.00    -0.262 OA
BRANCH  16  18
HETATM   18  C10 UNL     1      32.214  11.327 -24.319  1.00  0.00     0.138 C 
HETATM   19  C11 UNL     1      32.616  11.994 -23.017  1.00  0.00     0.056 C 
HETATM   20  C12 UNL     1      32.724  12.160 -25.479  1.00  0.00     0.056 C 
BRANCH  18  21
HETATM   21  O7  UNL     1      30.835  11.202 -24.401  1.00  0.00    -0.380 OA
ATOM     22  H7  UNL     1      30.617  11.211 -25.326  1.00  0.00     0.211 HD
ENDBRANCH  18  21
ENDBRANCH  16  18
ENDBRANCH  15  16
ENDBRANCH  14  15
ENDBRANCH  11  14
ENDBRANCH   8  10
ENDBRANCH   5   7
BRANCH   4  23
HETATM   23  C4  UNL     1      31.027   1.208 -23.116  1.00  0.00     0.228 C 
HETATM   24  O2  UNL     1      31.479   1.501 -22.008  1.00  0.00    -0.643 OA
HETATM   25  O3  UNL     1      31.572   0.059 -23.723  1.00  0.00    -0.643 OA
ENDBRANCH   4  23
BRANCH   1  26
HETATM   26  N3  UNL     1      26.451   1.836 -24.785  1.00  0.00    -0.124 N 
HETATM   27  N2  UNL     1      25.511   2.616 -24.533  1.00  0.00    -0.219 N 
ATOM     28  H2  UNL     1      25.708   3.540 -24.147  1.00  0.00     0.210 HD
BRANCH  27  29
HETATM   29  N1  UNL     1      24.189   2.232 -24.775  1.00  0.00    -0.325 N 
HETATM   30  C1  UNL     1      23.129   3.216 -24.534  1.00  0.00     0.169 C 
ATOM     31  H1  UNL     1      23.967   1.295 -25.109  1.00  0.00     0.181 HD
ENDBRANCH  27  29
BRANCH  26  32
HETATM   32  O1  UNL     1      26.244   0.581 -25.304  1.00  0.00    -0.265 OA
ATOM     33  H1  UNL     1      26.796   0.216 -25.987  1.00  0.00     0.247 HD
ENDBRANCH  26  32
ENDBRANCH   1  26
TORSDOF 11
ENDMDL
MODEL 3
REMARK VINA RESULT: -7.568935750      2.931      9.675
REMARK  11 active torsions:
REMARK  status: ('A' for Active; 'I' for Inactive)
REMARK    1  A    between atoms: N1_2  and  N2_4 
REMARK    2  A    between atoms: N3_6  and  O1_7 
REMARK    3  A    between atoms: N3_6  and  C2_9 
REMARK    4  A    between atoms: C3_12  and  C4_13 
REMARK    5  A    between atoms: C5_16  and  C6_17 
REMARK    6  A    between atoms: N5_18  and  N6_20 
REMARK       I    between atoms: N6_20  and  C7_22 
REMARK    7  A    between atoms: C7_22  and  C8_24 
REMARK    8  A    between atoms: C8_24  and  O5_25 
REMARK    9  A    between atoms: O5_25  and  C9_26 
REMARK   10  A    between atoms: C9_26  and  C10_28 
REMARK   11  A    between atoms: C10_28  and  O7_31 
ROOT
HETATM    1  C2  UNL     1      26.676   2.467 -24.902  1.00  0.00     0.197 A 
HETATM    2  N4  UNL     1      27.537   1.877 -24.103  1.00  0.00    -0.327 N 
ATOM      3  H4  UNL     1      27.247   1.594 -23.167  1.00  0.00     0.168 HD
HETATM    4  C3  UNL     1      28.753   1.652 -24.493  1.00  0.00     0.130 A 
HETATM    5  C5  UNL     1      29.104   2.047 -25.754  1.00  0.00     0.059 A 
HETATM    6  S1  UNL     1      27.605   2.737 -26.305  1.00  0.00    -0.046 SA
ENDROOT
BRANCH   5   7
HETATM    7  C6  UNL     1      30.338   1.964 -26.513  1.00  0.00     0.128 C 
HETATM    8  N5  UNL     1      30.358   1.238 -27.570  1.00  0.00    -0.308 N 
ATOM      9  H5  UNL     1      29.518   0.737 -27.860  1.00  0.00     0.186 HD
BRANCH   8  10
HETATM   10  N6  UNL     1      31.536   1.133 -28.332  1.00  0.00    -0.269 N 
HETATM   11  C7  UNL     1      31.434   1.123 -29.729  1.00  0.00     0.260 C 
HETATM   12  O4  UNL     1      30.279   1.202 -30.246  1.00  0.00    -0.269 OA
ATOM     13  H6  UNL     1      32.446   1.067 -27.876  1.00  0.00     0.190 HD
BRANCH  11  14
HETATM   14  C8  UNL     1      32.543   1.026 -30.698  1.00  0.00     0.283 C 
BRANCH  14  15
HETATM   15  O5  UNL     1      33.113   2.290 -30.903  1.00  0.00    -0.310 OA
BRANCH  15  16
HETATM   16  C9  UNL     1      34.332   2.712 -30.415  1.00  0.00     0.293 C 
HETATM   17  O6  UNL     1      35.344   2.592 -31.164  1.00  0.00    -0.262 OA
BRANCH  16  18
HETATM   18  C10 UNL     1      34.488   3.301 -29.036  1.00  0.00     0.138 C 
HETATM   19  C11 UNL     1      35.745   4.149 -28.978  1.00  0.00     0.056 C 
HETATM   20  C12 UNL     1      33.293   4.164 -28.679  1.00  0.00     0.056 C 
BRANCH  18  21
HETATM   21  O7  UNL     1      34.576   2.233 -28.157  1.00  0.00    -0.380 OA
ATOM     22  H7  UNL     1      34.047   1.535 -28.525  1.00  0.00     0.211 HD
ENDBRANCH  18  21
ENDBRANCH  16  18
ENDBRANCH  15  16
ENDBRANCH  14  15
ENDBRANCH  11  14
ENDBRANCH   8  10
ENDBRANCH   5   7
BRANCH   4  23
HETATM   23  C4  UNL     1      29.726   0.984 -23.586  1.00  0.00     0.228 C 
HETATM   24  O2  UNL     1      30.216   1.529 -22.595  1.00  0.00    -0.643 OA
HETATM   25  O3  UNL     1      30.137  -0.341 -23.830  1.00  0.00    -0.643 OA
ENDBRANCH   4  23
BRANCH   1  26
HETATM   26  N3  UNL     1      25.288   2.801 -24.646  1.00  0.00    -0.124 N 
HETATM   27  N2  UNL     1      24.908   3.983 -24.528  1.00  0.00    -0.219 N 
ATOM     28  H2  UNL     1      25.584   4.743 -24.612  1.00  0.00     0.210 HD
BRANCH  27  29
HETATM   29  N1  UNL     1      23.564   4.274 -24.280  1.00  0.00    -0.325 N 
HETATM   30  C1  UNL     1      22.724   4.671 -25.414  1.00  0.00     0.169 C 
ATOM     31  H1  UNL     1      23.179   4.212 -23.338  1.00  0.00     0.181 HD
ENDBRANCH  27  29
BRANCH  26  32
HETATM   32  O1  UNL     1      24.423   1.738 -24.540  1.00  0.00    -0.265 OA
ATOM     33  H1  UNL     1      24.629   0.879 -24.889  1.00  0.00     0.247 HD
ENDBRANCH  26  32
ENDBRANCH   1  26
TORSDOF 11
ENDMDL
MODEL 4
REMARK VINA RESULT: -7.561336256      3.874      5.327
REMARK  11 active torsions:
REMARK  status: ('A' for Active; 'I' for Inactive)
REMARK    1  A    between atoms: N1_2  and  N2_4 
REMARK    2  A    between atoms: N3_6  and  O1_7 
REMARK    3  A    between atoms: N3_6  and  C2_9 
REMARK    4  A    between atoms: C3_12  and  C4_13 
REMARK    5  A    between atoms: C5_16  and  C6_17 
REMARK    6  A    between atoms: N5_18  and  N6_20 
REMARK       I    between atoms: N6_20  and  C7_22 
REMARK    7  A    between atoms: C7_22  and  C8_24 
REMARK    8  A    between atoms: C8_24  and  O5_25 
REMARK    9  A    between atoms: O5_25  and  C9_26 
REMARK   10  A    between atoms: C9_26  and  C10_28 
REMARK   11  A    between atoms: C10_28  and  O7_31 
ROOT
HETATM    1  C2  UNL     1      33.443   1.665 -31.437  1.00  0.00     0.197 A 
HETATM    2  N4  UNL     1      32.299   1.556 -32.076  1.00  0.00    -0.327 N 
ATOM      3  H4  UNL     1      32.279   1.631 -33.093  1.00  0.00     0.168 HD
HETATM    4  C3  UNL     1      31.195   1.354 -31.426  1.00  0.00     0.130 A 
HETATM    5  C5  UNL     1      31.264   1.260 -30.064  1.00  0.00     0.059 A 
HETATM    6  S1  UNL     1      32.971   1.475 -29.811  1.00  0.00    -0.046 SA
ENDROOT
BRANCH   5   7
HETATM    7  C6  UNL     1      30.265   1.043 -29.033  1.00  0.00     0.128 C 
HETATM    8  N5  UNL     1      29.509   2.023 -28.698  1.00  0.00    -0.308 N 
ATOM      9  H5  UNL     1      29.618   2.929 -29.154  1.00  0.00     0.186 HD
BRANCH   8  10
HETATM   10  N6  UNL     1      28.530   1.850 -27.703  1.00  0.00    -0.269 N 
HETATM   11  C7  UNL     1      28.560   2.686 -26.579  1.00  0.00     0.260 C 
HETATM   12  O4  UNL     1      29.476   3.560 -26.507  1.00  0.00    -0.269 OA
ATOM     13  H6  UNL     1      27.813   1.131 -27.797  1.00  0.00     0.190 HD
BRANCH  11  14
HETATM   14  C8  UNL     1      27.627   2.669 -25.436  1.00  0.00     0.283 C 
BRANCH  14  15
HETATM   15  O5  UNL     1      28.286   2.210 -24.287  1.00  0.00    -0.310 OA
BRANCH  15  16
HETATM   16  C9  UNL     1      28.636   0.900 -24.028  1.00  0.00     0.293 C 
HETATM   17  O6  UNL     1      27.733   0.018 -24.109  1.00  0.00    -0.262 OA
BRANCH  16  18
HETATM   18  C10 UNL     1      30.041   0.500 -23.656  1.00  0.00     0.138 C 
HETATM   19  C11 UNL     1      30.985   1.666 -23.883  1.00  0.00     0.056 C 
HETATM   20  C12 UNL     1      30.115   0.080 -22.202  1.00  0.00     0.056 C 
BRANCH  18  21
HETATM   21  O7  UNL     1      30.377  -0.569 -24.473  1.00  0.00    -0.380 OA
ATOM     22  H7  UNL     1      31.323  -0.643 -24.447  1.00  0.00     0.211 HD
ENDBRANCH  18  21
ENDBRANCH  16  18
ENDBRANCH  15  16
ENDBRANCH  14  15
ENDBRANCH  11  14
ENDBRANCH   8  10
ENDBRANCH   5   7
BRANCH   4  23
HETATM   23  C4  UNL     1      29.902   1.232 -32.153  1.00  0.00     0.228 C 
HETATM   24  O2  UNL     1      29.751   0.537 -33.160  1.00  0.00    -0.643 OA
HETATM   25  O3  UNL     1      28.762   1.927 -31.705  1.00  0.00    -0.643 OA
ENDBRANCH   4  23
BRANCH   1  26
HETATM   26  N3  UNL     1      34.766   1.890 -31.986  1.00  0.00    -0.124 N 
HETATM   27  N2  UNL     1      35.787   1.410 -31.453  1.00  0.00    -0.219 N 
ATOM     28  H2  UNL     1      35.700   0.843 -30.609  1.00  0.00     0.210 HD
BRANCH  27  29
HETATM   29  N1  UNL     1      37.049   1.645 -32.005  1.00  0.00    -0.325 N 
HETATM   30  C1  UNL     1      37.687   0.559 -32.756  1.00  0.00     0.169 C 
ATOM     31  H1  UNL     1      37.514   2.545 -31.889  1.00  0.00     0.181 HD
ENDBRANCH  27  29
BRANCH  26  32
HETATM   32  O1  UNL     1      34.824   2.661 -33.122  1.00  0.00    -0.265 OA
ATOM     33  H1  UNL     1      34.166   3.317 -33.324  1.00  0.00     0.247 HD
ENDBRANCH  26  32
ENDBRANCH   1  26
TORSDOF 11
ENDMDL
MODEL 5
REMARK VINA RESULT: -7.496717411      3.045      9.999
REMARK  11 active torsions:
REMARK  status: ('A' for Active; 'I' for Inactive)
REMARK    1  A    between atoms: N1_2  and  N2_4 
REMARK    2  A    between atoms: N3_6  and  O1_7 
REMARK    3  A    between atoms: N3_6  and  C2_9 
REMARK    4  A    between atoms: C3_12  and  C4_13 
REMARK    5  A    between atoms: C5_16  and  C6_17 
REMARK    6  A    between atoms: N5_18  and  N6_20 
REMARK       I    between atoms: N6_20  and  C7_22 
REMARK    7  A    between atoms: C7_22  and  C8_24 
REMARK    8  A    between atoms: C8_24  and  O5_25 
REMARK    9  A    between atoms: O5_25  and  C9_26 
REMARK   10  A    between atoms: C9_26  and  C10_28 
REMARK   11  A    between atoms: C10_28  and  O7_31 
ROOT
HETATM    1  C2  UNL     1      26.686   2.438 -24.887  1.00  0.00     0.197 A 
HETATM    2  N4  UNL     1      27.566   1.820 -24.130  1.00  0.00    -0.327 N 
ATOM      3  H4  UNL     1      27.306   1.528 -23.188  1.00  0.00     0.168 HD
HETATM    4  C3  UNL     1      28.761   1.577 -24.570  1.00  0.00     0.130 A 
HETATM    5  C5  UNL     1      29.071   1.985 -25.839  1.00  0.00     0.059 A 
HETATM    6  S1  UNL     1      27.566   2.711 -26.321  1.00  0.00    -0.046 SA
ENDROOT
BRANCH   5   7
HETATM    7  C6  UNL     1      30.273   1.888 -26.646  1.00  0.00     0.128 C 
HETATM    8  N5  UNL     1      30.223   1.222 -27.740  1.00  0.00    -0.308 N 
ATOM      9  H5  UNL     1      29.352   0.774 -28.024  1.00  0.00     0.186 HD
BRANCH   8  10
HETATM   10  N6  UNL     1      31.368   1.107 -28.549  1.00  0.00    -0.269 N 
HETATM   11  C7  UNL     1      31.203   1.024 -29.937  1.00  0.00     0.260 C 
HETATM   12  O4  UNL     1      30.025   1.048 -30.404  1.00  0.00    -0.269 OA
ATOM     13  H6  UNL     1      32.299   1.086 -28.133  1.00  0.00     0.190 HD
BRANCH  11  14
HETATM   14  C8  UNL     1      32.270   0.904 -30.951  1.00  0.00     0.283 C 
BRANCH  14  15
HETATM   15  O5  UNL     1      32.879   2.151 -31.155  1.00  0.00    -0.310 OA
BRANCH  15  16
HETATM   16  C9  UNL     1      33.953   2.648 -30.445  1.00  0.00     0.293 C 
HETATM   17  O6  UNL     1      33.712   3.320 -29.400  1.00  0.00    -0.262 OA
BRANCH  16  18
HETATM   18  C10 UNL     1      35.379   2.417 -30.874  1.00  0.00     0.138 C 
HETATM   19  C11 UNL     1      35.468   2.421 -32.388  1.00  0.00     0.056 C 
HETATM   20  C12 UNL     1      36.289   3.497 -30.322  1.00  0.00     0.056 C 
BRANCH  18  21
HETATM   21  O7  UNL     1      35.751   1.182 -30.363  1.00  0.00    -0.380 OA
ATOM     22  H7  UNL     1      36.672   1.248 -30.140  1.00  0.00     0.211 HD
ENDBRANCH  18  21
ENDBRANCH  16  18
ENDBRANCH  15  16
ENDBRANCH  14  15
ENDBRANCH  11  14
ENDBRANCH   8  10
ENDBRANCH   5   7
BRANCH   4  23
HETATM   23  C4  UNL     1      29.754   0.878 -23.711  1.00  0.00     0.228 C 
HETATM   24  O2  UNL     1      30.120  -0.284 -23.902  1.00  0.00    -0.643 OA
HETATM   25  O3  UNL     1      30.337   1.536 -22.610  1.00  0.00    -0.643 OA
ENDBRANCH   4  23
BRANCH   1  26
HETATM   26  N3  UNL     1      25.315   2.794 -24.572  1.00  0.00    -0.124 N 
HETATM   27  N2  UNL     1      24.400   1.948 -24.580  1.00  0.00    -0.219 N 
ATOM     28  H2  UNL     1      24.609   0.976 -24.812  1.00  0.00     0.210 HD
BRANCH  27  29
HETATM   29  N1  UNL     1      23.088   2.321 -24.272  1.00  0.00    -0.325 N 
HETATM   30  C1  UNL     1      22.244   2.831 -25.356  1.00  0.00     0.169 C 
ATOM     31  H1  UNL     1      22.730   2.241 -23.321  1.00  0.00     0.181 HD
ENDBRANCH  27  29
BRANCH  26  32
HETATM   32  O1  UNL     1      25.091   4.115 -24.268  1.00  0.00    -0.265 OA
ATOM     33  H1  UNL     1      25.800   4.722 -24.086  1.00  0.00     0.247 HD
ENDBRANCH  26  32
ENDBRANCH   1  26
TORSDOF 11
ENDMDL
