MODEL 1
REMARK VINA RESULT: -9.822481840      0.000      0.000
REMARK  7 active torsions:
REMARK  status: ('A' for Active; 'I' for Inactive)
REMARK    1  A    between atoms: C2_2  and  C3_3 
REMARK    2  A    between atoms: C2_2  and  C14_16 
REMARK    3  A    between atoms: C3_3  and  C4_4 
REMARK    4  A    between atoms: C8_8  and  C9_9 
REMARK    5  A    between atoms: C9_9  and  C10_10 
REMARK    6  A    between atoms: C10_10  and  O1_13 
REMARK    7  A    between atoms: C17_19  and  N1_20 
ROOT
HETATM    1  C14 UNL     1     -15.520   0.992 -22.954  1.00  0.00    -0.042 A 
HETATM    2  C15 UNL     1     -16.548   1.829 -22.555  1.00  0.00     0.027 A 
HETATM    3  C16 UNL     1     -16.316   2.935 -21.765  1.00  0.00     0.054 A 
HETATM    4  C17 UNL     1     -17.106   3.926 -21.222  1.00  0.00     0.248 A 
HETATM    5  O4  UNL     1     -16.319   4.735 -20.545  1.00  0.00    -0.212 OA
HETATM    6  N2  UNL     1     -15.082   4.347 -20.606  1.00  0.00    -0.257 N 
ATOM      7  H2  UNL     1     -14.291   4.811 -20.161  1.00  0.00     0.195 HD
HETATM    8  C18 UNL     1     -15.018   3.247 -21.342  1.00  0.00     0.086 A 
HETATM    9  C19 UNL     1     -14.015   2.401 -21.752  1.00  0.00     0.080 A 
HETATM   10  C20 UNL     1     -12.708   2.661 -21.354  1.00  0.00     0.301 A 
HETATM   11  O5  UNL     1     -12.471   3.649 -20.646  1.00  0.00    -0.259 OA
HETATM   12  O6  UNL     1     -11.723   1.870 -21.723  1.00  0.00    -0.287 OA
HETATM   13  C21 UNL     1     -11.880   0.821 -22.459  1.00  0.00     0.147 A 
HETATM   14  C22 UNL     1     -13.139   0.482 -22.902  1.00  0.00     0.038 A 
HETATM   15  C23 UNL     1     -14.220   1.289 -22.540  1.00  0.00    -0.009 A 
ENDROOT
BRANCH   1  16
HETATM   16  C2  UNL     1     -15.768  -0.175 -23.818  1.00  0.00     0.019 C 
HETATM   17  C1  UNL     1     -16.256  -1.319 -22.913  1.00  0.00     0.015 C 
BRANCH  16  18
HETATM   18  C3  UNL     1     -16.969   0.078 -24.745  1.00  0.00     0.036 C 
BRANCH  18  19
HETATM   19  C4  UNL     1     -18.162  -0.615 -24.227  1.00  0.00    -0.023 C 
HETATM   20  C5  UNL     1     -19.260  -0.076 -23.818  1.00  0.00    -0.083 C 
HETATM   21  C6  UNL     1     -20.462  -0.736 -23.298  1.00  0.00     0.034 C 
HETATM   22  C13 UNL     1     -19.584   1.372 -23.769  1.00  0.00     0.038 C 
HETATM   23  C7  UNL     1     -21.542  -0.013 -24.060  1.00  0.00     0.009 C 
HETATM   24  C8  UNL     1     -21.017   1.425 -24.217  1.00  0.00    -0.007 C 
BRANCH  24  25
HETATM   25  C9  UNL     1     -21.934   2.277 -23.416  1.00  0.00     0.041 C 
BRANCH  25  26
HETATM   26  C10 UNL     1     -22.232   3.643 -23.860  1.00  0.00     0.051 C 
HETATM   27  C11 UNL     1     -22.368   3.795 -25.336  1.00  0.00     0.045 C 
HETATM   28  C12 UNL     1     -23.490   4.211 -23.195  1.00  0.00     0.045 C 
BRANCH  26  29
HETATM   29  O1  UNL     1     -21.163   4.460 -23.435  1.00  0.00    -0.391 OA
ATOM     30  H1  UNL     1     -21.497   5.022 -22.746  1.00  0.00     0.210 HD
ENDBRANCH  26  29
ENDBRANCH  25  26
ENDBRANCH  24  25
ENDBRANCH  18  19
ENDBRANCH  16  18
ENDBRANCH   1  16
BRANCH   4  31
HETATM   31  N1  UNL     1     -18.517   4.063 -21.362  1.00  0.00    -0.087 N 
HETATM   32  O2  UNL     1     -18.991   5.146 -21.802  1.00  0.00    -0.530 OA
HETATM   33  O3  UNL     1     -19.386   3.059 -21.035  1.00  0.00    -0.530 OA
ENDBRANCH   4  31
TORSDOF 7
ENDMDL
MODEL 2
REMARK VINA RESULT: -9.539292540      3.509      6.407
REMARK  7 active torsions:
REMARK  status: ('A' for Active; 'I' for Inactive)
REMARK    1  A    between atoms: C2_2  and  C3_3 
REMARK    2  A    between atoms: C2_2  and  C14_16 
REMARK    3  A    between atoms: C3_3  and  C4_4 
REMARK    4  A    between atoms: C8_8  and  C9_9 
REMARK    5  A    between atoms: C9_9  and  C10_10 
REMARK    6  A    between atoms: C10_10  and  O1_13 
REMARK    7  A    between atoms: C17_19  and  N1_20 
ROOT
HETATM    1  C14 UNL     1     -16.538   1.835 -22.889  1.00  0.00    -0.042 A 
HETATM    2  C15 UNL     1     -15.181   1.605 -22.746  1.00  0.00     0.027 A 
HETATM    3  C16 UNL     1     -14.619   0.381 -23.041  1.00  0.00     0.054 A 
HETATM    4  C17 UNL     1     -13.343  -0.140 -23.003  1.00  0.00     0.248 A 
HETATM    5  O4  UNL     1     -13.411  -1.390 -23.406  1.00  0.00    -0.212 OA
HETATM    6  N2  UNL     1     -14.630  -1.722 -23.702  1.00  0.00    -0.257 N 
ATOM      7  H2  UNL     1     -14.932  -2.637 -24.036  1.00  0.00     0.195 HD
HETATM    8  C18 UNL     1     -15.417  -0.676 -23.499  1.00  0.00     0.086 A 
HETATM    9  C19 UNL     1     -16.761  -0.422 -23.631  1.00  0.00     0.080 A 
HETATM   10  C20 UNL     1     -17.600  -1.439 -24.077  1.00  0.00     0.301 A 
HETATM   11  O5  UNL     1     -17.122  -2.548 -24.349  1.00  0.00    -0.259 OA
HETATM   12  O6  UNL     1     -18.893  -1.234 -24.210  1.00  0.00    -0.287 OA
HETATM   13  C21 UNL     1     -19.473  -0.110 -23.949  1.00  0.00     0.147 A 
HETATM   14  C22 UNL     1     -18.726   0.955 -23.502  1.00  0.00     0.038 A 
HETATM   15  C23 UNL     1     -17.347   0.792 -23.343  1.00  0.00    -0.009 A 
ENDROOT
BRANCH   1  16
HETATM   16  C2  UNL     1     -17.131   3.152 -22.597  1.00  0.00     0.019 C 
HETATM   17  C1  UNL     1     -16.830   3.473 -21.123  1.00  0.00     0.015 C 
BRANCH  16  18
HETATM   18  C3  UNL     1     -16.392   4.264 -23.358  1.00  0.00     0.036 C 
BRANCH  18  19
HETATM   19  C4  UNL     1     -16.015   5.347 -22.432  1.00  0.00    -0.023 C 
HETATM   20  C5  UNL     1     -16.757   6.322 -22.030  1.00  0.00    -0.083 C 
HETATM   21  C6  UNL     1     -16.412   7.413 -21.112  1.00  0.00     0.034 C 
HETATM   22  C13 UNL     1     -18.169   6.589 -22.405  1.00  0.00     0.038 C 
HETATM   23  C7  UNL     1     -17.615   7.420 -20.205  1.00  0.00     0.009 C 
HETATM   24  C8  UNL     1     -18.795   7.034 -21.115  1.00  0.00    -0.007 C 
BRANCH  24  25
HETATM   25  C9  UNL     1     -19.664   8.238 -21.177  1.00  0.00     0.041 C 
BRANCH  25  26
HETATM   26  C10 UNL     1     -20.936   8.256 -20.447  1.00  0.00     0.051 C 
HETATM   27  C11 UNL     1     -21.030   9.312 -19.400  1.00  0.00     0.045 C 
HETATM   28  C12 UNL     1     -22.142   8.389 -21.381  1.00  0.00     0.045 C 
BRANCH  26  29
HETATM   29  O1  UNL     1     -21.069   7.002 -19.813  1.00  0.00    -0.391 OA
ATOM     30  H1  UNL     1     -21.297   6.372 -20.486  1.00  0.00     0.210 HD
ENDBRANCH  26  29
ENDBRANCH  25  26
ENDBRANCH  24  25
ENDBRANCH  18  19
ENDBRANCH  16  18
ENDBRANCH   1  16
BRANCH   4  31
HETATM   31  N1  UNL     1     -12.157   0.542 -22.603  1.00  0.00    -0.087 N 
HETATM   32  O2  UNL     1     -11.140   0.496 -23.347  1.00  0.00    -0.530 OA
HETATM   33  O3  UNL     1     -12.078   1.249 -21.436  1.00  0.00    -0.530 OA
ENDBRANCH   4  31
TORSDOF 7
ENDMDL
MODEL 3
REMARK VINA RESULT: -9.466257656      2.835      5.383
REMARK  7 active torsions:
REMARK  status: ('A' for Active; 'I' for Inactive)
REMARK    1  A    between atoms: C2_2  and  C3_3 
REMARK    2  A    between atoms: C2_2  and  C14_16 
REMARK    3  A    between atoms: C3_3  and  C4_4 
REMARK    4  A    between atoms: C8_8  and  C9_9 
REMARK    5  A    between atoms: C9_9  and  C10_10 
REMARK    6  A    between atoms: C10_10  and  O1_13 
REMARK    7  A    between atoms: C17_19  and  N1_20 
ROOT
HETATM    1  C14 UNL     1     -17.164   4.085 -21.256  1.00  0.00    -0.042 A 
HETATM    2  C15 UNL     1     -17.675   5.359 -21.075  1.00  0.00     0.027 A 
HETATM    3  C16 UNL     1     -16.871   6.415 -20.700  1.00  0.00     0.054 A 
HETATM    4  C17 UNL     1     -17.078   7.755 -20.451  1.00  0.00     0.248 A 
HETATM    5  O4  UNL     1     -15.918   8.282 -20.124  1.00  0.00    -0.212 OA
HETATM    6  N2  UNL     1     -14.975   7.391 -20.142  1.00  0.00    -0.257 N 
ATOM      7  H2  UNL     1     -13.993   7.560 -19.925  1.00  0.00     0.195 HD
HETATM    8  C18 UNL     1     -15.499   6.225 -20.489  1.00  0.00     0.086 A 
HETATM    9  C19 UNL     1     -15.017   4.951 -20.674  1.00  0.00     0.080 A 
HETATM   10  C20 UNL     1     -13.663   4.706 -20.472  1.00  0.00     0.301 A 
HETATM   11  O5  UNL     1     -12.918   5.636 -20.135  1.00  0.00    -0.259 OA
HETATM   12  O6  UNL     1     -13.166   3.498 -20.634  1.00  0.00    -0.287 OA
HETATM   13  C21 UNL     1     -13.870   2.473 -20.983  1.00  0.00     0.147 A 
HETATM   14  C22 UNL     1     -15.220   2.617 -21.206  1.00  0.00     0.038 A 
HETATM   15  C23 UNL     1     -15.798   3.879 -21.048  1.00  0.00    -0.009 A 
ENDROOT
BRANCH   1  16
HETATM   16  C2  UNL     1     -18.020   2.964 -21.681  1.00  0.00     0.019 C 
HETATM   17  C1  UNL     1     -19.465   3.319 -21.289  1.00  0.00     0.015 C 
BRANCH  16  18
HETATM   18  C3  UNL     1     -18.082   2.876 -23.214  1.00  0.00     0.036 C 
BRANCH  18  19
HETATM   19  C4  UNL     1     -18.497   1.524 -23.627  1.00  0.00    -0.023 C 
HETATM   20  C5  UNL     1     -17.736   0.503 -23.834  1.00  0.00    -0.083 C 
HETATM   21  C6  UNL     1     -18.117  -0.851 -24.245  1.00  0.00     0.034 C 
HETATM   22  C13 UNL     1     -16.257   0.448 -23.707  1.00  0.00     0.038 C 
HETATM   23  C7  UNL     1     -17.312  -1.684 -23.282  1.00  0.00     0.009 C 
HETATM   24  C8  UNL     1     -16.012  -0.888 -23.066  1.00  0.00    -0.007 C 
BRANCH  24  25
HETATM   25  C9  UNL     1     -14.931  -1.720 -23.656  1.00  0.00     0.041 C 
BRANCH  25  26
HETATM   26  C10 UNL     1     -13.530  -1.438 -23.320  1.00  0.00     0.051 C 
HETATM   27  C11 UNL     1     -12.731  -2.641 -22.954  1.00  0.00     0.045 C 
HETATM   28  C12 UNL     1     -12.801  -0.692 -24.440  1.00  0.00     0.045 C 
BRANCH  26  29
HETATM   29  O1  UNL     1     -13.537  -0.567 -22.210  1.00  0.00    -0.391 OA
ATOM     30  H1  UNL     1     -12.941   0.144 -22.409  1.00  0.00     0.210 HD
ENDBRANCH  26  29
ENDBRANCH  25  26
ENDBRANCH  24  25
ENDBRANCH  18  19
ENDBRANCH  16  18
ENDBRANCH   1  16
BRANCH   4  31
HETATM   31  N1  UNL     1     -18.318   8.454 -20.529  1.00  0.00    -0.087 N 
HETATM   32  O2  UNL     1     -19.028   8.565 -19.493  1.00  0.00    -0.530 OA
HETATM   33  O3  UNL     1     -18.772   9.011 -21.692  1.00  0.00    -0.530 OA
ENDBRANCH   4  31
TORSDOF 7
ENDMDL
MODEL 4
REMARK VINA RESULT: -9.413532790      2.863      4.642
REMARK  7 active torsions:
REMARK  status: ('A' for Active; 'I' for Inactive)
REMARK    1  A    between atoms: C2_2  and  C3_3 
REMARK    2  A    between atoms: C2_2  and  C14_16 
REMARK    3  A    between atoms: C3_3  and  C4_4 
REMARK    4  A    between atoms: C8_8  and  C9_9 
REMARK    5  A    between atoms: C9_9  and  C10_10 
REMARK    6  A    between atoms: C10_10  and  O1_13 
REMARK    7  A    between atoms: C17_19  and  N1_20 
ROOT
HETATM    1  C14 UNL     1     -15.396   1.966 -22.790  1.00  0.00    -0.042 A 
HETATM    2  C15 UNL     1     -16.695   1.623 -23.122  1.00  0.00     0.027 A 
HETATM    3  C16 UNL     1     -17.026   0.348 -23.529  1.00  0.00     0.054 A 
HETATM    4  C17 UNL     1     -18.192  -0.279 -23.912  1.00  0.00     0.248 A 
HETATM    5  O4  UNL     1     -17.896  -1.529 -24.197  1.00  0.00    -0.212 OA
HETATM    6  N2  UNL     1     -16.631  -1.762 -24.028  1.00  0.00    -0.257 N 
ATOM      7  H2  UNL     1     -16.165  -2.656 -24.186  1.00  0.00     0.195 HD
HETATM    8  C18 UNL     1     -16.045  -0.647 -23.618  1.00  0.00     0.086 A 
HETATM    9  C19 UNL     1     -14.762  -0.282 -23.284  1.00  0.00     0.080 A 
HETATM   10  C20 UNL     1     -13.748  -1.230 -23.361  1.00  0.00     0.301 A 
HETATM   11  O5  UNL     1     -14.017  -2.383 -23.723  1.00  0.00    -0.259 OA
HETATM   12  O6  UNL     1     -12.507  -0.915 -23.055  1.00  0.00    -0.287 OA
HETATM   13  C21 UNL     1     -12.139   0.262 -22.669  1.00  0.00     0.147 A 
HETATM   14  C22 UNL     1     -13.073   1.267 -22.562  1.00  0.00     0.038 A 
HETATM   15  C23 UNL     1     -14.405   0.985 -22.875  1.00  0.00    -0.009 A 
ENDROOT
BRANCH   1  16
HETATM   16  C2  UNL     1     -15.050   3.323 -22.332  1.00  0.00     0.019 C 
HETATM   17  C1  UNL     1     -15.319   4.284 -23.503  1.00  0.00     0.015 C 
BRANCH  16  18
HETATM   18  C3  UNL     1     -16.033   3.801 -21.251  1.00  0.00     0.036 C 
BRANCH  18  19
HETATM   19  C4  UNL     1     -16.596   5.110 -21.622  1.00  0.00    -0.023 C 
HETATM   20  C5  UNL     1     -17.807   5.363 -21.989  1.00  0.00    -0.083 C 
HETATM   21  C6  UNL     1     -18.396   6.652 -22.364  1.00  0.00     0.034 C 
HETATM   22  C13 UNL     1     -18.923   4.393 -22.127  1.00  0.00     0.038 C 
HETATM   23  C7  UNL     1     -19.684   6.621 -21.583  1.00  0.00     0.009 C 
HETATM   24  C8  UNL     1     -20.104   5.140 -21.578  1.00  0.00    -0.007 C 
BRANCH  24  25
HETATM   25  C9  UNL     1     -21.359   5.077 -22.372  1.00  0.00     0.041 C 
BRANCH  25  26
HETATM   26  C10 UNL     1     -22.520   4.353 -21.843  1.00  0.00     0.051 C 
HETATM   27  C11 UNL     1     -23.791   5.130 -21.863  1.00  0.00     0.045 C 
HETATM   28  C12 UNL     1     -22.753   3.021 -22.561  1.00  0.00     0.045 C 
BRANCH  26  29
HETATM   29  O1  UNL     1     -22.230   4.029 -20.500  1.00  0.00    -0.391 OA
ATOM     30  H1  UNL     1     -21.954   3.121 -20.486  1.00  0.00     0.210 HD
ENDBRANCH  26  29
ENDBRANCH  25  26
ENDBRANCH  24  25
ENDBRANCH  18  19
ENDBRANCH  16  18
ENDBRANCH   1  16
BRANCH   4  31
HETATM   31  N1  UNL     1     -19.489   0.307 -23.990  1.00  0.00    -0.087 N 
HETATM   32  O2  UNL     1     -20.500  -0.443 -24.062  1.00  0.00    -0.530 OA
HETATM   33  O3  UNL     1     -19.681   1.660 -23.991  1.00  0.00    -0.530 OA
ENDBRANCH   4  31
TORSDOF 7
ENDMDL
MODEL 5
REMARK VINA RESULT: -9.379432118      2.808      8.058
REMARK  7 active torsions:
REMARK  status: ('A' for Active; 'I' for Inactive)
REMARK    1  A    between atoms: C2_2  and  C3_3 
REMARK    2  A    between atoms: C2_2  and  C14_16 
REMARK    3  A    between atoms: C3_3  and  C4_4 
REMARK    4  A    between atoms: C8_8  and  C9_9 
REMARK    5  A    between atoms: C9_9  and  C10_10 
REMARK    6  A    between atoms: C10_10  and  O1_13 
REMARK    7  A    between atoms: C17_19  and  N1_20 
ROOT
HETATM    1  C14 UNL     1     -18.462   2.599 -23.147  1.00  0.00    -0.042 A 
HETATM    2  C15 UNL     1     -17.586   1.536 -23.282  1.00  0.00     0.027 A 
HETATM    3  C16 UNL     1     -18.028   0.272 -23.611  1.00  0.00     0.054 A 
HETATM    4  C17 UNL     1     -17.421  -0.950 -23.812  1.00  0.00     0.248 A 
HETATM    5  O4  UNL     1     -18.363  -1.818 -24.112  1.00  0.00    -0.212 OA
HETATM    6  N2  UNL     1     -19.533  -1.257 -24.120  1.00  0.00    -0.257 N 
ATOM      7  H2  UNL     1     -20.415  -1.725 -24.324  1.00  0.00     0.195 HD
HETATM    8  C18 UNL     1     -19.391   0.026 -23.821  1.00  0.00     0.086 A 
HETATM    9  C19 UNL     1     -20.240   1.098 -23.681  1.00  0.00     0.080 A 
HETATM   10  C20 UNL     1     -21.604   0.908 -23.872  1.00  0.00     0.301 A 
HETATM   11  O5  UNL     1     -22.028  -0.216 -24.169  1.00  0.00    -0.259 OA
HETATM   12  O6  UNL     1     -22.448   1.910 -23.740  1.00  0.00    -0.287 OA
HETATM   13  C21 UNL     1     -22.092   3.113 -23.433  1.00  0.00     0.147 A 
HETATM   14  C22 UNL     1     -20.762   3.398 -23.225  1.00  0.00     0.038 A 
HETATM   15  C23 UNL     1     -19.825   2.371 -23.352  1.00  0.00    -0.009 A 
ENDROOT
BRANCH   1  16
HETATM   16  C2  UNL     1     -17.985   3.954 -22.820  1.00  0.00     0.019 C 
HETATM   17  C1  UNL     1     -17.845   4.033 -21.290  1.00  0.00     0.015 C 
BRANCH  16  18
HETATM   18  C3  UNL     1     -16.544   4.159 -23.317  1.00  0.00     0.036 C 
BRANCH  18  19
HETATM   19  C4  UNL     1     -15.630   4.310 -22.171  1.00  0.00    -0.023 C 
HETATM   20  C5  UNL     1     -14.672   3.517 -21.828  1.00  0.00    -0.083 C 
HETATM   21  C6  UNL     1     -13.748   3.639 -20.696  1.00  0.00     0.034 C 
HETATM   22  C13 UNL     1     -14.263   2.261 -22.505  1.00  0.00     0.038 C 
HETATM   23  C7  UNL     1     -12.431   3.347 -21.365  1.00  0.00     0.009 C 
HETATM   24  C8  UNL     1     -12.763   2.308 -22.451  1.00  0.00    -0.007 C 
BRANCH  24  25
HETATM   25  C9  UNL     1     -12.072   1.060 -22.035  1.00  0.00     0.041 C 
BRANCH  25  26
HETATM   26  C10 UNL     1     -11.598   0.116 -23.054  1.00  0.00     0.051 C 
HETATM   27  C11 UNL     1     -12.199  -1.244 -22.959  1.00  0.00     0.045 C 
HETATM   28  C12 UNL     1     -11.807   0.642 -24.477  1.00  0.00     0.045 C 
BRANCH  26  29
HETATM   29  O1  UNL     1     -10.203  -0.012 -22.884  1.00  0.00    -0.391 OA
ATOM     30  H1  UNL     1     -10.063  -0.641 -22.187  1.00  0.00     0.210 HD
ENDBRANCH  26  29
ENDBRANCH  25  26
ENDBRANCH  24  25
ENDBRANCH  18  19
ENDBRANCH  16  18
ENDBRANCH   1  16
BRANCH   4  31
HETATM   31  N1  UNL     1     -16.027  -1.234 -23.718  1.00  0.00    -0.087 N 
HETATM   32  O2  UNL     1     -15.202  -0.458 -24.273  1.00  0.00    -0.530 OA
HETATM   33  O3  UNL     1     -15.545  -2.321 -23.044  1.00  0.00    -0.530 OA
ENDBRANCH   4  31
TORSDOF 7
ENDMDL
