MODEL 1
REMARK VINA RESULT: -6.302284187      0.000      0.000
REMARK  7 active torsions:
REMARK  status: ('A' for Active; 'I' for Inactive)
REMARK    1  A    between atoms: S1_2  and  N1_4 
REMARK    2  A    between atoms: S1_2  and  N3_14 
REMARK    3  A    between atoms: N1_4  and  C1_6 
REMARK    4  A    between atoms: C1_6  and  C2_7 
REMARK    5  A    between atoms: C2_7  and  N2_8 
REMARK    6  A    between atoms: N2_8  and  C3_11 
REMARK    7  A    between atoms: N3_14  and  C6_16 
ROOT
HETATM    1  N1  UNL     1       4.313  25.736  15.702  1.00  0.00    -0.301 N 
ATOM      2  H1  UNL     1       4.194  25.190  16.555  1.00  0.00     0.173 HD
ENDROOT
BRANCH   1   3
HETATM    3  S1  UNL     1       3.175  26.896  15.112  1.00  0.00     0.315 S 
HETATM    4  O1  UNL     1       2.477  27.465  16.291  1.00  0.00    -0.183 OA
HETATM    5  O2  UNL     1       2.186  26.224  14.245  1.00  0.00    -0.183 OA
BRANCH   3   6
HETATM    6  N3  UNL     1       4.021  28.055  14.186  1.00  0.00    -0.294 N 
ATOM      7  H3  UNL     1       4.802  27.773  13.592  1.00  0.00     0.174 HD
BRANCH   6   8
HETATM    8  C6  UNL     1       3.627  29.399  14.252  1.00  0.00     0.142 C 
HETATM    9  C7  UNL     1       4.272  30.401  13.350  1.00  0.00     0.195 C 
HETATM   10  O3  UNL     1       2.984  30.843  13.008  1.00  0.00    -0.387 OA
HETATM   11  C8  UNL     1       2.322  29.783  13.649  1.00  0.00     0.195 C 
ENDBRANCH   6   8
ENDBRANCH   3   6
ENDBRANCH   1   3
BRANCH   1  12
HETATM   12  C1  UNL     1       5.439  25.645  14.836  1.00  0.00     0.161 C 
BRANCH  12  13
HETATM   13  C2  UNL     1       6.715  25.961  15.540  1.00  0.00     0.253 C 
BRANCH  13  14
HETATM   14  N2  UNL     1       7.543  26.940  14.944  1.00  0.00    -0.069 N 
ATOM     15  H22 UNL     1       8.419  26.525  14.629  1.00  0.00     0.277 HD
ATOM     16  H21 UNL     1       7.161  27.235  14.046  1.00  0.00     0.277 HD
BRANCH  14  17
HETATM   17  C3  UNL     1       7.797  28.080  15.785  1.00  0.00     0.186 A 
HETATM   18  C4  UNL     1       7.201  29.382  15.402  1.00  0.00     0.035 A 
HETATM   19  C5  UNL     1       6.690  28.622  16.635  1.00  0.00     0.035 A 
ENDBRANCH  14  17
ENDBRANCH  13  14
ENDBRANCH  12  13
ENDBRANCH   1  12
TORSDOF 7
ENDMDL
MODEL 2
REMARK VINA RESULT: -6.051916457      1.485      1.773
REMARK  7 active torsions:
REMARK  status: ('A' for Active; 'I' for Inactive)
REMARK    1  A    between atoms: S1_2  and  N1_4 
REMARK    2  A    between atoms: S1_2  and  N3_14 
REMARK    3  A    between atoms: N1_4  and  C1_6 
REMARK    4  A    between atoms: C1_6  and  C2_7 
REMARK    5  A    between atoms: C2_7  and  N2_8 
REMARK    6  A    between atoms: N2_8  and  C3_11 
REMARK    7  A    between atoms: N3_14  and  C6_16 
ROOT
HETATM    1  N1  UNL     1       3.392  27.225  16.222  1.00  0.00    -0.301 N 
ATOM      2  H1  UNL     1       2.726  27.806  16.730  1.00  0.00     0.173 HD
ENDROOT
BRANCH   1   3
HETATM    3  S1  UNL     1       3.119  26.567  14.646  1.00  0.00     0.315 S 
HETATM    4  O1  UNL     1       1.816  25.858  14.688  1.00  0.00    -0.183 OA
HETATM    5  O2  UNL     1       4.184  25.596  14.323  1.00  0.00    -0.183 OA
BRANCH   3   6
HETATM    6  N3  UNL     1       3.174  27.844  13.514  1.00  0.00    -0.294 N 
ATOM      7  H3  UNL     1       3.202  27.647  12.513  1.00  0.00     0.174 HD
BRANCH   6   8
HETATM    8  C6  UNL     1       3.179  29.167  13.979  1.00  0.00     0.142 C 
HETATM    9  C7  UNL     1       4.357  30.042  13.695  1.00  0.00     0.195 C 
HETATM   10  O3  UNL     1       3.454  31.019  13.246  1.00  0.00    -0.387 OA
HETATM   11  C8  UNL     1       2.337  30.168  13.270  1.00  0.00     0.195 C 
ENDBRANCH   6   8
ENDBRANCH   3   6
ENDBRANCH   1   3
BRANCH   1  12
HETATM   12  C1  UNL     1       4.673  26.846  16.713  1.00  0.00     0.161 C 
BRANCH  12  13
HETATM   13  C2  UNL     1       5.201  27.820  17.711  1.00  0.00     0.253 C 
BRANCH  13  14
HETATM   14  N2  UNL     1       6.361  28.541  17.343  1.00  0.00    -0.069 N 
ATOM     15  H22 UNL     1       6.281  29.518  17.625  1.00  0.00     0.277 HD
ATOM     16  H21 UNL     1       7.155  28.262  17.920  1.00  0.00     0.277 HD
BRANCH  14  17
HETATM   17  C3  UNL     1       6.690  28.442  15.946  1.00  0.00     0.186 A 
HETATM   18  C4  UNL     1       7.830  29.240  15.435  1.00  0.00     0.035 A 
HETATM   19  C5  UNL     1       7.930  27.710  15.537  1.00  0.00     0.035 A 
ENDBRANCH  14  17
ENDBRANCH  13  14
ENDBRANCH  12  13
ENDBRANCH   1  12
TORSDOF 7
ENDMDL
MODEL 3
REMARK VINA RESULT: -5.684219116      2.507      3.758
REMARK  7 active torsions:
REMARK  status: ('A' for Active; 'I' for Inactive)
REMARK    1  A    between atoms: S1_2  and  N1_4 
REMARK    2  A    between atoms: S1_2  and  N3_14 
REMARK    3  A    between atoms: N1_4  and  C1_6 
REMARK    4  A    between atoms: C1_6  and  C2_7 
REMARK    5  A    between atoms: C2_7  and  N2_8 
REMARK    6  A    between atoms: N2_8  and  C3_11 
REMARK    7  A    between atoms: N3_14  and  C6_16 
ROOT
HETATM    1  N1  UNL     1       7.716  27.855  14.945  1.00  0.00    -0.301 N 
ATOM      2  H1  UNL     1       8.205  28.003  14.063  1.00  0.00     0.173 HD
ENDROOT
BRANCH   1   3
HETATM    3  S1  UNL     1       6.692  29.021  15.707  1.00  0.00     0.315 S 
HETATM    4  O1  UNL     1       7.574  30.014  16.368  1.00  0.00    -0.183 OA
HETATM    5  O2  UNL     1       5.862  28.357  16.734  1.00  0.00    -0.183 OA
BRANCH   3   6
HETATM    6  N3  UNL     1       5.666  29.692  14.519  1.00  0.00    -0.294 N 
ATOM      7  H3  UNL     1       6.054  30.226  13.741  1.00  0.00     0.174 HD
BRANCH   6   8
HETATM    8  C6  UNL     1       4.281  29.500  14.628  1.00  0.00     0.142 C 
HETATM    9  C7  UNL     1       3.368  30.143  13.635  1.00  0.00     0.195 C 
HETATM   10  O3  UNL     1       2.749  28.893  13.474  1.00  0.00    -0.387 OA
HETATM   11  C8  UNL     1       3.715  28.188  14.212  1.00  0.00     0.195 C 
ENDBRANCH   6   8
ENDBRANCH   3   6
ENDBRANCH   1   3
BRANCH   1  12
HETATM   12  C1  UNL     1       7.784  26.660  15.716  1.00  0.00     0.161 C 
BRANCH  12  13
HETATM   13  C2  UNL     1       6.841  25.617  15.218  1.00  0.00     0.253 C 
BRANCH  13  14
HETATM   14  N2  UNL     1       5.643  25.444  15.948  1.00  0.00    -0.069 N 
ATOM     15  H22 UNL     1       5.821  24.937  16.815  1.00  0.00     0.277 HD
ATOM     16  H21 UNL     1       5.325  26.333  16.333  1.00  0.00     0.277 HD
BRANCH  14  17
HETATM   17  C3  UNL     1       4.590  24.811  15.199  1.00  0.00     0.186 A 
HETATM   18  C4  UNL     1       3.808  23.736  15.856  1.00  0.00     0.035 A 
HETATM   19  C5  UNL     1       3.165  25.098  15.555  1.00  0.00     0.035 A 
ENDBRANCH  14  17
ENDBRANCH  13  14
ENDBRANCH  12  13
ENDBRANCH   1  12
TORSDOF 7
ENDMDL
MODEL 4
REMARK VINA RESULT: -5.678616160      2.515      4.808
REMARK  7 active torsions:
REMARK  status: ('A' for Active; 'I' for Inactive)
REMARK    1  A    between atoms: S1_2  and  N1_4 
REMARK    2  A    between atoms: S1_2  and  N3_14 
REMARK    3  A    between atoms: N1_4  and  C1_6 
REMARK    4  A    between atoms: C1_6  and  C2_7 
REMARK    5  A    between atoms: C2_7  and  N2_8 
REMARK    6  A    between atoms: N2_8  and  C3_11 
REMARK    7  A    between atoms: N3_14  and  C6_16 
ROOT
HETATM    1  N1  UNL     1       7.389  28.398  14.831  1.00  0.00    -0.301 N 
ATOM      2  H1  UNL     1       8.069  28.333  14.074  1.00  0.00     0.173 HD
ENDROOT
BRANCH   1   3
HETATM    3  S1  UNL     1       6.827  27.055  15.764  1.00  0.00     0.315 S 
HETATM    4  O1  UNL     1       6.521  27.564  17.124  1.00  0.00    -0.183 OA
HETATM    5  O2  UNL     1       7.893  26.038  15.861  1.00  0.00    -0.183 OA
BRANCH   3   6
HETATM    6  N3  UNL     1       5.482  26.371  14.965  1.00  0.00    -0.294 N 
ATOM      7  H3  UNL     1       5.424  26.383  13.946  1.00  0.00     0.174 HD
BRANCH   6   8
HETATM    8  C6  UNL     1       4.459  25.790  15.728  1.00  0.00     0.142 C 
HETATM    9  C7  UNL     1       3.059  25.792  15.206  1.00  0.00     0.195 C 
HETATM   10  O3  UNL     1       3.003  24.421  15.503  1.00  0.00    -0.387 OA
HETATM   11  C8  UNL     1       4.375  24.306  15.784  1.00  0.00     0.195 C 
ENDBRANCH   6   8
ENDBRANCH   3   6
ENDBRANCH   1   3
BRANCH   1  12
HETATM   12  C1  UNL     1       6.775  29.607  15.262  1.00  0.00     0.161 C 
BRANCH  12  13
HETATM   13  C2  UNL     1       5.308  29.618  14.994  1.00  0.00     0.253 C 
BRANCH  13  14
HETATM   14  N2  UNL     1       4.908  29.862  13.660  1.00  0.00    -0.069 N 
ATOM     15  H22 UNL     1       4.999  30.852  13.433  1.00  0.00     0.277 HD
ATOM     16  H21 UNL     1       5.587  29.474  13.005  1.00  0.00     0.277 HD
BRANCH  14  17
HETATM   17  C3  UNL     1       3.584  29.391  13.353  1.00  0.00     0.186 A 
HETATM   18  C4  UNL     1       2.604  29.278  14.460  1.00  0.00     0.035 A 
HETATM   19  C5  UNL     1       2.441  30.357  13.380  1.00  0.00     0.035 A 
ENDBRANCH  14  17
ENDBRANCH  13  14
ENDBRANCH  12  13
ENDBRANCH   1  12
TORSDOF 7
ENDMDL
MODEL 5
REMARK VINA RESULT: -5.644508607      2.571      4.521
REMARK  7 active torsions:
REMARK  status: ('A' for Active; 'I' for Inactive)
REMARK    1  A    between atoms: S1_2  and  N1_4 
REMARK    2  A    between atoms: S1_2  and  N3_14 
REMARK    3  A    between atoms: N1_4  and  C1_6 
REMARK    4  A    between atoms: C1_6  and  C2_7 
REMARK    5  A    between atoms: C2_7  and  N2_8 
REMARK    6  A    between atoms: N2_8  and  C3_11 
REMARK    7  A    between atoms: N3_14  and  C6_16 
ROOT
HETATM    1  N1  UNL     1       2.966  25.450  15.562  1.00  0.00    -0.301 N 
ATOM      2  H1  UNL     1       2.188  24.995  16.038  1.00  0.00     0.173 HD
ENDROOT
BRANCH   1   3
HETATM    3  S1  UNL     1       4.604  24.896  15.608  1.00  0.00     0.315 S 
HETATM    4  O1  UNL     1       4.992  24.562  14.216  1.00  0.00    -0.183 OA
HETATM    5  O2  UNL     1       4.691  23.676  16.437  1.00  0.00    -0.183 OA
BRANCH   3   6
HETATM    6  N3  UNL     1       5.564  26.116  16.319  1.00  0.00    -0.294 N 
ATOM      7  H3  UNL     1       5.454  26.351  17.306  1.00  0.00     0.174 HD
BRANCH   6   8
HETATM    8  C6  UNL     1       6.506  26.789  15.528  1.00  0.00     0.142 C 
HETATM    9  C7  UNL     1       7.124  28.051  16.034  1.00  0.00     0.195 C 
HETATM   10  O3  UNL     1       8.376  27.510  15.698  1.00  0.00    -0.387 OA
HETATM   11  C8  UNL     1       7.879  26.223  15.430  1.00  0.00     0.195 C 
ENDBRANCH   6   8
ENDBRANCH   3   6
ENDBRANCH   1   3
BRANCH   1  12
HETATM   12  C1  UNL     1       2.852  26.626  14.770  1.00  0.00     0.161 C 
BRANCH  12  13
HETATM   13  C2  UNL     1       2.821  27.863  15.603  1.00  0.00     0.253 C 
BRANCH  13  14
HETATM   14  N2  UNL     1       3.669  28.921  15.202  1.00  0.00    -0.069 N 
ATOM     15  H22 UNL     1       3.528  29.738  15.795  1.00  0.00     0.277 HD
ATOM     16  H21 UNL     1       4.640  28.709  15.430  1.00  0.00     0.277 HD
BRANCH  14  17
HETATM   17  C3  UNL     1       3.541  29.275  13.813  1.00  0.00     0.186 A 
HETATM   18  C4  UNL     1       2.401  30.133  13.409  1.00  0.00     0.035 A 
HETATM   19  C5  UNL     1       3.836  30.679  13.388  1.00  0.00     0.035 A 
ENDBRANCH  14  17
ENDBRANCH  13  14
ENDBRANCH  12  13
ENDBRANCH   1  12
TORSDOF 7
ENDMDL
