MODEL 1
REMARK VINA RESULT: -6.005260762      0.000      0.000
REMARK  9 active torsions:
REMARK  status: ('A' for Active; 'I' for Inactive)
REMARK    1  A    between atoms: N1_1  and  C1_5 
REMARK    2  A    between atoms: C1_5  and  C2_6 
REMARK    3  A    between atoms: C2_6  and  C3_7 
REMARK    4  A    between atoms: C3_7  and  C4_8 
REMARK    5  A    between atoms: C4_8  and  N2_9 
REMARK    6  A    between atoms: C7_12  and  N3_13 
REMARK    7  A    between atoms: C9_18  and  N4_19 
REMARK    8  A    between atoms: N4_19  and  C10_22 
REMARK    9  A    between atoms: C10_22  and  C11_23 
ROOT
HETATM    1  N2  UNL     1       4.690  26.579  16.611  1.00  0.00     0.097 N 
HETATM    2  C5  UNL     1       5.481  25.978  15.578  1.00  0.00     0.281 C 
HETATM    3  C6  UNL     1       4.508  26.032  14.421  1.00  0.00     0.079 C 
HETATM    4  C7  UNL     1       3.224  25.618  15.123  1.00  0.00     0.226 C 
HETATM    5  C8  UNL     1       3.492  26.913  15.903  1.00  0.00     0.284 C 
HETATM    6  C9  UNL     1       4.009  27.450  14.585  1.00  0.00     0.229 C 
ENDROOT
BRANCH   1   7
HETATM    7  C4  UNL     1       5.218  27.687  17.281  1.00  0.00     0.273 C 
BRANCH   7   8
HETATM    8  C3  UNL     1       6.643  28.041  17.016  1.00  0.00     0.032 C 
BRANCH   8   9
HETATM    9  C2  UNL     1       6.810  29.182  16.054  1.00  0.00     0.029 C 
BRANCH   9  10
HETATM   10  C1  UNL     1       8.155  29.150  15.360  1.00  0.00     0.229 C 
BRANCH  10  11
HETATM   11  N1  UNL     1       8.480  27.860  14.816  1.00  0.00    -0.079 N 
ATOM     12  H13 UNL     1       7.730  27.521  14.214  1.00  0.00     0.274 HD
ATOM     13  H12 UNL     1       9.228  27.935  14.127  1.00  0.00     0.274 HD
ATOM     14  H11 UNL     1       8.712  27.170  15.532  1.00  0.00     0.274 HD
ENDBRANCH  10  11
ENDBRANCH   9  10
ENDBRANCH   8   9
ENDBRANCH   7   8
ENDBRANCH   1   7
BRANCH   4  15
HETATM   15  N3  UNL     1       3.460  24.416  15.871  1.00  0.00    -0.072 N 
ATOM     16  H33 UNL     1       3.549  23.597  15.269  1.00  0.00     0.274 HD
ATOM     17  H32 UNL     1       4.393  24.393  16.283  1.00  0.00     0.274 HD
ATOM     18  H31 UNL     1       2.725  24.305  16.569  1.00  0.00     0.274 HD
ENDBRANCH   4  15
BRANCH   6  19
HETATM   19  N4  UNL     1       3.073  27.913  13.627  1.00  0.00    -0.062 N 
ATOM     20  H42 UNL     1       3.443  27.890  12.678  1.00  0.00     0.278 HD
ATOM     21  H41 UNL     1       2.299  27.261  13.493  1.00  0.00     0.278 HD
BRANCH  19  22
HETATM   22  C10 UNL     1       2.624  29.233  14.016  1.00  0.00     0.301 C 
BRANCH  22  23
HETATM   23  C11 UNL     1       3.400  30.310  13.376  1.00  0.00     0.258 C 
HETATM   24  O1  UNL     1       2.829  31.239  12.856  1.00  0.00    -0.305 OA
ENDBRANCH  22  23
ENDBRANCH  19  22
ENDBRANCH   6  19
TORSDOF 9
ENDMDL
MODEL 2
REMARK VINA RESULT: -5.921067062      1.175      1.368
REMARK  9 active torsions:
REMARK  status: ('A' for Active; 'I' for Inactive)
REMARK    1  A    between atoms: N1_1  and  C1_5 
REMARK    2  A    between atoms: C1_5  and  C2_6 
REMARK    3  A    between atoms: C2_6  and  C3_7 
REMARK    4  A    between atoms: C3_7  and  C4_8 
REMARK    5  A    between atoms: C4_8  and  N2_9 
REMARK    6  A    between atoms: C7_12  and  N3_13 
REMARK    7  A    between atoms: C9_18  and  N4_19 
REMARK    8  A    between atoms: N4_19  and  C10_22 
REMARK    9  A    between atoms: C10_22  and  C11_23 
ROOT
HETATM    1  N2  UNL     1       4.712  26.110  15.838  1.00  0.00     0.097 N 
HETATM    2  C5  UNL     1       4.620  25.899  14.423  1.00  0.00     0.281 C 
HETATM    3  C6  UNL     1       3.359  26.674  14.112  1.00  0.00     0.079 C 
HETATM    4  C7  UNL     1       2.485  26.259  15.286  1.00  0.00     0.226 C 
HETATM    5  C8  UNL     1       3.593  26.968  16.078  1.00  0.00     0.284 C 
HETATM    6  C9  UNL     1       3.639  27.929  14.908  1.00  0.00     0.229 C 
ENDROOT
BRANCH   1   7
HETATM    7  C4  UNL     1       5.896  26.654  16.344  1.00  0.00     0.273 C 
BRANCH   7   8
HETATM    8  C3  UNL     1       7.124  26.544  15.503  1.00  0.00     0.032 C 
BRANCH   8   9
HETATM    9  C2  UNL     1       7.924  27.812  15.440  1.00  0.00     0.029 C 
BRANCH   9  10
HETATM   10  C1  UNL     1       7.076  29.036  15.717  1.00  0.00     0.229 C 
BRANCH  10  11
HETATM   11  N1  UNL     1       6.757  29.782  14.531  1.00  0.00    -0.079 N 
ATOM     12  H13 UNL     1       5.764  29.706  14.311  1.00  0.00     0.274 HD
ATOM     13  H12 UNL     1       6.813  30.786  14.708  1.00  0.00     0.274 HD
ATOM     14  H11 UNL     1       7.329  29.522  13.727  1.00  0.00     0.274 HD
ENDBRANCH  10  11
ENDBRANCH   9  10
ENDBRANCH   8   9
ENDBRANCH   7   8
ENDBRANCH   1   7
BRANCH   4  15
HETATM   15  N3  UNL     1       2.497  24.828  15.401  1.00  0.00    -0.072 N 
ATOM     16  H33 UNL     1       1.667  24.471  15.875  1.00  0.00     0.274 HD
ATOM     17  H32 UNL     1       2.359  24.367  14.502  1.00  0.00     0.274 HD
ATOM     18  H31 UNL     1       3.359  24.535  15.859  1.00  0.00     0.274 HD
ENDBRANCH   4  15
BRANCH   6  19
HETATM   19  N4  UNL     1       2.668  28.959  14.839  1.00  0.00    -0.062 N 
ATOM     20  H42 UNL     1       1.753  28.656  15.172  1.00  0.00     0.278 HD
ATOM     21  H41 UNL     1       2.831  29.696  15.526  1.00  0.00     0.278 HD
BRANCH  19  22
HETATM   22  C10 UNL     1       2.625  29.466  13.484  1.00  0.00     0.301 C 
BRANCH  22  23
HETATM   23  C11 UNL     1       3.233  30.802  13.355  1.00  0.00     0.258 C 
HETATM   24  O1  UNL     1       2.552  31.747  13.035  1.00  0.00    -0.305 OA
ENDBRANCH  22  23
ENDBRANCH  19  22
ENDBRANCH   6  19
TORSDOF 9
ENDMDL
MODEL 3
REMARK VINA RESULT: -5.860404389      1.770      3.828
REMARK  9 active torsions:
REMARK  status: ('A' for Active; 'I' for Inactive)
REMARK    1  A    between atoms: N1_1  and  C1_5 
REMARK    2  A    between atoms: C1_5  and  C2_6 
REMARK    3  A    between atoms: C2_6  and  C3_7 
REMARK    4  A    between atoms: C3_7  and  C4_8 
REMARK    5  A    between atoms: C4_8  and  N2_9 
REMARK    6  A    between atoms: C7_12  and  N3_13 
REMARK    7  A    between atoms: C9_18  and  N4_19 
REMARK    8  A    between atoms: N4_19  and  C10_22 
REMARK    9  A    between atoms: C10_22  and  C11_23 
ROOT
HETATM    1  N2  UNL     1       3.455  26.224  14.778  1.00  0.00     0.097 N 
HETATM    2  C5  UNL     1       3.543  26.378  16.201  1.00  0.00     0.281 C 
HETATM    3  C6  UNL     1       4.960  25.905  16.439  1.00  0.00     0.079 C 
HETATM    4  C7  UNL     1       5.005  24.696  15.517  1.00  0.00     0.226 C 
HETATM    5  C8  UNL     1       4.773  25.776  14.451  1.00  0.00     0.284 C 
HETATM    6  C9  UNL     1       5.658  26.645  15.320  1.00  0.00     0.229 C 
ENDROOT
BRANCH   1   7
HETATM    7  C4  UNL     1       3.087  27.340  14.019  1.00  0.00     0.273 C 
BRANCH   7   8
HETATM    8  C3  UNL     1       2.974  28.650  14.725  1.00  0.00     0.032 C 
BRANCH   8   9
HETATM    9  C2  UNL     1       2.292  29.713  13.913  1.00  0.00     0.029 C 
BRANCH   9  10
HETATM   10  C1  UNL     1       3.283  30.596  13.184  1.00  0.00     0.229 C 
BRANCH  10  11
HETATM   11  N1  UNL     1       4.626  30.087  13.218  1.00  0.00    -0.079 N 
ATOM     12  H13 UNL     1       5.087  30.337  14.093  1.00  0.00     0.274 HD
ATOM     13  H12 UNL     1       4.627  29.071  13.313  1.00  0.00     0.274 HD
ATOM     14  H11 UNL     1       5.185  30.377  12.416  1.00  0.00     0.274 HD
ENDBRANCH  10  11
ENDBRANCH   9  10
ENDBRANCH   8   9
ENDBRANCH   7   8
ENDBRANCH   1   7
BRANCH   4  15
HETATM   15  N3  UNL     1       3.865  23.862  15.775  1.00  0.00    -0.072 N 
ATOM     16  H33 UNL     1       3.459  23.486  14.918  1.00  0.00     0.274 HD
ATOM     17  H32 UNL     1       4.123  22.978  16.212  1.00  0.00     0.274 HD
ATOM     18  H31 UNL     1       3.186  24.384  16.328  1.00  0.00     0.274 HD
ENDBRANCH   4  15
BRANCH   6  19
HETATM   19  N4  UNL     1       7.063  26.486  15.229  1.00  0.00    -0.062 N 
ATOM     20  H42 UNL     1       7.408  25.724  15.812  1.00  0.00     0.278 HD
ATOM     21  H41 UNL     1       7.357  26.115  14.324  1.00  0.00     0.278 HD
BRANCH  19  22
HETATM   22  C10 UNL     1       7.695  27.751  15.540  1.00  0.00     0.301 C 
BRANCH  22  23
HETATM   23  C11 UNL     1       6.731  28.778  15.971  1.00  0.00     0.258 C 
HETATM   24  O1  UNL     1       6.721  29.861  15.434  1.00  0.00    -0.305 OA
ENDBRANCH  22  23
ENDBRANCH  19  22
ENDBRANCH   6  19
TORSDOF 9
ENDMDL
MODEL 4
REMARK VINA RESULT: -5.386168013      1.344      1.856
REMARK  9 active torsions:
REMARK  status: ('A' for Active; 'I' for Inactive)
REMARK    1  A    between atoms: N1_1  and  C1_5 
REMARK    2  A    between atoms: C1_5  and  C2_6 
REMARK    3  A    between atoms: C2_6  and  C3_7 
REMARK    4  A    between atoms: C3_7  and  C4_8 
REMARK    5  A    between atoms: C4_8  and  N2_9 
REMARK    6  A    between atoms: C7_12  and  N3_13 
REMARK    7  A    between atoms: C9_18  and  N4_19 
REMARK    8  A    between atoms: N4_19  and  C10_22 
REMARK    9  A    between atoms: C10_22  and  C11_23 
ROOT
HETATM    1  N2  UNL     1       5.613  26.477  15.958  1.00  0.00     0.097 N 
HETATM    2  C5  UNL     1       4.533  25.569  16.219  1.00  0.00     0.281 C 
HETATM    3  C6  UNL     1       3.358  26.405  15.764  1.00  0.00     0.079 C 
HETATM    4  C7  UNL     1       3.743  27.759  16.341  1.00  0.00     0.226 C 
HETATM    5  C8  UNL     1       4.925  27.588  15.376  1.00  0.00     0.284 C 
HETATM    6  C9  UNL     1       3.917  26.927  14.459  1.00  0.00     0.229 C 
ENDROOT
BRANCH   1   7
HETATM    7  C4  UNL     1       6.659  26.034  15.143  1.00  0.00     0.273 C 
BRANCH   7   8
HETATM    8  C3  UNL     1       7.936  26.805  15.176  1.00  0.00     0.032 C 
BRANCH   8   9
HETATM    9  C2  UNL     1       7.951  27.900  16.203  1.00  0.00     0.029 C 
BRANCH   9  10
HETATM   10  C1  UNL     1       8.245  29.253  15.591  1.00  0.00     0.229 C 
BRANCH  10  11
HETATM   11  N1  UNL     1       7.262  29.663  14.627  1.00  0.00    -0.079 N 
ATOM     12  H13 UNL     1       7.682  29.775  13.705  1.00  0.00     0.274 HD
ATOM     13  H12 UNL     1       6.613  28.903  14.424  1.00  0.00     0.274 HD
ATOM     14  H11 UNL     1       6.759  30.507  14.903  1.00  0.00     0.274 HD
ENDBRANCH  10  11
ENDBRANCH   9  10
ENDBRANCH   8   9
ENDBRANCH   7   8
ENDBRANCH   1   7
BRANCH   4  15
HETATM   15  N3  UNL     1       4.082  27.602  17.727  1.00  0.00    -0.072 N 
ATOM     16  H33 UNL     1       4.548  26.714  17.914  1.00  0.00     0.274 HD
ATOM     17  H32 UNL     1       4.838  28.224  18.013  1.00  0.00     0.274 HD
ATOM     18  H31 UNL     1       3.243  27.726  18.294  1.00  0.00     0.274 HD
ENDBRANCH   4  15
BRANCH   6  19
HETATM   19  N4  UNL     1       3.064  27.751  13.683  1.00  0.00    -0.062 N 
ATOM     20  H42 UNL     1       2.905  27.377  12.748  1.00  0.00     0.278 HD
ATOM     21  H41 UNL     1       2.098  27.730  14.010  1.00  0.00     0.278 HD
BRANCH  19  22
HETATM   22  C10 UNL     1       3.611  29.092  13.658  1.00  0.00     0.301 C 
BRANCH  22  23
HETATM   23  C11 UNL     1       2.578  30.125  13.463  1.00  0.00     0.258 C 
HETATM   24  O1  UNL     1       2.831  31.118  12.823  1.00  0.00    -0.305 OA
ENDBRANCH  22  23
ENDBRANCH  19  22
ENDBRANCH   6  19
TORSDOF 9
ENDMDL
MODEL 5
REMARK VINA RESULT: -5.347807323      1.409      4.019
REMARK  9 active torsions:
REMARK  status: ('A' for Active; 'I' for Inactive)
REMARK    1  A    between atoms: N1_1  and  C1_5 
REMARK    2  A    between atoms: C1_5  and  C2_6 
REMARK    3  A    between atoms: C2_6  and  C3_7 
REMARK    4  A    between atoms: C3_7  and  C4_8 
REMARK    5  A    between atoms: C4_8  and  N2_9 
REMARK    6  A    between atoms: C7_12  and  N3_13 
REMARK    7  A    between atoms: C9_18  and  N4_19 
REMARK    8  A    between atoms: N4_19  and  C10_22 
REMARK    9  A    between atoms: C10_22  and  C11_23 
ROOT
HETATM    1  N2  UNL     1       6.103  27.047  16.218  1.00  0.00     0.097 N 
HETATM    2  C5  UNL     1       6.373  28.180  17.054  1.00  0.00     0.281 C 
HETATM    3  C6  UNL     1       6.327  29.293  16.031  1.00  0.00     0.079 C 
HETATM    4  C7  UNL     1       7.082  28.642  14.882  1.00  0.00     0.226 C 
HETATM    5  C8  UNL     1       5.898  27.667  14.945  1.00  0.00     0.284 C 
HETATM    6  C9  UNL     1       5.073  28.891  15.286  1.00  0.00     0.229 C 
ENDROOT
BRANCH   1   7
HETATM    7  C4  UNL     1       5.032  26.217  16.564  1.00  0.00     0.273 C 
BRANCH   7   8
HETATM    8  C3  UNL     1       4.997  24.848  15.971  1.00  0.00     0.032 C 
BRANCH   8   9
HETATM    9  C2  UNL     1       3.619  24.397  15.582  1.00  0.00     0.029 C 
BRANCH   9  10
HETATM   10  C1  UNL     1       2.699  25.563  15.290  1.00  0.00     0.229 C 
BRANCH  10  11
HETATM   11  N1  UNL     1       1.307  25.225  15.400  1.00  0.00    -0.079 N 
ATOM     12  H13 UNL     1       1.130  24.684  16.246  1.00  0.00     0.274 HD
ATOM     13  H12 UNL     1       0.748  26.053  15.612  1.00  0.00     0.274 HD
ATOM     14  H11 UNL     1       0.945  24.743  14.578  1.00  0.00     0.274 HD
ENDBRANCH  10  11
ENDBRANCH   9  10
ENDBRANCH   8   9
ENDBRANCH   7   8
ENDBRANCH   1   7
BRANCH   4  15
HETATM   15  N3  UNL     1       8.319  28.104  15.375  1.00  0.00    -0.072 N 
ATOM     16  H33 UNL     1       8.997  27.946  14.630  1.00  0.00     0.274 HD
ATOM     17  H32 UNL     1       8.852  28.789  15.912  1.00  0.00     0.274 HD
ATOM     18  H31 UNL     1       8.128  27.257  15.909  1.00  0.00     0.274 HD
ENDBRANCH   4  15
BRANCH   6  19
HETATM   19  N4  UNL     1       4.655  29.742  14.232  1.00  0.00    -0.062 N 
ATOM     20  H42 UNL     1       4.598  30.718  14.519  1.00  0.00     0.278 HD
ATOM     21  H41 UNL     1       5.368  29.848  13.510  1.00  0.00     0.278 HD
BRANCH  19  22
HETATM   22  C10 UNL     1       3.402  29.246  13.704  1.00  0.00     0.301 C 
BRANCH  22  23
HETATM   23  C11 UNL     1       2.491  30.327  13.289  1.00  0.00     0.258 C 
HETATM   24  O1  UNL     1       2.940  31.364  12.861  1.00  0.00    -0.305 OA
ENDBRANCH  22  23
ENDBRANCH  19  22
ENDBRANCH   6  19
TORSDOF 9
ENDMDL
