MODEL 1
REMARK VINA RESULT: -5.252247887      0.000      0.000
REMARK  8 active torsions:
REMARK  status: ('A' for Active; 'I' for Inactive)
REMARK    1  A    between atoms: N1_2  and  C2_3 
REMARK    2  A    between atoms: N1_2  and  C4_9 
REMARK    3  A    between atoms: C2_3  and  C3_4 
REMARK    4  A    between atoms: C3_4  and  N2_5 
REMARK    5  A    between atoms: C4_9  and  C5_10 
REMARK    6  A    between atoms: C5_10  and  N3_11 
REMARK    7  A    between atoms: C8_14  and  C9_15 
REMARK    8  A    between atoms: C9_15  and  N4_16 
ROOT
HETATM    1  N3  UNL     1       3.239  28.149  15.465  1.00  0.00    -0.291 NA
HETATM    2  C6  UNL     1       3.371  28.273  14.054  1.00  0.00     0.095 C 
HETATM    3  C7  UNL     1       4.033  29.650  13.926  1.00  0.00     0.022 C 
HETATM    4  C8  UNL     1       4.938  29.663  15.137  1.00  0.00     0.018 C 
HETATM    5  C11 UNL     1       4.564  28.445  15.960  1.00  0.00     0.101 C 
ENDROOT
BRANCH   1   6
HETATM    6  C5  UNL     1       2.606  27.004  15.981  1.00  0.00     0.076 C 
BRANCH   6   7
HETATM    7  C4  UNL     1       2.643  25.799  15.116  1.00  0.00     0.096 C 
BRANCH   7   8
HETATM    8  N1  UNL     1       3.645  24.849  15.382  1.00  0.00    -0.392 N 
HETATM    9  C1  UNL     1       3.141  23.536  15.726  1.00  0.00     0.148 C 
BRANCH   8  10
HETATM   10  C2  UNL     1       4.792  25.235  16.113  1.00  0.00     0.148 C 
BRANCH  10  11
HETATM   11  C3  UNL     1       5.915  25.493  15.089  1.00  0.00     0.249 C 
BRANCH  11  12
HETATM   12  N2  UNL     1       7.209  25.413  15.737  1.00  0.00    -0.078 N 
ATOM     13  H23 UNL     1       7.357  24.507  16.182  1.00  0.00     0.274 HD
ATOM     14  H22 UNL     1       7.972  25.374  15.062  1.00  0.00     0.274 HD
ATOM     15  H21 UNL     1       7.321  26.184  16.395  1.00  0.00     0.274 HD
ENDBRANCH  11  12
ENDBRANCH  10  11
ENDBRANCH   8  10
ENDBRANCH   7   8
ENDBRANCH   6   7
ENDBRANCH   1   6
BRANCH   4  16
HETATM   16  C9  UNL     1       6.369  29.603  14.619  1.00  0.00     0.127 C 
BRANCH  16  17
HETATM   17  N4  UNL     1       7.281  29.503  15.734  1.00  0.00    -0.366 N 
HETATM   18  C10 UNL     1       8.260  28.692  15.773  1.00  0.00     0.196 C 
HETATM   19  N5  UNL     1       8.523  27.814  14.698  1.00  0.00    -0.067 NA
HETATM   20  N6  UNL     1       9.083  28.689  16.918  1.00  0.00    -0.067 NA
ATOM     21  H4  UNL     1       7.132  30.118  16.534  1.00  0.00     0.161 HD
ENDBRANCH  16  17
ENDBRANCH   4  16
TORSDOF 8
ENDMDL
MODEL 2
REMARK VINA RESULT: -5.229521805      1.363      4.062
REMARK  8 active torsions:
REMARK  status: ('A' for Active; 'I' for Inactive)
REMARK    1  A    between atoms: N1_2  and  C2_3 
REMARK    2  A    between atoms: N1_2  and  C4_9 
REMARK    3  A    between atoms: C2_3  and  C3_4 
REMARK    4  A    between atoms: C3_4  and  N2_5 
REMARK    5  A    between atoms: C4_9  and  C5_10 
REMARK    6  A    between atoms: C5_10  and  N3_11 
REMARK    7  A    between atoms: C8_14  and  C9_15 
REMARK    8  A    between atoms: C9_15  and  N4_16 
ROOT
HETATM    1  N3  UNL     1       3.143  26.288  14.338  1.00  0.00    -0.291 NA
HETATM    2  C6  UNL     1       2.755  25.710  15.579  1.00  0.00     0.095 C 
HETATM    3  C7  UNL     1       3.617  24.443  15.613  1.00  0.00     0.022 C 
HETATM    4  C8  UNL     1       4.891  24.928  14.958  1.00  0.00     0.018 C 
HETATM    5  C11 UNL     1       4.587  26.309  14.408  1.00  0.00     0.101 C 
ENDROOT
BRANCH   1   6
HETATM    6  C5  UNL     1       2.508  27.472  13.922  1.00  0.00     0.076 C 
BRANCH   6   7
HETATM    7  C4  UNL     1       2.701  28.653  14.798  1.00  0.00     0.096 C 
BRANCH   7   8
HETATM    8  N1  UNL     1       3.246  29.808  14.208  1.00  0.00    -0.392 N 
HETATM    9  C1  UNL     1       2.402  30.414  13.199  1.00  0.00     0.148 C 
BRANCH   8  10
HETATM   10  C2  UNL     1       4.627  29.846  13.903  1.00  0.00     0.148 C 
BRANCH  10  11
HETATM   11  C3  UNL     1       5.384  29.435  15.181  1.00  0.00     0.249 C 
BRANCH  11  12
HETATM   12  N2  UNL     1       6.735  29.960  15.151  1.00  0.00    -0.078 N 
ATOM     13  H23 UNL     1       7.205  29.752  14.270  1.00  0.00     0.274 HD
ATOM     14  H22 UNL     1       6.748  30.978  15.091  1.00  0.00     0.274 HD
ATOM     15  H21 UNL     1       7.262  29.619  15.955  1.00  0.00     0.274 HD
ENDBRANCH  11  12
ENDBRANCH  10  11
ENDBRANCH   8  10
ENDBRANCH   7   8
ENDBRANCH   6   7
ENDBRANCH   1   6
BRANCH   4  16
HETATM   16  C9  UNL     1       5.963  24.952  16.040  1.00  0.00     0.127 C 
BRANCH  16  17
HETATM   17  N4  UNL     1       6.643  26.225  16.017  1.00  0.00    -0.366 N 
HETATM   18  C10 UNL     1       7.861  26.366  15.679  1.00  0.00     0.196 C 
HETATM   19  N5  UNL     1       8.645  25.255  15.295  1.00  0.00    -0.067 NA
HETATM   20  N6  UNL     1       8.414  27.663  15.695  1.00  0.00    -0.067 NA
ATOM     21  H4  UNL     1       6.117  27.056  16.287  1.00  0.00     0.161 HD
ENDBRANCH  16  17
ENDBRANCH   4  16
TORSDOF 8
ENDMDL
MODEL 3
REMARK VINA RESULT: -5.086711600      1.700      4.417
REMARK  8 active torsions:
REMARK  status: ('A' for Active; 'I' for Inactive)
REMARK    1  A    between atoms: N1_2  and  C2_3 
REMARK    2  A    between atoms: N1_2  and  C4_9 
REMARK    3  A    between atoms: C2_3  and  C3_4 
REMARK    4  A    between atoms: C3_4  and  N2_5 
REMARK    5  A    between atoms: C4_9  and  C5_10 
REMARK    6  A    between atoms: C5_10  and  N3_11 
REMARK    7  A    between atoms: C8_14  and  C9_15 
REMARK    8  A    between atoms: C9_15  and  N4_16 
ROOT
HETATM    1  N3  UNL     1       4.160  25.904  16.204  1.00  0.00    -0.291 NA
HETATM    2  C6  UNL     1       3.348  25.597  15.077  1.00  0.00     0.095 C 
HETATM    3  C7  UNL     1       2.012  26.233  15.477  1.00  0.00     0.022 C 
HETATM    4  C8  UNL     1       2.475  27.469  16.216  1.00  0.00     0.018 C 
HETATM    5  C11 UNL     1       3.977  27.326  16.381  1.00  0.00     0.101 C 
ENDROOT
BRANCH   1   6
HETATM    6  C5  UNL     1       5.482  25.423  16.228  1.00  0.00     0.076 C 
BRANCH   6   7
HETATM    7  C4  UNL     1       6.303  25.725  15.030  1.00  0.00     0.096 C 
BRANCH   7   8
HETATM    8  N1  UNL     1       7.369  26.627  15.194  1.00  0.00    -0.392 N 
HETATM    9  C1  UNL     1       8.677  26.007  15.190  1.00  0.00     0.148 C 
BRANCH   8  10
HETATM   10  C2  UNL     1       7.241  27.695  16.113  1.00  0.00     0.148 C 
BRANCH  10  11
HETATM   11  C3  UNL     1       7.933  28.920  15.483  1.00  0.00     0.249 C 
BRANCH  11  12
HETATM   12  N2  UNL     1       6.999  29.646  14.646  1.00  0.00    -0.078 N 
ATOM     13  H23 UNL     1       7.476  30.215  13.946  1.00  0.00     0.274 HD
ATOM     14  H22 UNL     1       6.492  29.026  14.013  1.00  0.00     0.274 HD
ATOM     15  H21 UNL     1       6.367  30.200  15.223  1.00  0.00     0.274 HD
ENDBRANCH  11  12
ENDBRANCH  10  11
ENDBRANCH   8  10
ENDBRANCH   7   8
ENDBRANCH   6   7
ENDBRANCH   1   6
BRANCH   4  16
HETATM   16  C9  UNL     1       2.092  28.667  15.358  1.00  0.00     0.127 C 
BRANCH  16  17
HETATM   17  N4  UNL     1       3.263  29.167  14.678  1.00  0.00    -0.366 N 
HETATM   18  C10 UNL     1       3.216  29.962  13.686  1.00  0.00     0.196 C 
HETATM   19  N5  UNL     1       1.980  30.418  13.175  1.00  0.00    -0.067 NA
HETATM   20  N6  UNL     1       4.430  30.382  13.106  1.00  0.00    -0.067 NA
ATOM     21  H4  UNL     1       4.178  28.865  15.011  1.00  0.00     0.161 HD
ENDBRANCH  16  17
ENDBRANCH   4  16
TORSDOF 8
ENDMDL
MODEL 4
REMARK VINA RESULT: -4.837007314      1.869      4.636
REMARK  8 active torsions:
REMARK  status: ('A' for Active; 'I' for Inactive)
REMARK    1  A    between atoms: N1_2  and  C2_3 
REMARK    2  A    between atoms: N1_2  and  C4_9 
REMARK    3  A    between atoms: C2_3  and  C3_4 
REMARK    4  A    between atoms: C3_4  and  N2_5 
REMARK    5  A    between atoms: C4_9  and  C5_10 
REMARK    6  A    between atoms: C5_10  and  N3_11 
REMARK    7  A    between atoms: C8_14  and  C9_15 
REMARK    8  A    between atoms: C9_15  and  N4_16 
ROOT
HETATM    1  N3  UNL     1       4.395  27.181  16.745  1.00  0.00    -0.291 NA
HETATM    2  C6  UNL     1       4.477  25.982  15.983  1.00  0.00     0.095 C 
HETATM    3  C7  UNL     1       3.073  25.910  15.369  1.00  0.00     0.022 C 
HETATM    4  C8  UNL     1       2.777  27.372  15.121  1.00  0.00     0.018 C 
HETATM    5  C11 UNL     1       3.887  28.151  15.802  1.00  0.00     0.101 C 
ENDROOT
BRANCH   1   6
HETATM    6  C5  UNL     1       5.507  27.562  17.517  1.00  0.00     0.076 C 
BRANCH   6   7
HETATM    7  C4  UNL     1       6.376  28.609  16.925  1.00  0.00     0.096 C 
BRANCH   7   8
HETATM    8  N1  UNL     1       7.541  28.178  16.264  1.00  0.00    -0.392 N 
HETATM    9  C1  UNL     1       8.622  29.140  16.279  1.00  0.00     0.148 C 
BRANCH   8  10
HETATM   10  C2  UNL     1       7.424  27.459  15.052  1.00  0.00     0.148 C 
BRANCH  10  11
HETATM   11  C3  UNL     1       8.305  26.200  15.185  1.00  0.00     0.249 C 
BRANCH  11  12
HETATM   12  N2  UNL     1       7.602  25.176  15.931  1.00  0.00    -0.078 N 
ATOM     13  H23 UNL     1       7.813  24.240  15.586  1.00  0.00     0.274 HD
ATOM     14  H22 UNL     1       7.968  25.073  16.877  1.00  0.00     0.274 HD
ATOM     15  H21 UNL     1       6.600  25.366  15.930  1.00  0.00     0.274 HD
ENDBRANCH  11  12
ENDBRANCH  10  11
ENDBRANCH   8  10
ENDBRANCH   7   8
ENDBRANCH   6   7
ENDBRANCH   1   6
BRANCH   4  16
HETATM   16  C9  UNL     1       2.765  27.570  13.611  1.00  0.00     0.127 C 
BRANCH  16  17
HETATM   17  N4  UNL     1       3.479  28.779  13.278  1.00  0.00    -0.366 N 
HETATM   18  C10 UNL     1       2.949  29.936  13.289  1.00  0.00     0.196 C 
HETATM   19  N5  UNL     1       1.591  30.113  13.638  1.00  0.00    -0.067 NA
HETATM   20  N6  UNL     1       3.751  31.043  12.944  1.00  0.00    -0.067 NA
ATOM     21  H4  UNL     1       4.462  28.702  13.019  1.00  0.00     0.161 HD
ENDBRANCH  16  17
ENDBRANCH   4  16
TORSDOF 8
ENDMDL
MODEL 5
REMARK VINA RESULT: -4.768714127      1.891      4.692
REMARK  8 active torsions:
REMARK  status: ('A' for Active; 'I' for Inactive)
REMARK    1  A    between atoms: N1_2  and  C2_3 
REMARK    2  A    between atoms: N1_2  and  C4_9 
REMARK    3  A    between atoms: C2_3  and  C3_4 
REMARK    4  A    between atoms: C3_4  and  N2_5 
REMARK    5  A    between atoms: C4_9  and  C5_10 
REMARK    6  A    between atoms: C5_10  and  N3_11 
REMARK    7  A    between atoms: C8_14  and  C9_15 
REMARK    8  A    between atoms: C9_15  and  N4_16 
ROOT
HETATM    1  N3  UNL     1       4.143  26.909  16.701  1.00  0.00    -0.291 NA
HETATM    2  C6  UNL     1       4.186  25.747  15.880  1.00  0.00     0.095 C 
HETATM    3  C7  UNL     1       2.830  25.823  15.168  1.00  0.00     0.022 C 
HETATM    4  C8  UNL     1       2.669  27.315  14.982  1.00  0.00     0.018 C 
HETATM    5  C11 UNL     1       3.785  27.964  15.781  1.00  0.00     0.101 C 
ENDROOT
BRANCH   1   6
HETATM    6  C5  UNL     1       5.223  27.157  17.567  1.00  0.00     0.076 C 
BRANCH   6   7
HETATM    7  C4  UNL     1       6.131  28.261  17.170  1.00  0.00     0.096 C 
BRANCH   7   8
HETATM    8  N1  UNL     1       6.720  28.181  15.895  1.00  0.00    -0.392 N 
HETATM    9  C1  UNL     1       7.454  26.955  15.657  1.00  0.00     0.148 C 
BRANCH   8  10
HETATM   10  C2  UNL     1       7.323  29.331  15.335  1.00  0.00     0.148 C 
BRANCH  10  11
HETATM   11  C3  UNL     1       8.760  29.404  15.888  1.00  0.00     0.249 C 
BRANCH  11  12
HETATM   12  N2  UNL     1       9.711  29.468  14.797  1.00  0.00    -0.078 N 
ATOM     13  H23 UNL     1       9.546  28.738  14.104  1.00  0.00     0.274 HD
ATOM     14  H22 UNL     1       9.554  30.279  14.199  1.00  0.00     0.274 HD
ATOM     15  H21 UNL     1      10.664  29.441  15.160  1.00  0.00     0.274 HD
ENDBRANCH  11  12
ENDBRANCH  10  11
ENDBRANCH   8  10
ENDBRANCH   7   8
ENDBRANCH   6   7
ENDBRANCH   1   6
BRANCH   4  16
HETATM   16  C9  UNL     1       2.783  27.589  13.489  1.00  0.00     0.127 C 
BRANCH  16  17
HETATM   17  N4  UNL     1       3.540  28.799  13.277  1.00  0.00    -0.366 N 
HETATM   18  C10 UNL     1       3.021  29.961  13.260  1.00  0.00     0.196 C 
HETATM   19  N5  UNL     1       1.633  30.143  13.452  1.00  0.00    -0.067 NA
HETATM   20  N6  UNL     1       3.866  31.069  13.045  1.00  0.00    -0.067 NA
ATOM     21  H4  UNL     1       4.547  28.719  13.133  1.00  0.00     0.161 HD
ENDBRANCH  16  17
ENDBRANCH   4  16
TORSDOF 8
ENDMDL
