MODEL 1
REMARK VINA RESULT: -7.996886895      0.000      0.000
REMARK  14 active torsions:
REMARK  status: ('A' for Active; 'I' for Inactive)
REMARK       I    between atoms: C2_2  and  N1_4 
REMARK    1  A    between atoms: C4_6  and  C5_7 
REMARK       I    between atoms: C5_7  and  N2_9 
REMARK    2  A    between atoms: N2_9  and  N3_11 
REMARK       I    between atoms: N3_11  and  C6_13 
REMARK    3  A    between atoms: C6_13  and  C7_15 
REMARK    4  A    between atoms: C7_15  and  N4_16 
REMARK    5  A    between atoms: C7_15  and  C8_20 
REMARK    6  A    between atoms: C8_20  and  N5_21 
REMARK    7  A    between atoms: C9_25  and  N7_26 
REMARK    8  A    between atoms: N7_26  and  O4_27 
REMARK    9  A    between atoms: N7_26  and  N8_29 
REMARK   10  A    between atoms: N8_29  and  N9_31 
REMARK   11  A    between atoms: C10_34  and  N10_35 
REMARK   12  A    between atoms: N10_35  and  O5_37 
REMARK   13  A    between atoms: C11_39  and  O6_40 
REMARK   14  A    between atoms: C12_42  and  O7_43 
ROOT
HETATM    1  C7  UNL     1      -5.070 -30.565   1.013  1.00  0.00     0.295 C 
ENDROOT
BRANCH   1   2
HETATM    2  C6  UNL     1      -5.005 -31.067  -0.347  1.00  0.00     0.268 C 
HETATM    3  N3  UNL     1      -5.441 -32.362  -0.719  1.00  0.00    -0.265 N 
ATOM      4  H3  UNL     1      -5.812 -32.989  -0.006  1.00  0.00     0.190 HD
HETATM    5  O3  UNL     1      -4.542 -30.315  -1.280  1.00  0.00    -0.269 OA
BRANCH   3   6
HETATM    6  N2  UNL     1      -5.373 -32.794  -2.030  1.00  0.00    -0.263 N 
HETATM    7  C5  UNL     1      -5.429 -34.036  -2.594  1.00  0.00     0.274 C 
HETATM    8  O2  UNL     1      -5.547 -35.105  -1.921  1.00  0.00    -0.266 OA
ATOM      9  H2  UNL     1      -5.259 -32.039  -2.707  1.00  0.00     0.190 HD
BRANCH   7  10
HETATM   10  C4  UNL     1      -5.350 -34.123  -4.080  1.00  0.00     0.087 A 
HETATM   11  C3  UNL     1      -4.552 -34.942  -4.811  1.00  0.00     0.122 A 
HETATM   12  N1  UNL     1      -4.717 -34.748  -6.134  1.00  0.00    -0.270 N 
HETATM   13  C2  UNL     1      -4.049 -35.457  -7.171  1.00  0.00     0.226 C 
HETATM   14  C12 UNL     1      -5.643 -33.784  -6.247  1.00  0.00     0.184 A 
HETATM   15  C1  UNL     1      -4.238 -35.208  -8.600  1.00  0.00     0.118 C 
HETATM   16  O1  UNL     1      -3.238 -36.364  -6.846  1.00  0.00    -0.273 OA
HETATM   17  C11 UNL     1      -6.054 -33.378  -4.979  1.00  0.00     0.134 A 
BRANCH  14  18
HETATM   18  O7  UNL     1      -6.123 -33.266  -7.422  1.00  0.00    -0.344 OA
ATOM     19  H7  UNL     1      -6.356 -32.358  -7.577  1.00  0.00     0.219 HD
ENDBRANCH  14  18
BRANCH  17  20
HETATM   20  O6  UNL     1      -7.018 -32.378  -4.726  1.00  0.00    -0.356 OA
ATOM     21  H6  UNL     1      -7.772 -32.138  -5.252  1.00  0.00     0.218 HD
ENDBRANCH  17  20
ENDBRANCH   7  10
ENDBRANCH   3   6
ENDBRANCH   1   2
BRANCH   1  22
HETATM   22  N4  UNL     1      -5.483 -31.608   1.948  1.00  0.00    -0.065 N 
ATOM     23  H43 UNL     1      -5.700 -32.479   1.464  1.00  0.00     0.275 HD
ATOM     24  H42 UNL     1      -4.699 -31.934   2.515  1.00  0.00     0.275 HD
ATOM     25  H41 UNL     1      -6.261 -31.300   2.531  1.00  0.00     0.275 HD
ENDBRANCH   1  22
BRANCH   1  26
HETATM   26  C8  UNL     1      -5.918 -29.343   1.115  1.00  0.00     0.183 C 
BRANCH  26  27
HETATM   27  N5  UNL     1      -5.145 -28.196   1.628  1.00  0.00    -0.282 N 
HETATM   28  S1  UNL     1      -5.007 -27.781   3.291  1.00  0.00     0.072 SA
HETATM   29  N6  UNL     1      -4.000 -26.456   3.129  1.00  0.00    -0.292 N 
HETATM   30  C9  UNL     1      -3.796 -26.366   1.826  1.00  0.00     0.207 A 
ATOM     31  H6  UNL     1      -3.628 -25.856   3.866  1.00  0.00     0.177 HD
HETATM   32  C10 UNL     1      -4.400 -27.285   1.018  1.00  0.00     0.184 A 
BRANCH  30  33
HETATM   33  N7  UNL     1      -2.917 -25.301   1.361  1.00  0.00    -0.128 N 
BRANCH  33  34
HETATM   34  O4  UNL     1      -3.146 -23.987   1.643  1.00  0.00    -0.265 OA
ATOM     35  H4  UNL     1      -2.997 -23.296   1.008  1.00  0.00     0.247 HD
ENDBRANCH  33  34
BRANCH  33  36
HETATM   36  N8  UNL     1      -1.915 -25.607   0.672  1.00  0.00    -0.221 N 
ATOM     37  H8  UNL     1      -1.828 -25.078  -0.196  1.00  0.00     0.210 HD
BRANCH  36  38
HETATM   38  N9  UNL     1      -0.938 -26.500   0.866  1.00  0.00    -0.329 N 
ATOM     39  H92 UNL     1      -1.030 -27.001   1.750  1.00  0.00     0.178 HD
ATOM     40  H91 UNL     1      -0.133 -26.762   0.296  1.00  0.00     0.178 HD
ENDBRANCH  36  38
ENDBRANCH  33  36
ENDBRANCH  30  33
BRANCH  32  41
HETATM   41  N10 UNL     1      -4.200 -27.237  -0.265  1.00  0.00    -0.249 N 
ATOM     42  H10 UNL     1      -4.888 -26.756  -0.845  1.00  0.00     0.196 HD
BRANCH  41  43
HETATM   43  O5  UNL     1      -3.141 -27.785  -0.862  1.00  0.00    -0.288 OA
ATOM     44  H5  UNL     1      -2.816 -28.654  -0.655  1.00  0.00     0.244 HD
ENDBRANCH  41  43
ENDBRANCH  32  41
ENDBRANCH  26  27
ENDBRANCH   1  26
TORSDOF 14
ENDMDL
MODEL 2
REMARK VINA RESULT: -7.902228203      0.951      1.716
REMARK  14 active torsions:
REMARK  status: ('A' for Active; 'I' for Inactive)
REMARK       I    between atoms: C2_2  and  N1_4 
REMARK    1  A    between atoms: C4_6  and  C5_7 
REMARK       I    between atoms: C5_7  and  N2_9 
REMARK    2  A    between atoms: N2_9  and  N3_11 
REMARK       I    between atoms: N3_11  and  C6_13 
REMARK    3  A    between atoms: C6_13  and  C7_15 
REMARK    4  A    between atoms: C7_15  and  N4_16 
REMARK    5  A    between atoms: C7_15  and  C8_20 
REMARK    6  A    between atoms: C8_20  and  N5_21 
REMARK    7  A    between atoms: C9_25  and  N7_26 
REMARK    8  A    between atoms: N7_26  and  O4_27 
REMARK    9  A    between atoms: N7_26  and  N8_29 
REMARK   10  A    between atoms: N8_29  and  N9_31 
REMARK   11  A    between atoms: C10_34  and  N10_35 
REMARK   12  A    between atoms: N10_35  and  O5_37 
REMARK   13  A    between atoms: C11_39  and  O6_40 
REMARK   14  A    between atoms: C12_42  and  O7_43 
ROOT
HETATM    1  C7  UNL     1      -5.102 -30.566   0.924  1.00  0.00     0.295 C 
ENDROOT
BRANCH   1   2
HETATM    2  C6  UNL     1      -4.928 -31.010  -0.446  1.00  0.00     0.268 C 
HETATM    3  N3  UNL     1      -5.275 -32.309  -0.892  1.00  0.00    -0.265 N 
ATOM      4  H3  UNL     1      -5.658 -32.981  -0.226  1.00  0.00     0.190 HD
HETATM    5  O3  UNL     1      -4.445 -30.202  -1.320  1.00  0.00    -0.269 OA
BRANCH   3   6
HETATM    6  N2  UNL     1      -5.104 -32.686  -2.210  1.00  0.00    -0.263 N 
HETATM    7  C5  UNL     1      -5.224 -33.887  -2.847  1.00  0.00     0.274 C 
HETATM    8  O2  UNL     1      -5.529 -34.967  -2.254  1.00  0.00    -0.266 OA
ATOM      9  H2  UNL     1      -4.836 -31.918  -2.826  1.00  0.00     0.190 HD
BRANCH   7  10
HETATM   10  C4  UNL     1      -4.987 -33.915  -4.319  1.00  0.00     0.087 A 
HETATM   11  C3  UNL     1      -5.881 -33.625  -5.298  1.00  0.00     0.122 A 
HETATM   12  N1  UNL     1      -5.343 -33.771  -6.524  1.00  0.00    -0.270 N 
HETATM   13  C2  UNL     1      -6.003 -33.526  -7.760  1.00  0.00     0.226 C 
HETATM   14  C12 UNL     1      -4.076 -34.164  -6.320  1.00  0.00     0.184 A 
HETATM   15  C1  UNL     1      -5.394 -33.714  -9.077  1.00  0.00     0.118 C 
HETATM   16  O1  UNL     1      -7.194 -33.118  -7.728  1.00  0.00    -0.273 OA
HETATM   17  C11 UNL     1      -3.830 -34.260  -4.952  1.00  0.00     0.134 A 
BRANCH  14  18
HETATM   18  O7  UNL     1      -3.152 -34.432  -7.297  1.00  0.00    -0.344 OA
ATOM     19  H7  UNL     1      -2.547 -33.806  -7.677  1.00  0.00     0.219 HD
ENDBRANCH  14  18
BRANCH  17  20
HETATM   20  O6  UNL     1      -2.600 -34.649  -4.380  1.00  0.00    -0.356 OA
ATOM     21  H6  UNL     1      -1.721 -34.415  -4.655  1.00  0.00     0.218 HD
ENDBRANCH  17  20
ENDBRANCH   7  10
ENDBRANCH   3   6
ENDBRANCH   1   2
BRANCH   1  22
HETATM   22  N4  UNL     1      -5.653 -31.626   1.764  1.00  0.00    -0.065 N 
ATOM     23  H43 UNL     1      -5.121 -32.491   1.671  1.00  0.00     0.275 HD
ATOM     24  H42 UNL     1      -5.485 -31.444   2.754  1.00  0.00     0.275 HD
ATOM     25  H41 UNL     1      -6.644 -31.775   1.575  1.00  0.00     0.275 HD
ENDBRANCH   1  22
BRANCH   1  26
HETATM   26  C8  UNL     1      -5.897 -29.307   1.003  1.00  0.00     0.183 C 
BRANCH  26  27
HETATM   27  N5  UNL     1      -5.088 -28.196   1.538  1.00  0.00    -0.282 N 
HETATM   28  S1  UNL     1      -4.946 -27.809   3.208  1.00  0.00     0.072 SA
HETATM   29  N6  UNL     1      -3.893 -26.518   3.071  1.00  0.00    -0.292 N 
HETATM   30  C9  UNL     1      -3.678 -26.416   1.771  1.00  0.00     0.207 A 
ATOM     31  H6  UNL     1      -3.506 -25.942   3.819  1.00  0.00     0.177 HD
HETATM   32  C10 UNL     1      -4.308 -27.302   0.946  1.00  0.00     0.184 A 
BRANCH  30  33
HETATM   33  N7  UNL     1      -2.759 -25.376   1.326  1.00  0.00    -0.128 N 
BRANCH  33  34
HETATM   34  O4  UNL     1      -3.020 -24.049   1.493  1.00  0.00    -0.265 OA
ATOM     35  H4  UNL     1      -3.892 -23.685   1.397  1.00  0.00     0.247 HD
ENDBRANCH  33  34
BRANCH  33  36
HETATM   36  N8  UNL     1      -1.690 -25.718   0.766  1.00  0.00    -0.221 N 
ATOM     37  H8  UNL     1      -1.365 -25.063   0.055  1.00  0.00     0.210 HD
BRANCH  36  38
HETATM   38  N9  UNL     1      -0.898 -26.783   0.930  1.00  0.00    -0.329 N 
ATOM     39  H92 UNL     1      -0.433 -27.066   0.067  1.00  0.00     0.178 HD
ATOM     40  H91 UNL     1      -0.682 -27.350   1.749  1.00  0.00     0.178 HD
ENDBRANCH  36  38
ENDBRANCH  33  36
ENDBRANCH  30  33
BRANCH  32  41
HETATM   41  N10 UNL     1      -4.098 -27.243  -0.335  1.00  0.00    -0.249 N 
ATOM     42  H10 UNL     1      -4.769 -26.739  -0.913  1.00  0.00     0.196 HD
BRANCH  41  43
HETATM   43  O5  UNL     1      -3.048 -27.810  -0.932  1.00  0.00    -0.288 OA
ATOM     44  H5  UNL     1      -2.679 -27.494  -1.749  1.00  0.00     0.244 HD
ENDBRANCH  41  43
ENDBRANCH  32  41
ENDBRANCH  26  27
ENDBRANCH   1  26
TORSDOF 14
ENDMDL
MODEL 3
REMARK VINA RESULT: -7.792778119      1.607      2.795
REMARK  14 active torsions:
REMARK  status: ('A' for Active; 'I' for Inactive)
REMARK       I    between atoms: C2_2  and  N1_4 
REMARK    1  A    between atoms: C4_6  and  C5_7 
REMARK       I    between atoms: C5_7  and  N2_9 
REMARK    2  A    between atoms: N2_9  and  N3_11 
REMARK       I    between atoms: N3_11  and  C6_13 
REMARK    3  A    between atoms: C6_13  and  C7_15 
REMARK    4  A    between atoms: C7_15  and  N4_16 
REMARK    5  A    between atoms: C7_15  and  C8_20 
REMARK    6  A    between atoms: C8_20  and  N5_21 
REMARK    7  A    between atoms: C9_25  and  N7_26 
REMARK    8  A    between atoms: N7_26  and  O4_27 
REMARK    9  A    between atoms: N7_26  and  N8_29 
REMARK   10  A    between atoms: N8_29  and  N9_31 
REMARK   11  A    between atoms: C10_34  and  N10_35 
REMARK   12  A    between atoms: N10_35  and  O5_37 
REMARK   13  A    between atoms: C11_39  and  O6_40 
REMARK   14  A    between atoms: C12_42  and  O7_43 
ROOT
HETATM    1  C7  UNL     1      -5.088 -32.905   0.399  1.00  0.00     0.295 C 
ENDROOT
BRANCH   1   2
HETATM    2  C6  UNL     1      -5.028 -33.417  -0.957  1.00  0.00     0.268 C 
HETATM    3  N3  UNL     1      -5.039 -32.585  -2.104  1.00  0.00    -0.265 N 
ATOM      4  H3  UNL     1      -5.102 -31.574  -1.987  1.00  0.00     0.190 HD
HETATM    5  O3  UNL     1      -4.952 -34.684  -1.155  1.00  0.00    -0.269 OA
BRANCH   3   6
HETATM    6  N2  UNL     1      -4.967 -33.116  -3.377  1.00  0.00    -0.263 N 
HETATM    7  C5  UNL     1      -5.857 -33.151  -4.411  1.00  0.00     0.274 C 
HETATM    8  O2  UNL     1      -7.027 -32.662  -4.346  1.00  0.00    -0.266 OA
ATOM      9  H2  UNL     1      -4.077 -33.569  -3.585  1.00  0.00     0.190 HD
BRANCH   7  10
HETATM   10  C4  UNL     1      -5.416 -33.798  -5.680  1.00  0.00     0.087 A 
HETATM   11  C3  UNL     1      -5.768 -33.449  -6.943  1.00  0.00     0.122 A 
HETATM   12  N1  UNL     1      -5.205 -34.259  -7.860  1.00  0.00    -0.270 N 
HETATM   13  C2  UNL     1      -5.353 -34.152  -9.272  1.00  0.00     0.226 C 
HETATM   14  C12 UNL     1      -4.477 -35.146  -7.164  1.00  0.00     0.184 A 
HETATM   15  C1  UNL     1      -4.742 -35.062 -10.240  1.00  0.00     0.118 C 
HETATM   16  O1  UNL     1      -6.055 -33.211  -9.727  1.00  0.00    -0.273 OA
HETATM   17  C11 UNL     1      -4.593 -34.878  -5.801  1.00  0.00     0.134 A 
BRANCH  14  18
HETATM   18  O7  UNL     1      -3.729 -36.163  -7.696  1.00  0.00    -0.344 OA
ATOM     19  H7  UNL     1      -3.334 -36.877  -7.209  1.00  0.00     0.219 HD
ENDBRANCH  14  18
BRANCH  17  20
HETATM   20  O6  UNL     1      -3.959 -35.617  -4.779  1.00  0.00    -0.356 OA
ATOM     21  H6  UNL     1      -4.018 -36.549  -4.600  1.00  0.00     0.218 HD
ENDBRANCH  17  20
ENDBRANCH   7  10
ENDBRANCH   3   6
ENDBRANCH   1   2
BRANCH   1  22
HETATM   22  N4  UNL     1      -5.408 -33.962   1.356  1.00  0.00    -0.065 N 
ATOM     23  H43 UNL     1      -4.564 -34.359   1.769  1.00  0.00     0.275 HD
ATOM     24  H42 UNL     1      -5.834 -33.583   2.202  1.00  0.00     0.275 HD
ATOM     25  H41 UNL     1      -5.992 -34.683   0.933  1.00  0.00     0.275 HD
ENDBRANCH   1  22
BRANCH   1  26
HETATM   26  C8  UNL     1      -6.010 -31.739   0.512  1.00  0.00     0.183 C 
BRANCH  26  27
HETATM   27  N5  UNL     1      -5.282 -30.517   0.904  1.00  0.00    -0.282 N 
HETATM   28  S1  UNL     1      -4.763 -30.164   2.506  1.00  0.00     0.072 SA
HETATM   29  N6  UNL     1      -4.013 -28.702   2.203  1.00  0.00    -0.292 N 
HETATM   30  C9  UNL     1      -4.174 -28.522   0.903  1.00  0.00     0.207 A 
ATOM     31  H6  UNL     1      -3.539 -28.089   2.867  1.00  0.00     0.177 HD
HETATM   32  C10 UNL     1      -4.848 -29.480   0.202  1.00  0.00     0.184 A 
BRANCH  30  33
HETATM   33  N7  UNL     1      -3.593 -27.320   0.319  1.00  0.00    -0.128 N 
BRANCH  33  34
HETATM   34  O4  UNL     1      -2.865 -27.345  -0.832  1.00  0.00    -0.265 OA
ATOM     35  H4  UNL     1      -1.927 -27.189  -0.846  1.00  0.00     0.247 HD
ENDBRANCH  33  34
BRANCH  33  36
HETATM   36  N8  UNL     1      -3.768 -26.223   0.902  1.00  0.00    -0.221 N 
ATOM     37  H8  UNL     1      -4.747 -26.001   1.087  1.00  0.00     0.210 HD
BRANCH  36  38
HETATM   38  N9  UNL     1      -2.909 -25.290   1.326  1.00  0.00    -0.329 N 
ATOM     39  H92 UNL     1      -2.281 -25.633   2.053  1.00  0.00     0.178 HD
ATOM     40  H91 UNL     1      -2.774 -24.316   1.055  1.00  0.00     0.178 HD
ENDBRANCH  36  38
ENDBRANCH  33  36
ENDBRANCH  30  33
BRANCH  32  41
HETATM   41  N10 UNL     1      -5.002 -29.344  -1.080  1.00  0.00    -0.249 N 
ATOM     42  H10 UNL     1      -5.815 -28.828  -1.418  1.00  0.00     0.196 HD
BRANCH  41  43
HETATM   43  O5  UNL     1      -4.151 -29.844  -1.978  1.00  0.00    -0.288 OA
ATOM     44  H5  UNL     1      -3.461 -29.332  -2.384  1.00  0.00     0.244 HD
ENDBRANCH  41  43
ENDBRANCH  32  41
ENDBRANCH  26  27
ENDBRANCH   1  26
TORSDOF 14
ENDMDL
MODEL 4
REMARK VINA RESULT: -7.778259149      1.921      3.144
REMARK  14 active torsions:
REMARK  status: ('A' for Active; 'I' for Inactive)
REMARK       I    between atoms: C2_2  and  N1_4 
REMARK    1  A    between atoms: C4_6  and  C5_7 
REMARK       I    between atoms: C5_7  and  N2_9 
REMARK    2  A    between atoms: N2_9  and  N3_11 
REMARK       I    between atoms: N3_11  and  C6_13 
REMARK    3  A    between atoms: C6_13  and  C7_15 
REMARK    4  A    between atoms: C7_15  and  N4_16 
REMARK    5  A    between atoms: C7_15  and  C8_20 
REMARK    6  A    between atoms: C8_20  and  N5_21 
REMARK    7  A    between atoms: C9_25  and  N7_26 
REMARK    8  A    between atoms: N7_26  and  O4_27 
REMARK    9  A    between atoms: N7_26  and  N8_29 
REMARK   10  A    between atoms: N8_29  and  N9_31 
REMARK   11  A    between atoms: C10_34  and  N10_35 
REMARK   12  A    between atoms: N10_35  and  O5_37 
REMARK   13  A    between atoms: C11_39  and  O6_40 
REMARK   14  A    between atoms: C12_42  and  O7_43 
ROOT
HETATM    1  C7  UNL     1      -5.143 -33.146  -0.318  1.00  0.00     0.295 C 
ENDROOT
BRANCH   1   2
HETATM    2  C6  UNL     1      -5.054 -33.255  -1.762  1.00  0.00     0.268 C 
HETATM    3  N3  UNL     1      -5.083 -34.492  -2.451  1.00  0.00    -0.265 N 
ATOM      4  H3  UNL     1      -5.162 -35.359  -1.920  1.00  0.00     0.190 HD
HETATM    5  O3  UNL     1      -4.950 -32.191  -2.474  1.00  0.00    -0.269 OA
BRANCH   3   6
HETATM    6  N2  UNL     1      -5.009 -34.549  -3.830  1.00  0.00    -0.263 N 
HETATM    7  C5  UNL     1      -3.953 -34.618  -4.692  1.00  0.00     0.274 C 
HETATM    8  O2  UNL     1      -2.741 -34.623  -4.316  1.00  0.00    -0.266 OA
ATOM      9  H2  UNL     1      -5.918 -34.536  -4.293  1.00  0.00     0.190 HD
BRANCH   7  10
HETATM   10  C4  UNL     1      -4.256 -34.695  -6.150  1.00  0.00     0.087 A 
HETATM   11  C3  UNL     1      -5.199 -33.995  -6.829  1.00  0.00     0.122 A 
HETATM   12  N1  UNL     1      -5.221 -34.325  -8.134  1.00  0.00    -0.270 N 
HETATM   13  C2  UNL     1      -6.075 -33.760  -9.124  1.00  0.00     0.226 C 
HETATM   14  C12 UNL     1      -4.268 -35.256  -8.291  1.00  0.00     0.184 A 
HETATM   15  C1  UNL     1      -6.086 -34.155 -10.532  1.00  0.00     0.118 C 
HETATM   16  O1  UNL     1      -6.880 -32.858  -8.771  1.00  0.00    -0.273 OA
HETATM   17  C11 UNL     1      -3.651 -35.504  -7.066  1.00  0.00     0.134 A 
BRANCH  14  18
HETATM   18  O7  UNL     1      -3.938 -35.877  -9.467  1.00  0.00    -0.344 OA
ATOM     19  H7  UNL     1      -3.060 -35.982  -9.815  1.00  0.00     0.219 HD
ENDBRANCH  14  18
BRANCH  17  20
HETATM   20  O6  UNL     1      -2.605 -36.429  -6.865  1.00  0.00    -0.356 OA
ATOM     21  H6  UNL     1      -1.885 -36.643  -7.447  1.00  0.00     0.218 HD
ENDBRANCH  17  20
ENDBRANCH   7  10
ENDBRANCH   3   6
ENDBRANCH   1   2
BRANCH   1  22
HETATM   22  N4  UNL     1      -5.498 -34.424   0.294  1.00  0.00    -0.065 N 
ATOM     23  H43 UNL     1      -4.959 -34.594   1.142  1.00  0.00     0.275 HD
ATOM     24  H42 UNL     1      -6.432 -34.396   0.703  1.00  0.00     0.275 HD
ATOM     25  H41 UNL     1      -5.404 -35.194  -0.369  1.00  0.00     0.275 HD
ENDBRANCH   1  22
BRANCH   1  26
HETATM   26  C8  UNL     1      -6.055 -32.043   0.100  1.00  0.00     0.183 C 
BRANCH  26  27
HETATM   27  N5  UNL     1      -5.311 -30.953   0.758  1.00  0.00    -0.282 N 
HETATM   28  S1  UNL     1      -5.027 -30.851   2.452  1.00  0.00     0.072 SA
HETATM   29  N6  UNL     1      -4.133 -29.439   2.465  1.00  0.00    -0.292 N 
HETATM   30  C9  UNL     1      -4.073 -29.085   1.192  1.00  0.00     0.207 A 
ATOM     31  H6  UNL     1      -3.726 -28.960   3.269  1.00  0.00     0.177 HD
HETATM   32  C10 UNL     1      -4.695 -29.883   0.276  1.00  0.00     0.184 A 
BRANCH  30  33
HETATM   33  N7  UNL     1      -3.319 -27.880   0.869  1.00  0.00    -0.128 N 
BRANCH  33  34
HETATM   34  O4  UNL     1      -3.845 -26.866   0.127  1.00  0.00    -0.265 OA
ATOM     35  H4  UNL     1      -4.581 -26.344   0.426  1.00  0.00     0.247 HD
ENDBRANCH  33  34
BRANCH  33  36
HETATM   36  N8  UNL     1      -2.141 -27.778   1.288  1.00  0.00    -0.221 N 
ATOM     37  H8  UNL     1      -1.881 -28.485   1.976  1.00  0.00     0.210 HD
BRANCH  36  38
HETATM   38  N9  UNL     1      -1.164 -26.913   0.999  1.00  0.00    -0.329 N 
ATOM     39  H92 UNL     1      -1.421 -25.945   1.195  1.00  0.00     0.178 HD
ATOM     40  H91 UNL     1      -0.225 -27.048   0.623  1.00  0.00     0.178 HD
ENDBRANCH  36  38
ENDBRANCH  33  36
ENDBRANCH  30  33
BRANCH  32  41
HETATM   41  N10 UNL     1      -4.634 -29.575  -0.985  1.00  0.00    -0.249 N 
ATOM     42  H10 UNL     1      -3.951 -30.058  -1.569  1.00  0.00     0.196 HD
BRANCH  41  43
HETATM   43  O5  UNL     1      -5.420 -28.660  -1.555  1.00  0.00    -0.288 OA
ATOM     44  H5  UNL     1      -5.520 -27.777  -1.220  1.00  0.00     0.244 HD
ENDBRANCH  41  43
ENDBRANCH  32  41
ENDBRANCH  26  27
ENDBRANCH   1  26
TORSDOF 14
ENDMDL
MODEL 5
REMARK VINA RESULT: -7.728472964      6.897     11.084
REMARK  14 active torsions:
REMARK  status: ('A' for Active; 'I' for Inactive)
REMARK       I    between atoms: C2_2  and  N1_4 
REMARK    1  A    between atoms: C4_6  and  C5_7 
REMARK       I    between atoms: C5_7  and  N2_9 
REMARK    2  A    between atoms: N2_9  and  N3_11 
REMARK       I    between atoms: N3_11  and  C6_13 
REMARK    3  A    between atoms: C6_13  and  C7_15 
REMARK    4  A    between atoms: C7_15  and  N4_16 
REMARK    5  A    between atoms: C7_15  and  C8_20 
REMARK    6  A    between atoms: C8_20  and  N5_21 
REMARK    7  A    between atoms: C9_25  and  N7_26 
REMARK    8  A    between atoms: N7_26  and  O4_27 
REMARK    9  A    between atoms: N7_26  and  N8_29 
REMARK   10  A    between atoms: N8_29  and  N9_31 
REMARK   11  A    between atoms: C10_34  and  N10_35 
REMARK   12  A    between atoms: N10_35  and  O5_37 
REMARK   13  A    between atoms: C11_39  and  O6_40 
REMARK   14  A    between atoms: C12_42  and  O7_43 
ROOT
HETATM    1  C7  UNL     1      -1.628 -35.667  -7.849  1.00  0.00     0.295 C 
ENDROOT
BRANCH   1   2
HETATM    2  C6  UNL     1      -1.165 -35.938  -9.197  1.00  0.00     0.268 C 
HETATM    3  N3  UNL     1      -1.947 -35.691 -10.352  1.00  0.00    -0.265 N 
ATOM      4  H3  UNL     1      -2.889 -35.313 -10.247  1.00  0.00     0.190 HD
HETATM    5  O3  UNL     1       0.012 -36.418  -9.380  1.00  0.00    -0.269 OA
BRANCH   3   6
HETATM    6  N2  UNL     1      -1.461 -35.952 -11.619  1.00  0.00    -0.263 N 
HETATM    7  C5  UNL     1      -0.593 -35.278 -12.428  1.00  0.00     0.274 C 
HETATM    8  O2  UNL     1      -0.054 -34.174 -12.111  1.00  0.00    -0.266 OA
ATOM      9  H2  UNL     1      -1.820 -36.815 -12.028  1.00  0.00     0.190 HD
BRANCH   7  10
HETATM   10  C4  UNL     1      -0.268 -35.887 -13.750  1.00  0.00     0.087 A 
HETATM   11  C3  UNL     1      -1.142 -36.392 -14.656  1.00  0.00     0.122 A 
HETATM   12  N1  UNL     1      -0.509 -36.885 -15.738  1.00  0.00    -0.270 N 
HETATM   13  C2  UNL     1      -1.134 -37.465 -16.878  1.00  0.00     0.226 C 
HETATM   14  C12 UNL     1       0.799 -36.688 -15.516  1.00  0.00     0.184 A 
HETATM   15  C1  UNL     1      -0.414 -38.010 -18.030  1.00  0.00     0.118 C 
HETATM   16  O1  UNL     1      -2.391 -37.517 -16.906  1.00  0.00    -0.273 OA
HETATM   17  C11 UNL     1       0.975 -36.066 -14.281  1.00  0.00     0.134 A 
BRANCH  14  18
HETATM   18  O7  UNL     1       1.818 -37.038 -16.362  1.00  0.00    -0.344 OA
ATOM     19  H7  UNL     1       2.505 -37.669 -16.176  1.00  0.00     0.219 HD
ENDBRANCH  14  18
BRANCH  17  20
HETATM   20  O6  UNL     1       2.224 -35.712 -13.729  1.00  0.00    -0.356 OA
ATOM     21  H6  UNL     1       3.086 -36.039 -13.960  1.00  0.00     0.218 HD
ENDBRANCH  17  20
ENDBRANCH   7  10
ENDBRANCH   3   6
ENDBRANCH   1   2
BRANCH   1  22
HETATM   22  N4  UNL     1      -0.595 -35.964  -6.860  1.00  0.00    -0.065 N 
ATOM     23  H43 UNL     1       0.163 -36.512  -7.265  1.00  0.00     0.275 HD
ATOM     24  H42 UNL     1      -0.067 -35.128  -6.608  1.00  0.00     0.275 HD
ATOM     25  H41 UNL     1      -0.987 -36.420  -6.036  1.00  0.00     0.275 HD
ENDBRANCH   1  22
BRANCH   1  26
HETATM   26  C8  UNL     1      -2.913 -36.361  -7.553  1.00  0.00     0.183 C 
BRANCH  26  27
HETATM   27  N5  UNL     1      -3.970 -35.398  -7.188  1.00  0.00    -0.282 N 
HETATM   28  S1  UNL     1      -5.116 -34.745  -8.291  1.00  0.00     0.072 SA
HETATM   29  N6  UNL     1      -5.979 -33.800  -7.216  1.00  0.00    -0.292 N 
HETATM   30  C9  UNL     1      -5.379 -34.005  -6.056  1.00  0.00     0.207 A 
ATOM     31  H6  UNL     1      -6.784 -33.203  -7.410  1.00  0.00     0.177 HD
HETATM   32  C10 UNL     1      -4.310 -34.852  -6.028  1.00  0.00     0.184 A 
BRANCH  30  33
HETATM   33  N7  UNL     1      -5.930 -33.324  -4.891  1.00  0.00    -0.128 N 
BRANCH  33  34
HETATM   34  O4  UNL     1      -6.110 -33.952  -3.695  1.00  0.00    -0.265 OA
ATOM     35  H4  UNL     1      -6.929 -34.373  -3.458  1.00  0.00     0.247 HD
ENDBRANCH  33  34
BRANCH  33  36
HETATM   36  N8  UNL     1      -6.253 -32.117  -4.997  1.00  0.00    -0.221 N 
ATOM     37  H8  UNL     1      -5.508 -31.464  -4.753  1.00  0.00     0.210 HD
BRANCH  36  38
HETATM   38  N9  UNL     1      -7.394 -31.528  -5.371  1.00  0.00    -0.329 N 
ATOM     39  H92 UNL     1      -7.881 -32.041  -6.106  1.00  0.00     0.178 HD
ATOM     40  H91 UNL     1      -7.853 -30.673  -5.056  1.00  0.00     0.178 HD
ENDBRANCH  36  38
ENDBRANCH  33  36
ENDBRANCH  30  33
BRANCH  32  41
HETATM   41  N10 UNL     1      -3.713 -35.092  -4.900  1.00  0.00    -0.249 N 
ATOM     42  H10 UNL     1      -4.219 -35.618  -4.187  1.00  0.00     0.196 HD
BRANCH  41  43
HETATM   43  O5  UNL     1      -2.472 -34.687  -4.626  1.00  0.00    -0.288 OA
ATOM     44  H5  UNL     1      -1.941 -35.062  -3.933  1.00  0.00     0.244 HD
ENDBRANCH  41  43
ENDBRANCH  32  41
ENDBRANCH  26  27
ENDBRANCH   1  26
TORSDOF 14
ENDMDL
