MODEL 1
REMARK VINA RESULT: -8.410879786      0.000      0.000
REMARK  11 active torsions:
REMARK  status: ('A' for Active; 'I' for Inactive)
REMARK    1  A    between atoms: C2_2  and  O1_3 
REMARK    2  A    between atoms: O1_3  and  C3_4 
REMARK    3  A    between atoms: C4_9  and  N3_10 
REMARK    4  A    between atoms: N3_10  and  N4_12 
REMARK    5  A    between atoms: C5_15  and  N5_16 
REMARK    6  A    between atoms: C6_19  and  C7_20 
REMARK    7  A    between atoms: C7_20  and  O4_21 
REMARK    8  A    between atoms: C7_20  and  C8_23 
REMARK    9  A    between atoms: C8_23  and  N6_24 
REMARK   10  A    between atoms: C9_29  and  C10_30 
REMARK   11  A    between atoms: C12_35  and  N11_36 
ROOT
HETATM    1  N6  UNL     1      -1.850 -35.318  -7.028  1.00  0.00    -0.212 N 
HETATM    2  N7  UNL     1      -0.911 -34.425  -6.890  1.00  0.00    -0.224 N 
ATOM      3  H7  UNL     1      -0.736 -33.897  -6.035  1.00  0.00     0.210 HD
HETATM    4  N8  UNL     1      -0.214 -34.293  -8.006  1.00  0.00    -0.268 N 
ATOM      5  H8  UNL     1       0.573 -33.661  -8.155  1.00  0.00     0.190 HD
HETATM    6  C9  UNL     1      -0.738 -35.157  -8.924  1.00  0.00     0.154 A 
HETATM    7  N14 UNL     1      -1.744 -35.763  -8.269  1.00  0.00    -0.265 N 
ATOM      8  H14 UNL     1      -2.349 -36.476  -8.677  1.00  0.00     0.190 HD
ENDROOT
BRANCH   1   9
HETATM    9  C8  UNL     1      -2.878 -35.812  -6.100  1.00  0.00     0.236 C 
BRANCH   9  10
HETATM   10  C7  UNL     1      -3.397 -34.729  -5.287  1.00  0.00     0.081 C 
BRANCH  10  11
HETATM   11  C6  UNL     1      -4.524 -33.882  -5.364  1.00  0.00     0.084 A 
HETATM   12  C3  UNL     1      -5.346 -33.768  -4.223  1.00  0.00     0.172 A 
HETATM   13  N1  UNL     1      -6.418 -32.966  -4.222  1.00  0.00    -0.278 N 
HETATM   14  N2  UNL     1      -6.769 -32.247  -5.263  1.00  0.00    -0.280 N 
ATOM     15  H1  UNL     1      -6.986 -32.910  -3.378  1.00  0.00     0.189 HD
HETATM   16  C4  UNL     1      -6.040 -32.287  -6.414  1.00  0.00     0.169 A 
ATOM     17  H2  UNL     1      -7.596 -31.651  -5.210  1.00  0.00     0.188 HD
HETATM   18  C5  UNL     1      -4.911 -33.125  -6.425  1.00  0.00     0.166 A 
BRANCH  12  19
HETATM   19  O1  UNL     1      -5.085 -34.477  -3.054  1.00  0.00    -0.334 OA
BRANCH  19  20
HETATM   20  C2  UNL     1      -5.622 -34.084  -1.808  1.00  0.00     0.173 C 
HETATM   21  C1  UNL     1      -6.063 -35.254  -0.976  1.00  0.00     0.034 C 
ENDBRANCH  19  20
ENDBRANCH  12  19
BRANCH  16  22
HETATM   22  N3  UNL     1      -6.427 -31.594  -7.383  1.00  0.00    -0.289 N 
ATOM     23  H3  UNL     1      -7.244 -32.006  -7.833  1.00  0.00     0.188 HD
BRANCH  22  24
HETATM   24  N4  UNL     1      -6.057 -30.456  -7.987  1.00  0.00    -0.344 N 
ATOM     25  H42 UNL     1      -5.099 -30.538  -8.327  1.00  0.00     0.176 HD
ATOM     26  H41 UNL     1      -6.474 -29.548  -8.193  1.00  0.00     0.176 HD
ENDBRANCH  22  24
ENDBRANCH  16  22
BRANCH  18  27
HETATM   27  N5  UNL     1      -4.216 -33.123  -7.643  1.00  0.00    -0.111 N 
HETATM   28  O2  UNL     1      -3.274 -32.311  -7.891  1.00  0.00    -0.532 OA
HETATM   29  O3  UNL     1      -4.565 -34.026  -8.615  1.00  0.00    -0.532 OA
ENDBRANCH  18  27
ENDBRANCH  10  11
BRANCH  10  30
HETATM   30  O4  UNL     1      -2.625 -34.495  -4.235  1.00  0.00    -0.362 OA
ATOM     31  H4  UNL     1      -3.102 -34.190  -3.472  1.00  0.00     0.217 HD
ENDBRANCH  10  30
ENDBRANCH   9  10
ENDBRANCH   1   9
BRANCH   6  32
HETATM   32  C10 UNL     1      -0.268 -35.337 -10.294  1.00  0.00     0.096 A 
HETATM   33  C11 UNL     1      -0.717 -34.536 -11.324  1.00  0.00     0.149 A 
HETATM   34  N9  UNL     1      -1.651 -33.520 -11.033  1.00  0.00    -0.081 NA
HETATM   35  N10 UNL     1      -0.300 -34.685 -12.593  1.00  0.00    -0.178 N 
HETATM   36  C12 UNL     1       0.581 -35.637 -12.884  1.00  0.00     0.678 A 
ATOM     37  H10 UNL     1      -0.656 -34.072 -13.326  1.00  0.00     0.185 HD
HETATM   38  N12 UNL     1       1.041 -36.436 -11.906  1.00  0.00    -0.176 N 
HETATM   39  C13 UNL     1       0.646 -36.316 -10.625  1.00  0.00     0.132 A 
ATOM     40  H12 UNL     1       1.716 -37.162 -12.144  1.00  0.00     0.186 HD
HETATM   41  N13 UNL     1       1.079 -37.076  -9.684  1.00  0.00    -0.384 N 
ATOM     42 2H13 UNL     1       0.780 -36.985  -8.714  1.00  0.00     0.157 HD
ATOM     43 1H13 UNL     1       1.754 -37.800  -9.929  1.00  0.00     0.157 HD
BRANCH  36  44
HETATM   44  N11 UNL     1       0.992 -35.789 -14.122  1.00  0.00    -0.234 N 
ATOM     45 2H11 UNL     1       1.578 -35.081 -14.566  1.00  0.00     0.174 HD
ATOM     46 1H11 UNL     1       0.726 -36.622 -14.646  1.00  0.00     0.174 HD
ENDBRANCH  36  44
ENDBRANCH   6  32
TORSDOF 11
ENDMDL
MODEL 2
REMARK VINA RESULT: -8.346408634      0.650      1.680
REMARK  11 active torsions:
REMARK  status: ('A' for Active; 'I' for Inactive)
REMARK    1  A    between atoms: C2_2  and  O1_3 
REMARK    2  A    between atoms: O1_3  and  C3_4 
REMARK    3  A    between atoms: C4_9  and  N3_10 
REMARK    4  A    between atoms: N3_10  and  N4_12 
REMARK    5  A    between atoms: C5_15  and  N5_16 
REMARK    6  A    between atoms: C6_19  and  C7_20 
REMARK    7  A    between atoms: C7_20  and  O4_21 
REMARK    8  A    between atoms: C7_20  and  C8_23 
REMARK    9  A    between atoms: C8_23  and  N6_24 
REMARK   10  A    between atoms: C9_29  and  C10_30 
REMARK   11  A    between atoms: C12_35  and  N11_36 
ROOT
HETATM    1  N6  UNL     1      -2.186 -36.114  -6.774  1.00  0.00    -0.212 N 
HETATM    2  N7  UNL     1      -0.936 -36.247  -6.431  1.00  0.00    -0.224 N 
ATOM      3  H7  UNL     1      -0.614 -36.428  -5.481  1.00  0.00     0.210 HD
HETATM    4  N8  UNL     1      -0.140 -36.115  -7.479  1.00  0.00    -0.268 N 
ATOM      5  H8  UNL     1       0.878 -36.177  -7.474  1.00  0.00     0.190 HD
HETATM    6  C9  UNL     1      -0.928 -35.880  -8.569  1.00  0.00     0.154 A 
HETATM    7  N14 UNL     1      -2.180 -35.890  -8.078  1.00  0.00    -0.265 N 
ATOM      8  H14 UNL     1      -3.019 -35.743  -8.639  1.00  0.00     0.190 HD
ENDROOT
BRANCH   1   9
HETATM    9  C8  UNL     1      -3.430 -36.165  -5.991  1.00  0.00     0.236 C 
BRANCH   9  10
HETATM   10  C7  UNL     1      -3.677 -34.892  -5.340  1.00  0.00     0.081 C 
BRANCH  10  11
HETATM   11  C6  UNL     1      -4.716 -33.937  -5.390  1.00  0.00     0.084 A 
HETATM   12  C3  UNL     1      -5.496 -33.746  -4.231  1.00  0.00     0.172 A 
HETATM   13  N1  UNL     1      -6.483 -32.841  -4.205  1.00  0.00    -0.278 N 
HETATM   14  N2  UNL     1      -6.785 -32.087  -5.236  1.00  0.00    -0.280 N 
ATOM     15  H1  UNL     1      -7.023 -32.732  -3.347  1.00  0.00     0.189 HD
HETATM   16  C4  UNL     1      -6.090 -32.197  -6.404  1.00  0.00     0.169 A 
ATOM     17  H2  UNL     1      -7.547 -31.413  -5.164  1.00  0.00     0.188 HD
HETATM   18  C5  UNL     1      -5.050 -33.143  -6.442  1.00  0.00     0.166 A 
BRANCH  12  19
HETATM   19  O1  UNL     1      -5.279 -34.481  -3.068  1.00  0.00    -0.334 OA
BRANCH  19  20
HETATM   20  C2  UNL     1      -5.709 -34.019  -1.804  1.00  0.00     0.173 C 
HETATM   21  C1  UNL     1      -6.114 -35.139  -0.890  1.00  0.00     0.034 C 
ENDBRANCH  19  20
ENDBRANCH  12  19
BRANCH  16  22
HETATM   22  N3  UNL     1      -6.428 -31.466  -7.363  1.00  0.00    -0.289 N 
ATOM     23  H3  UNL     1      -7.175 -31.892  -7.912  1.00  0.00     0.188 HD
BRANCH  22  24
HETATM   24  N4  UNL     1      -6.075 -30.273  -7.863  1.00  0.00    -0.344 N 
ATOM     25  H42 UNL     1      -5.295 -29.889  -7.328  1.00  0.00     0.176 HD
ATOM     26  H41 UNL     1      -6.375 -29.661  -8.622  1.00  0.00     0.176 HD
ENDBRANCH  22  24
ENDBRANCH  16  22
BRANCH  18  27
HETATM   27  N5  UNL     1      -4.387 -33.206  -7.676  1.00  0.00    -0.111 N 
HETATM   28  O2  UNL     1      -4.650 -34.087  -8.549  1.00  0.00    -0.532 OA
HETATM   29  O3  UNL     1      -3.405 -32.290  -7.956  1.00  0.00    -0.532 OA
ENDBRANCH  18  27
ENDBRANCH  10  11
BRANCH  10  30
HETATM   30  O4  UNL     1      -2.694 -34.567  -4.513  1.00  0.00    -0.362 OA
ATOM     31  H4  UNL     1      -2.613 -35.152  -3.769  1.00  0.00     0.217 HD
ENDBRANCH  10  30
ENDBRANCH   9  10
ENDBRANCH   1   9
BRANCH   6  32
HETATM   32  C10 UNL     1      -0.458 -35.674  -9.935  1.00  0.00     0.096 A 
HETATM   33  C11 UNL     1       0.469 -36.515 -10.516  1.00  0.00     0.149 A 
HETATM   34  N9  UNL     1       0.964 -37.600  -9.762  1.00  0.00    -0.081 NA
HETATM   35  N10 UNL     1       0.918 -36.344 -11.771  1.00  0.00    -0.178 N 
HETATM   36  C12 UNL     1       0.461 -35.327 -12.495  1.00  0.00     0.678 A 
ATOM     37  H10 UNL     1       1.603 -36.988 -12.164  1.00  0.00     0.185 HD
HETATM   38  N12 UNL     1      -0.442 -34.487 -11.962  1.00  0.00    -0.176 N 
HETATM   39  C13 UNL     1      -0.915 -34.628 -10.709  1.00  0.00     0.132 A 
ATOM     40  H12 UNL     1      -0.783 -33.711 -12.529  1.00  0.00     0.186 HD
HETATM   41  N13 UNL     1      -1.777 -33.829 -10.192  1.00  0.00    -0.384 N 
ATOM     42 2H13 UNL     1      -2.135 -33.936  -9.243  1.00  0.00     0.157 HD
ATOM     43 1H13 UNL     1      -2.115 -33.055 -10.765  1.00  0.00     0.157 HD
BRANCH  36  44
HETATM   44  N11 UNL     1       0.897 -35.152 -13.722  1.00  0.00    -0.234 N 
ATOM     45 2H11 UNL     1       1.696 -35.681 -14.070  1.00  0.00     0.174 HD
ATOM     46 1H11 UNL     1       0.431 -34.482 -14.334  1.00  0.00     0.174 HD
ENDBRANCH  36  44
ENDBRANCH   6  32
TORSDOF 11
ENDMDL
MODEL 3
REMARK VINA RESULT: -7.974556037      3.155      9.383
REMARK  11 active torsions:
REMARK  status: ('A' for Active; 'I' for Inactive)
REMARK    1  A    between atoms: C2_2  and  O1_3 
REMARK    2  A    between atoms: O1_3  and  C3_4 
REMARK    3  A    between atoms: C4_9  and  N3_10 
REMARK    4  A    between atoms: N3_10  and  N4_12 
REMARK    5  A    between atoms: C5_15  and  N5_16 
REMARK    6  A    between atoms: C6_19  and  C7_20 
REMARK    7  A    between atoms: C7_20  and  O4_21 
REMARK    8  A    between atoms: C7_20  and  C8_23 
REMARK    9  A    between atoms: C8_23  and  N6_24 
REMARK   10  A    between atoms: C9_29  and  C10_30 
REMARK   11  A    between atoms: C12_35  and  N11_36 
ROOT
HETATM    1  N6  UNL     1      -1.960 -34.478 -10.660  1.00  0.00    -0.212 N 
HETATM    2  N7  UNL     1      -1.627 -33.277 -10.282  1.00  0.00    -0.224 N 
ATOM      3  H7  UNL     1      -1.120 -32.608 -10.860  1.00  0.00     0.210 HD
HETATM    4  N8  UNL     1      -2.034 -33.039  -9.046  1.00  0.00    -0.268 N 
ATOM      5  H8  UNL     1      -1.898 -32.175  -8.522  1.00  0.00     0.190 HD
HETATM    6  C9  UNL     1      -2.671 -34.161  -8.598  1.00  0.00     0.154 A 
HETATM    7  N14 UNL     1      -2.596 -35.017  -9.633  1.00  0.00    -0.265 N 
ATOM      8  H14 UNL     1      -2.981 -35.962  -9.627  1.00  0.00     0.190 HD
ENDROOT
BRANCH   1   9
HETATM    9  C8  UNL     1      -1.735 -35.209 -11.917  1.00  0.00     0.236 C 
BRANCH   9  10
HETATM   10  C7  UNL     1      -0.322 -35.247 -12.240  1.00  0.00     0.081 C 
BRANCH  10  11
HETATM   11  C6  UNL     1       0.624 -36.276 -12.440  1.00  0.00     0.084 A 
HETATM   12  C3  UNL     1       0.948 -36.629 -13.767  1.00  0.00     0.172 A 
HETATM   13  N1  UNL     1       1.852 -37.582 -14.027  1.00  0.00    -0.278 N 
HETATM   14  N2  UNL     1       2.483 -38.240 -13.083  1.00  0.00    -0.280 N 
ATOM     15  H1  UNL     1       2.059 -37.807 -15.000  1.00  0.00     0.189 HD
HETATM   16  C4  UNL     1       2.240 -37.974 -11.768  1.00  0.00     0.169 A 
ATOM     17  H2  UNL     1       3.163 -38.958 -13.334  1.00  0.00     0.188 HD
HETATM   18  C5  UNL     1       1.294 -36.973 -11.484  1.00  0.00     0.166 A 
BRANCH  12  19
HETATM   19  O1  UNL     1       0.350 -36.008 -14.861  1.00  0.00    -0.334 OA
BRANCH  19  20
HETATM   20  C2  UNL     1      -0.234 -36.751 -15.911  1.00  0.00     0.173 C 
HETATM   21  C1  UNL     1       0.546 -36.649 -17.190  1.00  0.00     0.034 C 
ENDBRANCH  19  20
ENDBRANCH  12  19
BRANCH  16  22
HETATM   22  N3  UNL     1       2.858 -38.641 -10.906  1.00  0.00    -0.289 N 
ATOM     23  H3  UNL     1       3.665 -38.130 -10.548  1.00  0.00     0.188 HD
BRANCH  22  24
HETATM   24  N4  UNL     1       2.744 -39.845 -10.327  1.00  0.00    -0.344 N 
ATOM     25  H42 UNL     1       3.668 -40.202 -10.083  1.00  0.00     0.176 HD
ATOM     26  H41 UNL     1       1.991 -40.484 -10.072  1.00  0.00     0.176 HD
ENDBRANCH  22  24
ENDBRANCH  16  22
BRANCH  18  27
HETATM   27  N5  UNL     1       1.088 -36.760 -10.113  1.00  0.00    -0.111 N 
HETATM   28  O2  UNL     1       0.647 -37.662  -9.339  1.00  0.00    -0.532 OA
HETATM   29  O3  UNL     1       1.364 -35.527  -9.579  1.00  0.00    -0.532 OA
ENDBRANCH  18  27
ENDBRANCH  10  11
BRANCH  10  30
HETATM   30  O4  UNL     1       0.182 -34.028 -12.375  1.00  0.00    -0.362 OA
ATOM     31  H4  UNL     1       1.129 -34.011 -12.437  1.00  0.00     0.217 HD
ENDBRANCH  10  30
ENDBRANCH   9  10
ENDBRANCH   1   9
BRANCH   6  32
HETATM   32  C10 UNL     1      -3.276 -34.332  -7.281  1.00  0.00     0.096 A 
HETATM   33  C11 UNL     1      -2.537 -34.746  -6.193  1.00  0.00     0.149 A 
HETATM   34  N9  UNL     1      -1.161 -35.005  -6.369  1.00  0.00    -0.081 NA
HETATM   35  N10 UNL     1      -3.073 -34.912  -4.972  1.00  0.00    -0.178 N 
HETATM   36  C12 UNL     1      -4.367 -34.672  -4.789  1.00  0.00     0.678 A 
ATOM     37  H10 UNL     1      -2.492 -35.220  -4.193  1.00  0.00     0.185 HD
HETATM   38  N12 UNL     1      -5.120 -34.267  -5.826  1.00  0.00    -0.176 N 
HETATM   39  C13 UNL     1      -4.617 -34.089  -7.062  1.00  0.00     0.132 A 
ATOM     40  H12 UNL     1      -6.112 -34.087  -5.671  1.00  0.00     0.186 HD
HETATM   41  N13 UNL     1      -5.329 -33.703  -8.060  1.00  0.00    -0.384 N 
ATOM     42 2H13 UNL     1      -4.947 -33.569  -8.996  1.00  0.00     0.157 HD
ATOM     43 1H13 UNL     1      -6.319 -33.524  -7.897  1.00  0.00     0.157 HD
BRANCH  36  44
HETATM   44  N11 UNL     1      -4.899 -34.833  -3.599  1.00  0.00    -0.234 N 
ATOM     45 2H11 UNL     1      -4.553 -35.557  -2.969  1.00  0.00     0.174 HD
ATOM     46 1H11 UNL     1      -5.665 -34.229  -3.300  1.00  0.00     0.174 HD
ENDBRANCH  36  44
ENDBRANCH   6  32
TORSDOF 11
ENDMDL
MODEL 4
REMARK VINA RESULT: -7.885835494      2.821      7.704
REMARK  11 active torsions:
REMARK  status: ('A' for Active; 'I' for Inactive)
REMARK    1  A    between atoms: C2_2  and  O1_3 
REMARK    2  A    between atoms: O1_3  and  C3_4 
REMARK    3  A    between atoms: C4_9  and  N3_10 
REMARK    4  A    between atoms: N3_10  and  N4_12 
REMARK    5  A    between atoms: C5_15  and  N5_16 
REMARK    6  A    between atoms: C6_19  and  C7_20 
REMARK    7  A    between atoms: C7_20  and  O4_21 
REMARK    8  A    between atoms: C7_20  and  C8_23 
REMARK    9  A    between atoms: C8_23  and  N6_24 
REMARK   10  A    between atoms: C9_29  and  C10_30 
REMARK   11  A    between atoms: C12_35  and  N11_36 
ROOT
HETATM    1  N6  UNL     1      -4.885 -32.391  -8.916  1.00  0.00    -0.212 N 
HETATM    2  N7  UNL     1      -5.686 -33.399  -9.117  1.00  0.00    -0.224 N 
ATOM      3  H7  UNL     1      -6.022 -33.696 -10.033  1.00  0.00     0.210 HD
HETATM    4  N8  UNL     1      -6.006 -33.986  -7.976  1.00  0.00    -0.268 N 
ATOM      5  H8  UNL     1      -6.616 -34.795  -7.865  1.00  0.00     0.190 HD
HETATM    6  C9  UNL     1      -5.370 -33.312  -6.973  1.00  0.00     0.154 A 
HETATM    7  N14 UNL     1      -4.693 -32.339  -7.608  1.00  0.00    -0.265 N 
ATOM      8  H14 UNL     1      -4.106 -31.647  -7.140  1.00  0.00     0.190 HD
ENDROOT
BRANCH   1   9
HETATM    9  C8  UNL     1      -4.263 -31.431  -9.840  1.00  0.00     0.236 C 
BRANCH   9  10
HETATM   10  C7  UNL     1      -2.832 -31.657  -9.927  1.00  0.00     0.081 C 
BRANCH  10  11
HETATM   11  C6  UNL     1      -1.869 -32.254  -9.085  1.00  0.00     0.084 A 
HETATM   12  C3  UNL     1      -1.063 -31.407  -8.296  1.00  0.00     0.172 A 
HETATM   13  N1  UNL     1      -0.145 -31.910  -7.461  1.00  0.00    -0.278 N 
HETATM   14  N2  UNL     1       0.064 -33.198  -7.325  1.00  0.00    -0.280 N 
ATOM     15  H1  UNL     1       0.418 -31.264  -6.907  1.00  0.00     0.189 HD
HETATM   16  C4  UNL     1      -0.664 -34.100  -8.043  1.00  0.00     0.169 A 
ATOM     17  H2  UNL     1       0.777 -33.529  -6.674  1.00  0.00     0.188 HD
HETATM   18  C5  UNL     1      -1.632 -33.583  -8.922  1.00  0.00     0.166 A 
BRANCH  12  19
HETATM   19  O1  UNL     1      -1.182 -30.021  -8.347  1.00  0.00    -0.334 OA
BRANCH  19  20
HETATM   20  C2  UNL     1      -0.154 -29.167  -7.889  1.00  0.00     0.173 C 
HETATM   21  C1  UNL     1      -0.481 -27.715  -8.087  1.00  0.00     0.034 C 
ENDBRANCH  19  20
ENDBRANCH  12  19
BRANCH  16  22
HETATM   22  N3  UNL     1      -0.415 -35.317  -7.887  1.00  0.00    -0.289 N 
ATOM     23  H3  UNL     1       0.321 -35.631  -8.519  1.00  0.00     0.188 HD
BRANCH  22  24
HETATM   24  N4  UNL     1      -0.855 -36.320  -7.113  1.00  0.00    -0.344 N 
ATOM     25  H42 UNL     1      -1.759 -36.075  -6.708  1.00  0.00     0.176 HD
ATOM     26  H41 UNL     1      -0.530 -37.244  -6.829  1.00  0.00     0.176 HD
ENDBRANCH  22  24
ENDBRANCH  16  22
BRANCH  18  27
HETATM   27  N5  UNL     1      -2.335 -34.567  -9.633  1.00  0.00    -0.111 N 
HETATM   28  O2  UNL     1      -3.282 -35.236  -9.121  1.00  0.00    -0.532 OA
HETATM   29  O3  UNL     1      -1.985 -34.831 -10.933  1.00  0.00    -0.532 OA
ENDBRANCH  18  27
ENDBRANCH  10  11
BRANCH  10  30
HETATM   30  O4  UNL     1      -2.331 -31.189 -11.061  1.00  0.00    -0.362 OA
ATOM     31  H4  UNL     1      -2.767 -31.523 -11.837  1.00  0.00     0.217 HD
ENDBRANCH  10  30
ENDBRANCH   9  10
ENDBRANCH   1   9
BRANCH   6  32
HETATM   32  C10 UNL     1      -5.447 -33.627  -5.550  1.00  0.00     0.096 A 
HETATM   33  C11 UNL     1      -4.606 -34.551  -4.967  1.00  0.00     0.149 A 
HETATM   34  N9  UNL     1      -3.648 -35.200  -5.775  1.00  0.00    -0.081 NA
HETATM   35  N10 UNL     1      -4.660 -34.858  -3.659  1.00  0.00    -0.178 N 
HETATM   36  C12 UNL     1      -5.555 -34.256  -2.883  1.00  0.00     0.678 A 
ATOM     37  H10 UNL     1      -4.020 -35.547  -3.266  1.00  0.00     0.185 HD
HETATM   38  N12 UNL     1      -6.392 -33.349  -3.417  1.00  0.00    -0.176 N 
HETATM   39  C13 UNL     1      -6.366 -33.017  -4.721  1.00  0.00     0.132 A 
ATOM     40  H12 UNL     1      -7.075 -32.895  -2.810  1.00  0.00     0.186 HD
HETATM   41  N13 UNL     1      -7.163 -32.152  -5.240  1.00  0.00    -0.384 N 
ATOM     42 2H13 UNL     1      -7.143 -31.900  -6.227  1.00  0.00     0.157 HD
ATOM     43 1H13 UNL     1      -7.842 -31.702  -4.627  1.00  0.00     0.157 HD
BRANCH  36  44
HETATM   44  N11 UNL     1      -5.616 -34.552  -1.605  1.00  0.00    -0.234 N 
ATOM     45 2H11 UNL     1      -4.976 -34.117  -0.941  1.00  0.00     0.174 HD
ATOM     46 1H11 UNL     1      -6.309 -35.222  -1.272  1.00  0.00     0.174 HD
ENDBRANCH  36  44
ENDBRANCH   6  32
TORSDOF 11
ENDMDL
MODEL 5
REMARK VINA RESULT: -7.748001414      2.588      8.436
REMARK  11 active torsions:
REMARK  status: ('A' for Active; 'I' for Inactive)
REMARK    1  A    between atoms: C2_2  and  O1_3 
REMARK    2  A    between atoms: O1_3  and  C3_4 
REMARK    3  A    between atoms: C4_9  and  N3_10 
REMARK    4  A    between atoms: N3_10  and  N4_12 
REMARK    5  A    between atoms: C5_15  and  N5_16 
REMARK    6  A    between atoms: C6_19  and  C7_20 
REMARK    7  A    between atoms: C7_20  and  O4_21 
REMARK    8  A    between atoms: C7_20  and  C8_23 
REMARK    9  A    between atoms: C8_23  and  N6_24 
REMARK   10  A    between atoms: C9_29  and  C10_30 
REMARK   11  A    between atoms: C12_35  and  N11_36 
ROOT
HETATM    1  N6  UNL     1      -3.735 -34.481  -9.066  1.00  0.00    -0.212 N 
HETATM    2  N7  UNL     1      -3.268 -33.275  -8.908  1.00  0.00    -0.224 N 
ATOM      3  H7  UNL     1      -2.763 -32.753  -9.624  1.00  0.00     0.210 HD
HETATM    4  N8  UNL     1      -3.536 -32.817  -7.697  1.00  0.00    -0.268 N 
ATOM      5  H8  UNL     1      -3.279 -31.902  -7.328  1.00  0.00     0.190 HD
HETATM    6  C9  UNL     1      -4.219 -33.792  -7.029  1.00  0.00     0.154 A 
HETATM    7  N14 UNL     1      -4.314 -34.796  -7.920  1.00  0.00    -0.265 N 
ATOM      8  H14 UNL     1      -4.775 -35.687  -7.734  1.00  0.00     0.190 HD
ENDROOT
BRANCH   1   9
HETATM    9  C8  UNL     1      -3.691 -35.410 -10.206  1.00  0.00     0.236 C 
BRANCH   9  10
HETATM   10  C7  UNL     1      -2.751 -34.946 -11.208  1.00  0.00     0.081 C 
BRANCH  10  11
HETATM   11  C6  UNL     1      -1.456 -35.338 -11.612  1.00  0.00     0.084 A 
HETATM   12  C3  UNL     1      -0.387 -35.111 -10.721  1.00  0.00     0.172 A 
HETATM   13  N1  UNL     1       0.862 -35.478 -11.035  1.00  0.00    -0.278 N 
HETATM   14  N2  UNL     1       1.169 -36.062 -12.170  1.00  0.00    -0.280 N 
ATOM     15  H1  UNL     1       1.608 -35.297 -10.363  1.00  0.00     0.189 HD
HETATM   16  C4  UNL     1       0.206 -36.325 -13.098  1.00  0.00     0.169 A 
ATOM     17  H2  UNL     1       2.137 -36.321 -12.359  1.00  0.00     0.188 HD
HETATM   18  C5  UNL     1      -1.110 -35.945 -12.779  1.00  0.00     0.166 A 
BRANCH  12  19
HETATM   19  O1  UNL     1      -0.576 -34.500  -9.485  1.00  0.00    -0.334 OA
BRANCH  19  20
HETATM   20  C2  UNL     1      -0.021 -35.030  -8.299  1.00  0.00     0.173 C 
HETATM   21  C1  UNL     1      -0.838 -36.159  -7.737  1.00  0.00     0.034 C 
ENDBRANCH  19  20
ENDBRANCH  12  19
BRANCH  16  22
HETATM   22  N3  UNL     1       0.554 -36.869 -14.171  1.00  0.00    -0.289 N 
ATOM     23  H3  UNL     1      -0.209 -36.879 -14.848  1.00  0.00     0.188 HD
BRANCH  22  24
HETATM   24  N4  UNL     1       1.659 -37.442 -14.670  1.00  0.00    -0.344 N 
ATOM     25  H42 UNL     1       2.457 -37.242 -14.067  1.00  0.00     0.176 HD
ATOM     26  H41 UNL     1       1.905 -38.014 -15.478  1.00  0.00     0.176 HD
ENDBRANCH  22  24
ENDBRANCH  16  22
BRANCH  18  27
HETATM   27  N5  UNL     1      -2.044 -36.238 -13.783  1.00  0.00    -0.111 N 
HETATM   28  O2  UNL     1      -2.472 -35.363 -14.595  1.00  0.00    -0.532 OA
HETATM   29  O3  UNL     1      -2.527 -37.517 -13.895  1.00  0.00    -0.532 OA
ENDBRANCH  18  27
ENDBRANCH  10  11
BRANCH  10  30
HETATM   30  O4  UNL     1      -3.233 -33.917 -11.890  1.00  0.00    -0.362 OA
ATOM     31  H4  UNL     1      -4.181 -33.865 -11.883  1.00  0.00     0.217 HD
ENDBRANCH  10  30
ENDBRANCH   9  10
ENDBRANCH   1   9
BRANCH   6  32
HETATM   32  C10 UNL     1      -4.711 -33.705  -5.657  1.00  0.00     0.096 A 
HETATM   33  C11 UNL     1      -3.964 -34.162  -4.591  1.00  0.00     0.149 A 
HETATM   34  N9  UNL     1      -2.694 -34.722  -4.845  1.00  0.00    -0.081 NA
HETATM   35  N10 UNL     1      -4.397 -34.094  -3.320  1.00  0.00    -0.178 N 
HETATM   36  C12 UNL     1      -5.590 -33.568  -3.064  1.00  0.00     0.678 A 
ATOM     37  H10 UNL     1      -3.814 -34.443  -2.560  1.00  0.00     0.185 HD
HETATM   38  N12 UNL     1      -6.346 -33.112  -4.078  1.00  0.00    -0.176 N 
HETATM   39  C13 UNL     1      -5.945 -33.164  -5.362  1.00  0.00     0.132 A 
ATOM     40  H12 UNL     1      -7.259 -32.712  -3.866  1.00  0.00     0.186 HD
HETATM   41  N13 UNL     1      -6.661 -32.732  -6.337  1.00  0.00    -0.384 N 
ATOM     42 2H13 UNL     1      -6.357 -32.771  -7.310  1.00  0.00     0.157 HD
ATOM     43 1H13 UNL     1      -7.573 -32.332  -6.118  1.00  0.00     0.157 HD
BRANCH  36  44
HETATM   44  N11 UNL     1      -6.020 -33.499  -1.825  1.00  0.00    -0.234 N 
ATOM     45 2H11 UNL     1      -5.607 -34.084  -1.099  1.00  0.00     0.174 HD
ATOM     46 1H11 UNL     1      -6.773 -32.855  -1.585  1.00  0.00     0.174 HD
ENDBRANCH  36  44
ENDBRANCH   6  32
TORSDOF 11
ENDMDL
