MODEL 1
REMARK VINA RESULT: -7.542245727      0.000      0.000
REMARK  12 active torsions:
REMARK  status: ('A' for Active; 'I' for Inactive)
REMARK    1  A    between atoms: C2_2  and  O1_3 
REMARK    2  A    between atoms: C2_2  and  C3_5 
REMARK    3  A    between atoms: C3_5  and  O2_6 
REMARK    4  A    between atoms: C3_5  and  C4_8 
REMARK    5  A    between atoms: N3_13  and  C5_14 
REMARK    6  A    between atoms: C5_14  and  C6_15 
REMARK    7  A    between atoms: C6_15  and  S1_16 
REMARK    8  A    between atoms: S1_16  and  C7_17 
REMARK    9  A    between atoms: C8_20  and  N5_21 
REMARK       I    between atoms: N5_21  and  C9_23 
REMARK   10  A    between atoms: C10_30  and  N9_31 
REMARK   11  A    between atoms: C11_34  and  N10_35 
REMARK   12  A    between atoms: C12_39  and  O3_40 
ROOT
HETATM    1  C7  UNL     1      -0.673 -35.905 -11.240  1.00  0.00     0.118 A 
HETATM    2  N4  UNL     1      -0.413 -35.749 -12.551  1.00  0.00    -0.183 N 
ATOM      3  H4  UNL     1      -1.172 -35.746 -13.232  1.00  0.00     0.185 HD
HETATM    4  C8  UNL     1       0.865 -35.596 -12.953  1.00  0.00     0.687 A 
HETATM    5  N8  UNL     1       1.862 -35.601 -12.050  1.00  0.00    -0.174 N 
ATOM      6  H8  UNL     1       2.826 -35.485 -12.363  1.00  0.00     0.186 HD
HETATM    7  C10 UNL     1       1.603 -35.757 -10.734  1.00  0.00     0.146 A 
HETATM    8  C11 UNL     1       0.310 -35.916 -10.283  1.00  0.00     0.134 A 
ENDROOT
BRANCH   1   9
HETATM    9  S1  UNL     1      -2.366 -36.103 -10.724  1.00  0.00    -0.107 SA
BRANCH   9  10
HETATM   10  C6  UNL     1      -3.160 -34.473 -10.914  1.00  0.00     0.104 C 
BRANCH  10  11
HETATM   11  C5  UNL     1      -4.537 -34.468 -10.283  1.00  0.00     0.181 C 
BRANCH  11  12
HETATM   12  N3  UNL     1      -4.361 -34.366  -8.852  1.00  0.00    -0.217 N 
HETATM   13  N2  UNL     1      -3.611 -33.425  -8.282  1.00  0.00    -0.225 N 
HETATM   14  N1  UNL     1      -3.651 -33.596  -6.977  1.00  0.00    -0.270 N 
ATOM     15  H2  UNL     1      -3.093 -32.696  -8.773  1.00  0.00     0.210 HD
HETATM   16  C4  UNL     1      -4.430 -34.650  -6.713  1.00  0.00     0.145 A 
ATOM     17  H1  UNL     1      -3.170 -33.022  -6.285  1.00  0.00     0.190 HD
HETATM   18  N14 UNL     1      -4.861 -35.114  -7.896  1.00  0.00    -0.268 N 
ATOM     19  H14 UNL     1      -5.477 -35.916  -8.030  1.00  0.00     0.190 HD
BRANCH  16  20
HETATM   20  C3  UNL     1      -4.779 -35.231  -5.383  1.00  0.00     0.216 C 
BRANCH  20  21
HETATM   21  C2  UNL     1      -5.548 -34.200  -4.603  1.00  0.00     0.150 C 
HETATM   22  C1  UNL     1      -4.689 -33.477  -3.589  1.00  0.00     0.042 C 
BRANCH  21  23
HETATM   23  O1  UNL     1      -6.042 -33.275  -5.546  1.00  0.00    -0.393 OA
ATOM     24  H1  UNL     1      -6.643 -33.715  -6.136  1.00  0.00     0.210 HD
ENDBRANCH  21  23
ENDBRANCH  20  21
BRANCH  20  25
HETATM   25  O2  UNL     1      -3.684 -35.747  -4.734  1.00  0.00    -0.385 OA
ATOM     26  H2  UNL     1      -3.354 -36.562  -5.094  1.00  0.00     0.210 HD
ENDBRANCH  20  25
ENDBRANCH  16  20
ENDBRANCH  11  12
ENDBRANCH  10  11
ENDBRANCH   9  10
ENDBRANCH   1   9
BRANCH   8  27
HETATM   27  N10 UNL     1      -0.068 -36.092  -8.936  1.00  0.00    -0.215 N 
HETATM   28  N11 UNL     1      -0.026 -37.251  -8.303  1.00  0.00    -0.011 NA
HETATM   29  N12 UNL     1      -0.438 -37.107  -7.055  1.00  0.00    -0.261 N 
HETATM   30  C12 UNL     1      -0.761 -35.804  -6.868  1.00  0.00     0.197 A 
ATOM     31  H12 UNL     1      -0.502 -37.847  -6.356  1.00  0.00     0.186 HD
HETATM   32  C13 UNL     1      -0.519 -35.167  -8.077  1.00  0.00     0.189 A 
HETATM   33  N13 UNL     1      -0.688 -33.802  -8.435  1.00  0.00    -0.076 NA
BRANCH  30  34
HETATM   34  O3  UNL     1      -1.237 -35.167  -5.736  1.00  0.00    -0.343 OA
ATOM     35  H3  UNL     1      -1.168 -34.255  -5.480  1.00  0.00     0.219 HD
ENDBRANCH  30  34
ENDBRANCH   8  27
BRANCH   4  36
HETATM   36  N5  UNL     1       1.092 -35.447 -14.228  1.00  0.00    -0.164 N 
HETATM   37  C9  UNL     1       1.108 -36.590 -15.071  1.00  0.00     0.200 C 
HETATM   38  N6  UNL     1       2.145 -37.369 -15.123  1.00  0.00    -0.373 N 
HETATM   39  N7  UNL     1      -0.001 -36.932 -15.892  1.00  0.00    -0.063 NA
ATOM     40  H62 UNL     1       2.941 -37.124 -14.533  1.00  0.00     0.158 HD
ATOM     41  H61 UNL     1       2.158 -38.190 -15.728  1.00  0.00     0.158 HD
ATOM     42  H5  UNL     1       1.256 -34.519 -14.616  1.00  0.00     0.187 HD
ENDBRANCH   4  36
BRANCH   7  43
HETATM   43  N9  UNL     1       2.562 -35.765  -9.840  1.00  0.00    -0.383 N 
ATOM     44  H92 UNL     1       3.475 -35.413 -10.126  1.00  0.00     0.157 HD
ATOM     45  H91 UNL     1       2.408 -36.108  -8.892  1.00  0.00     0.157 HD
ENDBRANCH   7  43
TORSDOF 12
ENDMDL
MODEL 2
REMARK VINA RESULT: -7.316066046      3.362      9.133
REMARK  12 active torsions:
REMARK  status: ('A' for Active; 'I' for Inactive)
REMARK    1  A    between atoms: C2_2  and  O1_3 
REMARK    2  A    between atoms: C2_2  and  C3_5 
REMARK    3  A    between atoms: C3_5  and  O2_6 
REMARK    4  A    between atoms: C3_5  and  C4_8 
REMARK    5  A    between atoms: N3_13  and  C5_14 
REMARK    6  A    between atoms: C5_14  and  C6_15 
REMARK    7  A    between atoms: C6_15  and  S1_16 
REMARK    8  A    between atoms: S1_16  and  C7_17 
REMARK    9  A    between atoms: C8_20  and  N5_21 
REMARK       I    between atoms: N5_21  and  C9_23 
REMARK   10  A    between atoms: C10_30  and  N9_31 
REMARK   11  A    between atoms: C11_34  and  N10_35 
REMARK   12  A    between atoms: C12_39  and  O3_40 
ROOT
HETATM    1  C7  UNL     1      -4.350 -34.555  -5.724  1.00  0.00     0.118 A 
HETATM    2  N4  UNL     1      -4.021 -34.718  -4.429  1.00  0.00    -0.183 N 
ATOM      3  H4  UNL     1      -3.409 -35.484  -4.144  1.00  0.00     0.185 HD
HETATM    4  C8  UNL     1      -4.511 -33.859  -3.514  1.00  0.00     0.687 A 
HETATM    5  N8  UNL     1      -5.318 -32.852  -3.897  1.00  0.00    -0.174 N 
ATOM      6  H8  UNL     1      -5.684 -32.206  -3.197  1.00  0.00     0.186 HD
HETATM    7  C10 UNL     1      -5.649 -32.686  -5.195  1.00  0.00     0.146 A 
HETATM    8  C11 UNL     1      -5.168 -33.544  -6.161  1.00  0.00     0.134 A 
ENDROOT
BRANCH   1   9
HETATM    9  S1  UNL     1      -3.693 -35.697  -6.922  1.00  0.00    -0.107 SA
BRANCH   9  10
HETATM   10  C6  UNL     1      -1.969 -36.029  -6.431  1.00  0.00     0.104 C 
BRANCH  10  11
HETATM   11  C5  UNL     1      -1.007 -35.180  -7.236  1.00  0.00     0.181 C 
BRANCH  11  12
HETATM   12  N3  UNL     1      -0.099 -36.076  -7.917  1.00  0.00    -0.217 N 
HETATM   13  N2  UNL     1       0.264 -37.255  -7.415  1.00  0.00    -0.225 N 
HETATM   14  N1  UNL     1       1.091 -37.830  -8.262  1.00  0.00    -0.270 N 
ATOM     15  H2  UNL     1      -0.047 -37.645  -6.524  1.00  0.00     0.210 HD
HETATM   16  C4  UNL     1       1.257 -37.016  -9.310  1.00  0.00     0.145 A 
ATOM     17  H1  UNL     1       1.530 -38.743  -8.140  1.00  0.00     0.190 HD
HETATM   18  N14 UNL     1       0.506 -35.929  -9.073  1.00  0.00    -0.268 N 
ATOM     19  H14 UNL     1       0.420 -35.122  -9.689  1.00  0.00     0.190 HD
BRANCH  16  20
HETATM   20  C3  UNL     1       2.098 -37.232 -10.523  1.00  0.00     0.216 C 
BRANCH  20  21
HETATM   21  C2  UNL     1       1.602 -36.321 -11.612  1.00  0.00     0.150 C 
HETATM   22  C1  UNL     1       2.684 -35.408 -12.147  1.00  0.00     0.042 C 
BRANCH  21  23
HETATM   23  O1  UNL     1       1.136 -37.156 -12.648  1.00  0.00    -0.393 OA
ATOM     24  H1  UNL     1       1.850 -37.699 -12.961  1.00  0.00     0.210 HD
ENDBRANCH  21  23
ENDBRANCH  20  21
BRANCH  20  25
HETATM   25  O2  UNL     1       2.182 -38.557 -10.873  1.00  0.00    -0.385 OA
ATOM     26  H2  UNL     1       3.044 -38.845 -11.147  1.00  0.00     0.210 HD
ENDBRANCH  20  25
ENDBRANCH  16  20
ENDBRANCH  11  12
ENDBRANCH  10  11
ENDBRANCH   9  10
ENDBRANCH   1   9
BRANCH   8  27
HETATM   27  N10 UNL     1      -5.456 -33.463  -7.539  1.00  0.00    -0.215 N 
HETATM   28  N11 UNL     1      -6.550 -33.954  -8.095  1.00  0.00    -0.011 NA
HETATM   29  N12 UNL     1      -6.543 -33.728  -9.397  1.00  0.00    -0.261 N 
HETATM   30  C12 UNL     1      -5.401 -33.065  -9.702  1.00  0.00     0.197 A 
ATOM     31  H12 UNL     1      -7.270 -34.004 -10.057  1.00  0.00     0.186 HD
HETATM   32  C13 UNL     1      -4.716 -32.902  -8.506  1.00  0.00     0.189 A 
HETATM   33  N13 UNL     1      -3.465 -32.277  -8.252  1.00  0.00    -0.076 NA
BRANCH  30  34
HETATM   34  O3  UNL     1      -4.945 -32.611 -10.926  1.00  0.00    -0.343 OA
ATOM     35  H3  UNL     1      -5.430 -32.244 -11.656  1.00  0.00     0.219 HD
ENDBRANCH  30  34
ENDBRANCH   8  27
BRANCH   4  36
HETATM   36  N5  UNL     1      -4.179 -34.038  -2.266  1.00  0.00    -0.164 N 
HETATM   37  C9  UNL     1      -5.178 -34.403  -1.325  1.00  0.00     0.200 C 
HETATM   38  N6  UNL     1      -5.990 -33.517  -0.833  1.00  0.00    -0.373 N 
HETATM   39  N7  UNL     1      -5.334 -35.744  -0.880  1.00  0.00    -0.063 NA
ATOM     40  H62 UNL     1      -5.878 -32.556  -1.153  1.00  0.00     0.158 HD
ATOM     41  H61 UNL     1      -6.707 -33.779  -0.157  1.00  0.00     0.158 HD
ATOM     42  H5  UNL     1      -3.211 -33.918  -1.969  1.00  0.00     0.187 HD
ENDBRANCH   4  36
BRANCH   7  43
HETATM   43  N9  UNL     1      -6.433 -31.711  -5.585  1.00  0.00    -0.383 N 
ATOM     44  H92 UNL     1      -6.653 -30.983  -4.907  1.00  0.00     0.157 HD
ATOM     45  H91 UNL     1      -6.813 -31.676  -6.532  1.00  0.00     0.157 HD
ENDBRANCH   7  43
TORSDOF 12
ENDMDL
MODEL 3
REMARK VINA RESULT: -7.196882881      3.615      8.517
REMARK  12 active torsions:
REMARK  status: ('A' for Active; 'I' for Inactive)
REMARK    1  A    between atoms: C2_2  and  O1_3 
REMARK    2  A    between atoms: C2_2  and  C3_5 
REMARK    3  A    between atoms: C3_5  and  O2_6 
REMARK    4  A    between atoms: C3_5  and  C4_8 
REMARK    5  A    between atoms: N3_13  and  C5_14 
REMARK    6  A    between atoms: C5_14  and  C6_15 
REMARK    7  A    between atoms: C6_15  and  S1_16 
REMARK    8  A    between atoms: S1_16  and  C7_17 
REMARK    9  A    between atoms: C8_20  and  N5_21 
REMARK       I    between atoms: N5_21  and  C9_23 
REMARK   10  A    between atoms: C10_30  and  N9_31 
REMARK   11  A    between atoms: C11_34  and  N10_35 
REMARK   12  A    between atoms: C12_39  and  O3_40 
ROOT
HETATM    1  C7  UNL     1      -4.044 -33.749  -7.560  1.00  0.00     0.118 A 
HETATM    2  N4  UNL     1      -4.610 -34.044  -6.375  1.00  0.00    -0.183 N 
ATOM      3  H4  UNL     1      -4.350 -34.895  -5.876  1.00  0.00     0.185 HD
HETATM    4  C8  UNL     1      -5.524 -33.201  -5.855  1.00  0.00     0.687 A 
HETATM    5  N8  UNL     1      -5.862 -32.079  -6.518  1.00  0.00    -0.174 N 
ATOM      6  H8  UNL     1      -6.555 -31.447  -6.118  1.00  0.00     0.186 HD
HETATM    7  C10 UNL     1      -5.296 -31.781  -7.707  1.00  0.00     0.146 A 
HETATM    8  C11 UNL     1      -4.357 -32.618  -8.272  1.00  0.00     0.134 A 
ENDROOT
BRANCH   1   9
HETATM    9  S1  UNL     1      -2.837 -34.871  -8.232  1.00  0.00    -0.107 SA
BRANCH   9  10
HETATM   10  C6  UNL     1      -1.334 -34.684  -7.218  1.00  0.00     0.104 C 
BRANCH  10  11
HETATM   11  C5  UNL     1      -0.701 -36.032  -6.939  1.00  0.00     0.181 C 
BRANCH  11  12
HETATM   12  N3  UNL     1       0.283 -36.274  -7.970  1.00  0.00    -0.217 N 
HETATM   13  N2  UNL     1       0.886 -35.291  -8.637  1.00  0.00    -0.225 N 
HETATM   14  N1  UNL     1       1.722 -35.828  -9.501  1.00  0.00    -0.270 N 
ATOM     15  H2  UNL     1       0.727 -34.292  -8.501  1.00  0.00     0.210 HD
HETATM   16  C4  UNL     1       1.652 -37.159  -9.386  1.00  0.00     0.145 A 
ATOM     17  H1  UNL     1       2.321 -35.316 -10.149  1.00  0.00     0.190 HD
HETATM   18  N14 UNL     1       0.750 -37.413  -8.426  1.00  0.00    -0.268 N 
ATOM     19  H14 UNL     1       0.472 -38.339  -8.103  1.00  0.00     0.190 HD
BRANCH  16  20
HETATM   20  C3  UNL     1       2.409 -38.193 -10.150  1.00  0.00     0.216 C 
BRANCH  20  21
HETATM   21  C2  UNL     1       2.631 -37.682 -11.546  1.00  0.00     0.150 C 
HETATM   22  C1  UNL     1       3.391 -38.664 -12.412  1.00  0.00     0.042 C 
BRANCH  21  23
HETATM   23  O1  UNL     1       1.352 -37.461 -12.098  1.00  0.00    -0.393 OA
ATOM     24  H1  UNL     1       1.247 -37.994 -12.877  1.00  0.00     0.210 HD
ENDBRANCH  21  23
ENDBRANCH  20  21
BRANCH  20  25
HETATM   25  O2  UNL     1       1.822 -39.432 -10.075  1.00  0.00    -0.385 OA
ATOM     26  H2  UNL     1       1.337 -39.597  -9.275  1.00  0.00     0.210 HD
ENDBRANCH  20  25
ENDBRANCH  16  20
ENDBRANCH  11  12
ENDBRANCH  10  11
ENDBRANCH   9  10
ENDBRANCH   1   9
BRANCH   8  27
HETATM   27  N10 UNL     1      -3.712 -32.403  -9.506  1.00  0.00    -0.215 N 
HETATM   28  N11 UNL     1      -4.206 -32.780 -10.673  1.00  0.00    -0.011 NA
HETATM   29  N12 UNL     1      -3.381 -32.444 -11.650  1.00  0.00    -0.261 N 
HETATM   30  C12 UNL     1      -2.308 -31.826 -11.099  1.00  0.00     0.197 A 
ATOM     31  H12 UNL     1      -3.526 -32.620 -12.644  1.00  0.00     0.186 HD
HETATM   32  C13 UNL     1      -2.532 -31.806  -9.730  1.00  0.00     0.189 A 
HETATM   33  N13 UNL     1      -1.727 -31.280  -8.684  1.00  0.00    -0.076 NA
BRANCH  30  34
HETATM   34  O3  UNL     1      -1.185 -31.297 -11.710  1.00  0.00    -0.343 OA
ATOM     35  H3  UNL     1      -0.717 -30.491 -11.523  1.00  0.00     0.219 HD
ENDBRANCH  30  34
ENDBRANCH   8  27
BRANCH   4  36
HETATM   36  N5  UNL     1      -6.058 -33.509  -4.707  1.00  0.00    -0.164 N 
HETATM   37  C9  UNL     1      -5.224 -33.952  -3.647  1.00  0.00     0.200 C 
HETATM   38  N6  UNL     1      -4.781 -35.171  -3.607  1.00  0.00    -0.373 N 
HETATM   39  N7  UNL     1      -4.836 -33.087  -2.587  1.00  0.00    -0.063 NA
ATOM     40  H62 UNL     1      -5.059 -35.791  -4.367  1.00  0.00     0.158 HD
ATOM     41  H61 UNL     1      -4.182 -35.490  -2.846  1.00  0.00     0.158 HD
ATOM     42  H5  UNL     1      -7.066 -33.432  -4.571  1.00  0.00     0.187 HD
ENDBRANCH   4  36
BRANCH   7  43
HETATM   43  N9  UNL     1      -5.614 -30.693  -8.366  1.00  0.00    -0.383 N 
ATOM     44  H92 UNL     1      -5.262 -29.806  -8.009  1.00  0.00     0.157 HD
ATOM     45  H91 UNL     1      -6.191 -30.726  -9.207  1.00  0.00     0.157 HD
ENDBRANCH   7  43
TORSDOF 12
ENDMDL
MODEL 4
REMARK VINA RESULT: -7.130942465      3.172      7.288
REMARK  12 active torsions:
REMARK  status: ('A' for Active; 'I' for Inactive)
REMARK    1  A    between atoms: C2_2  and  O1_3 
REMARK    2  A    between atoms: C2_2  and  C3_5 
REMARK    3  A    between atoms: C3_5  and  O2_6 
REMARK    4  A    between atoms: C3_5  and  C4_8 
REMARK    5  A    between atoms: N3_13  and  C5_14 
REMARK    6  A    between atoms: C5_14  and  C6_15 
REMARK    7  A    between atoms: C6_15  and  S1_16 
REMARK    8  A    between atoms: S1_16  and  C7_17 
REMARK    9  A    between atoms: C8_20  and  N5_21 
REMARK       I    between atoms: N5_21  and  C9_23 
REMARK   10  A    between atoms: C10_30  and  N9_31 
REMARK   11  A    between atoms: C11_34  and  N10_35 
REMARK   12  A    between atoms: C12_39  and  O3_40 
ROOT
HETATM    1  C7  UNL     1      -2.636 -33.089  -9.900  1.00  0.00     0.118 A 
HETATM    2  N4  UNL     1      -3.421 -32.058 -10.261  1.00  0.00    -0.183 N 
ATOM      3  H4  UNL     1      -4.199 -32.201 -10.906  1.00  0.00     0.185 HD
HETATM    4  C8  UNL     1      -3.168 -30.832  -9.761  1.00  0.00     0.687 A 
HETATM    5  N8  UNL     1      -2.140 -30.650  -8.911  1.00  0.00    -0.174 N 
ATOM      6  H8  UNL     1      -1.955 -29.719  -8.537  1.00  0.00     0.186 HD
HETATM    7  C10 UNL     1      -1.351 -31.682  -8.547  1.00  0.00     0.146 A 
HETATM    8  C11 UNL     1      -1.578 -32.951  -9.037  1.00  0.00     0.134 A 
ENDROOT
BRANCH   1   9
HETATM    9  S1  UNL     1      -2.985 -34.702 -10.567  1.00  0.00    -0.107 SA
BRANCH   9  10
HETATM   10  C6  UNL     1      -2.416 -34.682 -12.299  1.00  0.00     0.104 C 
BRANCH  10  11
HETATM   11  C5  UNL     1      -2.211 -36.091 -12.816  1.00  0.00     0.181 C 
BRANCH  11  12
HETATM   12  N3  UNL     1      -0.790 -36.286 -12.999  1.00  0.00    -0.217 N 
HETATM   13  N2  UNL     1      -0.256 -36.645 -14.165  1.00  0.00    -0.225 N 
HETATM   14  N1  UNL     1       1.049 -36.740 -14.011  1.00  0.00    -0.270 N 
ATOM     15  H2  UNL     1      -0.769 -36.817 -15.029  1.00  0.00     0.210 HD
HETATM   16  C4  UNL     1       1.348 -36.440 -12.743  1.00  0.00     0.145 A 
ATOM     17  H1  UNL     1       1.717 -36.998 -14.737  1.00  0.00     0.190 HD
HETATM   18  N14 UNL     1       0.187 -36.161 -12.131  1.00  0.00    -0.268 N 
ATOM     19  H14 UNL     1       0.081 -35.894 -11.153  1.00  0.00     0.190 HD
BRANCH  16  20
HETATM   20  C3  UNL     1       2.691 -36.409 -12.093  1.00  0.00     0.216 C 
BRANCH  20  21
HETATM   21  C2  UNL     1       3.017 -37.796 -11.613  1.00  0.00     0.150 C 
HETATM   22  C1  UNL     1       2.663 -38.006 -10.156  1.00  0.00     0.042 C 
BRANCH  21  23
HETATM   23  O1  UNL     1       2.265 -38.681 -12.413  1.00  0.00    -0.393 OA
ATOM     24  H1  UNL     1       1.353 -38.647 -12.150  1.00  0.00     0.210 HD
ENDBRANCH  21  23
ENDBRANCH  20  21
BRANCH  20  25
HETATM   25  O2  UNL     1       2.785 -35.429 -11.135  1.00  0.00    -0.385 OA
ATOM     26  H2  UNL     1       2.252 -34.660 -11.297  1.00  0.00     0.210 HD
ENDBRANCH  20  25
ENDBRANCH  16  20
ENDBRANCH  11  12
ENDBRANCH  10  11
ENDBRANCH   9  10
ENDBRANCH   1   9
BRANCH   8  27
HETATM   27  N10 UNL     1      -0.813 -34.094  -8.726  1.00  0.00    -0.215 N 
HETATM   28  N11 UNL     1       0.242 -34.486  -9.418  1.00  0.00    -0.011 NA
HETATM   29  N12 UNL     1       0.753 -35.586  -8.890  1.00  0.00    -0.261 N 
HETATM   30  C12 UNL     1       0.001 -35.923  -7.814  1.00  0.00     0.197 A 
ATOM     31  H12 UNL     1       1.569 -36.091  -9.234  1.00  0.00     0.186 HD
HETATM   32  C13 UNL     1      -0.996 -34.962  -7.721  1.00  0.00     0.189 A 
HETATM   33  N13 UNL     1      -2.052 -34.836  -6.779  1.00  0.00    -0.076 NA
BRANCH  30  34
HETATM   34  O3  UNL     1       0.137 -36.988  -6.942  1.00  0.00    -0.343 OA
ATOM     35  H3  UNL     1       0.037 -37.015  -5.998  1.00  0.00     0.219 HD
ENDBRANCH  30  34
ENDBRANCH   8  27
BRANCH   4  36
HETATM   36  N5  UNL     1      -3.942 -29.849 -10.127  1.00  0.00    -0.164 N 
HETATM   37  C9  UNL     1      -5.026 -29.469  -9.292  1.00  0.00     0.200 C 
HETATM   38  N6  UNL     1      -6.132 -30.148  -9.279  1.00  0.00    -0.373 N 
HETATM   39  N7  UNL     1      -4.951 -28.336  -8.437  1.00  0.00    -0.063 NA
ATOM     40  H62 UNL     1      -6.186 -30.961  -9.892  1.00  0.00     0.158 HD
ATOM     41  H61 UNL     1      -6.911 -29.875  -8.680  1.00  0.00     0.158 HD
ATOM     42  H5  UNL     1      -3.771 -29.358 -11.004  1.00  0.00     0.187 HD
ENDBRANCH   4  36
BRANCH   7  43
HETATM   43  N9  UNL     1      -0.346 -31.523  -7.720  1.00  0.00    -0.383 N 
ATOM     44  H92 UNL     1      -0.093 -32.313  -7.129  1.00  0.00     0.157 HD
ATOM     45  H91 UNL     1       0.168 -30.643  -7.666  1.00  0.00     0.157 HD
ENDBRANCH   7  43
TORSDOF 12
ENDMDL
MODEL 5
REMARK VINA RESULT: -7.119997643      3.067      7.404
REMARK  12 active torsions:
REMARK  status: ('A' for Active; 'I' for Inactive)
REMARK    1  A    between atoms: C2_2  and  O1_3 
REMARK    2  A    between atoms: C2_2  and  C3_5 
REMARK    3  A    between atoms: C3_5  and  O2_6 
REMARK    4  A    between atoms: C3_5  and  C4_8 
REMARK    5  A    between atoms: N3_13  and  C5_14 
REMARK    6  A    between atoms: C5_14  and  C6_15 
REMARK    7  A    between atoms: C6_15  and  S1_16 
REMARK    8  A    between atoms: S1_16  and  C7_17 
REMARK    9  A    between atoms: C8_20  and  N5_21 
REMARK       I    between atoms: N5_21  and  C9_23 
REMARK   10  A    between atoms: C10_30  and  N9_31 
REMARK   11  A    between atoms: C11_34  and  N10_35 
REMARK   12  A    between atoms: C12_39  and  O3_40 
ROOT
HETATM    1  C7  UNL     1      -3.303 -32.667  -9.606  1.00  0.00     0.118 A 
HETATM    2  N4  UNL     1      -4.357 -32.002 -10.113  1.00  0.00    -0.183 N 
ATOM      3  H4  UNL     1      -4.320 -31.617 -11.058  1.00  0.00     0.185 HD
HETATM    4  C8  UNL     1      -5.462 -31.848  -9.358  1.00  0.00     0.687 A 
HETATM    5  N8  UNL     1      -5.505 -32.357  -8.113  1.00  0.00    -0.174 N 
ATOM      6  H8  UNL     1      -6.345 -32.237  -7.547  1.00  0.00     0.186 HD
HETATM    7  C10 UNL     1      -4.449 -33.025  -7.602  1.00  0.00     0.146 A 
HETATM    8  C11 UNL     1      -3.300 -33.203  -8.343  1.00  0.00     0.134 A 
ENDROOT
BRANCH   1   9
HETATM    9  S1  UNL     1      -1.851 -32.864 -10.617  1.00  0.00    -0.107 SA
BRANCH   9  10
HETATM   10  C6  UNL     1      -1.974 -34.511 -11.387  1.00  0.00     0.104 C 
BRANCH  10  11
HETATM   11  C5  UNL     1      -0.978 -34.652 -12.520  1.00  0.00     0.181 C 
BRANCH  11  12
HETATM   12  N3  UNL     1       0.208 -35.280 -11.982  1.00  0.00    -0.217 N 
HETATM   13  N2  UNL     1       1.431 -35.027 -12.445  1.00  0.00    -0.225 N 
HETATM   14  N1  UNL     1       2.292 -35.746 -11.756  1.00  0.00    -0.270 N 
ATOM     15  H2  UNL     1       1.661 -34.386 -13.205  1.00  0.00     0.210 HD
HETATM   16  C4  UNL     1       1.617 -36.460 -10.849  1.00  0.00     0.145 A 
ATOM     17  H1  UNL     1       3.303 -35.757 -11.890  1.00  0.00     0.190 HD
HETATM   18  N14 UNL     1       0.320 -36.153 -11.009  1.00  0.00    -0.268 N 
ATOM     19  H14 UNL     1      -0.452 -36.536 -10.463  1.00  0.00     0.190 HD
BRANCH  16  20
HETATM   20  C3  UNL     1       2.155 -37.419  -9.840  1.00  0.00     0.216 C 
BRANCH  20  21
HETATM   21  C2  UNL     1       2.866 -38.525 -10.570  1.00  0.00     0.150 C 
HETATM   22  C1  UNL     1       2.905 -39.815  -9.778  1.00  0.00     0.042 C 
BRANCH  21  23
HETATM   23  O1  UNL     1       2.155 -38.731 -11.770  1.00  0.00    -0.393 OA
ATOM     24  H1  UNL     1       1.241 -38.509 -11.638  1.00  0.00     0.210 HD
ENDBRANCH  21  23
ENDBRANCH  20  21
BRANCH  20  25
HETATM   25  O2  UNL     1       1.194 -37.837  -8.952  1.00  0.00    -0.385 OA
ATOM     26  H2  UNL     1       0.586 -38.481  -9.295  1.00  0.00     0.210 HD
ENDBRANCH  20  25
ENDBRANCH  16  20
ENDBRANCH  11  12
ENDBRANCH  10  11
ENDBRANCH   9  10
ENDBRANCH   1   9
BRANCH   8  27
HETATM   27  N10 UNL     1      -2.143 -33.878  -7.904  1.00  0.00    -0.215 N 
HETATM   28  N11 UNL     1      -0.986 -33.283  -7.669  1.00  0.00    -0.011 NA
HETATM   29  N12 UNL     1      -0.088 -34.168  -7.270  1.00  0.00    -0.261 N 
HETATM   30  C12 UNL     1      -0.683 -35.386  -7.244  1.00  0.00     0.197 A 
ATOM     31  H12 UNL     1       0.881 -33.969  -7.025  1.00  0.00     0.186 HD
HETATM   32  C13 UNL     1      -1.994 -35.186  -7.651  1.00  0.00     0.189 A 
HETATM   33  N13 UNL     1      -3.052 -36.123  -7.804  1.00  0.00    -0.076 NA
BRANCH  30  34
HETATM   34  O3  UNL     1      -0.157 -36.617  -6.895  1.00  0.00    -0.343 OA
ATOM     35  H3  UNL     1       0.499 -36.832  -6.242  1.00  0.00     0.219 HD
ENDBRANCH  30  34
ENDBRANCH   8  27
BRANCH   4  36
HETATM   36  N5  UNL     1      -6.470 -31.200  -9.871  1.00  0.00    -0.164 N 
HETATM   37  C9  UNL     1      -6.351 -29.805 -10.111  1.00  0.00     0.200 C 
HETATM   38  N6  UNL     1      -6.474 -28.946  -9.145  1.00  0.00    -0.373 N 
HETATM   39  N7  UNL     1      -6.095 -29.288 -11.410  1.00  0.00    -0.063 NA
ATOM     40  H62 UNL     1      -6.657 -29.318  -8.213  1.00  0.00     0.158 HD
ATOM     41  H61 UNL     1      -6.388 -27.945  -9.317  1.00  0.00     0.158 HD
ATOM     42  H5  UNL     1      -7.336 -31.689 -10.097  1.00  0.00     0.187 HD
ENDBRANCH   4  36
BRANCH   7  43
HETATM   43  N9  UNL     1      -4.473 -33.527  -6.391  1.00  0.00    -0.383 N 
ATOM     44  H92 UNL     1      -5.384 -33.745  -5.988  1.00  0.00     0.157 HD
ATOM     45  H91 UNL     1      -3.615 -33.697  -5.864  1.00  0.00     0.157 HD
ENDBRANCH   7  43
TORSDOF 12
ENDMDL
