MODEL 1
REMARK VINA RESULT: -7.610874964      0.000      0.000
REMARK  14 active torsions:
REMARK  status: ('A' for Active; 'I' for Inactive)
REMARK    1  A    between atoms: N1_1  and  C1_4 
REMARK    2  A    between atoms: C2_9  and  S1_10 
REMARK    3  A    between atoms: S1_10  and  C3_11 
REMARK    4  A    between atoms: C3_11  and  C4_12 
REMARK    5  A    between atoms: C4_12  and  C5_14 
REMARK    6  A    between atoms: C5_14  and  N6_20 
REMARK    7  A    between atoms: N4_15  and  N5_17 
REMARK    8  A    between atoms: N6_20  and  C6_22 
REMARK    9  A    between atoms: C8_24  and  O2_25 
REMARK   10  A    between atoms: C12_31  and  N7_32 
REMARK   11  A    between atoms: C13_36  and  O3_37 
REMARK   12  A    between atoms: C13_36  and  C14_39 
REMARK   13  A    between atoms: C14_39  and  O4_40 
REMARK   14  A    between atoms: N8_42  and  N9_43 
ROOT
HETATM    1  C5  UNL     1       0.103 -36.606 -14.180  1.00  0.00     0.163 C 
HETATM    2  N4  UNL     1       1.000 -37.260 -14.802  1.00  0.00    -0.289 N 
ATOM      3  H4  UNL     1       0.722 -37.818 -15.609  1.00  0.00     0.188 HD
ENDROOT
BRANCH   1   4
HETATM    4  C4  UNL     1       0.453 -35.808 -13.041  1.00  0.00     0.203 C 
HETATM    5  O1  UNL     1       1.411 -34.984 -13.064  1.00  0.00    -0.288 OA
BRANCH   4   6
HETATM    6  C3  UNL     1      -0.321 -35.937 -11.783  1.00  0.00     0.169 C 
BRANCH   6   7
HETATM    7  S1  UNL     1       0.753 -35.730 -10.338  1.00  0.00    -0.082 SA
BRANCH   7   8
HETATM    8  C2  UNL     1       1.506 -37.306  -9.896  1.00  0.00     0.198 A 
HETATM    9  N3  UNL     1       2.325 -38.064 -10.625  1.00  0.00    -0.263 N 
HETATM   10  N2  UNL     1       2.639 -39.137  -9.917  1.00  0.00    -0.129 N 
ATOM     11  H3  UNL     1       2.654 -37.854 -11.567  1.00  0.00     0.189 HD
HETATM   12  C1  UNL     1       2.024 -39.082  -8.722  1.00  0.00     0.713 A 
ATOM     13  H2  UNL     1       3.252 -39.890 -10.229  1.00  0.00     0.205 HD
HETATM   14  N8  UNL     1       1.323 -37.931  -8.733  1.00  0.00    -0.068 N 
BRANCH  12  15
HETATM   15  N1  UNL     1       2.074 -39.941  -7.742  1.00  0.00    -0.231 N 
ATOM     16  H12 UNL     1       2.076 -40.958  -7.833  1.00  0.00     0.174 HD
ATOM     17  H11 UNL     1       2.120 -39.760  -6.739  1.00  0.00     0.174 HD
ENDBRANCH  12  15
BRANCH  14  18
HETATM   18  N9  UNL     1       0.525 -37.483  -7.657  1.00  0.00    -0.322 N 
ATOM     19  H92 UNL     1      -0.472 -37.655  -7.531  1.00  0.00     0.178 HD
ATOM     20  H91 UNL     1       0.879 -36.925  -6.879  1.00  0.00     0.178 HD
ENDBRANCH  14  18
ENDBRANCH   7   8
ENDBRANCH   6   7
ENDBRANCH   4   6
ENDBRANCH   1   4
BRANCH   1  21
HETATM   21  N6  UNL     1      -1.235 -36.666 -14.615  1.00  0.00    -0.360 N 
ATOM     22  H6  UNL     1      -1.919 -36.132 -14.079  1.00  0.00     0.162 HD
BRANCH  21  23
HETATM   23  C6  UNL     1      -1.723 -37.400 -15.727  1.00  0.00     0.159 C 
HETATM   24  C7  UNL     1      -1.559 -36.538 -16.957  1.00  0.00     0.014 A 
HETATM   25  C8  UNL     1      -0.543 -36.550 -17.858  1.00  0.00     0.081 A 
HETATM   26  C10 UNL     1      -2.567 -35.649 -17.167  1.00  0.00    -0.004 A 
HETATM   27  C9  UNL     1      -0.634 -35.663 -18.895  1.00  0.00     0.087 A 
HETATM   28  S2  UNL     1      -2.100 -34.851 -18.594  1.00  0.00    -0.103 SA
HETATM   29  C11 UNL     1      -3.734 -35.576 -16.205  1.00  0.00     0.083 C 
HETATM   30  C12 UNL     1      -4.198 -36.984 -16.022  1.00  0.00     0.227 C 
HETATM   31  C13 UNL     1      -3.114 -37.934 -15.620  1.00  0.00     0.132 C 
BRANCH  25  32
HETATM   32  O2  UNL     1       0.588 -37.418 -17.786  1.00  0.00    -0.360 OA
ATOM     33  H2  UNL     1       1.491 -37.123 -17.765  1.00  0.00     0.217 HD
ENDBRANCH  25  32
BRANCH  30  34
HETATM   34  N7  UNL     1      -4.840 -37.389 -17.283  1.00  0.00    -0.072 N 
ATOM     35  H73 UNL     1      -5.536 -36.720 -17.613  1.00  0.00     0.274 HD
ATOM     36  H72 UNL     1      -4.216 -37.333 -18.088  1.00  0.00     0.274 HD
ATOM     37  H71 UNL     1      -5.221 -38.324 -17.135  1.00  0.00     0.274 HD
ENDBRANCH  30  34
BRANCH  31  38
HETATM   38  O3  UNL     1      -3.388 -38.385 -14.353  1.00  0.00    -0.383 OA
ATOM     39  H3  UNL     1      -4.184 -38.903 -14.329  1.00  0.00     0.210 HD
ENDBRANCH  31  38
BRANCH  31  40
HETATM   40  C14 UNL     1      -3.210 -39.142 -16.552  1.00  0.00     0.206 C 
BRANCH  40  41
HETATM   41  O4  UNL     1      -3.799 -40.233 -15.884  1.00  0.00    -0.398 OA
ATOM     42  H4  UNL     1      -3.990 -40.933 -16.496  1.00  0.00     0.209 HD
ENDBRANCH  40  41
ENDBRANCH  31  40
ENDBRANCH  21  23
ENDBRANCH   1  21
BRANCH   2  43
HETATM   43  N5  UNL     1       2.344 -37.252 -14.438  1.00  0.00    -0.344 N 
ATOM     44  H52 UNL     1       2.988 -37.793 -15.014  1.00  0.00     0.176 HD
ATOM     45  H51 UNL     1       2.703 -36.737 -13.633  1.00  0.00     0.176 HD
ENDBRANCH   2  43
TORSDOF 14
ENDMDL
MODEL 2
REMARK VINA RESULT: -7.376017399      3.595      5.089
REMARK  14 active torsions:
REMARK  status: ('A' for Active; 'I' for Inactive)
REMARK    1  A    between atoms: N1_1  and  C1_4 
REMARK    2  A    between atoms: C2_9  and  S1_10 
REMARK    3  A    between atoms: S1_10  and  C3_11 
REMARK    4  A    between atoms: C3_11  and  C4_12 
REMARK    5  A    between atoms: C4_12  and  C5_14 
REMARK    6  A    between atoms: C5_14  and  N6_20 
REMARK    7  A    between atoms: N4_15  and  N5_17 
REMARK    8  A    between atoms: N6_20  and  C6_22 
REMARK    9  A    between atoms: C8_24  and  O2_25 
REMARK   10  A    between atoms: C12_31  and  N7_32 
REMARK   11  A    between atoms: C13_36  and  O3_37 
REMARK   12  A    between atoms: C13_36  and  C14_39 
REMARK   13  A    between atoms: C14_39  and  O4_40 
REMARK   14  A    between atoms: N8_42  and  N9_43 
ROOT
HETATM    1  C5  UNL     1       0.136 -35.781 -12.905  1.00  0.00     0.163 C 
HETATM    2  N4  UNL     1      -0.602 -36.507 -13.645  1.00  0.00    -0.289 N 
ATOM      3  H4  UNL     1      -1.575 -36.646 -13.373  1.00  0.00     0.188 HD
ENDROOT
BRANCH   1   4
HETATM    4  C4  UNL     1       1.510 -35.561 -13.252  1.00  0.00     0.203 C 
HETATM    5  O1  UNL     1       1.858 -35.153 -14.397  1.00  0.00    -0.288 OA
BRANCH   4   6
HETATM    6  C3  UNL     1       2.574 -35.811 -12.252  1.00  0.00     0.169 C 
BRANCH   6   7
HETATM    7  S1  UNL     1       2.774 -37.587 -11.950  1.00  0.00    -0.082 SA
BRANCH   7   8
HETATM    8  C2  UNL     1       2.196 -38.001 -10.295  1.00  0.00     0.198 A 
HETATM    9  N3  UNL     1       1.355 -37.320  -9.517  1.00  0.00    -0.263 N 
HETATM   10  N2  UNL     1       1.206 -37.983  -8.382  1.00  0.00    -0.129 N 
ATOM     11  H3  UNL     1       0.902 -36.438  -9.756  1.00  0.00     0.189 HD
HETATM   12  C1  UNL     1       1.952 -39.102  -8.416  1.00  0.00     0.713 A 
ATOM     13  H2  UNL     1       0.617 -37.692  -7.602  1.00  0.00     0.205 HD
HETATM   14  N8  UNL     1       2.561 -39.091  -9.618  1.00  0.00    -0.068 N 
BRANCH  12  15
HETATM   15  N1  UNL     1       2.081 -40.020  -7.498  1.00  0.00    -0.231 N 
ATOM     16  H12 UNL     1       2.003 -39.879  -6.491  1.00  0.00     0.174 HD
ATOM     17  H11 UNL     1       2.277 -41.014  -7.617  1.00  0.00     0.174 HD
ENDBRANCH  12  15
BRANCH  14  18
HETATM   18  N9  UNL     1       3.445 -40.098 -10.065  1.00  0.00    -0.322 N 
ATOM     19  H92 UNL     1       4.400 -39.961 -10.396  1.00  0.00     0.178 HD
ATOM     20  H91 UNL     1       3.207 -41.089 -10.101  1.00  0.00     0.178 HD
ENDBRANCH  14  18
ENDBRANCH   7   8
ENDBRANCH   6   7
ENDBRANCH   4   6
ENDBRANCH   1   4
BRANCH   1  21
HETATM   21  N6  UNL     1      -0.401 -35.193 -11.743  1.00  0.00    -0.360 N 
ATOM     22  H6  UNL     1       0.257 -34.746 -11.105  1.00  0.00     0.162 HD
BRANCH  21  23
HETATM   23  C6  UNL     1      -1.772 -35.164 -11.375  1.00  0.00     0.159 C 
HETATM   24  C7  UNL     1      -2.396 -33.947 -12.018  1.00  0.00     0.014 A 
HETATM   25  C8  UNL     1      -3.085 -33.879 -13.186  1.00  0.00     0.081 A 
HETATM   26  C10 UNL     1      -2.237 -32.791 -11.320  1.00  0.00    -0.004 A 
HETATM   27  C9  UNL     1      -3.554 -32.646 -13.548  1.00  0.00     0.087 A 
HETATM   28  S2  UNL     1      -3.034 -31.636 -12.281  1.00  0.00    -0.103 SA
HETATM   29  C11 UNL     1      -1.480 -32.788 -10.008  1.00  0.00     0.083 C 
HETATM   30  C12 UNL     1      -2.059 -33.905  -9.203  1.00  0.00     0.227 C 
HETATM   31  C13 UNL     1      -2.074 -35.221  -9.914  1.00  0.00     0.132 C 
BRANCH  25  32
HETATM   32  O2  UNL     1      -3.341 -34.996 -14.038  1.00  0.00    -0.360 OA
ATOM     33  H2  UNL     1      -3.852 -35.757 -13.786  1.00  0.00     0.217 HD
ENDBRANCH  25  32
BRANCH  30  34
HETATM   34  N7  UNL     1      -3.411 -33.484  -8.800  1.00  0.00    -0.072 N 
ATOM     35  H73 UNL     1      -3.608 -33.655  -7.814  1.00  0.00     0.274 HD
ATOM     36  H72 UNL     1      -3.528 -32.471  -8.782  1.00  0.00     0.274 HD
ATOM     37  H71 UNL     1      -4.066 -33.952  -9.427  1.00  0.00     0.274 HD
ENDBRANCH  30  34
BRANCH  31  38
HETATM   38  O3  UNL     1      -1.226 -36.075  -9.253  1.00  0.00    -0.383 OA
ATOM     39  H3  UNL     1      -1.693 -36.624  -8.634  1.00  0.00     0.210 HD
ENDBRANCH  31  38
BRANCH  31  40
HETATM   40  C14 UNL     1      -3.485 -35.793  -9.764  1.00  0.00     0.206 C 
BRANCH  40  41
HETATM   41  O4  UNL     1      -3.620 -36.450  -8.526  1.00  0.00    -0.398 OA
ATOM     42  H4  UNL     1      -3.941 -37.335  -8.653  1.00  0.00     0.209 HD
ENDBRANCH  40  41
ENDBRANCH  31  40
ENDBRANCH  21  23
ENDBRANCH   1  21
BRANCH   2  43
HETATM   43  N5  UNL     1      -0.149 -37.122 -14.809  1.00  0.00    -0.344 N 
ATOM     44  H52 UNL     1       0.390 -37.982 -14.704  1.00  0.00     0.176 HD
ATOM     45  H51 UNL     1      -0.329 -36.755 -15.743  1.00  0.00     0.176 HD
ENDBRANCH   2  43
TORSDOF 14
ENDMDL
MODEL 3
REMARK VINA RESULT: -7.232562687      4.215      8.141
REMARK  14 active torsions:
REMARK  status: ('A' for Active; 'I' for Inactive)
REMARK    1  A    between atoms: N1_1  and  C1_4 
REMARK    2  A    between atoms: C2_9  and  S1_10 
REMARK    3  A    between atoms: S1_10  and  C3_11 
REMARK    4  A    between atoms: C3_11  and  C4_12 
REMARK    5  A    between atoms: C4_12  and  C5_14 
REMARK    6  A    between atoms: C5_14  and  N6_20 
REMARK    7  A    between atoms: N4_15  and  N5_17 
REMARK    8  A    between atoms: N6_20  and  C6_22 
REMARK    9  A    between atoms: C8_24  and  O2_25 
REMARK   10  A    between atoms: C12_31  and  N7_32 
REMARK   11  A    between atoms: C13_36  and  O3_37 
REMARK   12  A    between atoms: C13_36  and  C14_39 
REMARK   13  A    between atoms: C14_39  and  O4_40 
REMARK   14  A    between atoms: N8_42  and  N9_43 
ROOT
HETATM    1  C5  UNL     1       0.092 -35.448 -10.153  1.00  0.00     0.163 C 
HETATM    2  N4  UNL     1       0.930 -35.454  -9.195  1.00  0.00    -0.289 N 
ATOM      3  H4  UNL     1       0.645 -35.056  -8.300  1.00  0.00     0.188 HD
ENDROOT
BRANCH   1   4
HETATM    4  C4  UNL     1       0.452 -35.999 -11.428  1.00  0.00     0.203 C 
HETATM    5  O1  UNL     1       1.013 -37.125 -11.540  1.00  0.00    -0.288 OA
BRANCH   4   6
HETATM    6  C3  UNL     1       0.165 -35.239 -12.668  1.00  0.00     0.169 C 
BRANCH   6   7
HETATM    7  S1  UNL     1      -0.698 -36.276 -13.878  1.00  0.00    -0.082 SA
BRANCH   7   8
HETATM    8  C2  UNL     1       0.339 -36.524 -15.330  1.00  0.00     0.198 A 
HETATM    9  N3  UNL     1       0.053 -36.263 -16.606  1.00  0.00    -0.263 N 
HETATM   10  N2  UNL     1       1.099 -36.597 -17.344  1.00  0.00    -0.129 N 
ATOM     11  H3  UNL     1      -0.823 -35.873 -16.954  1.00  0.00     0.189 HD
HETATM   12  C1  UNL     1       2.073 -37.078 -16.551  1.00  0.00     0.713 A 
ATOM     13  H2  UNL     1       1.158 -36.505 -18.358  1.00  0.00     0.205 HD
HETATM   14  N8  UNL     1       1.575 -37.023 -15.300  1.00  0.00    -0.068 N 
BRANCH  12  15
HETATM   15  N1  UNL     1       3.255 -37.513 -16.889  1.00  0.00    -0.231 N 
ATOM     16  H12 UNL     1       3.716 -37.366 -17.787  1.00  0.00     0.174 HD
ATOM     17  H11 UNL     1       3.914 -38.060 -16.334  1.00  0.00     0.174 HD
ENDBRANCH  12  15
BRANCH  14  18
HETATM   18  N9  UNL     1       2.284 -37.437 -14.150  1.00  0.00    -0.322 N 
ATOM     19  H92 UNL     1       2.868 -36.849 -13.555  1.00  0.00     0.178 HD
ATOM     20  H91 UNL     1       2.280 -38.392 -13.792  1.00  0.00     0.178 HD
ENDBRANCH  14  18
ENDBRANCH   7   8
ENDBRANCH   6   7
ENDBRANCH   4   6
ENDBRANCH   1   4
BRANCH   1  21
HETATM   21  N6  UNL     1      -1.191 -34.900  -9.958  1.00  0.00    -0.360 N 
ATOM     22  H6  UNL     1      -1.942 -35.262 -10.545  1.00  0.00     0.162 HD
BRANCH  21  23
HETATM   23  C6  UNL     1      -1.537 -33.891  -9.022  1.00  0.00     0.159 C 
HETATM   24  C7  UNL     1      -2.349 -34.539  -7.924  1.00  0.00     0.014 A 
HETATM   25  C8  UNL     1      -1.915 -34.994  -6.721  1.00  0.00     0.081 A 
HETATM   26  C10 UNL     1      -3.675 -34.669  -8.198  1.00  0.00    -0.004 A 
HETATM   27  C9  UNL     1      -2.860 -35.542  -5.898  1.00  0.00     0.087 A 
HETATM   28  S2  UNL     1      -4.296 -35.412  -6.801  1.00  0.00    -0.103 SA
HETATM   29  C11 UNL     1      -4.233 -34.184  -9.520  1.00  0.00     0.083 C 
HETATM   30  C12 UNL     1      -3.713 -32.796  -9.695  1.00  0.00     0.227 C 
HETATM   31  C13 UNL     1      -2.227 -32.682  -9.565  1.00  0.00     0.132 C 
BRANCH  25  32
HETATM   32  O2  UNL     1      -0.559 -34.935  -6.277  1.00  0.00    -0.360 OA
ATOM     33  H2  UNL     1      -0.187 -35.501  -5.611  1.00  0.00     0.217 HD
ENDBRANCH  25  32
BRANCH  30  34
HETATM   34  N7  UNL     1      -4.415 -31.950  -8.716  1.00  0.00    -0.072 N 
ATOM     35  H73 UNL     1      -5.022 -31.254  -9.148  1.00  0.00     0.274 HD
ATOM     36  H72 UNL     1      -5.138 -32.450  -8.199  1.00  0.00     0.274 HD
ATOM     37  H71 UNL     1      -3.701 -31.540  -8.113  1.00  0.00     0.274 HD
ENDBRANCH  30  34
BRANCH  31  38
HETATM   38  O3  UNL     1      -1.716 -32.311 -10.784  1.00  0.00    -0.383 OA
ATOM     39  H3  UNL     1      -2.318 -32.510 -11.492  1.00  0.00     0.210 HD
ENDBRANCH  31  38
BRANCH  31  40
HETATM   40  C14 UNL     1      -1.950 -31.529  -8.599  1.00  0.00     0.206 C 
BRANCH  40  41
HETATM   41  O4  UNL     1      -1.087 -30.588  -9.192  1.00  0.00    -0.398 OA
ATOM     42  H4  UNL     1      -0.542 -30.176  -8.532  1.00  0.00     0.209 HD
ENDBRANCH  40  41
ENDBRANCH  31  40
ENDBRANCH  21  23
ENDBRANCH   1  21
BRANCH   2  43
HETATM   43  N5  UNL     1       2.215 -35.978  -9.306  1.00  0.00    -0.344 N 
ATOM     44  H52 UNL     1       2.504 -36.318 -10.223  1.00  0.00     0.176 HD
ATOM     45  H51 UNL     1       2.866 -36.034  -8.523  1.00  0.00     0.176 HD
ENDBRANCH   2  43
TORSDOF 14
ENDMDL
MODEL 4
REMARK VINA RESULT: -7.143795843      3.590      7.245
REMARK  14 active torsions:
REMARK  status: ('A' for Active; 'I' for Inactive)
REMARK    1  A    between atoms: N1_1  and  C1_4 
REMARK    2  A    between atoms: C2_9  and  S1_10 
REMARK    3  A    between atoms: S1_10  and  C3_11 
REMARK    4  A    between atoms: C3_11  and  C4_12 
REMARK    5  A    between atoms: C4_12  and  C5_14 
REMARK    6  A    between atoms: C5_14  and  N6_20 
REMARK    7  A    between atoms: N4_15  and  N5_17 
REMARK    8  A    between atoms: N6_20  and  C6_22 
REMARK    9  A    between atoms: C8_24  and  O2_25 
REMARK   10  A    between atoms: C12_31  and  N7_32 
REMARK   11  A    between atoms: C13_36  and  O3_37 
REMARK   12  A    between atoms: C13_36  and  C14_39 
REMARK   13  A    between atoms: C14_39  and  O4_40 
REMARK   14  A    between atoms: N8_42  and  N9_43 
ROOT
HETATM    1  C5  UNL     1       0.881 -36.978  -9.014  1.00  0.00     0.163 C 
HETATM    2  N4  UNL     1       0.924 -37.789  -8.034  1.00  0.00    -0.289 N 
ATOM      3  H4  UNL     1       0.392 -37.563  -7.194  1.00  0.00     0.188 HD
ENDROOT
BRANCH   1   4
HETATM    4  C4  UNL     1       1.613 -37.258 -10.214  1.00  0.00     0.203 C 
HETATM    5  O1  UNL     1       1.801 -38.437 -10.629  1.00  0.00    -0.288 OA
BRANCH   4   6
HETATM    6  C3  UNL     1       2.178 -36.144 -11.012  1.00  0.00     0.169 C 
BRANCH   6   7
HETATM    7  S1  UNL     1       2.740 -36.727 -12.633  1.00  0.00    -0.082 SA
BRANCH   7   8
HETATM    8  C2  UNL     1       1.360 -36.754 -13.792  1.00  0.00     0.198 A 
HETATM    9  N3  UNL     1       0.066 -36.551 -13.543  1.00  0.00    -0.263 N 
HETATM   10  N2  UNL     1      -0.599 -36.663 -14.681  1.00  0.00    -0.129 N 
ATOM     11  H3  UNL     1      -0.341 -36.344 -12.631  1.00  0.00     0.189 HD
HETATM   12  C1  UNL     1       0.260 -36.940 -15.678  1.00  0.00     0.713 A 
ATOM     13  H2  UNL     1      -1.608 -36.556 -14.786  1.00  0.00     0.205 HD
HETATM   14  N8  UNL     1       1.475 -36.992 -15.099  1.00  0.00    -0.068 N 
BRANCH  12  15
HETATM   15  N1  UNL     1       0.003 -37.125 -16.943  1.00  0.00    -0.231 N 
ATOM     16  H12 UNL     1      -0.923 -37.172 -17.369  1.00  0.00     0.174 HD
ATOM     17  H11 UNL     1       0.660 -37.252 -17.713  1.00  0.00     0.174 HD
ENDBRANCH  12  15
BRANCH  14  18
HETATM   18  N9  UNL     1       2.673 -37.260 -15.799  1.00  0.00    -0.322 N 
ATOM     19  H92 UNL     1       3.180 -38.145 -15.813  1.00  0.00     0.178 HD
ATOM     20  H91 UNL     1       3.161 -36.574 -16.375  1.00  0.00     0.178 HD
ENDBRANCH  14  18
ENDBRANCH   7   8
ENDBRANCH   6   7
ENDBRANCH   4   6
ENDBRANCH   1   4
BRANCH   1  21
HETATM   21  N6  UNL     1       0.109 -35.804  -8.916  1.00  0.00    -0.360 N 
ATOM     22  H6  UNL     1       0.616 -34.921  -8.858  1.00  0.00     0.162 HD
BRANCH  21  23
HETATM   23  C6  UNL     1      -1.309 -35.732  -8.892  1.00  0.00     0.159 C 
HETATM   24  C7  UNL     1      -1.747 -34.850 -10.038  1.00  0.00     0.014 A 
HETATM   25  C8  UNL     1      -2.151 -35.228 -11.277  1.00  0.00     0.081 A 
HETATM   26  C10 UNL     1      -1.726 -33.517  -9.769  1.00  0.00    -0.004 A 
HETATM   27  C9  UNL     1      -2.501 -34.225 -12.139  1.00  0.00     0.087 A 
HETATM   28  S2  UNL     1      -2.261 -32.812 -11.221  1.00  0.00    -0.103 SA
HETATM   29  C11 UNL     1      -1.286 -33.018  -8.408  1.00  0.00     0.083 C 
HETATM   30  C12 UNL     1      -2.054 -33.824  -7.413  1.00  0.00     0.227 C 
HETATM   31  C13 UNL     1      -1.935 -35.303  -7.606  1.00  0.00     0.132 C 
BRANCH  25  32
HETATM   32  O2  UNL     1      -2.231 -36.583 -11.722  1.00  0.00    -0.360 OA
ATOM     33  H2  UNL     1      -2.317 -36.845 -12.631  1.00  0.00     0.217 HD
ENDBRANCH  25  32
BRANCH  30  34
HETATM   34  N7  UNL     1      -3.454 -33.373  -7.488  1.00  0.00    -0.072 N 
ATOM     35  H73 UNL     1      -3.638 -32.767  -8.288  1.00  0.00     0.274 HD
ATOM     36  H72 UNL     1      -4.103 -34.118  -7.738  1.00  0.00     0.274 HD
ATOM     37  H71 UNL     1      -3.671 -32.934  -6.593  1.00  0.00     0.274 HD
ENDBRANCH  30  34
BRANCH  31  38
HETATM   38  O3  UNL     1      -1.276 -35.825  -6.521  1.00  0.00    -0.383 OA
ATOM     39  H3  UNL     1      -1.874 -36.256  -5.921  1.00  0.00     0.210 HD
ENDBRANCH  31  38
BRANCH  31  40
HETATM   40  C14 UNL     1      -3.355 -35.872  -7.580  1.00  0.00     0.206 C 
BRANCH  40  41
HETATM   41  O4  UNL     1      -3.862 -35.866  -6.266  1.00  0.00    -0.398 OA
ATOM     42  H4  UNL     1      -4.760 -36.176  -6.256  1.00  0.00     0.209 HD
ENDBRANCH  40  41
ENDBRANCH  31  40
ENDBRANCH  21  23
ENDBRANCH   1  21
BRANCH   2  43
HETATM   43  N5  UNL     1       1.661 -38.970  -8.052  1.00  0.00    -0.344 N 
ATOM     44  H52 UNL     1       1.169 -39.825  -8.311  1.00  0.00     0.176 HD
ATOM     45  H51 UNL     1       2.653 -39.015  -7.820  1.00  0.00     0.176 HD
ENDBRANCH   2  43
TORSDOF 14
ENDMDL
MODEL 5
REMARK VINA RESULT: -7.141009273      4.979      7.261
REMARK  14 active torsions:
REMARK  status: ('A' for Active; 'I' for Inactive)
REMARK    1  A    between atoms: N1_1  and  C1_4 
REMARK    2  A    between atoms: C2_9  and  S1_10 
REMARK    3  A    between atoms: S1_10  and  C3_11 
REMARK    4  A    between atoms: C3_11  and  C4_12 
REMARK    5  A    between atoms: C4_12  and  C5_14 
REMARK    6  A    between atoms: C5_14  and  N6_20 
REMARK    7  A    between atoms: N4_15  and  N5_17 
REMARK    8  A    between atoms: N6_20  and  C6_22 
REMARK    9  A    between atoms: C8_24  and  O2_25 
REMARK   10  A    between atoms: C12_31  and  N7_32 
REMARK   11  A    between atoms: C13_36  and  O3_37 
REMARK   12  A    between atoms: C13_36  and  C14_39 
REMARK   13  A    between atoms: C14_39  and  O4_40 
REMARK   14  A    between atoms: N8_42  and  N9_43 
ROOT
HETATM    1  C5  UNL     1      -1.611 -34.122  -7.696  1.00  0.00     0.163 C 
HETATM    2  N4  UNL     1      -0.659 -33.298  -7.884  1.00  0.00    -0.289 N 
ATOM      3  H4  UNL     1      -0.809 -32.522  -8.529  1.00  0.00     0.188 HD
ENDROOT
BRANCH   1   4
HETATM    4  C4  UNL     1      -1.442 -35.226  -6.796  1.00  0.00     0.203 C 
HETATM    5  O1  UNL     1      -1.403 -35.073  -5.542  1.00  0.00    -0.288 OA
BRANCH   4   6
HETATM    6  C3  UNL     1      -1.306 -36.601  -7.332  1.00  0.00     0.169 C 
BRANCH   6   7
HETATM    7  S1  UNL     1       0.259 -36.797  -8.226  1.00  0.00    -0.082 SA
BRANCH   7   8
HETATM    8  C2  UNL     1       0.064 -36.266  -9.936  1.00  0.00     0.198 A 
HETATM    9  N3  UNL     1      -1.053 -36.208 -10.663  1.00  0.00    -0.263 N 
HETATM   10  N2  UNL     1      -0.742 -35.762 -11.869  1.00  0.00    -0.129 N 
ATOM     11  H3  UNL     1      -1.987 -36.464 -10.343  1.00  0.00     0.189 HD
HETATM   12  C1  UNL     1       0.581 -35.526 -11.933  1.00  0.00     0.713 A 
ATOM     13  H2  UNL     1      -1.403 -35.618 -12.632  1.00  0.00     0.205 HD
HETATM   14  N8  UNL     1       1.061 -35.849 -10.716  1.00  0.00    -0.068 N 
BRANCH  12  15
HETATM   15  N1  UNL     1       1.279 -35.082 -12.942  1.00  0.00    -0.231 N 
ATOM     16  H12 UNL     1       1.547 -35.616 -13.769  1.00  0.00     0.174 HD
ATOM     17  H11 UNL     1       1.671 -34.151 -13.083  1.00  0.00     0.174 HD
ENDBRANCH  12  15
BRANCH  14  18
HETATM   18  N9  UNL     1       2.423 -35.747 -10.353  1.00  0.00    -0.322 N 
ATOM     19  H92 UNL     1       3.016 -34.923 -10.454  1.00  0.00     0.178 HD
ATOM     20  H91 UNL     1       2.961 -36.510  -9.942  1.00  0.00     0.178 HD
ENDBRANCH  14  18
ENDBRANCH   7   8
ENDBRANCH   6   7
ENDBRANCH   4   6
ENDBRANCH   1   4
BRANCH   1  21
HETATM   21  N6  UNL     1      -2.834 -33.945  -8.373  1.00  0.00    -0.360 N 
ATOM     22  H6  UNL     1      -3.674 -34.284  -7.906  1.00  0.00     0.162 HD
BRANCH  21  23
HETATM   23  C6  UNL     1      -3.007 -33.339  -9.645  1.00  0.00     0.159 C 
HETATM   24  C7  UNL     1      -3.460 -31.915  -9.421  1.00  0.00     0.014 A 
HETATM   25  C8  UNL     1      -2.700 -30.790  -9.395  1.00  0.00     0.081 A 
HETATM   26  C10 UNL     1      -4.798 -31.768  -9.226  1.00  0.00    -0.004 A 
HETATM   27  C9  UNL     1      -3.359 -29.612  -9.174  1.00  0.00     0.087 A 
HETATM   28  S2  UNL     1      -4.984 -30.092  -9.010  1.00  0.00    -0.103 SA
HETATM   29  C11 UNL     1      -5.710 -32.977  -9.240  1.00  0.00     0.083 C 
HETATM   30  C12 UNL     1      -5.359 -33.734 -10.479  1.00  0.00     0.227 C 
HETATM   31  C13 UNL     1      -3.902 -34.048 -10.608  1.00  0.00     0.132 C 
BRANCH  25  32
HETATM   32  O2  UNL     1      -1.284 -30.768  -9.582  1.00  0.00    -0.360 OA
ATOM     33  H2  UNL     1      -0.848 -30.384 -10.333  1.00  0.00     0.217 HD
ENDBRANCH  25  32
BRANCH  30  34
HETATM   34  N7  UNL     1      -5.851 -32.941 -11.618  1.00  0.00    -0.072 N 
ATOM     35  H73 UNL     1      -6.805 -32.603 -11.489  1.00  0.00     0.274 HD
ATOM     36  H72 UNL     1      -5.400 -32.030 -11.697  1.00  0.00     0.274 HD
ATOM     37  H71 UNL     1      -5.739 -33.519 -12.451  1.00  0.00     0.274 HD
ENDBRANCH  30  34
BRANCH  31  38
HETATM   38  O3  UNL     1      -3.749 -35.411 -10.534  1.00  0.00    -0.383 OA
ATOM     39  H3  UNL     1      -4.479 -35.868 -10.934  1.00  0.00     0.210 HD
ENDBRANCH  31  38
BRANCH  31  40
HETATM   40  C14 UNL     1      -3.478 -33.629 -12.016  1.00  0.00     0.206 C 
BRANCH  40  41
HETATM   41  O4  UNL     1      -3.474 -34.741 -12.879  1.00  0.00    -0.398 OA
ATOM     42  H4  UNL     1      -3.379 -34.461 -13.782  1.00  0.00     0.209 HD
ENDBRANCH  40  41
ENDBRANCH  31  40
ENDBRANCH  21  23
ENDBRANCH   1  21
BRANCH   2  43
HETATM   43  N5  UNL     1       0.577 -33.402  -7.252  1.00  0.00    -0.344 N 
ATOM     44  H52 UNL     1       0.930 -32.572  -6.776  1.00  0.00     0.176 HD
ATOM     45  H51 UNL     1       1.133 -34.257  -7.247  1.00  0.00     0.176 HD
ENDBRANCH   2  43
TORSDOF 14
ENDMDL
