MODEL 1
REMARK VINA RESULT: -7.712438718      0.000      0.000
REMARK  15 active torsions:
REMARK  status: ('A' for Active; 'I' for Inactive)
REMARK       I    between atoms: C2_2  and  N1_4 
REMARK    1  A    between atoms: N1_4  and  C3_6 
REMARK    2  A    between atoms: C4_8  and  O3_9 
REMARK    3  A    between atoms: C4_8  and  C11_23 
REMARK    4  A    between atoms: O3_9  and  C5_10 
REMARK    5  A    between atoms: C5_10  and  C7_12 
REMARK    6  A    between atoms: C9_14  and  N2_15 
REMARK    7  A    between atoms: C10_19  and  O4_20 
REMARK    8  A    between atoms: C11_23  and  O6_25 
REMARK    9  A    between atoms: C13_28  and  O8_29 
REMARK   10  A    between atoms: C13_28  and  O9_31 
REMARK   11  A    between atoms: O9_31  and  C14_32 
REMARK   12  A    between atoms: C14_32  and  C15_34 
REMARK   13  A    between atoms: C15_34  and  O11_35 
REMARK   14  A    between atoms: C15_34  and  O12_37 
REMARK   15  A    between atoms: C16_39  and  N3_40 
ROOT
HETATM    1  C3  UNL     1      -1.397 -33.724  -8.689  1.00  0.00     0.268 C 
HETATM    2  O2  UNL     1      -1.180 -34.327  -9.886  1.00  0.00    -0.303 OA
HETATM    3  C4  UNL     1      -1.441 -35.668  -9.976  1.00  0.00     0.316 C 
HETATM    4  O7  UNL     1      -2.030 -36.253  -8.928  1.00  0.00    -0.266 OA
HETATM    5  C13 UNL     1      -2.857 -35.580  -8.086  1.00  0.00     0.325 C 
HETATM    6  C16 UNL     1      -2.612 -34.129  -7.930  1.00  0.00     0.324 C 
ENDROOT
BRANCH   3   7
HETATM    7  O3  UNL     1      -0.298 -36.413 -10.277  1.00  0.00    -0.323 OA
BRANCH   7   8
HETATM    8  C5  UNL     1       0.855 -35.758 -10.501  1.00  0.00     0.152 C 
HETATM    9  C6  UNL     1       0.976 -35.322 -11.972  1.00  0.00     0.042 C 
BRANCH   8  10
HETATM   10  C7  UNL     1       1.985 -36.772 -10.272  1.00  0.00     0.155 C 
HETATM   11  C8  UNL     1       1.627 -37.759  -9.189  1.00  0.00     0.072 C 
HETATM   12  C9  UNL     1       2.614 -38.868  -9.496  1.00  0.00     0.240 C 
HETATM   13  C10 UNL     1       2.822 -38.717 -10.968  1.00  0.00     0.287 C 
HETATM   14  O5  UNL     1       2.108 -37.601 -11.380  1.00  0.00    -0.351 OA
BRANCH  12  15
HETATM   15  N2  UNL     1       2.126 -40.167  -9.106  1.00  0.00    -0.070 N 
ATOM     16  H23 UNL     1       1.595 -40.114  -8.238  1.00  0.00     0.274 HD
ATOM     17  H22 UNL     1       1.386 -40.484  -9.733  1.00  0.00     0.274 HD
ATOM     18  H21 UNL     1       2.871 -40.861  -9.039  1.00  0.00     0.274 HD
ENDBRANCH  12  15
BRANCH  13  19
HETATM   19  O4  UNL     1       2.430 -39.800 -11.719  1.00  0.00    -0.369 OA
ATOM     20  H4  UNL     1       3.136 -40.381 -11.979  1.00  0.00     0.212 HD
ENDBRANCH  13  19
ENDBRANCH   8  10
ENDBRANCH   7   8
ENDBRANCH   3   7
BRANCH   3  21
HETATM   21  C11 UNL     1      -2.311 -35.887 -11.227  1.00  0.00     0.207 C 
HETATM   22  C12 UNL     1      -3.019 -34.608 -11.614  1.00  0.00     0.048 C 
BRANCH  21  23
HETATM   23  O6  UNL     1      -3.240 -36.876 -11.098  1.00  0.00    -0.388 OA
ATOM     24  H6  UNL     1      -3.522 -37.256 -11.921  1.00  0.00     0.210 HD
ENDBRANCH  21  23
ENDBRANCH   3  21
BRANCH   1  25
HETATM   25  N1  UNL     1      -1.485 -32.270  -8.884  1.00  0.00    -0.333 N 
HETATM   26  C2  UNL     1      -0.671 -31.339  -8.202  1.00  0.00     0.215 C 
HETATM   27  C1  UNL     1      -0.763 -29.878  -8.402  1.00  0.00     0.117 C 
HETATM   28  O1  UNL     1       0.174 -31.776  -7.385  1.00  0.00    -0.274 OA
ATOM     29  H1  UNL     1      -2.173 -31.914  -9.549  1.00  0.00     0.165 HD
ENDBRANCH   1  25
BRANCH   5  30
HETATM   30  O8  UNL     1      -4.189 -35.788  -8.477  1.00  0.00    -0.341 OA
ATOM     31  H8  UNL     1      -4.603 -34.950  -8.643  1.00  0.00     0.215 HD
ENDBRANCH   5  30
BRANCH   5  32
HETATM   32  O9  UNL     1      -2.737 -36.216  -6.830  1.00  0.00    -0.252 OA
BRANCH  32  33
HETATM   33  C14 UNL     1      -2.991 -35.598  -5.635  1.00  0.00     0.318 C 
HETATM   34  O10 UNL     1      -2.038 -35.139  -4.955  1.00  0.00    -0.259 OA
BRANCH  33  35
HETATM   35  C15 UNL     1      -4.397 -35.453  -5.112  1.00  0.00     0.356 C 
BRANCH  35  36
HETATM   36  O11 UNL     1      -5.119 -34.583  -5.891  1.00  0.00    -0.363 OA
ATOM     37  H11 UNL     1      -5.236 -34.933  -6.766  1.00  0.00     0.213 HD
ENDBRANCH  35  36
BRANCH  35  38
HETATM   38  O12 UNL     1      -4.399 -35.130  -3.758  1.00  0.00    -0.363 OA
ATOM     39  H12 UNL     1      -3.662 -35.527  -3.310  1.00  0.00     0.213 HD
ENDBRANCH  35  38
ENDBRANCH  33  35
ENDBRANCH  32  33
ENDBRANCH   5  32
BRANCH   6  40
HETATM   40  N3  UNL     1      -3.771 -33.286  -8.243  1.00  0.00    -0.063 N 
ATOM     41  H33 UNL     1      -3.869 -32.529  -7.567  1.00  0.00     0.275 HD
ATOM     42  H32 UNL     1      -3.608 -32.734  -9.084  1.00  0.00     0.275 HD
ATOM     43  H31 UNL     1      -4.633 -33.825  -8.319  1.00  0.00     0.275 HD
ENDBRANCH   6  40
TORSDOF 15
ENDMDL
MODEL 2
REMARK VINA RESULT: -7.626127898      2.494      4.848
REMARK  15 active torsions:
REMARK  status: ('A' for Active; 'I' for Inactive)
REMARK       I    between atoms: C2_2  and  N1_4 
REMARK    1  A    between atoms: N1_4  and  C3_6 
REMARK    2  A    between atoms: C4_8  and  O3_9 
REMARK    3  A    between atoms: C4_8  and  C11_23 
REMARK    4  A    between atoms: O3_9  and  C5_10 
REMARK    5  A    between atoms: C5_10  and  C7_12 
REMARK    6  A    between atoms: C9_14  and  N2_15 
REMARK    7  A    between atoms: C10_19  and  O4_20 
REMARK    8  A    between atoms: C11_23  and  O6_25 
REMARK    9  A    between atoms: C13_28  and  O8_29 
REMARK   10  A    between atoms: C13_28  and  O9_31 
REMARK   11  A    between atoms: O9_31  and  C14_32 
REMARK   12  A    between atoms: C14_32  and  C15_34 
REMARK   13  A    between atoms: C15_34  and  O11_35 
REMARK   14  A    between atoms: C15_34  and  O12_37 
REMARK   15  A    between atoms: C16_39  and  N3_40 
ROOT
HETATM    1  C3  UNL     1      -1.604 -33.833 -11.599  1.00  0.00     0.268 C 
HETATM    2  O2  UNL     1      -1.416 -34.831 -10.699  1.00  0.00    -0.303 OA
HETATM    3  C4  UNL     1      -1.026 -34.479  -9.435  1.00  0.00     0.316 C 
HETATM    4  O7  UNL     1      -1.005 -33.175  -9.137  1.00  0.00    -0.266 OA
HETATM    5  C13 UNL     1      -1.827 -32.276  -9.738  1.00  0.00     0.325 C 
HETATM    6  C16 UNL     1      -2.267 -32.591 -11.115  1.00  0.00     0.324 C 
ENDROOT
BRANCH   3   7
HETATM    7  O3  UNL     1       0.226 -35.000  -9.100  1.00  0.00    -0.323 OA
BRANCH   7   8
HETATM    8  C5  UNL     1       0.509 -36.267  -9.451  1.00  0.00     0.152 C 
HETATM    9  C6  UNL     1       0.871 -37.123  -8.224  1.00  0.00     0.042 C 
BRANCH   8  10
HETATM   10  C7  UNL     1       1.782 -36.209 -10.308  1.00  0.00     0.155 C 
HETATM   11  C8  UNL     1       1.935 -37.452 -11.150  1.00  0.00     0.072 C 
HETATM   12  C9  UNL     1       2.914 -36.953 -12.194  1.00  0.00     0.240 C 
HETATM   13  C10 UNL     1       2.611 -35.490 -12.248  1.00  0.00     0.287 C 
HETATM   14  O5  UNL     1       1.654 -35.224 -11.280  1.00  0.00    -0.351 OA
BRANCH  12  15
HETATM   15  N2  UNL     1       2.765 -37.626 -13.460  1.00  0.00    -0.070 N 
ATOM     16  H23 UNL     1       2.665 -38.632 -13.330  1.00  0.00     0.274 HD
ATOM     17  H22 UNL     1       1.857 -37.423 -13.878  1.00  0.00     0.274 HD
ATOM     18  H21 UNL     1       3.522 -37.413 -14.109  1.00  0.00     0.274 HD
ENDBRANCH  12  15
BRANCH  13  19
HETATM   19  O4  UNL     1       2.152 -35.042 -13.464  1.00  0.00    -0.369 OA
ATOM     20  H4  UNL     1       2.043 -34.100 -13.526  1.00  0.00     0.212 HD
ENDBRANCH  13  19
ENDBRANCH   8  10
ENDBRANCH   7   8
ENDBRANCH   3   7
BRANCH   3  21
HETATM   21  C11 UNL     1      -1.957 -35.203  -8.444  1.00  0.00     0.207 C 
HETATM   22  C12 UNL     1      -3.203 -35.694  -9.146  1.00  0.00     0.048 C 
BRANCH  21  23
HETATM   23  O6  UNL     1      -2.329 -34.450  -7.372  1.00  0.00    -0.388 OA
ATOM     24  H6  UNL     1      -2.300 -34.911  -6.542  1.00  0.00     0.210 HD
ENDBRANCH  21  23
ENDBRANCH   3  21
BRANCH   1  25
HETATM   25  N1  UNL     1      -2.411 -34.334 -12.721  1.00  0.00    -0.333 N 
HETATM   26  C2  UNL     1      -1.935 -35.263 -13.673  1.00  0.00     0.215 C 
HETATM   27  C1  UNL     1      -2.751 -35.763 -14.799  1.00  0.00     0.117 C 
HETATM   28  O1  UNL     1      -0.760 -35.684 -13.556  1.00  0.00    -0.274 OA
ATOM     29  H1  UNL     1      -3.367 -33.991 -12.817  1.00  0.00     0.165 HD
ENDBRANCH   1  25
BRANCH   5  30
HETATM   30  O8  UNL     1      -2.952 -32.060  -8.927  1.00  0.00    -0.341 OA
ATOM     31  H8  UNL     1      -3.701 -32.510  -9.301  1.00  0.00     0.215 HD
ENDBRANCH   5  30
BRANCH   5  32
HETATM   32  O9  UNL     1      -1.130 -31.047  -9.735  1.00  0.00    -0.252 OA
BRANCH  32  33
HETATM   33  C14 UNL     1      -1.254 -30.103  -8.751  1.00  0.00     0.318 C 
HETATM   34  O10 UNL     1      -2.314 -29.432  -8.659  1.00  0.00    -0.259 OA
BRANCH  33  35
HETATM   35  C15 UNL     1      -0.141 -29.847  -7.767  1.00  0.00     0.356 C 
BRANCH  35  36
HETATM   36  O11 UNL     1       0.706 -28.871  -8.232  1.00  0.00    -0.363 OA
ATOM     37  H11 UNL     1       1.309 -28.597  -7.552  1.00  0.00     0.213 HD
ENDBRANCH  35  36
BRANCH  35  38
HETATM   38  O12 UNL     1       0.503 -31.030  -7.418  1.00  0.00    -0.363 OA
ATOM     39  H12 UNL     1      -0.104 -31.651  -7.034  1.00  0.00     0.213 HD
ENDBRANCH  35  38
ENDBRANCH  33  35
ENDBRANCH  32  33
ENDBRANCH   5  32
BRANCH   6  40
HETATM   40  N3  UNL     1      -3.723 -32.634 -11.286  1.00  0.00    -0.063 N 
ATOM     41  H33 UNL     1      -4.136 -31.710 -11.163  1.00  0.00     0.275 HD
ATOM     42  H32 UNL     1      -3.974 -32.795 -12.261  1.00  0.00     0.275 HD
ATOM     43  H31 UNL     1      -4.165 -33.320 -10.674  1.00  0.00     0.275 HD
ENDBRANCH   6  40
TORSDOF 15
ENDMDL
MODEL 3
REMARK VINA RESULT: -7.584570979      2.437      7.299
REMARK  15 active torsions:
REMARK  status: ('A' for Active; 'I' for Inactive)
REMARK       I    between atoms: C2_2  and  N1_4 
REMARK    1  A    between atoms: N1_4  and  C3_6 
REMARK    2  A    between atoms: C4_8  and  O3_9 
REMARK    3  A    between atoms: C4_8  and  C11_23 
REMARK    4  A    between atoms: O3_9  and  C5_10 
REMARK    5  A    between atoms: C5_10  and  C7_12 
REMARK    6  A    between atoms: C9_14  and  N2_15 
REMARK    7  A    between atoms: C10_19  and  O4_20 
REMARK    8  A    between atoms: C11_23  and  O6_25 
REMARK    9  A    between atoms: C13_28  and  O8_29 
REMARK   10  A    between atoms: C13_28  and  O9_31 
REMARK   11  A    between atoms: O9_31  and  C14_32 
REMARK   12  A    between atoms: C14_32  and  C15_34 
REMARK   13  A    between atoms: C15_34  and  O11_35 
REMARK   14  A    between atoms: C15_34  and  O12_37 
REMARK   15  A    between atoms: C16_39  and  N3_40 
ROOT
HETATM    1  C3  UNL     1      -1.269 -35.915 -10.562  1.00  0.00     0.268 C 
HETATM    2  O2  UNL     1      -1.862 -35.050  -9.701  1.00  0.00    -0.303 OA
HETATM    3  C4  UNL     1      -1.563 -35.174  -8.371  1.00  0.00     0.316 C 
HETATM    4  O7  UNL     1      -0.597 -36.036  -8.034  1.00  0.00    -0.266 OA
HETATM    5  C13 UNL     1       0.431 -36.343  -8.868  1.00  0.00     0.325 C 
HETATM    6  C16 UNL     1       0.163 -36.247 -10.320  1.00  0.00     0.324 C 
ENDROOT
BRANCH   3   7
HETATM    7  O3  UNL     1      -2.685 -35.488  -7.601  1.00  0.00    -0.323 OA
BRANCH   7   8
HETATM    8  C5  UNL     1      -2.975 -34.711  -6.543  1.00  0.00     0.152 C 
HETATM    9  C6  UNL     1      -2.906 -35.506  -5.226  1.00  0.00     0.042 C 
BRANCH   8  10
HETATM   10  C7  UNL     1      -4.444 -34.291  -6.699  1.00  0.00     0.155 C 
HETATM   11  C8  UNL     1      -4.958 -33.615  -5.451  1.00  0.00     0.072 C 
HETATM   12  C9  UNL     1      -6.172 -32.900  -6.011  1.00  0.00     0.240 C 
HETATM   13  C10 UNL     1      -5.780 -32.666  -7.434  1.00  0.00     0.287 C 
HETATM   14  O5  UNL     1      -4.547 -33.270  -7.635  1.00  0.00    -0.351 OA
BRANCH  12  15
HETATM   15  N2  UNL     1      -6.486 -31.693  -5.288  1.00  0.00    -0.070 N 
ATOM     16  H23 UNL     1      -6.977 -31.904  -4.420  1.00  0.00     0.274 HD
ATOM     17  H22 UNL     1      -5.643 -31.267  -4.901  1.00  0.00     0.274 HD
ATOM     18  H21 UNL     1      -7.009 -31.023  -5.852  1.00  0.00     0.274 HD
ENDBRANCH  12  15
BRANCH  13  19
HETATM   19  O4  UNL     1      -5.693 -31.342  -7.797  1.00  0.00    -0.369 OA
ATOM     20  H4  UNL     1      -6.039 -31.142  -8.659  1.00  0.00     0.212 HD
ENDBRANCH  13  19
ENDBRANCH   8  10
ENDBRANCH   7   8
ENDBRANCH   3   7
BRANCH   3  21
HETATM   21  C11 UNL     1      -1.189 -33.775  -7.848  1.00  0.00     0.207 C 
HETATM   22  C12 UNL     1      -1.259 -32.754  -8.960  1.00  0.00     0.048 C 
BRANCH  21  23
HETATM   23  O6  UNL     1       0.043 -33.703  -7.268  1.00  0.00    -0.388 OA
ATOM     24  H6  UNL     1       0.129 -34.214  -6.472  1.00  0.00     0.210 HD
ENDBRANCH  21  23
ENDBRANCH   3  21
BRANCH   1  25
HETATM   25  N1  UNL     1      -1.353 -35.380 -11.928  1.00  0.00    -0.333 N 
HETATM   26  C2  UNL     1      -1.973 -36.063 -12.998  1.00  0.00     0.215 C 
HETATM   27  C1  UNL     1      -2.056 -35.520 -14.370  1.00  0.00     0.117 C 
HETATM   28  O1  UNL     1      -2.479 -37.187 -12.771  1.00  0.00    -0.274 OA
ATOM     29  H1  UNL     1      -0.941 -34.465 -12.113  1.00  0.00     0.165 HD
ENDBRANCH   1  25
BRANCH   5  30
HETATM   30  O8  UNL     1       1.543 -35.550  -8.546  1.00  0.00    -0.341 OA
ATOM     31  H8  UNL     1       1.402 -34.666  -8.864  1.00  0.00     0.215 HD
ENDBRANCH   5  30
BRANCH   5  32
HETATM   32  O9  UNL     1       0.814 -37.664  -8.545  1.00  0.00    -0.252 OA
BRANCH  32  33
HETATM   33  C14 UNL     1       1.865 -38.318  -9.132  1.00  0.00     0.318 C 
HETATM   34  O10 UNL     1       2.610 -37.704  -9.938  1.00  0.00    -0.259 OA
BRANCH  33  35
HETATM   35  C15 UNL     1       2.151 -39.767  -8.831  1.00  0.00     0.356 C 
BRANCH  35  36
HETATM   36  O11 UNL     1       2.197 -39.983  -7.476  1.00  0.00    -0.363 OA
ATOM     37  H11 UNL     1       1.321 -40.067  -7.119  1.00  0.00     0.213 HD
ENDBRANCH  35  36
BRANCH  35  38
HETATM   38  O12 UNL     1       3.284 -40.206  -9.509  1.00  0.00    -0.363 OA
ATOM     39  H12 UNL     1       3.060 -40.850 -10.170  1.00  0.00     0.213 HD
ENDBRANCH  35  38
ENDBRANCH  33  35
ENDBRANCH  32  33
ENDBRANCH   5  32
BRANCH   6  40
HETATM   40  N3  UNL     1       1.072 -35.351 -11.042  1.00  0.00    -0.063 N 
ATOM     41  H33 UNL     1       2.007 -35.752 -11.112  1.00  0.00     0.275 HD
ATOM     42  H32 UNL     1       0.838 -35.310 -12.033  1.00  0.00     0.275 HD
ATOM     43  H31 UNL     1       1.102 -34.417 -10.632  1.00  0.00     0.275 HD
ENDBRANCH   6  40
TORSDOF 15
ENDMDL
MODEL 4
REMARK VINA RESULT: -7.517160750      1.038      1.564
REMARK  15 active torsions:
REMARK  status: ('A' for Active; 'I' for Inactive)
REMARK       I    between atoms: C2_2  and  N1_4 
REMARK    1  A    between atoms: N1_4  and  C3_6 
REMARK    2  A    between atoms: C4_8  and  O3_9 
REMARK    3  A    between atoms: C4_8  and  C11_23 
REMARK    4  A    between atoms: O3_9  and  C5_10 
REMARK    5  A    between atoms: C5_10  and  C7_12 
REMARK    6  A    between atoms: C9_14  and  N2_15 
REMARK    7  A    between atoms: C10_19  and  O4_20 
REMARK    8  A    between atoms: C11_23  and  O6_25 
REMARK    9  A    between atoms: C13_28  and  O8_29 
REMARK   10  A    between atoms: C13_28  and  O9_31 
REMARK   11  A    between atoms: O9_31  and  C14_32 
REMARK   12  A    between atoms: C14_32  and  C15_34 
REMARK   13  A    between atoms: C15_34  and  O11_35 
REMARK   14  A    between atoms: C15_34  and  O12_37 
REMARK   15  A    between atoms: C16_39  and  N3_40 
ROOT
HETATM    1  C3  UNL     1      -1.650 -33.855  -9.235  1.00  0.00     0.268 C 
HETATM    2  O2  UNL     1      -1.074 -34.331 -10.368  1.00  0.00    -0.303 OA
HETATM    3  C4  UNL     1      -1.313 -35.637 -10.699  1.00  0.00     0.316 C 
HETATM    4  O7  UNL     1      -2.214 -36.304  -9.968  1.00  0.00    -0.266 OA
HETATM    5  C13 UNL     1      -3.255 -35.685  -9.351  1.00  0.00     0.325 C 
HETATM    6  C16 UNL     1      -3.050 -34.276  -8.950  1.00  0.00     0.324 C 
ENDROOT
BRANCH   3   7
HETATM    7  O3  UNL     1      -0.146 -36.404 -10.716  1.00  0.00    -0.323 OA
BRANCH   7   8
HETATM    8  C5  UNL     1       1.039 -35.769 -10.758  1.00  0.00     0.152 C 
HETATM    9  C6  UNL     1       1.357 -35.267 -12.178  1.00  0.00     0.042 C 
BRANCH   8  10
HETATM   10  C7  UNL     1       2.110 -36.822 -10.438  1.00  0.00     0.155 C 
HETATM   11  C8  UNL     1       1.665 -37.739  -9.327  1.00  0.00     0.072 C 
HETATM   12  C9  UNL     1       2.610 -38.905  -9.543  1.00  0.00     0.240 C 
HETATM   13  C10 UNL     1       2.880 -38.833 -11.011  1.00  0.00     0.287 C 
HETATM   14  O5  UNL     1       2.236 -37.707 -11.502  1.00  0.00    -0.351 OA
BRANCH  12  15
HETATM   15  N2  UNL     1       2.046 -40.161  -9.115  1.00  0.00    -0.070 N 
ATOM     16  H23 UNL     1       1.859 -40.157  -8.113  1.00  0.00     0.274 HD
ATOM     17  H22 UNL     1       1.093 -40.272  -9.460  1.00  0.00     0.274 HD
ATOM     18  H21 UNL     1       2.625 -40.959  -9.377  1.00  0.00     0.274 HD
ENDBRANCH  12  15
BRANCH  13  19
HETATM   19  O4  UNL     1       2.467 -39.931 -11.727  1.00  0.00    -0.369 OA
ATOM     20  H4  UNL     1       3.170 -40.461 -12.085  1.00  0.00     0.212 HD
ENDBRANCH  13  19
ENDBRANCH   8  10
ENDBRANCH   7   8
ENDBRANCH   3   7
BRANCH   3  21
HETATM   21  C11 UNL     1      -1.746 -35.669 -12.177  1.00  0.00     0.207 C 
HETATM   22  C12 UNL     1      -2.398 -34.363 -12.569  1.00  0.00     0.048 C 
BRANCH  21  23
HETATM   23  O6  UNL     1      -2.591 -36.690 -12.492  1.00  0.00    -0.388 OA
ATOM     24  H6  UNL     1      -2.887 -36.687 -13.394  1.00  0.00     0.210 HD
ENDBRANCH  21  23
ENDBRANCH   3  21
BRANCH   1  25
HETATM   25  N1  UNL     1      -1.650 -32.385  -9.268  1.00  0.00    -0.333 N 
HETATM   26  C2  UNL     1      -0.876 -31.584  -8.399  1.00  0.00     0.215 C 
HETATM   27  C1  UNL     1      -0.879 -30.107  -8.437  1.00  0.00     0.117 C 
HETATM   28  O1  UNL     1      -0.151 -32.156  -7.552  1.00  0.00    -0.274 OA
ATOM     29  H1  UNL     1      -2.241 -31.919  -9.957  1.00  0.00     0.165 HD
ENDBRANCH   1  25
BRANCH   5  30
HETATM   30  O8  UNL     1      -4.397 -35.777 -10.162  1.00  0.00    -0.341 OA
ATOM     31  H8  UNL     1      -4.717 -34.904 -10.355  1.00  0.00     0.215 HD
ENDBRANCH   5  30
BRANCH   5  32
HETATM   32  O9  UNL     1      -3.549 -36.463  -8.209  1.00  0.00    -0.252 OA
BRANCH  32  33
HETATM   33  C14 UNL     1      -3.277 -36.067  -6.927  1.00  0.00     0.318 C 
HETATM   34  O10 UNL     1      -4.167 -35.490  -6.250  1.00  0.00    -0.259 OA
BRANCH  33  35
HETATM   35  C15 UNL     1      -1.927 -36.309  -6.303  1.00  0.00     0.356 C 
BRANCH  35  36
HETATM   36  O11 UNL     1      -1.360 -35.126  -5.897  1.00  0.00    -0.363 OA
ATOM     37  H11 UNL     1      -0.456 -35.258  -5.636  1.00  0.00     0.213 HD
ENDBRANCH  35  36
BRANCH  35  38
HETATM   38  O12 UNL     1      -1.113 -37.063  -7.142  1.00  0.00    -0.363 OA
ATOM     39  H12 UNL     1      -0.253 -36.669  -7.232  1.00  0.00     0.213 HD
ENDBRANCH  35  38
ENDBRANCH  33  35
ENDBRANCH  32  33
ENDBRANCH   5  32
BRANCH   6  40
HETATM   40  N3  UNL     1      -4.036 -33.343  -9.505  1.00  0.00    -0.063 N 
ATOM     41  H33 UNL     1      -4.219 -32.574  -8.860  1.00  0.00     0.275 HD
ATOM     42  H32 UNL     1      -3.645 -32.813 -10.283  1.00  0.00     0.275 HD
ATOM     43  H31 UNL     1      -4.902 -33.809  -9.775  1.00  0.00     0.275 HD
ENDBRANCH   6  40
TORSDOF 15
ENDMDL
MODEL 5
REMARK VINA RESULT: -7.464528194      2.241      6.004
REMARK  15 active torsions:
REMARK  status: ('A' for Active; 'I' for Inactive)
REMARK       I    between atoms: C2_2  and  N1_4 
REMARK    1  A    between atoms: N1_4  and  C3_6 
REMARK    2  A    between atoms: C4_8  and  O3_9 
REMARK    3  A    between atoms: C4_8  and  C11_23 
REMARK    4  A    between atoms: O3_9  and  C5_10 
REMARK    5  A    between atoms: C5_10  and  C7_12 
REMARK    6  A    between atoms: C9_14  and  N2_15 
REMARK    7  A    between atoms: C10_19  and  O4_20 
REMARK    8  A    between atoms: C11_23  and  O6_25 
REMARK    9  A    between atoms: C13_28  and  O8_29 
REMARK   10  A    between atoms: C13_28  and  O9_31 
REMARK   11  A    between atoms: O9_31  and  C14_32 
REMARK   12  A    between atoms: C14_32  and  C15_34 
REMARK   13  A    between atoms: C15_34  and  O11_35 
REMARK   14  A    between atoms: C15_34  and  O12_37 
REMARK   15  A    between atoms: C16_39  and  N3_40 
ROOT
HETATM    1  C3  UNL     1      -0.468 -35.722  -9.297  1.00  0.00     0.268 C 
HETATM    2  O2  UNL     1      -0.388 -34.369  -9.247  1.00  0.00    -0.303 OA
HETATM    3  C4  UNL     1      -1.335 -33.704  -8.516  1.00  0.00     0.316 C 
HETATM    4  O7  UNL     1      -2.177 -34.441  -7.784  1.00  0.00    -0.266 OA
HETATM    5  C13 UNL     1      -1.836 -35.656  -7.281  1.00  0.00     0.325 C 
HETATM    6  C16 UNL     1      -0.830 -36.432  -8.039  1.00  0.00     0.324 C 
ENDROOT
BRANCH   3   7
HETATM    7  O3  UNL     1      -2.110 -32.849  -9.303  1.00  0.00    -0.323 OA
BRANCH   7   8
HETATM    8  C5  UNL     1      -2.803 -33.372 -10.329  1.00  0.00     0.152 C 
HETATM    9  C6  UNL     1      -2.284 -32.850 -11.681  1.00  0.00     0.042 C 
BRANCH   8  10
HETATM   10  C7  UNL     1      -4.239 -32.842 -10.202  1.00  0.00     0.155 C 
HETATM   11  C8  UNL     1      -5.250 -33.900 -10.573  1.00  0.00     0.072 C 
HETATM   12  C9  UNL     1      -6.492 -33.327  -9.920  1.00  0.00     0.240 C 
HETATM   13  C10 UNL     1      -5.926 -32.549  -8.776  1.00  0.00     0.287 C 
HETATM   14  O5  UNL     1      -4.544 -32.617  -8.866  1.00  0.00    -0.351 OA
BRANCH  12  15
HETATM   15  N2  UNL     1      -7.429 -34.348  -9.522  1.00  0.00    -0.070 N 
ATOM     16  H23 UNL     1      -7.604 -35.002 -10.285  1.00  0.00     0.274 HD
ATOM     17  H22 UNL     1      -7.010 -34.988  -8.848  1.00  0.00     0.274 HD
ATOM     18  H21 UNL     1      -8.303 -33.960  -9.164  1.00  0.00     0.274 HD
ENDBRANCH  12  15
BRANCH  13  19
HETATM   19  O4  UNL     1      -6.315 -32.987  -7.533  1.00  0.00    -0.369 OA
ATOM     20  H4  UNL     1      -6.900 -32.399  -7.068  1.00  0.00     0.212 HD
ENDBRANCH  13  19
ENDBRANCH   8  10
ENDBRANCH   7   8
ENDBRANCH   3   7
BRANCH   3  21
HETATM   21  C11 UNL     1      -0.598 -32.718  -7.591  1.00  0.00     0.207 C 
HETATM   22  C12 UNL     1      -0.567 -31.336  -8.202  1.00  0.00     0.048 C 
BRANCH  21  23
HETATM   23  O6  UNL     1       0.677 -33.086  -7.281  1.00  0.00    -0.388 OA
ATOM     24  H6  UNL     1       1.337 -32.742  -7.871  1.00  0.00     0.210 HD
ENDBRANCH  21  23
ENDBRANCH   3  21
BRANCH   1  25
HETATM   25  N1  UNL     1       0.823 -36.272  -9.736  1.00  0.00    -0.333 N 
HETATM   26  C2  UNL     1       1.125 -36.579 -11.081  1.00  0.00     0.215 C 
HETATM   27  C1  UNL     1       2.424 -37.132 -11.517  1.00  0.00     0.117 C 
HETATM   28  O1  UNL     1       0.244 -36.373 -11.949  1.00  0.00    -0.274 OA
ATOM     29  H1  UNL     1       1.540 -36.441  -9.030  1.00  0.00     0.165 HD
ENDBRANCH   1  25
BRANCH   5  30
HETATM   30  O8  UNL     1      -1.405 -35.506  -5.954  1.00  0.00    -0.341 OA
ATOM     31  H8  UNL     1      -1.251 -36.363  -5.574  1.00  0.00     0.215 HD
ENDBRANCH   5  30
BRANCH   5  32
HETATM   32  O9  UNL     1      -3.037 -36.395  -7.197  1.00  0.00    -0.252 OA
BRANCH  32  33
HETATM   33  C14 UNL     1      -4.267 -35.829  -6.990  1.00  0.00     0.318 C 
HETATM   34  O10 UNL     1      -5.158 -35.932  -7.871  1.00  0.00    -0.259 OA
BRANCH  33  35
HETATM   35  C15 UNL     1      -4.579 -35.078  -5.720  1.00  0.00     0.356 C 
BRANCH  35  36
HETATM   36  O11 UNL     1      -4.210 -33.760  -5.831  1.00  0.00    -0.363 OA
ATOM     37  H11 UNL     1      -3.272 -33.682  -5.954  1.00  0.00     0.213 HD
ENDBRANCH  35  36
BRANCH  35  38
HETATM   38  O12 UNL     1      -4.039 -35.721  -4.611  1.00  0.00    -0.363 OA
ATOM     39  H12 UNL     1      -4.312 -35.301  -3.804  1.00  0.00     0.213 HD
ENDBRANCH  35  38
ENDBRANCH  33  35
ENDBRANCH  32  33
ENDBRANCH   5  32
BRANCH   6  40
HETATM   40  N3  UNL     1       0.349 -36.815  -7.256  1.00  0.00    -0.063 N 
ATOM     41  H33 UNL     1       1.165 -36.266  -7.526  1.00  0.00     0.275 HD
ATOM     42  H32 UNL     1       0.263 -36.512  -6.287  1.00  0.00     0.275 HD
ATOM     43  H31 UNL     1       0.544 -37.815  -7.312  1.00  0.00     0.275 HD
ENDBRANCH   6  40
TORSDOF 15
ENDMDL
