MODEL 1
REMARK VINA RESULT: -7.144624870      0.000      0.000
REMARK  5 active torsions:
REMARK  status: ('A' for Active; 'I' for Inactive)
REMARK    1  A    between atoms: C2_2  and  C3_3 
REMARK    2  A    between atoms: C3_3  and  C4_4 
REMARK    3  A    between atoms: N1_9  and  C9_10 
REMARK    4  A    between atoms: C12_13  and  C13_14 
REMARK    5  A    between atoms: C13_14  and  N3_18 
ROOT
HETATM    1  C9  UNL     1      23.263  64.732   6.182  1.00  0.00     0.104 A 
HETATM    2  C10 UNL     1      22.942  65.619   7.167  1.00  0.00     0.049 A 
HETATM    3  C11 UNL     1      22.388  65.208   8.382  1.00  0.00     0.022 A 
HETATM    4  C12 UNL     1      22.148  63.855   8.613  1.00  0.00     0.046 A 
HETATM    5  C21 UNL     1      22.477  63.003   7.611  1.00  0.00     0.119 A 
HETATM    6 CL1  UNL     1      22.242  61.286   7.714  1.00  0.00    -0.063 Cl
HETATM    7  N4  UNL     1      23.019  63.437   6.432  1.00  0.00    -0.332 N 
ATOM      8  H4  UNL     1      23.247  62.749   5.715  1.00  0.00     0.168 HD
ENDROOT
BRANCH   4   9
HETATM    9  C13 UNL     1      21.589  63.472   9.882  1.00  0.00     0.111 C 
HETATM   10  N2  UNL     1      20.398  63.587  10.199  1.00  0.00    -0.385 N 
ATOM     11  H22 UNL     1      19.796  63.991   9.481  1.00  0.00     0.157 HD
ATOM     12  H21 UNL     1      20.002  63.315  11.098  1.00  0.00     0.157 HD
BRANCH   9  13
HETATM   13  N3  UNL     1      22.448  62.897  10.906  1.00  0.00    -0.358 N 
HETATM   14  C14 UNL     1      23.576  63.673  11.331  1.00  0.00     0.082 C 
HETATM   15  C15 UNL     1      23.110  64.971  11.991  1.00  0.00     0.032 C 
HETATM   16  C16 UNL     1      24.265  62.887  12.461  1.00  0.00     0.025 C 
HETATM   17  C17 UNL     1      24.648  61.536  11.928  1.00  0.00     0.004 C 
HETATM   18  C18 UNL     1      23.420  60.740  11.628  1.00  0.00     0.025 C 
HETATM   19  C19 UNL     1      22.227  61.624  11.514  1.00  0.00     0.082 C 
HETATM   20  C20 UNL     1      21.125  60.832  10.840  1.00  0.00     0.032 C 
ENDBRANCH   9  13
ENDBRANCH   4   9
BRANCH   1  21
HETATM   21  N1  UNL     1      23.819  65.175   4.966  1.00  0.00    -0.363 N 
HETATM   22  C4  UNL     1      23.148  66.020   4.041  1.00  0.00     0.086 C 
HETATM   23  C5  UNL     1      24.088  67.124   3.643  1.00  0.00     0.025 C 
HETATM   24  C6  UNL     1      25.478  66.785   3.346  1.00  0.00     0.004 C 
HETATM   25  C7  UNL     1      26.024  65.518   3.850  1.00  0.00     0.020 C 
HETATM   26  C8  UNL     1      25.191  64.688   4.728  1.00  0.00     0.125 C 
BRANCH  22  27
HETATM   27  C3  UNL     1      22.503  65.333   2.874  1.00  0.00     0.025 C 
BRANCH  27  28
HETATM   28  C2  UNL     1      23.034  65.588   1.530  1.00  0.00    -0.002 C 
HETATM   29  C1  UNL     1      23.366  64.229   0.894  1.00  0.00     0.005 C 
ENDBRANCH  27  28
ENDBRANCH  22  27
ENDBRANCH   1  21
TORSDOF 5
ENDMDL
MODEL 2
REMARK VINA RESULT: -6.900625721      3.464      5.723
REMARK  5 active torsions:
REMARK  status: ('A' for Active; 'I' for Inactive)
REMARK    1  A    between atoms: C2_2  and  C3_3 
REMARK    2  A    between atoms: C3_3  and  C4_4 
REMARK    3  A    between atoms: N1_9  and  C9_10 
REMARK    4  A    between atoms: C12_13  and  C13_14 
REMARK    5  A    between atoms: C13_14  and  N3_18 
ROOT
HETATM    1  C9  UNL     1      22.952  63.097  10.854  1.00  0.00     0.104 A 
HETATM    2  C10 UNL     1      21.742  63.228  11.469  1.00  0.00     0.049 A 
HETATM    3  C11 UNL     1      21.498  62.706  12.741  1.00  0.00     0.022 A 
HETATM    4  C12 UNL     1      22.508  62.028  13.419  1.00  0.00     0.046 A 
HETATM    5  C21 UNL     1      23.697  61.915  12.777  1.00  0.00     0.119 A 
HETATM    6 CL1  UNL     1      25.067  61.097  13.460  1.00  0.00    -0.063 Cl
HETATM    7  N4  UNL     1      23.905  62.438  11.530  1.00  0.00    -0.332 N 
ATOM      8  H4  UNL     1      24.821  62.322  11.097  1.00  0.00     0.168 HD
ENDROOT
BRANCH   4   9
HETATM    9  C13 UNL     1      22.221  61.518  14.734  1.00  0.00     0.111 C 
HETATM   10  N2  UNL     1      22.704  61.955  15.787  1.00  0.00    -0.385 N 
ATOM     11  H22 UNL     1      23.351  62.735  15.675  1.00  0.00     0.157 HD
ATOM     12  H21 UNL     1      22.500  61.594  16.719  1.00  0.00     0.157 HD
BRANCH   9  13
HETATM   13  N3  UNL     1      21.297  60.406  14.892  1.00  0.00    -0.358 N 
HETATM   14  C14 UNL     1      21.735  59.118  14.439  1.00  0.00     0.082 C 
HETATM   15  C15 UNL     1      22.946  58.652  15.250  1.00  0.00     0.032 C 
HETATM   16  C16 UNL     1      20.622  58.113  14.789  1.00  0.00     0.025 C 
HETATM   17  C17 UNL     1      19.352  58.569  14.129  1.00  0.00     0.004 C 
HETATM   18  C18 UNL     1      18.891  59.851  14.740  1.00  0.00     0.025 C 
HETATM   19  C19 UNL     1      20.001  60.518  15.478  1.00  0.00     0.082 C 
HETATM   20  C20 UNL     1      19.591  61.955  15.731  1.00  0.00     0.032 C 
ENDBRANCH   9  13
ENDBRANCH   4   9
BRANCH   1  21
HETATM   21  N1  UNL     1      23.171  63.632   9.569  1.00  0.00    -0.363 N 
HETATM   22  C4  UNL     1      22.190  63.667   8.542  1.00  0.00     0.086 C 
HETATM   23  C5  UNL     1      22.175  65.049   7.950  1.00  0.00     0.025 C 
HETATM   24  C6  UNL     1      23.452  65.705   7.674  1.00  0.00     0.004 C 
HETATM   25  C7  UNL     1      24.660  65.224   8.357  1.00  0.00     0.020 C 
HETATM   26  C8  UNL     1      24.528  64.177   9.376  1.00  0.00     0.125 C 
BRANCH  22  27
HETATM   27  C3  UNL     1      22.279  62.578   7.514  1.00  0.00     0.025 C 
BRANCH  27  28
HETATM   28  C2  UNL     1      21.955  61.205   7.918  1.00  0.00    -0.002 C 
HETATM   29  C1  UNL     1      20.570  61.228   8.584  1.00  0.00     0.005 C 
ENDBRANCH  27  28
ENDBRANCH  22  27
ENDBRANCH   1  21
TORSDOF 5
ENDMDL
MODEL 3
REMARK VINA RESULT: -6.816002537      1.625      2.766
REMARK  5 active torsions:
REMARK  status: ('A' for Active; 'I' for Inactive)
REMARK    1  A    between atoms: C2_2  and  C3_3 
REMARK    2  A    between atoms: C3_3  and  C4_4 
REMARK    3  A    between atoms: N1_9  and  C9_10 
REMARK    4  A    between atoms: C12_13  and  C13_14 
REMARK    5  A    between atoms: C13_14  and  N3_18 
ROOT
HETATM    1  C9  UNL     1      23.157  64.916   6.231  1.00  0.00     0.104 A 
HETATM    2  C10 UNL     1      21.801  64.905   6.367  1.00  0.00     0.049 A 
HETATM    3  C11 UNL     1      21.180  64.549   7.567  1.00  0.00     0.022 A 
HETATM    4  C12 UNL     1      21.953  64.191   8.669  1.00  0.00     0.046 A 
HETATM    5  C21 UNL     1      23.298  64.212   8.496  1.00  0.00     0.119 A 
HETATM    6 CL1  UNL     1      24.419  63.788   9.752  1.00  0.00    -0.063 Cl
HETATM    7  N4  UNL     1      23.876  64.565   7.308  1.00  0.00    -0.332 N 
ATOM      8  H4  UNL     1      24.893  64.562   7.238  1.00  0.00     0.168 HD
ENDROOT
BRANCH   4   9
HETATM    9  C13 UNL     1      21.276  63.846   9.891  1.00  0.00     0.111 C 
HETATM   10  N2  UNL     1      21.316  64.507  10.937  1.00  0.00    -0.385 N 
ATOM     11  H22 UNL     1      21.884  65.353  10.893  1.00  0.00     0.157 HD
ATOM     12  H21 UNL     1      20.837  64.262  11.803  1.00  0.00     0.157 HD
BRANCH   9  13
HETATM   13  N3  UNL     1      20.468  62.638   9.953  1.00  0.00    -0.358 N 
HETATM   14  C14 UNL     1      21.150  61.383   9.829  1.00  0.00     0.082 C 
HETATM   15  C15 UNL     1      22.117  61.186  10.997  1.00  0.00     0.032 C 
HETATM   16  C16 UNL     1      20.094  60.276  10.006  1.00  0.00     0.025 C 
HETATM   17  C17 UNL     1      19.028  60.472   8.966  1.00  0.00     0.004 C 
HETATM   18  C18 UNL     1      18.279  61.736   9.236  1.00  0.00     0.025 C 
HETATM   19  C19 UNL     1      19.053  62.631  10.142  1.00  0.00     0.082 C 
HETATM   20  C20 UNL     1      18.440  64.014  10.061  1.00  0.00     0.032 C 
ENDBRANCH   9  13
ENDBRANCH   4   9
BRANCH   1  21
HETATM   21  N1  UNL     1      23.757  65.277   5.008  1.00  0.00    -0.363 N 
HETATM   22  C4  UNL     1      23.139  66.098   4.027  1.00  0.00     0.086 C 
HETATM   23  C5  UNL     1      24.127  67.147   3.598  1.00  0.00     0.025 C 
HETATM   24  C6  UNL     1      25.511  66.744   3.353  1.00  0.00     0.004 C 
HETATM   25  C7  UNL     1      25.998  65.486   3.933  1.00  0.00     0.020 C 
HETATM   26  C8  UNL     1      25.116  64.731   4.829  1.00  0.00     0.125 C 
BRANCH  22  27
HETATM   27  C3  UNL     1      22.497  65.376   2.879  1.00  0.00     0.025 C 
BRANCH  27  28
HETATM   28  C2  UNL     1      22.991  65.637   1.523  1.00  0.00    -0.002 C 
HETATM   29  C1  UNL     1      23.365  64.285   0.894  1.00  0.00     0.005 C 
ENDBRANCH  27  28
ENDBRANCH  22  27
ENDBRANCH   1  21
TORSDOF 5
ENDMDL
MODEL 4
REMARK VINA RESULT: -6.714237638      0.938      1.864
REMARK  5 active torsions:
REMARK  status: ('A' for Active; 'I' for Inactive)
REMARK    1  A    between atoms: C2_2  and  C3_3 
REMARK    2  A    between atoms: C3_3  and  C4_4 
REMARK    3  A    between atoms: N1_9  and  C9_10 
REMARK    4  A    between atoms: C12_13  and  C13_14 
REMARK    5  A    between atoms: C13_14  and  N3_18 
ROOT
HETATM    1  C9  UNL     1      23.207  64.951   6.228  1.00  0.00     0.104 A 
HETATM    2  C10 UNL     1      23.798  65.318   7.401  1.00  0.00     0.049 A 
HETATM    3  C11 UNL     1      23.248  64.985   8.642  1.00  0.00     0.022 A 
HETATM    4  C12 UNL     1      22.063  64.257   8.704  1.00  0.00     0.046 A 
HETATM    5  C21 UNL     1      21.503  63.912   7.518  1.00  0.00     0.119 A 
HETATM    6 CL1  UNL     1      20.022  63.013   7.397  1.00  0.00    -0.063 Cl
HETATM    7  N4  UNL     1      22.066  64.252   6.319  1.00  0.00    -0.332 N 
ATOM      8  H4  UNL     1      21.599  63.964   5.459  1.00  0.00     0.168 HD
ENDROOT
BRANCH   4   9
HETATM    9  C13 UNL     1      21.538  63.922  10.001  1.00  0.00     0.111 C 
HETATM   10  N2  UNL     1      20.460  64.327  10.458  1.00  0.00    -0.385 N 
ATOM     11  H22 UNL     1      19.933  64.945   9.841  1.00  0.00     0.157 HD
ATOM     12  H21 UNL     1      20.088  64.090  11.377  1.00  0.00     0.157 HD
BRANCH   9  13
HETATM   13  N3  UNL     1      22.290  63.042  10.881  1.00  0.00    -0.358 N 
HETATM   14  C14 UNL     1      21.944  61.650  10.872  1.00  0.00     0.082 C 
HETATM   15  C15 UNL     1      22.217  61.043   9.495  1.00  0.00     0.032 C 
HETATM   16  C16 UNL     1      22.927  60.934  11.816  1.00  0.00     0.025 C 
HETATM   17  C17 UNL     1      22.813  61.560  13.176  1.00  0.00     0.004 C 
HETATM   18  C18 UNL     1      23.311  62.968  13.133  1.00  0.00     0.025 C 
HETATM   19  C19 UNL     1      23.350  63.476  11.733  1.00  0.00     0.082 C 
HETATM   20  C20 UNL     1      23.479  64.984  11.791  1.00  0.00     0.032 C 
ENDBRANCH   9  13
ENDBRANCH   4   9
BRANCH   1  21
HETATM   21  N1  UNL     1      23.782  65.302   4.991  1.00  0.00    -0.363 N 
HETATM   22  C4  UNL     1      23.137  66.103   4.010  1.00  0.00     0.086 C 
HETATM   23  C5  UNL     1      24.106  67.156   3.550  1.00  0.00     0.025 C 
HETATM   24  C6  UNL     1      25.490  66.765   3.285  1.00  0.00     0.004 C 
HETATM   25  C7  UNL     1      26.001  65.520   3.873  1.00  0.00     0.020 C 
HETATM   26  C8  UNL     1      25.143  64.768   4.795  1.00  0.00     0.125 C 
BRANCH  22  27
HETATM   27  C3  UNL     1      22.483  65.360   2.884  1.00  0.00     0.025 C 
BRANCH  27  28
HETATM   28  C2  UNL     1      22.952  65.605   1.515  1.00  0.00    -0.002 C 
HETATM   29  C1  UNL     1      23.384  64.255   0.921  1.00  0.00     0.005 C 
ENDBRANCH  27  28
ENDBRANCH  22  27
ENDBRANCH   1  21
TORSDOF 5
ENDMDL
MODEL 5
REMARK VINA RESULT: -6.547056048      4.839     10.678
REMARK  5 active torsions:
REMARK  status: ('A' for Active; 'I' for Inactive)
REMARK    1  A    between atoms: C2_2  and  C3_3 
REMARK    2  A    between atoms: C3_3  and  C4_4 
REMARK    3  A    between atoms: N1_9  and  C9_10 
REMARK    4  A    between atoms: C12_13  and  C13_14 
REMARK    5  A    between atoms: C13_14  and  N3_18 
ROOT
HETATM    1  C9  UNL     1      21.397  61.592  15.864  1.00  0.00     0.104 A 
HETATM    2  C10 UNL     1      20.566  61.148  14.879  1.00  0.00     0.049 A 
HETATM    3  C11 UNL     1      20.982  61.051  13.548  1.00  0.00     0.022 A 
HETATM    4  C12 UNL     1      22.280  61.414  13.198  1.00  0.00     0.046 A 
HETATM    5  C21 UNL     1      23.077  61.853  14.204  1.00  0.00     0.119 A 
HETATM    6 CL1  UNL     1      24.719  62.358  13.957  1.00  0.00    -0.063 Cl
HETATM    7  N4  UNL     1      22.640  61.936  15.497  1.00  0.00    -0.332 N 
ATOM      8  H4  UNL     1      23.286  62.274  16.211  1.00  0.00     0.168 HD
ENDROOT
BRANCH   4   9
HETATM    9  C13 UNL     1      22.673  61.286  11.820  1.00  0.00     0.111 C 
HETATM   10  N2  UNL     1      23.461  60.438  11.382  1.00  0.00    -0.385 N 
ATOM     11  H22 UNL     1      23.842  59.799  12.080  1.00  0.00     0.157 HD
ATOM     12  H21 UNL     1      23.740  60.346  10.405  1.00  0.00     0.157 HD
BRANCH   9  13
HETATM   13  N3  UNL     1      22.130  62.197  10.825  1.00  0.00    -0.358 N 
HETATM   14  C14 UNL     1      22.564  63.563  10.877  1.00  0.00     0.082 C 
HETATM   15  C15 UNL     1      24.068  63.654  10.614  1.00  0.00     0.032 C 
HETATM   16  C16 UNL     1      21.915  64.289   9.686  1.00  0.00     0.025 C 
HETATM   17  C17 UNL     1      20.424  64.141   9.799  1.00  0.00     0.004 C 
HETATM   18  C18 UNL     1      20.039  62.711   9.608  1.00  0.00     0.025 C 
HETATM   19  C19 UNL     1      21.211  61.812   9.803  1.00  0.00     0.082 C 
HETATM   20  C20 UNL     1      20.689  60.401   9.981  1.00  0.00     0.032 C 
ENDBRANCH   9  13
ENDBRANCH   4   9
BRANCH   1  21
HETATM   21  N1  UNL     1      20.951  61.682  17.198  1.00  0.00    -0.363 N 
HETATM   22  C4  UNL     1      21.622  62.412  18.216  1.00  0.00     0.086 C 
HETATM   23  C5  UNL     1      20.606  63.250  18.942  1.00  0.00     0.025 C 
HETATM   24  C6  UNL     1      19.322  62.645  19.292  1.00  0.00     0.004 C 
HETATM   25  C7  UNL     1      18.885  61.441  18.575  1.00  0.00     0.020 C 
HETATM   26  C8  UNL     1      19.697  60.950  17.456  1.00  0.00     0.125 C 
BRANCH  22  27
HETATM   27  C3  UNL     1      22.497  61.607  19.131  1.00  0.00     0.025 C 
BRANCH  27  28
HETATM   28  C2  UNL     1      23.022  60.324  18.650  1.00  0.00    -0.002 C 
HETATM   29  C1  UNL     1      22.359  59.209  19.474  1.00  0.00     0.005 C 
ENDBRANCH  27  28
ENDBRANCH  22  27
ENDBRANCH   1  21
TORSDOF 5
ENDMDL
