MODEL 1
REMARK VINA RESULT: -7.972568309      0.000      0.000
REMARK  4 active torsions:
REMARK  status: ('A' for Active; 'I' for Inactive)
REMARK    1  A    between atoms: C4_4  and  N1_5 
REMARK    2  A    between atoms: C7_8  and  C8_9 
REMARK    3  A    between atoms: C8_9  and  C9_10 
REMARK    4  A    between atoms: C12_15  and  C13_16 
ROOT
HETATM    1  N1  UNL     1      22.312  62.291  10.655  1.00  0.00     0.093 N 
HETATM    2  C5  UNL     1      21.103  63.065  10.692  1.00  0.00     0.273 C 
HETATM    3  C6  UNL     1      21.114  64.248   9.782  1.00  0.00     0.035 C 
HETATM    4  C7  UNL     1      21.642  63.950   8.400  1.00  0.00    -0.006 C 
HETATM    5  C14 UNL     1      22.753  62.938   8.418  1.00  0.00     0.035 C 
HETATM    6  C15 UNL     1      23.328  62.884   9.820  1.00  0.00     0.273 C 
ENDROOT
BRANCH   4   7
HETATM    7  C8  UNL     1      22.162  65.245   7.853  1.00  0.00     0.052 C 
BRANCH   7   8
HETATM    8  C9  UNL     1      22.978  65.148   6.623  1.00  0.00     0.002 A 
HETATM    9  S1  UNL     1      22.329  65.134   5.035  1.00  0.00    -0.081 SA
HETATM   10  C10 UNL     1      23.775  65.027   4.147  1.00  0.00     0.076 A 
HETATM   11 CL1  UNL     1      24.017  64.959   2.389  1.00  0.00    -0.076 Cl
HETATM   12  C11 UNL     1      24.732  65.003   5.120  1.00  0.00     0.051 A 
HETATM   13  C12 UNL     1      24.321  65.065   6.406  1.00  0.00     0.056 A 
BRANCH  13  14
HETATM   14  C13 UNL     1      25.268  64.993   7.549  1.00  0.00     0.210 C 
HETATM   15  O1  UNL     1      26.227  64.168   7.486  1.00  0.00    -0.644 OA
HETATM   16  O2  UNL     1      25.188  65.749   8.673  1.00  0.00    -0.644 OA
ENDBRANCH  13  14
ENDBRANCH   7   8
ENDBRANCH   4   7
BRANCH   1  17
HETATM   17  C4  UNL     1      22.806  61.930  11.958  1.00  0.00     0.224 C 
HETATM   18  C3  UNL     1      23.727  62.966  12.545  1.00  0.00     0.040 C 
HETATM   19  C2  UNL     1      24.388  62.328  13.755  1.00  0.00    -0.016 C 
HETATM   20  C1  UNL     1      25.387  61.260  13.373  1.00  0.00     0.010 C 
HETATM   21  C20 UNL     1      23.405  61.867  14.778  1.00  0.00     0.013 C 
HETATM   22  C17 UNL     1      22.166  61.251  14.258  1.00  0.00    -0.045 C 
HETATM   23  C16 UNL     1      21.690  61.704  12.922  1.00  0.00     0.044 C 
HETATM   24  C18 UNL     1      21.053  61.612  15.261  1.00  0.00     0.015 C 
HETATM   25  C19 UNL     1      22.237  59.727  14.295  1.00  0.00     0.015 C 
ENDBRANCH   1  17
TORSDOF 4
ENDMDL
MODEL 2
REMARK VINA RESULT: -7.819319622      2.310      3.542
REMARK  4 active torsions:
REMARK  status: ('A' for Active; 'I' for Inactive)
REMARK    1  A    between atoms: C4_4  and  N1_5 
REMARK    2  A    between atoms: C7_8  and  C8_9 
REMARK    3  A    between atoms: C8_9  and  C9_10 
REMARK    4  A    between atoms: C12_15  and  C13_16 
ROOT
HETATM    1  N1  UNL     1      23.401  61.577  13.100  1.00  0.00     0.093 N 
HETATM    2  C5  UNL     1      23.092  61.072  11.791  1.00  0.00     0.273 C 
HETATM    3  C6  UNL     1      22.838  62.136  10.775  1.00  0.00     0.035 C 
HETATM    4  C7  UNL     1      23.843  63.263  10.807  1.00  0.00    -0.006 C 
HETATM    5  C14 UNL     1      24.308  63.574  12.202  1.00  0.00     0.035 C 
HETATM    6  C15 UNL     1      23.295  63.014  13.181  1.00  0.00     0.273 C 
ENDROOT
BRANCH   4   7
HETATM    7  C8  UNL     1      23.155  64.464  10.235  1.00  0.00     0.052 C 
BRANCH   7   8
HETATM    8  C9  UNL     1      23.326  64.677   8.781  1.00  0.00     0.002 A 
HETATM    9  S1  UNL     1      24.831  64.999   8.024  1.00  0.00    -0.081 SA
HETATM   10  C10 UNL     1      24.311  65.110   6.409  1.00  0.00     0.076 A 
HETATM   11 CL1  UNL     1      25.255  65.429   4.940  1.00  0.00    -0.076 Cl
HETATM   12  C11 UNL     1      22.967  64.892   6.504  1.00  0.00     0.051 A 
HETATM   13  C12 UNL     1      22.453  64.668   7.734  1.00  0.00     0.056 A 
BRANCH  13  14
HETATM   14  C13 UNL     1      20.997  64.473   7.965  1.00  0.00     0.210 C 
HETATM   15  O1  UNL     1      20.210  65.426   7.688  1.00  0.00    -0.644 OA
HETATM   16  O2  UNL     1      20.434  63.341   8.458  1.00  0.00    -0.644 OA
ENDBRANCH  13  14
ENDBRANCH   7   8
ENDBRANCH   4   7
BRANCH   1  17
HETATM   17  C4  UNL     1      22.692  60.908  14.158  1.00  0.00     0.224 C 
HETATM   18  C3  UNL     1      23.254  59.548  14.474  1.00  0.00     0.040 C 
HETATM   19  C2  UNL     1      22.248  58.858  15.378  1.00  0.00    -0.016 C 
HETATM   20  C1  UNL     1      20.984  58.468  14.645  1.00  0.00     0.010 C 
HETATM   21  C20 UNL     1      21.982  59.615  16.636  1.00  0.00     0.013 C 
HETATM   22  C17 UNL     1      21.905  61.086  16.506  1.00  0.00    -0.045 C 
HETATM   23  C16 UNL     1      22.699  61.714  15.414  1.00  0.00     0.044 C 
HETATM   24  C18 UNL     1      22.450  61.662  17.827  1.00  0.00     0.015 C 
HETATM   25  C19 UNL     1      20.459  61.570  16.442  1.00  0.00     0.015 C 
ENDBRANCH   1  17
TORSDOF 4
ENDMDL
MODEL 3
REMARK VINA RESULT: -7.763269188      2.225      3.098
REMARK  4 active torsions:
REMARK  status: ('A' for Active; 'I' for Inactive)
REMARK    1  A    between atoms: C4_4  and  N1_5 
REMARK    2  A    between atoms: C7_8  and  C8_9 
REMARK    3  A    between atoms: C8_9  and  C9_10 
REMARK    4  A    between atoms: C12_15  and  C13_16 
ROOT
HETATM    1  N1  UNL     1      23.257  61.988  12.614  1.00  0.00     0.093 N 
HETATM    2  C5  UNL     1      23.179  61.453  11.283  1.00  0.00     0.273 C 
HETATM    3  C6  UNL     1      23.038  62.492  10.220  1.00  0.00     0.035 C 
HETATM    4  C7  UNL     1      23.975  63.665  10.386  1.00  0.00    -0.006 C 
HETATM    5  C14 UNL     1      24.203  64.015  11.830  1.00  0.00     0.035 C 
HETATM    6  C15 UNL     1      23.076  63.419  12.650  1.00  0.00     0.273 C 
ENDROOT
BRANCH   4   7
HETATM    7  C8  UNL     1      23.331  64.826   9.691  1.00  0.00     0.052 C 
BRANCH   7   8
HETATM    8  C9  UNL     1      23.508  64.881   8.223  1.00  0.00     0.002 A 
HETATM    9  S1  UNL     1      25.007  65.179   7.444  1.00  0.00    -0.081 SA
HETATM   10  C10 UNL     1      24.499  65.086   5.824  1.00  0.00     0.076 A 
HETATM   11 CL1  UNL     1      25.444  65.277   4.333  1.00  0.00    -0.076 Cl
HETATM   12  C11 UNL     1      23.164  64.824   5.935  1.00  0.00     0.051 A 
HETATM   13  C12 UNL     1      22.647  64.718   7.179  1.00  0.00     0.056 A 
BRANCH  13  14
HETATM   14  C13 UNL     1      21.199  64.489   7.423  1.00  0.00     0.210 C 
HETATM   15  O1  UNL     1      20.430  65.495   7.479  1.00  0.00    -0.644 OA
HETATM   16  O2  UNL     1      20.622  63.273   7.594  1.00  0.00    -0.644 OA
ENDBRANCH  13  14
ENDBRANCH   7   8
ENDBRANCH   4   7
BRANCH   1  17
HETATM   17  C4  UNL     1      22.423  61.299  13.562  1.00  0.00     0.224 C 
HETATM   18  C3  UNL     1      22.949  61.372  14.970  1.00  0.00     0.040 C 
HETATM   19  C2  UNL     1      22.148  60.374  15.789  1.00  0.00    -0.016 C 
HETATM   20  C1  UNL     1      22.485  58.941  15.446  1.00  0.00     0.010 C 
HETATM   21  C20 UNL     1      20.683  60.650  15.768  1.00  0.00     0.013 C 
HETATM   22  C17 UNL     1      20.123  61.094  14.474  1.00  0.00    -0.045 C 
HETATM   23  C16 UNL     1      21.032  61.840  13.560  1.00  0.00     0.044 C 
HETATM   24  C18 UNL     1      18.966  62.054  14.814  1.00  0.00     0.015 C 
HETATM   25  C19 UNL     1      19.460  59.943  13.722  1.00  0.00     0.015 C 
ENDBRANCH   1  17
TORSDOF 4
ENDMDL
MODEL 4
REMARK VINA RESULT: -7.754476194      2.224      3.272
REMARK  4 active torsions:
REMARK  status: ('A' for Active; 'I' for Inactive)
REMARK    1  A    between atoms: C4_4  and  N1_5 
REMARK    2  A    between atoms: C7_8  and  C8_9 
REMARK    3  A    between atoms: C8_9  and  C9_10 
REMARK    4  A    between atoms: C12_15  and  C13_16 
ROOT
HETATM    1  N1  UNL     1      23.094  62.116  12.557  1.00  0.00     0.093 N 
HETATM    2  C5  UNL     1      22.989  61.540  11.246  1.00  0.00     0.273 C 
HETATM    3  C6  UNL     1      22.892  62.546  10.148  1.00  0.00     0.035 C 
HETATM    4  C7  UNL     1      23.880  63.682  10.273  1.00  0.00    -0.006 C 
HETATM    5  C14 UNL     1      24.127  64.071  11.703  1.00  0.00     0.035 C 
HETATM    6  C15 UNL     1      22.977  63.554  12.544  1.00  0.00     0.273 C 
ENDROOT
BRANCH   4   7
HETATM    7  C8  UNL     1      23.286  64.846   9.538  1.00  0.00     0.052 C 
BRANCH   7   8
HETATM    8  C9  UNL     1      23.522  64.878   8.078  1.00  0.00     0.002 A 
HETATM    9  S1  UNL     1      25.052  65.160   7.355  1.00  0.00    -0.081 SA
HETATM   10  C10 UNL     1      24.608  65.044   5.717  1.00  0.00     0.076 A 
HETATM   11 CL1  UNL     1      25.613  65.210   4.262  1.00  0.00    -0.076 Cl
HETATM   12  C11 UNL     1      23.269  64.789   5.779  1.00  0.00     0.051 A 
HETATM   13  C12 UNL     1      22.703  64.703   7.003  1.00  0.00     0.056 A 
BRANCH  13  14
HETATM   14  C13 UNL     1      21.245  64.482   7.192  1.00  0.00     0.210 C 
HETATM   15  O1  UNL     1      20.789  63.308   7.047  1.00  0.00    -0.644 OA
HETATM   16  O2  UNL     1      20.347  65.449   7.510  1.00  0.00    -0.644 OA
ENDBRANCH  13  14
ENDBRANCH   7   8
ENDBRANCH   4   7
BRANCH   1  17
HETATM   17  C4  UNL     1      22.233  61.497  13.530  1.00  0.00     0.224 C 
HETATM   18  C3  UNL     1      20.959  60.963  12.932  1.00  0.00     0.040 C 
HETATM   19  C2  UNL     1      20.042  60.618  14.092  1.00  0.00    -0.016 C 
HETATM   20  C1  UNL     1      19.517  61.846  14.800  1.00  0.00     0.010 C 
HETATM   21  C20 UNL     1      20.637  59.617  15.025  1.00  0.00     0.013 C 
HETATM   22  C17 UNL     1      22.082  59.765  15.301  1.00  0.00    -0.045 C 
HETATM   23  C16 UNL     1      22.920  60.374  14.232  1.00  0.00     0.044 C 
HETATM   24  C18 UNL     1      22.625  58.339  15.520  1.00  0.00     0.015 C 
HETATM   25  C19 UNL     1      22.331  60.479  16.627  1.00  0.00     0.015 C 
ENDBRANCH   1  17
TORSDOF 4
ENDMDL
MODEL 5
REMARK VINA RESULT: -7.659874502      0.890      2.020
REMARK  4 active torsions:
REMARK  status: ('A' for Active; 'I' for Inactive)
REMARK    1  A    between atoms: C4_4  and  N1_5 
REMARK    2  A    between atoms: C7_8  and  C8_9 
REMARK    3  A    between atoms: C8_9  and  C9_10 
REMARK    4  A    between atoms: C12_15  and  C13_16 
ROOT
HETATM    1  N1  UNL     1      21.492  62.196  10.286  1.00  0.00     0.093 N 
HETATM    2  C5  UNL     1      20.326  62.966   9.952  1.00  0.00     0.273 C 
HETATM    3  C6  UNL     1      20.613  64.166   9.113  1.00  0.00     0.035 C 
HETATM    4  C7  UNL     1      21.554  63.897   7.964  1.00  0.00    -0.006 C 
HETATM    5  C14 UNL     1      22.611  62.888   8.315  1.00  0.00     0.035 C 
HETATM    6  C15 UNL     1      22.714  62.809   9.825  1.00  0.00     0.273 C 
ENDROOT
BRANCH   4   7
HETATM    7  C8  UNL     1      22.208  65.204   7.633  1.00  0.00     0.052 C 
BRANCH   7   8
HETATM    8  C9  UNL     1      23.094  65.203   6.448  1.00  0.00     0.002 A 
HETATM    9  S1  UNL     1      22.538  65.313   4.828  1.00  0.00    -0.081 SA
HETATM   10  C10 UNL     1      24.034  65.275   4.020  1.00  0.00     0.076 A 
HETATM   11 CL1  UNL     1      24.377  65.345   2.279  1.00  0.00    -0.076 Cl
HETATM   12  C11 UNL     1      24.933  65.176   5.042  1.00  0.00     0.051 A 
HETATM   13  C12 UNL     1      24.447  65.137   6.303  1.00  0.00     0.056 A 
BRANCH  13  14
HETATM   14  C13 UNL     1      25.327  64.976   7.490  1.00  0.00     0.210 C 
HETATM   15  O1  UNL     1      26.260  64.119   7.438  1.00  0.00    -0.644 OA
HETATM   16  O2  UNL     1      25.212  65.680   8.644  1.00  0.00    -0.644 OA
ENDBRANCH  13  14
ENDBRANCH   7   8
ENDBRANCH   4   7
BRANCH   1  17
HETATM   17  C4  UNL     1      21.552  61.811  11.671  1.00  0.00     0.224 C 
HETATM   18  C3  UNL     1      20.569  60.729  12.024  1.00  0.00     0.040 C 
HETATM   19  C2  UNL     1      20.540  60.641  13.541  1.00  0.00    -0.016 C 
HETATM   20  C1  UNL     1      19.870  61.837  14.177  1.00  0.00     0.010 C 
HETATM   21  C20 UNL     1      21.876  60.340  14.130  1.00  0.00     0.013 C 
HETATM   22  C17 UNL     1      23.033  61.007  13.494  1.00  0.00    -0.045 C 
HETATM   23  C16 UNL     1      22.916  61.337  12.047  1.00  0.00     0.044 C 
HETATM   24  C18 UNL     1      24.217  60.028  13.624  1.00  0.00     0.015 C 
HETATM   25  C19 UNL     1      23.468  62.244  14.276  1.00  0.00     0.015 C 
ENDBRANCH   1  17
TORSDOF 4
ENDMDL
