MODEL 1
REMARK VINA RESULT: -8.422793944      0.000      0.000
REMARK  4 active torsions:
REMARK  status: ('A' for Active; 'I' for Inactive)
REMARK    1  A    between atoms: C2_2  and  C4_4 
REMARK    2  A    between atoms: C8_9  and  N1_10 
REMARK    3  A    between atoms: N3_23  and  C17_24 
REMARK    4  A    between atoms: C17_24  and  C19_26 
ROOT
HETATM    1  C4  UNL     1      23.834  65.586   5.683  1.00  0.00    -0.050 A 
HETATM    2  C5  UNL     1      24.955  65.304   6.435  1.00  0.00     0.050 A 
HETATM    3  C6  UNL     1      24.828  64.766   7.693  1.00  0.00     0.131 A 
HETATM    4  F1  UNL     1      25.906  64.472   8.470  1.00  0.00    -0.205 F 
HETATM    5  C7  UNL     1      23.553  64.508   8.202  1.00  0.00     0.058 A 
HETATM    6  C8  UNL     1      23.161  63.980   9.416  1.00  0.00     0.065 A 
HETATM    7  C16 UNL     1      21.786  63.959   9.357  1.00  0.00     0.122 A 
HETATM    8  N3  UNL     1      21.347  64.443   8.182  1.00  0.00    -0.349 N 
HETATM    9  C22 UNL     1      22.430  64.789   7.452  1.00  0.00     0.050 A 
HETATM   10  C23 UNL     1      22.570  65.338   6.168  1.00  0.00     0.038 A 
ENDROOT
BRANCH   6  11
HETATM   11  N1  UNL     1      24.009  63.572  10.442  1.00  0.00    -0.344 N 
HETATM   12  C9  UNL     1      23.758  62.748  11.379  1.00  0.00     0.084 C 
HETATM   13  C10 UNL     1      24.777  62.428  12.391  1.00  0.00     0.078 C 
HETATM   14  N2  UNL     1      22.501  62.116  11.483  1.00  0.00    -0.316 N 
HETATM   15  C11 UNL     1      24.099  62.450  13.738  1.00  0.00     0.026 C 
HETATM   16  C12 UNL     1      22.935  61.527  13.857  1.00  0.00     0.034 C 
HETATM   17  C13 UNL     1      21.972  62.138  14.879  1.00  0.00     0.025 C 
HETATM   18  C14 UNL     1      23.397  60.214  14.454  1.00  0.00     0.025 C 
HETATM   19  C15 UNL     1      22.211  61.277  12.593  1.00  0.00     0.231 C 
HETATM   20  O1  UNL     1      21.383  60.369  12.506  1.00  0.00    -0.272 OA
ATOM     21  H2  UNL     1      21.798  62.262  10.759  1.00  0.00     0.170 HD
ATOM     22  H1  UNL     1      24.943  63.982  10.442  1.00  0.00     0.167 HD
ENDBRANCH   6  11
BRANCH   8  23
HETATM   23  C17 UNL     1      20.009  64.589   7.733  1.00  0.00     0.089 C 
HETATM   24  C18 UNL     1      19.675  63.479   6.748  1.00  0.00     0.033 C 
BRANCH  23  25
HETATM   25  C19 UNL     1      18.940  64.597   8.749  1.00  0.00     0.000 C 
HETATM   26  C20 UNL     1      18.097  63.348   8.556  1.00  0.00     0.011 C 
HETATM   27  C21 UNL     1      18.015  65.755   8.789  1.00  0.00     0.011 C 
ENDBRANCH  23  25
ENDBRANCH   8  23
BRANCH   1  28
HETATM   28  C2  UNL     1      23.999  66.173   4.311  1.00  0.00     0.010 C 
HETATM   29  C1  UNL     1      23.078  65.397   3.365  1.00  0.00     0.015 C 
HETATM   30  C3  UNL     1      25.418  65.975   3.879  1.00  0.00     0.015 C 
ENDBRANCH   1  28
TORSDOF 4
ENDMDL
MODEL 2
REMARK VINA RESULT: -8.203934944      2.689      7.401
REMARK  4 active torsions:
REMARK  status: ('A' for Active; 'I' for Inactive)
REMARK    1  A    between atoms: C2_2  and  C4_4 
REMARK    2  A    between atoms: C8_9  and  N1_10 
REMARK    3  A    between atoms: N3_23  and  C17_24 
REMARK    4  A    between atoms: C17_24  and  C19_26 
ROOT
HETATM    1  C4  UNL     1      23.378  63.861  11.010  1.00  0.00    -0.050 A 
HETATM    2  C5  UNL     1      24.493  64.392  10.397  1.00  0.00     0.050 A 
HETATM    3  C6  UNL     1      24.414  64.876   9.113  1.00  0.00     0.131 A 
HETATM    4  F1  UNL     1      25.488  65.409   8.469  1.00  0.00    -0.205 F 
HETATM    5  C7  UNL     1      23.193  64.825   8.436  1.00  0.00     0.058 A 
HETATM    6  C8  UNL     1      22.854  65.237   7.163  1.00  0.00     0.065 A 
HETATM    7  C16 UNL     1      21.517  64.936   7.045  1.00  0.00     0.122 A 
HETATM    8  N3  UNL     1      21.049  64.371   8.172  1.00  0.00    -0.349 N 
HETATM    9  C22 UNL     1      22.076  64.294   9.047  1.00  0.00     0.050 A 
HETATM   10  C23 UNL     1      22.167  63.802  10.359  1.00  0.00     0.038 A 
ENDROOT
BRANCH   6  11
HETATM   11  N1  UNL     1      23.714  65.825   6.238  1.00  0.00    -0.344 N 
HETATM   12  C9  UNL     1      23.562  65.908   4.978  1.00  0.00     0.084 C 
HETATM   13  C10 UNL     1      24.578  66.568   4.141  1.00  0.00     0.078 C 
HETATM   14  N2  UNL     1      22.424  65.374   4.339  1.00  0.00    -0.316 N 
HETATM   15  C11 UNL     1      24.807  65.692   2.934  1.00  0.00     0.026 C 
HETATM   16  C12 UNL     1      23.579  65.406   2.139  1.00  0.00     0.034 C 
HETATM   17  C13 UNL     1      23.776  64.041   1.473  1.00  0.00     0.025 C 
HETATM   18  C14 UNL     1      23.470  66.408   1.009  1.00  0.00     0.025 C 
HETATM   19  C15 UNL     1      22.325  65.392   2.920  1.00  0.00     0.231 C 
HETATM   20  O1  UNL     1      21.228  65.395   2.358  1.00  0.00    -0.272 OA
ATOM     21  H2  UNL     1      21.669  64.974   4.896  1.00  0.00     0.170 HD
ATOM     22  H1  UNL     1      24.566  66.238   6.617  1.00  0.00     0.167 HD
ENDBRANCH   6  11
BRANCH   8  23
HETATM   23  C17 UNL     1      19.734  63.919   8.452  1.00  0.00     0.089 C 
HETATM   24  C18 UNL     1      18.780  65.104   8.481  1.00  0.00     0.033 C 
BRANCH  23  25
HETATM   25  C19 UNL     1      19.143  62.916   7.546  1.00  0.00     0.000 C 
HETATM   26  C20 UNL     1      18.036  63.590   6.754  1.00  0.00     0.011 C 
HETATM   27  C21 UNL     1      18.579  61.680   8.136  1.00  0.00     0.011 C 
ENDBRANCH  23  25
ENDBRANCH   8  23
BRANCH   1  28
HETATM   28  C2  UNL     1      23.490  63.339  12.413  1.00  0.00     0.010 C 
HETATM   29  C1  UNL     1      24.883  62.720  12.563  1.00  0.00     0.015 C 
HETATM   30  C3  UNL     1      22.460  62.269  12.602  1.00  0.00     0.015 C 
ENDBRANCH   1  28
TORSDOF 4
ENDMDL
MODEL 3
REMARK VINA RESULT: -8.111830304      2.385      7.288
REMARK  4 active torsions:
REMARK  status: ('A' for Active; 'I' for Inactive)
REMARK    1  A    between atoms: C2_2  and  C4_4 
REMARK    2  A    between atoms: C8_9  and  N1_10 
REMARK    3  A    between atoms: N3_23  and  C17_24 
REMARK    4  A    between atoms: C17_24  and  C19_26 
ROOT
HETATM    1  C4  UNL     1      22.809  61.788  13.983  1.00  0.00    -0.050 A 
HETATM    2  C5  UNL     1      23.937  62.527  13.691  1.00  0.00     0.050 A 
HETATM    3  C6  UNL     1      24.081  63.110  12.455  1.00  0.00     0.131 A 
HETATM    4  F1  UNL     1      25.176  63.846  12.123  1.00  0.00    -0.205 F 
HETATM    5  C7  UNL     1      23.076  62.946  11.498  1.00  0.00     0.058 A 
HETATM    6  C8  UNL     1      22.982  63.421  10.205  1.00  0.00     0.065 A 
HETATM    7  C16 UNL     1      21.775  62.944   9.748  1.00  0.00     0.122 A 
HETATM    8  N3  UNL     1      21.154  62.218  10.694  1.00  0.00    -0.349 N 
HETATM    9  C22 UNL     1      21.948  62.209  11.788  1.00  0.00     0.050 A 
HETATM   10  C23 UNL     1      21.809  61.617  13.054  1.00  0.00     0.038 A 
ENDROOT
BRANCH   6  11
HETATM   11  N1  UNL     1      23.927  64.207   9.552  1.00  0.00    -0.344 N 
HETATM   12  C9  UNL     1      23.892  64.632   8.353  1.00  0.00     0.084 C 
HETATM   13  C10 UNL     1      24.985  65.459   7.817  1.00  0.00     0.078 C 
HETATM   14  N2  UNL     1      22.812  64.329   7.499  1.00  0.00    -0.316 N 
HETATM   15  C11 UNL     1      25.316  64.934   6.441  1.00  0.00     0.026 C 
HETATM   16  C12 UNL     1      24.163  64.914   5.497  1.00  0.00     0.034 C 
HETATM   17  C13 UNL     1      24.407  63.774   4.505  1.00  0.00     0.025 C 
HETATM   18  C14 UNL     1      24.166  66.187   4.677  1.00  0.00     0.025 C 
HETATM   19  C15 UNL     1      22.842  64.732   6.135  1.00  0.00     0.231 C 
HETATM   20  O1  UNL     1      21.802  64.922   5.504  1.00  0.00    -0.272 OA
ATOM     21  H2  UNL     1      22.006  63.819   7.860  1.00  0.00     0.170 HD
ATOM     22  H1  UNL     1      24.745  64.474  10.100  1.00  0.00     0.167 HD
ENDBRANCH   6  11
BRANCH   8  23
HETATM   23  C17 UNL     1      19.900  61.559  10.620  1.00  0.00     0.089 C 
HETATM   24  C18 UNL     1      18.808  62.570  10.302  1.00  0.00     0.033 C 
BRANCH  23  25
HETATM   25  C19 UNL     1      19.758  60.456   9.651  1.00  0.00     0.000 C 
HETATM   26  C20 UNL     1      18.731  60.871   8.612  1.00  0.00     0.011 C 
HETATM   27  C21 UNL     1      19.366  59.120  10.157  1.00  0.00     0.011 C 
ENDBRANCH  23  25
ENDBRANCH   8  23
BRANCH   1  28
HETATM   28  C2  UNL     1      22.674  61.161  15.341  1.00  0.00     0.010 C 
HETATM   29  C1  UNL     1      22.569  59.647  15.139  1.00  0.00     0.015 C 
HETATM   30  C3  UNL     1      21.407  61.657  15.966  1.00  0.00     0.015 C 
ENDBRANCH   1  28
TORSDOF 4
ENDMDL
MODEL 4
REMARK VINA RESULT: -8.063119369      3.075      6.119
REMARK  4 active torsions:
REMARK  status: ('A' for Active; 'I' for Inactive)
REMARK    1  A    between atoms: C2_2  and  C4_4 
REMARK    2  A    between atoms: C8_9  and  N1_10 
REMARK    3  A    between atoms: N3_23  and  C17_24 
REMARK    4  A    between atoms: C17_24  and  C19_26 
ROOT
HETATM    1  C4  UNL     1      23.441  64.807   8.689  1.00  0.00    -0.050 A 
HETATM    2  C5  UNL     1      22.180  64.791   8.131  1.00  0.00     0.050 A 
HETATM    3  C6  UNL     1      21.125  64.241   8.818  1.00  0.00     0.131 A 
HETATM    4  F1  UNL     1      19.864  64.203   8.306  1.00  0.00    -0.205 F 
HETATM    5  C7  UNL     1      21.342  63.697  10.087  1.00  0.00     0.058 A 
HETATM    6  C8  UNL     1      20.466  63.095  10.967  1.00  0.00     0.065 A 
HETATM    7  C16 UNL     1      21.241  62.759  12.053  1.00  0.00     0.122 A 
HETATM    8  N3  UNL     1      22.520  63.127  11.863  1.00  0.00    -0.349 N 
HETATM    9  C22 UNL     1      22.601  63.711  10.647  1.00  0.00     0.050 A 
HETATM   10  C23 UNL     1      23.673  64.276   9.938  1.00  0.00     0.038 A 
ENDROOT
BRANCH   6  11
HETATM   11  N1  UNL     1      19.104  62.896  10.757  1.00  0.00    -0.344 N 
HETATM   12  C9  UNL     1      18.147  63.678  11.059  1.00  0.00     0.084 C 
HETATM   13  C10 UNL     1      16.753  63.308  10.764  1.00  0.00     0.078 C 
HETATM   14  N2  UNL     1      18.384  64.920  11.683  1.00  0.00    -0.316 N 
HETATM   15  C11 UNL     1      15.930  63.639  11.985  1.00  0.00     0.026 C 
HETATM   16  C12 UNL     1      16.014  65.064  12.417  1.00  0.00     0.034 C 
HETATM   17  C13 UNL     1      15.789  65.094  13.931  1.00  0.00     0.025 C 
HETATM   18  C14 UNL     1      14.863  65.839  11.809  1.00  0.00     0.025 C 
HETATM   19  C15 UNL     1      17.293  65.733  12.099  1.00  0.00     0.231 C 
HETATM   20  O1  UNL     1      17.409  66.955  12.194  1.00  0.00    -0.272 OA
ATOM     21  H2  UNL     1      19.340  65.238  11.836  1.00  0.00     0.170 HD
ATOM     22  H1  UNL     1      18.842  62.018  10.308  1.00  0.00     0.167 HD
ENDBRANCH   6  11
BRANCH   8  23
HETATM   23  C17 UNL     1      23.625  62.961  12.738  1.00  0.00     0.089 C 
HETATM   24  C18 UNL     1      23.139  62.455  14.088  1.00  0.00     0.033 C 
BRANCH  23  25
HETATM   25  C19 UNL     1      24.713  62.062  12.310  1.00  0.00     0.000 C 
HETATM   26  C20 UNL     1      24.099  60.725  11.932  1.00  0.00     0.011 C 
HETATM   27  C21 UNL     1      25.818  61.792  13.259  1.00  0.00     0.011 C 
ENDBRANCH  23  25
ENDBRANCH   8  23
BRANCH   1  28
HETATM   28  C2  UNL     1      24.577  65.414   7.919  1.00  0.00     0.010 C 
HETATM   29  C1  UNL     1      24.235  65.305   6.431  1.00  0.00     0.015 C 
HETATM   30  C3  UNL     1      25.813  64.615   8.193  1.00  0.00     0.015 C 
ENDBRANCH   1  28
TORSDOF 4
ENDMDL
MODEL 5
REMARK VINA RESULT: -7.969132162      3.208      5.385
REMARK  4 active torsions:
REMARK  status: ('A' for Active; 'I' for Inactive)
REMARK    1  A    between atoms: C2_2  and  C4_4 
REMARK    2  A    between atoms: C8_9  and  N1_10 
REMARK    3  A    between atoms: N3_23  and  C17_24 
REMARK    4  A    between atoms: C17_24  and  C19_26 
ROOT
HETATM    1  C4  UNL     1      22.925  64.169   7.720  1.00  0.00    -0.050 A 
HETATM    2  C5  UNL     1      21.883  63.467   7.151  1.00  0.00     0.050 A 
HETATM    3  C6  UNL     1      21.331  62.393   7.807  1.00  0.00     0.131 A 
HETATM    4  F1  UNL     1      20.303  61.672   7.284  1.00  0.00    -0.205 F 
HETATM    5  C7  UNL     1      21.836  62.020   9.056  1.00  0.00     0.058 A 
HETATM    6  C8  UNL     1      21.464  60.997   9.905  1.00  0.00     0.065 A 
HETATM    7  C16 UNL     1      22.310  61.117  10.983  1.00  0.00     0.122 A 
HETATM    8  N3  UNL     1      23.158  62.147  10.818  1.00  0.00    -0.349 N 
HETATM    9  C22 UNL     1      22.877  62.720   9.627  1.00  0.00     0.050 A 
HETATM   10  C23 UNL     1      23.435  63.816   8.949  1.00  0.00     0.038 A 
ENDROOT
BRANCH   6  11
HETATM   11  N1  UNL     1      20.447  60.074   9.676  1.00  0.00    -0.344 N 
HETATM   12  C9  UNL     1      19.673  59.540  10.533  1.00  0.00     0.084 C 
HETATM   13  C10 UNL     1      18.644  58.574  10.116  1.00  0.00     0.078 C 
HETATM   14  N2  UNL     1      19.771  59.852  11.905  1.00  0.00    -0.316 N 
HETATM   15  C11 UNL     1      18.687  57.420  11.088  1.00  0.00     0.026 C 
HETATM   16  C12 UNL     1      18.494  57.809  12.514  1.00  0.00     0.034 C 
HETATM   17  C13 UNL     1      19.247  56.787  13.370  1.00  0.00     0.025 C 
HETATM   18  C14 UNL     1      17.032  57.661  12.879  1.00  0.00     0.025 C 
HETATM   19  C15 UNL     1      18.961  59.169  12.854  1.00  0.00     0.231 C 
HETATM   20  O1  UNL     1      18.658  59.694  13.927  1.00  0.00    -0.272 OA
ATOM     21  H2  UNL     1      20.424  60.569  12.217  1.00  0.00     0.170 HD
ATOM     22  H1  UNL     1      20.307  59.792   8.706  1.00  0.00     0.167 HD
ENDBRANCH   6  11
BRANCH   8  23
HETATM   23  C17 UNL     1      24.177  62.600  11.695  1.00  0.00     0.089 C 
HETATM   24  C18 UNL     1      23.772  63.933  12.307  1.00  0.00     0.033 C 
BRANCH  23  25
HETATM   25  C19 UNL     1      24.567  61.718  12.811  1.00  0.00     0.000 C 
HETATM   26  C20 UNL     1      23.986  62.292  14.091  1.00  0.00     0.011 C 
HETATM   27  C21 UNL     1      26.010  61.476  13.046  1.00  0.00     0.011 C 
ENDBRANCH  23  25
ENDBRANCH   8  23
BRANCH   1  28
HETATM   28  C2  UNL     1      23.511  65.339   6.984  1.00  0.00     0.010 C 
HETATM   29  C1  UNL     1      23.016  65.266   5.536  1.00  0.00     0.015 C 
HETATM   30  C3  UNL     1      25.002  65.204   6.995  1.00  0.00     0.015 C 
ENDBRANCH   1  28
TORSDOF 4
ENDMDL
