MODEL 1
REMARK VINA RESULT: -8.824153991      0.000      0.000
REMARK  2 active torsions:
REMARK  status: ('A' for Active; 'I' for Inactive)
REMARK       I    between atoms: N2_12  and  C8_13 
REMARK    1  A    between atoms: C8_13  and  C9_15 
REMARK       I    between atoms: N3_19  and  C13_20 
REMARK       I    between atoms: C13_20  and  N4_22 
REMARK    2  A    between atoms: N4_22  and  C14_24 
ROOT
HETATM    1  C9  UNL     1       6.397 -10.306 -22.966  1.00  0.00     0.181 C 
HETATM    2  C10 UNL     1       7.136 -10.331 -21.614  1.00  0.00     0.037 C 
HETATM    3  C11 UNL     1       8.353  -9.507 -21.962  1.00  0.00     0.022 C 
HETATM    4  C12 UNL     1       7.917  -8.526 -22.998  1.00  0.00     0.129 C 
HETATM    5  N3  UNL     1       6.585  -8.925 -23.346  1.00  0.00    -0.321 N 
HETATM    6  C13 UNL     1       5.619  -8.106 -23.960  1.00  0.00     0.319 C 
HETATM    7  O3  UNL     1       5.883  -6.890 -24.251  1.00  0.00    -0.247 OA
HETATM    8  N4  UNL     1       4.333  -8.603 -24.271  1.00  0.00    -0.338 N 
ATOM      9  H4  UNL     1       4.109  -9.572 -24.045  1.00  0.00     0.164 HD
ENDROOT
BRANCH   1  10
HETATM   10  C8  UNL     1       7.141 -11.222 -23.879  1.00  0.00     0.244 C 
HETATM   11  N2  UNL     1       6.715 -12.477 -24.350  1.00  0.00    -0.321 N 
HETATM   12  C3  UNL     1       5.471 -13.138 -24.089  1.00  0.00     0.300 C 
HETATM   13  C7  UNL     1       7.657 -13.198 -25.198  1.00  0.00     0.128 C 
HETATM   14  N1  UNL     1       4.313 -12.354 -23.961  1.00  0.00    -0.047 N 
HETATM   15  C4  UNL     1       5.185 -13.954 -25.367  1.00  0.00     0.107 C 
HETATM   16  C2  UNL     1       3.204 -13.169 -24.402  1.00  0.00     0.313 C 
ATOM     17  H12 UNL     1       4.375 -11.463 -24.451  1.00  0.00     0.280 HD
ATOM     18  H11 UNL     1       4.185 -11.977 -23.022  1.00  0.00     0.280 HD
HETATM   19  C1  UNL     1       3.780 -14.309 -25.160  1.00  0.00     0.160 C 
HETATM   20  O1  UNL     1       3.120 -15.277 -25.485  1.00  0.00    -0.296 OA
HETATM   21  C5  UNL     1       6.107 -15.157 -25.243  1.00  0.00     0.018 C 
HETATM   22  C6  UNL     1       7.536 -14.689 -25.114  1.00  0.00     0.021 C 
HETATM   23  O2  UNL     1       8.310 -10.834 -24.292  1.00  0.00    -0.271 OA
ENDBRANCH   1  10
BRANCH   8  24
HETATM   24  C14 UNL     1       3.328  -7.779 -24.899  1.00  0.00     0.086 C 
HETATM   25  C15 UNL     1       2.669  -8.602 -25.983  1.00  0.00     0.025 C 
HETATM   26  C16 UNL     1       1.427  -7.884 -26.453  1.00  0.00     0.002 C 
HETATM   27  C17 UNL     1       0.404  -7.903 -25.352  1.00  0.00     0.000 C 
HETATM   28  C18 UNL     1       1.014  -8.034 -23.983  1.00  0.00     0.002 C 
HETATM   29  C19 UNL     1       2.311  -7.262 -23.906  1.00  0.00     0.025 C 
ENDBRANCH   8  24
TORSDOF 2
ENDMDL
MODEL 2
REMARK VINA RESULT: -8.748025653      1.934      2.503
REMARK  2 active torsions:
REMARK  status: ('A' for Active; 'I' for Inactive)
REMARK       I    between atoms: N2_12  and  C8_13 
REMARK    1  A    between atoms: C8_13  and  C9_15 
REMARK       I    between atoms: N3_19  and  C13_20 
REMARK       I    between atoms: C13_20  and  N4_22 
REMARK    2  A    between atoms: N4_22  and  C14_24 
ROOT
HETATM    1  C9  UNL     1       4.158 -10.014 -23.171  1.00  0.00     0.181 C 
HETATM    2  C10 UNL     1       4.636  -9.841 -21.716  1.00  0.00     0.037 C 
HETATM    3  C11 UNL     1       5.348  -8.513 -21.829  1.00  0.00     0.022 C 
HETATM    4  C12 UNL     1       4.639  -7.740 -22.890  1.00  0.00     0.129 C 
HETATM    5  N3  UNL     1       3.715  -8.672 -23.467  1.00  0.00    -0.321 N 
HETATM    6  C13 UNL     1       2.565  -8.334 -24.205  1.00  0.00     0.319 C 
HETATM    7  O3  UNL     1       2.255  -7.110 -24.408  1.00  0.00    -0.247 OA
HETATM    8  N4  UNL     1       1.723  -9.333 -24.743  1.00  0.00    -0.338 N 
ATOM      9  H4  UNL     1       1.959 -10.314 -24.590  1.00  0.00     0.164 HD
ENDROOT
BRANCH   1  10
HETATM   10  C8  UNL     1       5.360 -10.376 -23.978  1.00  0.00     0.244 C 
HETATM   11  N2  UNL     1       5.725 -11.658 -24.424  1.00  0.00    -0.321 N 
HETATM   12  C3  UNL     1       5.019 -12.890 -24.234  1.00  0.00     0.300 C 
HETATM   13  C7  UNL     1       6.981 -11.749 -25.158  1.00  0.00     0.128 C 
HETATM   14  N1  UNL     1       3.614 -12.860 -24.236  1.00  0.00    -0.047 N 
HETATM   15  C4  UNL     1       5.338 -13.724 -25.492  1.00  0.00     0.107 C 
HETATM   16  C2  UNL     1       3.168 -14.144 -24.727  1.00  0.00     0.313 C 
ATOM     17  H12 UNL     1       3.230 -12.075 -24.760  1.00  0.00     0.280 HD
ATOM     18  H11 UNL     1       3.217 -12.618 -23.329  1.00  0.00     0.280 HD
HETATM   19  C1  UNL     1       4.336 -14.785 -25.383  1.00  0.00     0.160 C 
HETATM   20  O1  UNL     1       4.338 -15.954 -25.716  1.00  0.00    -0.296 OA
HETATM   21  C5  UNL     1       6.748 -14.235 -25.239  1.00  0.00     0.018 C 
HETATM   22  C6  UNL     1       7.679 -13.067 -25.016  1.00  0.00     0.021 C 
HETATM   23  O2  UNL     1       6.166  -9.413 -24.312  1.00  0.00    -0.271 OA
ENDBRANCH   1  10
BRANCH   8  24
HETATM   24  C14 UNL     1       0.539  -9.006 -25.502  1.00  0.00     0.086 C 
HETATM   25  C15 UNL     1       0.891  -9.107 -26.969  1.00  0.00     0.025 C 
HETATM   26  C16 UNL     1      -0.383  -9.067 -27.779  1.00  0.00     0.002 C 
HETATM   27  C17 UNL     1      -1.159 -10.331 -27.535  1.00  0.00     0.000 C 
HETATM   28  C18 UNL     1      -0.850 -10.964 -26.206  1.00  0.00     0.002 C 
HETATM   29  C19 UNL     1      -0.628  -9.903 -25.153  1.00  0.00     0.025 C 
ENDBRANCH   8  24
TORSDOF 2
ENDMDL
MODEL 3
REMARK VINA RESULT: -8.609176535      1.955      2.832
REMARK  2 active torsions:
REMARK  status: ('A' for Active; 'I' for Inactive)
REMARK       I    between atoms: N2_12  and  C8_13 
REMARK    1  A    between atoms: C8_13  and  C9_15 
REMARK       I    between atoms: N3_19  and  C13_20 
REMARK       I    between atoms: C13_20  and  N4_22 
REMARK    2  A    between atoms: N4_22  and  C14_24 
ROOT
HETATM    1  C9  UNL     1       4.076  -8.695 -23.152  1.00  0.00     0.181 C 
HETATM    2  C10 UNL     1       4.610  -7.955 -21.911  1.00  0.00     0.037 C 
HETATM    3  C11 UNL     1       5.315  -6.797 -22.578  1.00  0.00     0.022 C 
HETATM    4  C12 UNL     1       4.564  -6.509 -23.834  1.00  0.00     0.129 C 
HETATM    5  N3  UNL     1       3.620  -7.582 -23.950  1.00  0.00    -0.321 N 
HETATM    6  C13 UNL     1       2.441  -7.554 -24.720  1.00  0.00     0.319 C 
HETATM    7  O3  UNL     1       2.122  -6.513 -25.389  1.00  0.00    -0.247 OA
HETATM    8  N4  UNL     1       1.581  -8.674 -24.775  1.00  0.00    -0.338 N 
ATOM      9  H4  UNL     1       1.824  -9.512 -24.248  1.00  0.00     0.164 HD
ENDROOT
BRANCH   1  10
HETATM   10  C8  UNL     1       5.246  -9.369 -23.787  1.00  0.00     0.244 C 
HETATM   11  N2  UNL     1       5.399 -10.745 -24.033  1.00  0.00    -0.321 N 
HETATM   12  C3  UNL     1       4.464 -11.797 -23.762  1.00  0.00     0.300 C 
HETATM   13  C7  UNL     1       6.667 -11.155 -24.624  1.00  0.00     0.128 C 
HETATM   14  N1  UNL     1       3.093 -11.523 -23.905  1.00  0.00    -0.047 N 
HETATM   15  C4  UNL     1       4.715 -12.840 -24.870  1.00  0.00     0.107 C 
HETATM   16  C2  UNL     1       2.454 -12.766 -24.275  1.00  0.00     0.313 C 
ATOM     17  H12 UNL     1       2.901 -10.763 -24.557  1.00  0.00     0.280 HD
ATOM     18  H11 UNL     1       2.682 -11.091 -23.078  1.00  0.00     0.280 HD
HETATM   19  C1  UNL     1       3.528 -13.685 -24.730  1.00  0.00     0.160 C 
HETATM   20  O1  UNL     1       3.337 -14.871 -24.913  1.00  0.00    -0.296 OA
HETATM   21  C5  UNL     1       5.983 -13.549 -24.419  1.00  0.00     0.018 C 
HETATM   22  C6  UNL     1       7.095 -12.542 -24.253  1.00  0.00     0.021 C 
HETATM   23  O2  UNL     1       6.239  -8.618 -24.158  1.00  0.00    -0.271 OA
ENDBRANCH   1  10
BRANCH   8  24
HETATM   24  C14 UNL     1       0.367  -8.665 -25.558  1.00  0.00     0.086 C 
HETATM   25  C15 UNL     1       0.747  -8.927 -26.999  1.00  0.00     0.025 C 
HETATM   26  C16 UNL     1      -0.506  -9.220 -27.787  1.00  0.00     0.002 C 
HETATM   27  C17 UNL     1      -1.067 -10.542 -27.344  1.00  0.00     0.000 C 
HETATM   28  C18 UNL     1      -0.671 -10.908 -25.939  1.00  0.00     0.002 C 
HETATM   29  C19 UNL     1      -0.639  -9.678 -25.062  1.00  0.00     0.025 C 
ENDBRANCH   8  24
TORSDOF 2
ENDMDL
MODEL 4
REMARK VINA RESULT: -8.545092034      2.126      6.716
REMARK  2 active torsions:
REMARK  status: ('A' for Active; 'I' for Inactive)
REMARK       I    between atoms: N2_12  and  C8_13 
REMARK    1  A    between atoms: C8_13  and  C9_15 
REMARK       I    between atoms: N3_19  and  C13_20 
REMARK       I    between atoms: C13_20  and  N4_22 
REMARK    2  A    between atoms: N4_22  and  C14_24 
ROOT
HETATM    1  C9  UNL     1       5.940  -9.083 -23.794  1.00  0.00     0.181 C 
HETATM    2  C10 UNL     1       6.776  -7.975 -24.462  1.00  0.00     0.037 C 
HETATM    3  C11 UNL     1       8.013  -8.020 -23.596  1.00  0.00     0.022 C 
HETATM    4  C12 UNL     1       8.160  -9.432 -23.138  1.00  0.00     0.129 C 
HETATM    5  N3  UNL     1       6.956 -10.083 -23.566  1.00  0.00    -0.321 N 
HETATM    6  C13 UNL     1       6.791 -11.471 -23.732  1.00  0.00     0.319 C 
HETATM    7  O3  UNL     1       7.759 -12.275 -23.508  1.00  0.00    -0.247 OA
HETATM    8  N4  UNL     1       5.554 -12.013 -24.148  1.00  0.00    -0.338 N 
ATOM      9  H4  UNL     1       4.773 -11.383 -24.329  1.00  0.00     0.164 HD
ENDROOT
BRANCH   1  10
HETATM   10  C8  UNL     1       5.435  -8.522 -22.506  1.00  0.00     0.244 C 
HETATM   11  N2  UNL     1       4.602  -7.402 -22.340  1.00  0.00    -0.321 N 
HETATM   12  C3  UNL     1       4.029  -6.572 -23.358  1.00  0.00     0.300 C 
HETATM   13  C7  UNL     1       4.292  -7.031 -20.964  1.00  0.00     0.128 C 
HETATM   14  N1  UNL     1       3.641  -7.172 -24.567  1.00  0.00    -0.047 N 
HETATM   15  C4  UNL     1       2.684  -6.101 -22.769  1.00  0.00     0.107 C 
HETATM   16  C2  UNL     1       2.537  -6.396 -25.085  1.00  0.00     0.313 C 
ATOM     17  H12 UNL     1       3.424  -8.164 -24.471  1.00  0.00     0.280 HD
ATOM     18  H11 UNL     1       4.408  -7.271 -25.231  1.00  0.00     0.280 HD
HETATM   19  C1  UNL     1       2.031  -5.564 -23.964  1.00  0.00     0.160 C 
HETATM   20  O1  UNL     1       1.241  -4.655 -24.131  1.00  0.00    -0.296 OA
HETATM   21  C5  UNL     1       3.080  -5.008 -21.789  1.00  0.00     0.018 C 
HETATM   22  C6  UNL     1       4.041  -5.567 -20.768  1.00  0.00     0.021 C 
HETATM   23  O2  UNL     1       5.796  -9.123 -21.412  1.00  0.00    -0.271 OA
ENDBRANCH   1  10
BRANCH   8  24
HETATM   24  C14 UNL     1       5.366 -13.434 -24.325  1.00  0.00     0.086 C 
HETATM   25  C15 UNL     1       3.919 -13.662 -24.704  1.00  0.00     0.025 C 
HETATM   26  C16 UNL     1       3.761 -15.085 -25.184  1.00  0.00     0.002 C 
HETATM   27  C17 UNL     1       4.477 -15.242 -26.496  1.00  0.00     0.000 C 
HETATM   28  C18 UNL     1       5.597 -14.255 -26.677  1.00  0.00     0.002 C 
HETATM   29  C19 UNL     1       6.303 -14.009 -25.364  1.00  0.00     0.025 C 
ENDBRANCH   8  24
TORSDOF 2
ENDMDL
MODEL 5
REMARK VINA RESULT: -8.489527266      1.991      3.248
REMARK  2 active torsions:
REMARK  status: ('A' for Active; 'I' for Inactive)
REMARK       I    between atoms: N2_12  and  C8_13 
REMARK    1  A    between atoms: C8_13  and  C9_15 
REMARK       I    between atoms: N3_19  and  C13_20 
REMARK       I    between atoms: C13_20  and  N4_22 
REMARK    2  A    between atoms: N4_22  and  C14_24 
ROOT
HETATM    1  C9  UNL     1       4.083  -7.902 -22.940  1.00  0.00     0.181 C 
HETATM    2  C10 UNL     1       4.440  -7.179 -21.627  1.00  0.00     0.037 C 
HETATM    3  C11 UNL     1       4.994  -5.887 -22.180  1.00  0.00     0.022 C 
HETATM    4  C12 UNL     1       4.270  -5.626 -23.457  1.00  0.00     0.129 C 
HETATM    5  N3  UNL     1       3.504  -6.815 -23.694  1.00  0.00    -0.321 N 
HETATM    6  C13 UNL     1       2.374  -6.908 -24.528  1.00  0.00     0.319 C 
HETATM    7  O3  UNL     1       1.934  -5.881 -25.149  1.00  0.00    -0.247 OA
HETATM    8  N4  UNL     1       1.695  -8.135 -24.701  1.00  0.00    -0.338 N 
ATOM      9  H4  UNL     1       2.035  -8.962 -24.212  1.00  0.00     0.164 HD
ENDROOT
BRANCH   1  10
HETATM   10  C8  UNL     1       5.371  -8.352 -23.546  1.00  0.00     0.244 C 
HETATM   11  N2  UNL     1       5.791  -9.678 -23.753  1.00  0.00    -0.321 N 
HETATM   12  C3  UNL     1       5.073 -10.884 -23.461  1.00  0.00     0.300 C 
HETATM   13  C7  UNL     1       7.122  -9.848 -24.321  1.00  0.00     0.128 C 
HETATM   14  N1  UNL     1       3.678 -10.885 -23.624  1.00  0.00    -0.047 N 
HETATM   15  C4  UNL     1       5.538 -11.886 -24.538  1.00  0.00     0.107 C 
HETATM   16  C2  UNL     1       3.297 -12.237 -23.965  1.00  0.00     0.313 C 
ATOM     17  H12 UNL     1       3.352 -10.194 -24.298  1.00  0.00     0.280 HD
ATOM     18  H11 UNL     1       3.180 -10.521 -22.813  1.00  0.00     0.280 HD
HETATM   19  C1  UNL     1       4.535 -12.941 -24.385  1.00  0.00     0.160 C 
HETATM   20  O1  UNL     1       4.581 -14.146 -24.537  1.00  0.00    -0.296 OA
HETATM   21  C5  UNL     1       6.913 -12.323 -24.057  1.00  0.00     0.018 C 
HETATM   22  C6  UNL     1       7.806 -11.116 -23.908  1.00  0.00     0.021 C 
HETATM   23  O2  UNL     1       6.204  -7.432 -23.928  1.00  0.00    -0.271 OA
ENDBRANCH   1  10
BRANCH   8  24
HETATM   24  C14 UNL     1       0.533  -8.250 -25.551  1.00  0.00     0.086 C 
HETATM   25  C15 UNL     1       1.016  -8.553 -26.952  1.00  0.00     0.025 C 
HETATM   26  C16 UNL     1      -0.165  -8.972 -27.794  1.00  0.00     0.002 C 
HETATM   27  C17 UNL     1      -0.659 -10.308 -27.316  1.00  0.00     0.000 C 
HETATM   28  C18 UNL     1      -0.325 -10.578 -25.874  1.00  0.00     0.002 C 
HETATM   29  C19 UNL     1      -0.430  -9.308 -25.061  1.00  0.00     0.025 C 
ENDBRANCH   8  24
TORSDOF 2
ENDMDL
