MODEL 1
REMARK VINA RESULT: -9.488307334      0.000      0.000
REMARK  3 active torsions:
REMARK  status: ('A' for Active; 'I' for Inactive)
REMARK       I    between atoms: C1_2  and  N1_3 
REMARK       I    between atoms: C1_2  and  N3_20 
REMARK    1  A    between atoms: N1_3  and  C2_5 
REMARK       I    between atoms: N2_12  and  C9_13 
REMARK    2  A    between atoms: C9_13  and  C10_15 
REMARK    3  A    between atoms: C18_24  and  O3_25 
ROOT
HETATM    1  C2  UNL     1       4.610  -7.963 -22.971  1.00  0.00     0.092 C 
HETATM    2  C3  UNL     1       6.063  -8.266 -23.230  1.00  0.00     0.028 C 
HETATM    3  C4  UNL     1       6.212  -9.766 -23.114  1.00  0.00     0.028 C 
HETATM    4  C5  UNL     1       4.848 -10.360 -23.050  1.00  0.00     0.093 C 
HETATM    5  C6  UNL     1       3.865  -9.250 -23.232  1.00  0.00     0.033 C 
HETATM    6  C7  UNL     1       3.516  -9.404 -24.718  1.00  0.00     0.028 C 
HETATM    7  C8  UNL     1       3.364 -10.936 -24.741  1.00  0.00     0.127 C 
HETATM    8  N2  UNL     1       4.589 -11.334 -24.116  1.00  0.00    -0.347 N 
HETATM    9  C9  UNL     1       5.398 -12.426 -24.413  1.00  0.00     0.224 C 
HETATM   10  O2  UNL     1       6.443 -12.599 -23.680  1.00  0.00    -0.273 OA
ENDROOT
BRANCH   1  11
HETATM   11  N1  UNL     1       4.367  -7.584 -21.595  1.00  0.00    -0.338 N 
HETATM   12  C1  UNL     1       4.105  -6.267 -21.174  1.00  0.00     0.318 C 
HETATM   13  O1  UNL     1       4.079  -5.357 -22.033  1.00  0.00    -0.247 OA
HETATM   14  N3  UNL     1       3.873  -5.942 -19.824  1.00  0.00    -0.332 N 
HETATM   15  C15 UNL     1       3.612  -4.559 -19.426  1.00  0.00     0.127 C 
HETATM   16  C19 UNL     1       3.872  -6.917 -18.753  1.00  0.00     0.159 C 
HETATM   17  C16 UNL     1       2.256  -4.407 -18.809  1.00  0.00     0.022 C 
HETATM   18  C17 UNL     1       1.762  -5.778 -18.403  1.00  0.00     0.035 C 
HETATM   19  C18 UNL     1       2.890  -6.500 -17.657  1.00  0.00     0.136 C 
ATOM     20  H1  UNL     1       4.386  -8.316 -20.886  1.00  0.00     0.164 HD
BRANCH  19  21
HETATM   21  O3  UNL     1       2.328  -7.620 -17.088  1.00  0.00    -0.394 OA
ATOM     22  H3  UNL     1       3.030  -8.252 -16.986  1.00  0.00     0.210 HD
ENDBRANCH  19  21
ENDBRANCH   1  11
BRANCH   9  23
HETATM   23  C10 UNL     1       5.204 -13.413 -25.474  1.00  0.00     0.078 C 
HETATM   24  C11 UNL     1       6.219 -13.411 -26.565  1.00  0.00     0.014 C 
HETATM   25  C12 UNL     1       6.502 -14.883 -26.898  1.00  0.00     0.001 C 
HETATM   26  C13 UNL     1       5.297 -15.618 -26.300  1.00  0.00     0.001 C 
HETATM   27  C14 UNL     1       5.165 -14.837 -24.988  1.00  0.00     0.014 C 
ENDBRANCH   9  23
TORSDOF 3
ENDMDL
MODEL 2
REMARK VINA RESULT: -8.907922614      4.308      5.953
REMARK  3 active torsions:
REMARK  status: ('A' for Active; 'I' for Inactive)
REMARK       I    between atoms: C1_2  and  N1_3 
REMARK       I    between atoms: C1_2  and  N3_20 
REMARK    1  A    between atoms: N1_3  and  C2_5 
REMARK       I    between atoms: N2_12  and  C9_13 
REMARK    2  A    between atoms: C9_13  and  C10_15 
REMARK    3  A    between atoms: C18_24  and  O3_25 
ROOT
HETATM    1  C2  UNL     1       3.681 -12.344 -24.056  1.00  0.00     0.092 C 
HETATM    2  C3  UNL     1       3.659 -13.778 -24.520  1.00  0.00     0.028 C 
HETATM    3  C4  UNL     1       4.642 -13.869 -25.665  1.00  0.00     0.028 C 
HETATM    4  C5  UNL     1       5.416 -12.599 -25.709  1.00  0.00     0.093 C 
HETATM    5  C6  UNL     1       4.992 -11.773 -24.539  1.00  0.00     0.033 C 
HETATM    6  C7  UNL     1       6.128 -12.057 -23.548  1.00  0.00     0.028 C 
HETATM    7  C8  UNL     1       7.305 -11.931 -24.533  1.00  0.00     0.127 C 
HETATM    8  N2  UNL     1       6.865 -12.797 -25.585  1.00  0.00    -0.347 N 
HETATM    9  C9  UNL     1       7.622 -13.660 -26.371  1.00  0.00     0.224 C 
HETATM   10  O2  UNL     1       7.000 -14.317 -27.288  1.00  0.00    -0.273 OA
ENDROOT
BRANCH   1  11
HETATM   11  N1  UNL     1       2.614 -11.561 -24.645  1.00  0.00    -0.338 N 
HETATM   12  C1  UNL     1       2.237 -10.282 -24.200  1.00  0.00     0.318 C 
HETATM   13  O1  UNL     1       2.853  -9.777 -23.235  1.00  0.00    -0.247 OA
HETATM   14  N3  UNL     1       1.193  -9.554 -24.803  1.00  0.00    -0.332 N 
HETATM   15  C15 UNL     1       0.826  -8.229 -24.305  1.00  0.00     0.127 C 
HETATM   16  C19 UNL     1       0.423 -10.041 -25.929  1.00  0.00     0.159 C 
HETATM   17  C16 UNL     1       1.018  -7.173 -25.349  1.00  0.00     0.022 C 
HETATM   18  C17 UNL     1       1.117  -7.850 -26.699  1.00  0.00     0.035 C 
HETATM   19  C18 UNL     1      -0.019  -8.873 -26.814  1.00  0.00     0.136 C 
ATOM     20  H1  UNL     1       2.105 -11.963 -25.431  1.00  0.00     0.164 HD
BRANCH  19  21
HETATM   21  O3  UNL     1      -0.051  -9.276 -28.129  1.00  0.00    -0.394 OA
ATOM     22  H3  UNL     1       0.849  -9.281 -28.433  1.00  0.00     0.210 HD
ENDBRANCH  19  21
ENDBRANCH   1  11
BRANCH   9  23
HETATM   23  C10 UNL     1       9.058 -13.916 -26.278  1.00  0.00     0.078 C 
HETATM   24  C11 UNL     1       9.454 -15.303 -25.905  1.00  0.00     0.014 C 
HETATM   25  C12 UNL     1      10.666 -15.658 -26.777  1.00  0.00     0.001 C 
HETATM   26  C13 UNL     1      11.167 -14.293 -27.259  1.00  0.00     0.001 C 
HETATM   27  C14 UNL     1       9.816 -13.628 -27.546  1.00  0.00     0.014 C 
ENDBRANCH   9  23
TORSDOF 3
ENDMDL
MODEL 3
REMARK VINA RESULT: -7.775715093      3.122      8.961
REMARK  3 active torsions:
REMARK  status: ('A' for Active; 'I' for Inactive)
REMARK       I    between atoms: C1_2  and  N1_3 
REMARK       I    between atoms: C1_2  and  N3_20 
REMARK    1  A    between atoms: N1_3  and  C2_5 
REMARK       I    between atoms: N2_12  and  C9_13 
REMARK    2  A    between atoms: C9_13  and  C10_15 
REMARK    3  A    between atoms: C18_24  and  O3_25 
ROOT
HETATM    1  C2  UNL     1       7.207 -10.070 -22.968  1.00  0.00     0.092 C 
HETATM    2  C3  UNL     1       8.010  -8.795 -22.955  1.00  0.00     0.028 C 
HETATM    3  C4  UNL     1       7.281  -7.824 -23.857  1.00  0.00     0.028 C 
HETATM    4  C5  UNL     1       5.953  -8.411 -24.185  1.00  0.00     0.093 C 
HETATM    5  C6  UNL     1       5.817  -9.680 -23.411  1.00  0.00     0.033 C 
HETATM    6  C7  UNL     1       4.961  -9.214 -22.226  1.00  0.00     0.028 C 
HETATM    7  C8  UNL     1       3.946  -8.370 -23.017  1.00  0.00     0.127 C 
HETATM    8  N2  UNL     1       4.828  -7.553 -23.795  1.00  0.00    -0.347 N 
HETATM    9  C9  UNL     1       4.683  -6.216 -24.150  1.00  0.00     0.224 C 
HETATM   10  O2  UNL     1       5.601  -5.703 -24.894  1.00  0.00    -0.273 OA
ENDROOT
BRANCH   1  11
HETATM   11  N1  UNL     1       7.721 -11.031 -23.923  1.00  0.00    -0.338 N 
HETATM   12  C1  UNL     1       7.175 -12.311 -24.125  1.00  0.00     0.318 C 
HETATM   13  O1  UNL     1       6.183 -12.654 -23.443  1.00  0.00    -0.247 OA
HETATM   14  N3  UNL     1       7.705 -13.214 -25.065  1.00  0.00    -0.332 N 
HETATM   15  C15 UNL     1       7.113 -14.540 -25.241  1.00  0.00     0.127 C 
HETATM   16  C19 UNL     1       8.843 -12.915 -25.911  1.00  0.00     0.159 C 
HETATM   17  C16 UNL     1       6.584 -14.731 -26.628  1.00  0.00     0.022 C 
HETATM   18  C17 UNL     1       7.201 -13.677 -27.522  1.00  0.00     0.035 C 
HETATM   19  C18 UNL     1       8.710 -13.636 -27.254  1.00  0.00     0.136 C 
ATOM     20  H1  UNL     1       8.529 -10.762 -24.483  1.00  0.00     0.164 HD
BRANCH  19  21
HETATM   21  O3  UNL     1       9.264 -12.864 -28.250  1.00  0.00    -0.394 OA
ATOM     22  H3  UNL     1       9.958 -13.383 -28.639  1.00  0.00     0.210 HD
ENDBRANCH  19  21
ENDBRANCH   1  11
BRANCH   9  23
HETATM   23  C10 UNL     1       3.600  -5.310 -23.773  1.00  0.00     0.078 C 
HETATM   24  C11 UNL     1       3.585  -4.863 -22.351  1.00  0.00     0.014 C 
HETATM   25  C12 UNL     1       3.208  -3.375 -22.368  1.00  0.00     0.001 C 
HETATM   26  C13 UNL     1       2.584  -3.183 -23.755  1.00  0.00     0.001 C 
HETATM   27  C14 UNL     1       3.557  -4.037 -24.576  1.00  0.00     0.014 C 
ENDBRANCH   9  23
TORSDOF 3
ENDMDL
MODEL 4
REMARK VINA RESULT: -7.764206437      2.104      3.580
REMARK  3 active torsions:
REMARK  status: ('A' for Active; 'I' for Inactive)
REMARK       I    between atoms: C1_2  and  N1_3 
REMARK       I    between atoms: C1_2  and  N3_20 
REMARK    1  A    between atoms: N1_3  and  C2_5 
REMARK       I    between atoms: N2_12  and  C9_13 
REMARK    2  A    between atoms: C9_13  and  C10_15 
REMARK    3  A    between atoms: C18_24  and  O3_25 
ROOT
HETATM    1  C2  UNL     1       5.722  -8.392 -22.071  1.00  0.00     0.092 C 
HETATM    2  C3  UNL     1       4.482  -9.220 -21.849  1.00  0.00     0.028 C 
HETATM    3  C4  UNL     1       4.245  -9.982 -23.134  1.00  0.00     0.028 C 
HETATM    4  C5  UNL     1       5.447  -9.816 -23.995  1.00  0.00     0.093 C 
HETATM    5  C6  UNL     1       6.460  -9.049 -23.211  1.00  0.00     0.033 C 
HETATM    6  C7  UNL     1       7.368 -10.182 -22.713  1.00  0.00     0.028 C 
HETATM    7  C8  UNL     1       7.460 -10.974 -24.030  1.00  0.00     0.127 C 
HETATM    8  N2  UNL     1       6.074 -11.090 -24.368  1.00  0.00    -0.347 N 
HETATM    9  C9  UNL     1       5.411 -12.165 -24.949  1.00  0.00     0.224 C 
HETATM   10  O2  UNL     1       4.154 -12.019 -25.193  1.00  0.00    -0.273 OA
ENDROOT
BRANCH   1  11
HETATM   11  N1  UNL     1       5.409  -7.036 -22.471  1.00  0.00    -0.338 N 
HETATM   12  C1  UNL     1       4.703  -6.120 -21.670  1.00  0.00     0.318 C 
HETATM   13  O1  UNL     1       4.314  -6.489 -20.539  1.00  0.00    -0.247 OA
HETATM   14  N3  UNL     1       4.421  -4.809 -22.098  1.00  0.00    -0.332 N 
HETATM   15  C15 UNL     1       3.677  -3.889 -21.238  1.00  0.00     0.127 C 
HETATM   16  C19 UNL     1       4.831  -4.279 -23.382  1.00  0.00     0.159 C 
HETATM   17  C16 UNL     1       4.491  -2.685 -20.881  1.00  0.00     0.022 C 
HETATM   18  C17 UNL     1       5.648  -2.587 -21.851  1.00  0.00     0.035 C 
HETATM   19  C18 UNL     1       5.106  -2.778 -23.273  1.00  0.00     0.136 C 
ATOM     20  H1  UNL     1       5.720  -6.725 -23.391  1.00  0.00     0.164 HD
BRANCH  19  21
HETATM   21  O3  UNL     1       6.126  -2.431 -24.130  1.00  0.00    -0.394 OA
ATOM     22  H3  UNL     1       6.500  -3.243 -24.448  1.00  0.00     0.210 HD
ENDBRANCH  19  21
ENDBRANCH   1  11
BRANCH   9  23
HETATM   23  C10 UNL     1       5.976 -13.462 -25.319  1.00  0.00     0.078 C 
HETATM   24  C11 UNL     1       5.182 -14.659 -24.924  1.00  0.00     0.014 C 
HETATM   25  C12 UNL     1       5.260 -15.640 -26.104  1.00  0.00     0.001 C 
HETATM   26  C13 UNL     1       6.467 -15.137 -26.902  1.00  0.00     0.001 C 
HETATM   27  C14 UNL     1       6.215 -13.629 -26.796  1.00  0.00     0.014 C 
ENDBRANCH   9  23
TORSDOF 3
ENDMDL
MODEL 5
REMARK VINA RESULT: -7.760938323      2.951      4.532
REMARK  3 active torsions:
REMARK  status: ('A' for Active; 'I' for Inactive)
REMARK       I    between atoms: C1_2  and  N1_3 
REMARK       I    between atoms: C1_2  and  N3_20 
REMARK    1  A    between atoms: N1_3  and  C2_5 
REMARK       I    between atoms: N2_12  and  C9_13 
REMARK    2  A    between atoms: C9_13  and  C10_15 
REMARK    3  A    between atoms: C18_24  and  O3_25 
ROOT
HETATM    1  C2  UNL     1       5.632  -7.962 -22.948  1.00  0.00     0.092 C 
HETATM    2  C3  UNL     1       4.333  -8.485 -22.391  1.00  0.00     0.028 C 
HETATM    3  C4  UNL     1       3.841  -9.529 -23.368  1.00  0.00     0.028 C 
HETATM    4  C5  UNL     1       4.939  -9.807 -24.334  1.00  0.00     0.093 C 
HETATM    5  C6  UNL     1       6.132  -9.023 -23.898  1.00  0.00     0.033 C 
HETATM    6  C7  UNL     1       6.940 -10.100 -23.162  1.00  0.00     0.028 C 
HETATM    7  C8  UNL     1       6.765 -11.235 -24.187  1.00  0.00     0.127 C 
HETATM    8  N2  UNL     1       5.344 -11.217 -24.362  1.00  0.00    -0.347 N 
HETATM    9  C9  UNL     1       4.479 -12.292 -24.542  1.00  0.00     0.224 C 
HETATM   10  O2  UNL     1       3.232 -12.021 -24.716  1.00  0.00    -0.273 OA
ENDROOT
BRANCH   1  11
HETATM   11  N1  UNL     1       5.451  -6.741 -23.705  1.00  0.00    -0.338 N 
HETATM   12  C1  UNL     1       5.133  -5.497 -23.131  1.00  0.00     0.318 C 
HETATM   13  O1  UNL     1       4.995  -5.428 -21.889  1.00  0.00    -0.247 OA
HETATM   14  N3  UNL     1       4.966  -4.333 -23.905  1.00  0.00    -0.332 N 
HETATM   15  C15 UNL     1       4.628  -3.060 -23.271  1.00  0.00     0.127 C 
HETATM   16  C19 UNL     1       5.112  -4.301 -25.346  1.00  0.00     0.159 C 
HETATM   17  C16 UNL     1       5.691  -2.030 -23.497  1.00  0.00     0.022 C 
HETATM   18  C17 UNL     1       6.558  -2.486 -24.650  1.00  0.00     0.035 C 
HETATM   19  C18 UNL     1       5.645  -2.939 -25.795  1.00  0.00     0.136 C 
ATOM     20  H1  UNL     1       5.560  -6.786 -24.718  1.00  0.00     0.164 HD
BRANCH  19  21
HETATM   21  O3  UNL     1       6.452  -3.099 -26.899  1.00  0.00    -0.394 OA
ATOM     22  H3  UNL     1       5.873  -3.181 -27.647  1.00  0.00     0.210 HD
ENDBRANCH  19  21
ENDBRANCH   1  11
BRANCH   9  23
HETATM   23  C10 UNL     1       4.821 -13.713 -24.556  1.00  0.00     0.078 C 
HETATM   24  C11 UNL     1       3.734 -14.645 -24.968  1.00  0.00     0.014 C 
HETATM   25  C12 UNL     1       4.390 -15.711 -25.858  1.00  0.00     0.001 C 
HETATM   26  C13 UNL     1       5.880 -15.585 -25.521  1.00  0.00     0.001 C 
HETATM   27  C14 UNL     1       5.982 -14.057 -25.451  1.00  0.00     0.014 C 
ENDBRANCH   9  23
TORSDOF 3
ENDMDL
