MODEL 1
REMARK VINA RESULT: -9.307031747      0.000      0.000
REMARK  2 active torsions:
REMARK  status: ('A' for Active; 'I' for Inactive)
REMARK       I    between atoms: C1_4  and  N2_5 
REMARK       I    between atoms: C1_4  and  N3_11 
REMARK       I    between atoms: N4_14  and  C8_15 
REMARK    1  A    between atoms: C8_15  and  C9_17 
REMARK    2  A    between atoms: C9_17  and  C10_18 
ROOT
HETATM    1  N1  UNL     1       0.104  -7.159 -25.798  1.00  0.00    -0.235 N 
ATOM      2  H11 UNL     1       0.040  -7.123 -24.781  1.00  0.00     0.174 HD
ATOM      3  H12 UNL     1      -0.590  -6.659 -26.353  1.00  0.00     0.174 HD
HETATM    4  C1  UNL     1       1.061  -7.834 -26.393  1.00  0.00     0.673 C 
HETATM    5  N2  UNL     1       1.149  -7.884 -27.803  1.00  0.00    -0.214 N 
HETATM    6  C2  UNL     1       2.292  -8.482 -28.433  1.00  0.00     0.167 C 
HETATM    7  C3  UNL     1       2.829  -7.466 -29.431  1.00  0.00     0.188 C 
HETATM    8  O1  UNL     1       1.834  -7.021 -30.282  1.00  0.00    -0.388 OA
HETATM    9  C4  UNL     1       0.775  -6.411 -29.643  1.00  0.00     0.188 C 
HETATM   10  C5  UNL     1       0.104  -7.341 -28.630  1.00  0.00     0.167 C 
HETATM   11  N3  UNL     1       2.021  -8.526 -25.626  1.00  0.00    -0.200 N 
HETATM   12  C6  UNL     1       3.183  -7.948 -25.006  1.00  0.00     0.163 C 
HETATM   13  C7  UNL     1       3.301  -8.778 -23.742  1.00  0.00     0.148 C 
HETATM   14  N4  UNL     1       2.980 -10.099 -24.232  1.00  0.00    -0.334 N 
HETATM   15  C8  UNL     1       3.470 -11.364 -23.787  1.00  0.00     0.221 C 
HETATM   16  O2  UNL     1       4.308 -11.410 -22.828  1.00  0.00    -0.273 OA
HETATM   17  C19 UNL     1       2.032  -9.933 -25.312  1.00  0.00     0.270 C 
ENDROOT
BRANCH  15  18
HETATM   18  C9  UNL     1       3.028 -12.628 -24.411  1.00  0.00     0.108 C 
BRANCH  18  19
HETATM   19  C10 UNL     1       4.180 -13.501 -24.709  1.00  0.00     0.000 C 
HETATM   20  C11 UNL     1       3.839 -14.790 -25.452  1.00  0.00     0.032 C 
HETATM   21  C12 UNL     1       4.979 -15.692 -25.157  1.00  0.00    -0.028 C 
HETATM   22  C13 UNL     1       6.192 -15.203 -25.293  1.00  0.00     0.007 C 
HETATM   23  C14 UNL     1       6.418 -13.801 -25.727  1.00  0.00     0.143 C 
HETATM   24  C15 UNL     1       6.698 -13.780 -27.238  1.00  0.00     0.045 C 
HETATM   25  N5  UNL     1       7.670 -13.366 -25.101  1.00  0.00    -0.063 N 
HETATM   26  C18 UNL     1       5.300 -12.862 -25.460  1.00  0.00     0.048 C 
HETATM   27  C16 UNL     1       8.175 -13.469 -27.346  1.00  0.00     0.030 C 
HETATM   28  C17 UNL     1       8.659 -13.942 -25.986  1.00  0.00     0.233 C 
ATOM     29  H52 UNL     1       7.754 -12.361 -24.953  1.00  0.00     0.278 HD
ATOM     30  H51 UNL     1       7.771 -13.616 -24.117  1.00  0.00     0.278 HD
ENDBRANCH  18  19
ENDBRANCH  15  18
TORSDOF 2
ENDMDL
MODEL 2
REMARK VINA RESULT: -8.795979795      2.794      7.820
REMARK  2 active torsions:
REMARK  status: ('A' for Active; 'I' for Inactive)
REMARK       I    between atoms: C1_4  and  N2_5 
REMARK       I    between atoms: C1_4  and  N3_11 
REMARK       I    between atoms: N4_14  and  C8_15 
REMARK    1  A    between atoms: C8_15  and  C9_17 
REMARK    2  A    between atoms: C9_17  and  C10_18 
ROOT
HETATM    1  N1  UNL     1       9.495 -11.522 -24.357  1.00  0.00    -0.235 N 
ATOM      2  H11 UNL     1       9.886 -10.810 -23.740  1.00  0.00     0.174 HD
ATOM      3  H12 UNL     1      10.131 -12.115 -24.890  1.00  0.00     0.174 HD
HETATM    4  C1  UNL     1       8.196 -11.682 -24.469  1.00  0.00     0.673 C 
HETATM    5  N2  UNL     1       7.655 -12.670 -25.323  1.00  0.00    -0.214 N 
HETATM    6  C2  UNL     1       6.245 -12.944 -25.306  1.00  0.00     0.167 C 
HETATM    7  C3  UNL     1       6.090 -14.446 -25.114  1.00  0.00     0.188 C 
HETATM    8  O1  UNL     1       6.832 -15.152 -26.043  1.00  0.00    -0.388 OA
HETATM    9  C4  UNL     1       8.186 -14.896 -25.998  1.00  0.00     0.188 C 
HETATM   10  C5  UNL     1       8.497 -13.415 -26.220  1.00  0.00     0.167 C 
HETATM   11  N3  UNL     1       7.317 -10.862 -23.732  1.00  0.00    -0.200 N 
HETATM   12  C6  UNL     1       6.948 -11.043 -22.353  1.00  0.00     0.163 C 
HETATM   13  C7  UNL     1       6.791  -9.608 -21.887  1.00  0.00     0.148 C 
HETATM   14  N4  UNL     1       6.140  -9.004 -23.027  1.00  0.00    -0.334 N 
HETATM   15  C8  UNL     1       5.197  -7.932 -23.055  1.00  0.00     0.221 C 
HETATM   16  O2  UNL     1       4.833  -7.387 -21.963  1.00  0.00    -0.273 OA
HETATM   17  C19 UNL     1       6.618  -9.693 -24.205  1.00  0.00     0.270 C 
ENDROOT
BRANCH  15  18
HETATM   18  C9  UNL     1       4.628  -7.437 -24.326  1.00  0.00     0.108 C 
BRANCH  18  19
HETATM   19  C10 UNL     1       3.184  -7.734 -24.410  1.00  0.00     0.000 C 
HETATM   20  C11 UNL     1       2.263  -6.550 -24.127  1.00  0.00     0.032 C 
HETATM   21  C12 UNL     1       0.975  -7.175 -23.741  1.00  0.00    -0.028 C 
HETATM   22  C13 UNL     1       0.518  -8.145 -24.501  1.00  0.00     0.007 C 
HETATM   23  C14 UNL     1       1.259  -8.602 -25.705  1.00  0.00     0.143 C 
HETATM   24  C15 UNL     1       0.668  -7.920 -26.949  1.00  0.00     0.045 C 
HETATM   25  N5  UNL     1       0.955 -10.025 -25.868  1.00  0.00    -0.063 N 
HETATM   26  C18 UNL     1       2.720  -8.336 -25.694  1.00  0.00     0.048 C 
HETATM   27  C16 UNL     1      -0.077  -9.023 -27.668  1.00  0.00     0.030 C 
HETATM   28  C17 UNL     1      -0.338  -9.979 -26.516  1.00  0.00     0.233 C 
ATOM     29  H52 UNL     1       1.666 -10.567 -26.359  1.00  0.00     0.278 HD
ATOM     30  H51 UNL     1       0.990 -10.578 -25.011  1.00  0.00     0.278 HD
ENDBRANCH  18  19
ENDBRANCH  15  18
TORSDOF 2
ENDMDL
MODEL 3
REMARK VINA RESULT: -8.648199700      3.735      4.492
REMARK  2 active torsions:
REMARK  status: ('A' for Active; 'I' for Inactive)
REMARK       I    between atoms: C1_4  and  N2_5 
REMARK       I    between atoms: C1_4  and  N3_11 
REMARK       I    between atoms: N4_14  and  C8_15 
REMARK    1  A    between atoms: C8_15  and  C9_17 
REMARK    2  A    between atoms: C9_17  and  C10_18 
ROOT
HETATM    1  N1  UNL     1       1.371  -6.163 -22.126  1.00  0.00    -0.235 N 
ATOM      2  H11 UNL     1       1.185  -6.955 -21.511  1.00  0.00     0.174 HD
ATOM      3  H12 UNL     1       0.584  -5.610 -22.467  1.00  0.00     0.174 HD
HETATM    4  C1  UNL     1       2.597  -5.851 -22.478  1.00  0.00     0.673 C 
HETATM    5  N2  UNL     1       2.853  -4.752 -23.330  1.00  0.00    -0.214 N 
HETATM    6  C2  UNL     1       4.203  -4.323 -23.567  1.00  0.00     0.167 C 
HETATM    7  C3  UNL     1       4.249  -2.830 -23.276  1.00  0.00     0.188 C 
HETATM    8  O1  UNL     1       3.267  -2.150 -23.972  1.00  0.00    -0.388 OA
HETATM    9  C4  UNL     1       1.983  -2.559 -23.683  1.00  0.00     0.188 C 
HETATM   10  C5  UNL     1       1.776  -4.047 -23.972  1.00  0.00     0.167 C 
HETATM   11  N3  UNL     1       3.684  -6.615 -22.007  1.00  0.00    -0.200 N 
HETATM   12  C6  UNL     1       4.310  -6.489 -20.718  1.00  0.00     0.163 C 
HETATM   13  C7  UNL     1       4.696  -7.927 -20.423  1.00  0.00     0.148 C 
HETATM   14  N4  UNL     1       5.153  -8.374 -21.718  1.00  0.00    -0.334 N 
HETATM   15  C8  UNL     1       6.169  -9.328 -22.029  1.00  0.00     0.221 C 
HETATM   16  O2  UNL     1       6.801  -9.903 -21.084  1.00  0.00    -0.273 OA
HETATM   17  C19 UNL     1       4.379  -7.663 -22.712  1.00  0.00     0.270 C 
ENDROOT
BRANCH  15  18
HETATM   18  C9  UNL     1       6.509  -9.668 -23.427  1.00  0.00     0.108 C 
BRANCH  18  19
HETATM   19  C10 UNL     1       5.987 -11.001 -23.787  1.00  0.00     0.000 C 
HETATM   20  C11 UNL     1       4.610 -11.000 -24.445  1.00  0.00     0.032 C 
HETATM   21  C12 UNL     1       4.095 -12.372 -24.212  1.00  0.00    -0.028 C 
HETATM   22  C13 UNL     1       4.902 -13.376 -24.472  1.00  0.00     0.007 C 
HETATM   23  C14 UNL     1       6.280 -13.152 -24.980  1.00  0.00     0.143 C 
HETATM   24  C15 UNL     1       6.284 -13.307 -26.509  1.00  0.00     0.045 C 
HETATM   25  N5  UNL     1       7.095 -14.263 -24.482  1.00  0.00    -0.063 N 
HETATM   26  C18 UNL     1       6.872 -11.830 -24.657  1.00  0.00     0.048 C 
HETATM   27  C16 UNL     1       6.998 -14.617 -26.756  1.00  0.00     0.030 C 
HETATM   28  C17 UNL     1       6.773 -15.313 -25.425  1.00  0.00     0.233 C 
ATOM     29  H52 UNL     1       8.089 -14.060 -24.383  1.00  0.00     0.278 HD
ATOM     30  H51 UNL     1       6.949 -14.502 -23.501  1.00  0.00     0.278 HD
ENDBRANCH  18  19
ENDBRANCH  15  18
TORSDOF 2
ENDMDL
MODEL 4
REMARK VINA RESULT: -8.627666335      2.192      3.064
REMARK  2 active torsions:
REMARK  status: ('A' for Active; 'I' for Inactive)
REMARK       I    between atoms: C1_4  and  N2_5 
REMARK       I    between atoms: C1_4  and  N3_11 
REMARK       I    between atoms: N4_14  and  C8_15 
REMARK    1  A    between atoms: C8_15  and  C9_17 
REMARK    2  A    between atoms: C9_17  and  C10_18 
ROOT
HETATM    1  N1  UNL     1       1.329  -6.067 -24.029  1.00  0.00    -0.235 N 
ATOM      2  H11 UNL     1       1.812  -5.566 -23.283  1.00  0.00     0.174 HD
ATOM      3  H12 UNL     1       0.337  -5.887 -24.180  1.00  0.00     0.174 HD
HETATM    4  C1  UNL     1       1.964  -6.930 -24.788  1.00  0.00     0.673 C 
HETATM    5  N2  UNL     1       1.295  -7.623 -25.821  1.00  0.00    -0.214 N 
HETATM    6  C2  UNL     1       2.038  -8.432 -26.746  1.00  0.00     0.167 C 
HETATM    7  C3  UNL     1       1.638  -7.985 -28.145  1.00  0.00     0.188 C 
HETATM    8  O1  UNL     1       0.264  -7.993 -28.303  1.00  0.00    -0.388 OA
HETATM    9  C4  UNL     1      -0.411  -7.169 -27.427  1.00  0.00     0.188 C 
HETATM   10  C5  UNL     1      -0.134  -7.534 -25.968  1.00  0.00     0.167 C 
HETATM   11  N3  UNL     1       3.337  -7.179 -24.578  1.00  0.00    -0.200 N 
HETATM   12  C6  UNL     1       4.425  -6.368 -25.054  1.00  0.00     0.163 C 
HETATM   13  C7  UNL     1       5.435  -6.520 -23.932  1.00  0.00     0.148 C 
HETATM   14  N4  UNL     1       5.298  -7.921 -23.608  1.00  0.00    -0.334 N 
HETATM   15  C8  UNL     1       6.289  -8.833 -23.134  1.00  0.00     0.221 C 
HETATM   16  O2  UNL     1       7.481  -8.422 -22.949  1.00  0.00    -0.273 OA
HETATM   17  C19 UNL     1       3.919  -8.282 -23.855  1.00  0.00     0.270 C 
ENDROOT
BRANCH  15  18
HETATM   18  C9  UNL     1       5.967 -10.247 -22.852  1.00  0.00     0.108 C 
BRANCH  18  19
HETATM   19  C10 UNL     1       6.562 -11.137 -23.869  1.00  0.00     0.000 C 
HETATM   20  C11 UNL     1       7.995 -11.578 -23.583  1.00  0.00     0.032 C 
HETATM   21  C12 UNL     1       8.527 -11.967 -24.912  1.00  0.00    -0.028 C 
HETATM   22  C13 UNL     1       7.780 -12.745 -25.662  1.00  0.00     0.007 C 
HETATM   23  C14 UNL     1       6.450 -13.221 -25.202  1.00  0.00     0.143 C 
HETATM   24  C15 UNL     1       6.596 -14.636 -24.621  1.00  0.00     0.045 C 
HETATM   25  N5  UNL     1       5.626 -13.385 -26.403  1.00  0.00    -0.063 N 
HETATM   26  C18 UNL     1       5.789 -12.376 -24.177  1.00  0.00     0.048 C 
HETATM   27  C16 UNL     1       5.949 -15.537 -25.650  1.00  0.00     0.030 C 
HETATM   28  C17 UNL     1       6.069 -14.672 -26.893  1.00  0.00     0.233 C 
ATOM     29  H52 UNL     1       4.621 -13.300 -26.253  1.00  0.00     0.278 HD
ATOM     30  H51 UNL     1       5.686 -12.621 -27.077  1.00  0.00     0.278 HD
ENDBRANCH  18  19
ENDBRANCH  15  18
TORSDOF 2
ENDMDL
MODEL 5
REMARK VINA RESULT: -8.566080063      3.181      4.250
REMARK  2 active torsions:
REMARK  status: ('A' for Active; 'I' for Inactive)
REMARK       I    between atoms: C1_4  and  N2_5 
REMARK       I    between atoms: C1_4  and  N3_11 
REMARK       I    between atoms: N4_14  and  C8_15 
REMARK    1  A    between atoms: C8_15  and  C9_17 
REMARK    2  A    between atoms: C9_17  and  C10_18 
ROOT
HETATM    1  N1  UNL     1       3.473  -6.576 -25.667  1.00  0.00    -0.235 N 
ATOM      2  H11 UNL     1       3.075  -7.133 -26.423  1.00  0.00     0.174 HD
ATOM      3  H12 UNL     1       3.655  -5.586 -25.829  1.00  0.00     0.174 HD
HETATM    4  C1  UNL     1       3.748  -7.114 -24.501  1.00  0.00     0.673 C 
HETATM    5  N2  UNL     1       4.299  -6.341 -23.454  1.00  0.00    -0.214 N 
HETATM    6  C2  UNL     1       4.436  -6.901 -22.139  1.00  0.00     0.167 C 
HETATM    7  C3  UNL     1       3.779  -5.926 -21.173  1.00  0.00     0.188 C 
HETATM    8  O1  UNL     1       4.271  -4.644 -21.338  1.00  0.00    -0.388 OA
HETATM    9  C4  UNL     1       4.080  -4.123 -22.600  1.00  0.00     0.188 C 
HETATM   10  C5  UNL     1       4.732  -4.987 -23.681  1.00  0.00     0.167 C 
HETATM   11  N3  UNL     1       3.496  -8.483 -24.277  1.00  0.00    -0.200 N 
HETATM   12  C6  UNL     1       2.224  -9.064 -23.942  1.00  0.00     0.163 C 
HETATM   13  C7  UNL     1       2.304 -10.405 -24.647  1.00  0.00     0.148 C 
HETATM   14  N4  UNL     1       3.675 -10.783 -24.393  1.00  0.00    -0.334 N 
HETATM   15  C8  UNL     1       4.227 -12.088 -24.219  1.00  0.00     0.221 C 
HETATM   16  O2  UNL     1       3.464 -13.106 -24.283  1.00  0.00    -0.273 OA
HETATM   17  C19 UNL     1       4.450  -9.563 -24.337  1.00  0.00     0.270 C 
ENDROOT
BRANCH  15  18
HETATM   18  C9  UNL     1       5.669 -12.291 -23.965  1.00  0.00     0.108 C 
BRANCH  18  19
HETATM   19  C10 UNL     1       6.256 -13.208 -24.962  1.00  0.00     0.000 C 
HETATM   20  C11 UNL     1       5.736 -13.033 -26.386  1.00  0.00     0.032 C 
HETATM   21  C12 UNL     1       6.025 -14.332 -27.040  1.00  0.00    -0.028 C 
HETATM   22  C13 UNL     1       7.227 -14.840 -26.880  1.00  0.00     0.007 C 
HETATM   23  C14 UNL     1       8.262 -14.142 -26.075  1.00  0.00     0.143 C 
HETATM   24  C15 UNL     1       9.184 -13.351 -27.017  1.00  0.00     0.045 C 
HETATM   25  N5  UNL     1       9.113 -15.184 -25.495  1.00  0.00    -0.063 N 
HETATM   26  C18 UNL     1       7.746 -13.201 -25.050  1.00  0.00     0.048 C 
HETATM   27  C16 UNL     1      10.486 -14.121 -27.008  1.00  0.00     0.030 C 
HETATM   28  C17 UNL     1       9.992 -15.499 -26.600  1.00  0.00     0.233 C 
ATOM     29  H52 UNL     1       9.583 -14.925 -24.627  1.00  0.00     0.278 HD
ATOM     30  H51 UNL     1       8.613 -15.980 -25.097  1.00  0.00     0.278 HD
ENDBRANCH  18  19
ENDBRANCH  15  18
TORSDOF 2
ENDMDL
