MODEL 1
REMARK VINA RESULT: -7.842703533      0.000      0.000
REMARK  9 active torsions:
REMARK  status: ('A' for Active; 'I' for Inactive)
REMARK    1  A    between atoms: C1_2  and  C2_3 
REMARK       I    between atoms: C1_2  and  N5_25 
REMARK    2  A    between atoms: C2_3  and  N1_4 
REMARK    3  A    between atoms: N1_4  and  C3_5 
REMARK    4  A    between atoms: N1_4  and  C9_19 
REMARK    5  A    between atoms: C3_5  and  N2_7 
REMARK    6  A    between atoms: N2_7  and  N3_9 
REMARK    7  A    between atoms: N3_9  and  C4_11 
REMARK    8  A    between atoms: C4_11  and  N4_13 
REMARK    9  A    between atoms: N5_25  and  C15_27 
ROOT
HETATM    1  N1  UNL     1       4.450  -8.774 -22.873  1.00  0.00    -0.344 N 
ENDROOT
BRANCH   1   2
HETATM    2  C2  UNL     1       3.714 -10.022 -22.854  1.00  0.00     0.228 C 
BRANCH   2   3
HETATM    3  C1  UNL     1       3.889 -10.837 -24.072  1.00  0.00     0.235 C 
HETATM    4  O1  UNL     1       3.364 -10.475 -25.147  1.00  0.00    -0.272 OA
HETATM    5  N5  UNL     1       4.654 -12.028 -24.006  1.00  0.00    -0.355 N 
ATOM      6  H5  UNL     1       5.080 -12.320 -23.126  1.00  0.00     0.162 HD
BRANCH   5   7
HETATM    7  C15 UNL     1       4.825 -12.832 -25.210  1.00  0.00     0.084 C 
HETATM    8  C16 UNL     1       6.257 -12.680 -25.633  1.00  0.00     0.025 C 
HETATM    9  C17 UNL     1       6.755 -13.785 -26.505  1.00  0.00     0.002 C 
HETATM   10  C18 UNL     1       6.651 -15.065 -25.676  1.00  0.00     0.000 C 
HETATM   11  C19 UNL     1       5.202 -15.323 -25.452  1.00  0.00     0.002 C 
HETATM   12  C20 UNL     1       4.410 -14.220 -24.879  1.00  0.00     0.025 C 
ENDBRANCH   5   7
ENDBRANCH   2   3
ENDBRANCH   1   2
BRANCH   1  13
HETATM   13  C3  UNL     1       3.808  -7.567 -23.218  1.00  0.00     0.189 C 
HETATM   14  S1  UNL     1       4.140  -6.214 -22.360  1.00  0.00    -0.039 SA
BRANCH  13  15
HETATM   15  N2  UNL     1       2.878  -7.504 -24.295  1.00  0.00    -0.274 N 
ATOM     16  H2  UNL     1       3.170  -7.105 -25.187  1.00  0.00     0.189 HD
BRANCH  15  17
HETATM   17  N3  UNL     1       1.583  -7.975 -24.151  1.00  0.00    -0.274 N 
ATOM     18  H3  UNL     1       1.284  -8.278 -23.224  1.00  0.00     0.189 HD
BRANCH  17  19
HETATM   19  C4  UNL     1       0.644  -8.063 -25.215  1.00  0.00     0.188 C 
HETATM   20  S2  UNL     1       0.133  -6.658 -25.871  1.00  0.00    -0.039 SA
BRANCH  19  21
HETATM   21  N4  UNL     1       0.179  -9.318 -25.678  1.00  0.00    -0.353 N 
HETATM   22  C5  UNL     1      -0.446 -10.277 -24.804  1.00  0.00     0.151 C 
HETATM   23  C6  UNL     1      -0.511 -11.593 -25.590  1.00  0.00     0.187 C 
HETATM   24  O2  UNL     1      -1.256 -11.465 -26.736  1.00  0.00    -0.388 OA
HETATM   25  C7  UNL     1      -0.899 -10.418 -27.544  1.00  0.00     0.187 C 
HETATM   26  C8  UNL     1       0.325  -9.671 -27.066  1.00  0.00     0.151 C 
ENDBRANCH  19  21
ENDBRANCH  17  19
ENDBRANCH  15  17
ENDBRANCH  13  15
ENDBRANCH   1  13
BRANCH   1  27
HETATM   27  C9  UNL     1       5.870  -8.729 -22.530  1.00  0.00     0.087 C 
HETATM   28  C10 UNL     1       6.661  -8.981 -23.787  1.00  0.00     0.025 C 
HETATM   29  C11 UNL     1       8.031  -9.560 -23.471  1.00  0.00     0.002 C 
HETATM   30  C12 UNL     1       8.528  -9.049 -22.145  1.00  0.00     0.000 C 
HETATM   31  C13 UNL     1       7.630  -9.446 -21.010  1.00  0.00     0.002 C 
HETATM   32  C14 UNL     1       6.234  -9.797 -21.523  1.00  0.00     0.025 C 
ENDBRANCH   1  27
TORSDOF 9
ENDMDL
MODEL 2
REMARK VINA RESULT: -7.815653346      1.753      5.735
REMARK  9 active torsions:
REMARK  status: ('A' for Active; 'I' for Inactive)
REMARK    1  A    between atoms: C1_2  and  C2_3 
REMARK       I    between atoms: C1_2  and  N5_25 
REMARK    2  A    between atoms: C2_3  and  N1_4 
REMARK    3  A    between atoms: N1_4  and  C3_5 
REMARK    4  A    between atoms: N1_4  and  C9_19 
REMARK    5  A    between atoms: C3_5  and  N2_7 
REMARK    6  A    between atoms: N2_7  and  N3_9 
REMARK    7  A    between atoms: N3_9  and  C4_11 
REMARK    8  A    between atoms: C4_11  and  N4_13 
REMARK    9  A    between atoms: N5_25  and  C15_27 
ROOT
HETATM    1  N1  UNL     1       2.123  -9.376 -23.935  1.00  0.00    -0.344 N 
ENDROOT
BRANCH   1   2
HETATM    2  C2  UNL     1       3.058 -10.258 -23.266  1.00  0.00     0.228 C 
BRANCH   2   3
HETATM    3  C1  UNL     1       4.060 -10.860 -24.167  1.00  0.00     0.235 C 
HETATM    4  O1  UNL     1       4.742 -10.132 -24.920  1.00  0.00    -0.272 OA
HETATM    5  N5  UNL     1       4.239 -12.266 -24.165  1.00  0.00    -0.355 N 
ATOM      6  H5  UNL     1       3.680 -12.857 -23.548  1.00  0.00     0.162 HD
BRANCH   5   7
HETATM    7  C15 UNL     1       5.229 -12.859 -25.055  1.00  0.00     0.084 C 
HETATM    8  C16 UNL     1       6.559 -12.723 -24.375  1.00  0.00     0.025 C 
HETATM    9  C17 UNL     1       7.591 -13.690 -24.856  1.00  0.00     0.002 C 
HETATM   10  C18 UNL     1       7.051 -15.085 -24.541  1.00  0.00     0.000 C 
HETATM   11  C19 UNL     1       5.849 -15.290 -25.394  1.00  0.00     0.002 C 
HETATM   12  C20 UNL     1       4.800 -14.256 -25.327  1.00  0.00     0.025 C 
ENDBRANCH   5   7
ENDBRANCH   2   3
ENDBRANCH   1   2
BRANCH   1  13
HETATM   13  C3  UNL     1       2.393  -7.996 -24.048  1.00  0.00     0.189 C 
HETATM   14  S1  UNL     1       1.262  -6.920 -23.558  1.00  0.00    -0.039 SA
BRANCH  13  15
HETATM   15  N2  UNL     1       3.626  -7.523 -24.581  1.00  0.00    -0.274 N 
ATOM     16  H2  UNL     1       3.946  -7.868 -25.486  1.00  0.00     0.189 HD
BRANCH  15  17
HETATM   17  N3  UNL     1       4.399  -6.602 -23.891  1.00  0.00    -0.274 N 
ATOM     18  H3  UNL     1       4.581  -5.702 -24.335  1.00  0.00     0.189 HD
BRANCH  17  19
HETATM   19  C4  UNL     1       4.953  -6.835 -22.602  1.00  0.00     0.188 C 
HETATM   20  S2  UNL     1       4.331  -5.977 -21.360  1.00  0.00    -0.039 SA
BRANCH  19  21
HETATM   21  N4  UNL     1       5.999  -7.771 -22.415  1.00  0.00    -0.353 N 
HETATM   22  C5  UNL     1       5.921  -8.829 -21.441  1.00  0.00     0.151 C 
HETATM   23  C6  UNL     1       7.336  -9.409 -21.325  1.00  0.00     0.187 C 
HETATM   24  O2  UNL     1       7.778  -9.919 -22.520  1.00  0.00    -0.388 OA
HETATM   25  C7  UNL     1       7.675  -9.066 -23.586  1.00  0.00     0.187 C 
HETATM   26  C8  UNL     1       7.194  -7.682 -23.214  1.00  0.00     0.151 C 
ENDBRANCH  19  21
ENDBRANCH  17  19
ENDBRANCH  15  17
ENDBRANCH  13  15
ENDBRANCH   1  13
BRANCH   1  27
HETATM   27  C9  UNL     1       0.884  -9.888 -24.516  1.00  0.00     0.087 C 
HETATM   28  C10 UNL     1       0.611 -11.240 -23.913  1.00  0.00     0.025 C 
HETATM   29  C11 UNL     1      -0.237 -12.097 -24.839  1.00  0.00     0.002 C 
HETATM   30  C12 UNL     1      -1.165 -11.237 -25.655  1.00  0.00     0.000 C 
HETATM   31  C13 UNL     1      -0.422 -10.273 -26.533  1.00  0.00     0.002 C 
HETATM   32  C14 UNL     1       0.999 -10.055 -26.015  1.00  0.00     0.025 C 
ENDBRANCH   1  27
TORSDOF 9
ENDMDL
MODEL 3
REMARK VINA RESULT: -7.777459164      2.374      3.590
REMARK  9 active torsions:
REMARK  status: ('A' for Active; 'I' for Inactive)
REMARK    1  A    between atoms: C1_2  and  C2_3 
REMARK       I    between atoms: C1_2  and  N5_25 
REMARK    2  A    between atoms: C2_3  and  N1_4 
REMARK    3  A    between atoms: N1_4  and  C3_5 
REMARK    4  A    between atoms: N1_4  and  C9_19 
REMARK    5  A    between atoms: C3_5  and  N2_7 
REMARK    6  A    between atoms: N2_7  and  N3_9 
REMARK    7  A    between atoms: N3_9  and  C4_11 
REMARK    8  A    between atoms: C4_11  and  N4_13 
REMARK    9  A    between atoms: N5_25  and  C15_27 
ROOT
HETATM    1  N1  UNL     1       3.329  -8.110 -24.150  1.00  0.00    -0.344 N 
ENDROOT
BRANCH   1   2
HETATM    2  C2  UNL     1       4.580  -8.785 -24.428  1.00  0.00     0.228 C 
BRANCH   2   3
HETATM    3  C1  UNL     1       4.631 -10.176 -23.937  1.00  0.00     0.235 C 
HETATM    4  O1  UNL     1       3.989 -10.502 -22.915  1.00  0.00    -0.272 OA
HETATM    5  N5  UNL     1       5.410 -11.131 -24.636  1.00  0.00    -0.355 N 
ATOM      6  H5  UNL     1       5.932 -10.860 -25.470  1.00  0.00     0.162 HD
BRANCH   5   7
HETATM    7  C15 UNL     1       5.459 -12.504 -24.151  1.00  0.00     0.084 C 
HETATM    8  C16 UNL     1       4.547 -13.307 -25.031  1.00  0.00     0.025 C 
HETATM    9  C17 UNL     1       4.840 -14.772 -25.036  1.00  0.00     0.002 C 
HETATM   10  C18 UNL     1       6.260 -14.923 -25.580  1.00  0.00     0.000 C 
HETATM   11  C19 UNL     1       7.177 -14.312 -24.580  1.00  0.00     0.002 C 
HETATM   12  C20 UNL     1       6.882 -12.929 -24.164  1.00  0.00     0.025 C 
ENDBRANCH   5   7
ENDBRANCH   2   3
ENDBRANCH   1   2
BRANCH   1  13
HETATM   13  C3  UNL     1       2.168  -8.415 -24.891  1.00  0.00     0.189 C 
HETATM   14  S1  UNL     1       2.227  -8.355 -26.525  1.00  0.00    -0.039 SA
BRANCH  13  15
HETATM   15  N2  UNL     1       0.949  -8.771 -24.246  1.00  0.00    -0.274 N 
ATOM     16  H2  UNL     1       0.880  -8.701 -23.231  1.00  0.00     0.189 HD
BRANCH  15  17
HETATM   17  N3  UNL     1      -0.145  -9.210 -24.975  1.00  0.00    -0.274 N 
ATOM     18  H3  UNL     1      -0.853  -8.524 -25.235  1.00  0.00     0.189 HD
BRANCH  17  19
HETATM   19  C4  UNL     1      -0.342 -10.559 -25.382  1.00  0.00     0.188 C 
HETATM   20  S2  UNL     1      -0.847 -10.804 -26.915  1.00  0.00    -0.039 SA
BRANCH  19  21
HETATM   21  N4  UNL     1      -0.107 -11.633 -24.490  1.00  0.00    -0.353 N 
HETATM   22  C5  UNL     1       1.221 -12.074 -24.149  1.00  0.00     0.151 C 
HETATM   23  C6  UNL     1       1.053 -13.422 -23.435  1.00  0.00     0.187 C 
HETATM   24  O2  UNL     1       0.302 -13.303 -22.292  1.00  0.00    -0.388 OA
HETATM   25  C7  UNL     1      -0.902 -12.671 -22.454  1.00  0.00     0.187 C 
HETATM   26  C8  UNL     1      -1.219 -12.325 -23.891  1.00  0.00     0.151 C 
ENDBRANCH  19  21
ENDBRANCH  17  19
ENDBRANCH  15  17
ENDBRANCH  13  15
ENDBRANCH   1  13
BRANCH   1  27
HETATM   27  C9  UNL     1       3.231  -7.104 -23.096  1.00  0.00     0.087 C 
HETATM   28  C10 UNL     1       2.774  -5.813 -23.723  1.00  0.00     0.025 C 
HETATM   29  C11 UNL     1       3.221  -4.612 -22.906  1.00  0.00     0.002 C 
HETATM   30  C12 UNL     1       3.290  -4.962 -21.443  1.00  0.00     0.000 C 
HETATM   31  C13 UNL     1       4.280  -6.055 -21.166  1.00  0.00     0.002 C 
HETATM   32  C14 UNL     1       4.569  -6.858 -22.435  1.00  0.00     0.025 C 
ENDBRANCH   1  27
TORSDOF 9
ENDMDL
MODEL 4
REMARK VINA RESULT: -7.644027291      2.680      6.364
REMARK  9 active torsions:
REMARK  status: ('A' for Active; 'I' for Inactive)
REMARK    1  A    between atoms: C1_2  and  C2_3 
REMARK       I    between atoms: C1_2  and  N5_25 
REMARK    2  A    between atoms: C2_3  and  N1_4 
REMARK    3  A    between atoms: N1_4  and  C3_5 
REMARK    4  A    between atoms: N1_4  and  C9_19 
REMARK    5  A    between atoms: C3_5  and  N2_7 
REMARK    6  A    between atoms: N2_7  and  N3_9 
REMARK    7  A    between atoms: N3_9  and  C4_11 
REMARK    8  A    between atoms: C4_11  and  N4_13 
REMARK    9  A    between atoms: N5_25  and  C15_27 
ROOT
HETATM    1  N1  UNL     1       1.575  -7.807 -26.112  1.00  0.00    -0.344 N 
ENDROOT
BRANCH   1   2
HETATM    2  C2  UNL     1       0.197  -8.255 -26.143  1.00  0.00     0.228 C 
BRANCH   2   3
HETATM    3  C1  UNL     1       0.038  -9.710 -25.952  1.00  0.00     0.235 C 
HETATM    4  O1  UNL     1      -0.203 -10.447 -26.932  1.00  0.00    -0.272 OA
HETATM    5  N5  UNL     1       0.162 -10.256 -24.650  1.00  0.00    -0.355 N 
ATOM      6  H5  UNL     1       0.360  -9.650 -23.853  1.00  0.00     0.162 HD
BRANCH   5   7
HETATM    7  C15 UNL     1       0.005 -11.693 -24.463  1.00  0.00     0.084 C 
HETATM    8  C16 UNL     1       1.264 -12.185 -23.812  1.00  0.00     0.025 C 
HETATM    9  C17 UNL     1       1.108 -13.482 -23.088  1.00  0.00     0.002 C 
HETATM   10  C18 UNL     1       0.082 -13.234 -21.982  1.00  0.00     0.000 C 
HETATM   11  C19 UNL     1      -1.221 -12.963 -22.649  1.00  0.00     0.002 C 
HETATM   12  C20 UNL     1      -1.236 -11.904 -23.674  1.00  0.00     0.025 C 
ENDBRANCH   5   7
ENDBRANCH   2   3
ENDBRANCH   1   2
BRANCH   1  13
HETATM   13  C3  UNL     1       2.250  -7.645 -24.884  1.00  0.00     0.189 C 
HETATM   14  S1  UNL     1       1.571  -6.721 -23.717  1.00  0.00    -0.039 SA
BRANCH  13  15
HETATM   15  N2  UNL     1       3.509  -8.266 -24.643  1.00  0.00    -0.274 N 
ATOM     16  H2  UNL     1       4.327  -7.962 -25.171  1.00  0.00     0.189 HD
BRANCH  15  17
HETATM   17  N3  UNL     1       3.640  -9.276 -23.703  1.00  0.00    -0.274 N 
ATOM     18  H3  UNL     1       2.791  -9.723 -23.359  1.00  0.00     0.189 HD
BRANCH  17  19
HETATM   19  C4  UNL     1       4.887  -9.729 -23.189  1.00  0.00     0.188 C 
HETATM   20  S2  UNL     1       5.555  -8.851 -21.986  1.00  0.00    -0.039 SA
BRANCH  19  21
HETATM   21  N4  UNL     1       5.513 -10.889 -23.706  1.00  0.00    -0.353 N 
HETATM   22  C5  UNL     1       6.814 -11.323 -23.267  1.00  0.00     0.151 C 
HETATM   23  C6  UNL     1       7.265 -12.397 -24.264  1.00  0.00     0.187 C 
HETATM   24  O2  UNL     1       6.408 -13.469 -24.282  1.00  0.00    -0.388 OA
HETATM   25  C7  UNL     1       5.087 -13.150 -24.456  1.00  0.00     0.187 C 
HETATM   26  C8  UNL     1       4.845 -11.680 -24.708  1.00  0.00     0.151 C 
ENDBRANCH  19  21
ENDBRANCH  17  19
ENDBRANCH  15  17
ENDBRANCH  13  15
ENDBRANCH   1  13
BRANCH   1  27
HETATM   27  C9  UNL     1       2.303  -7.517 -27.345  1.00  0.00     0.087 C 
HETATM   28  C10 UNL     1       2.685  -6.060 -27.330  1.00  0.00     0.025 C 
HETATM   29  C11 UNL     1       2.867  -5.522 -28.740  1.00  0.00     0.002 C 
HETATM   30  C12 UNL     1       3.364  -6.605 -29.660  1.00  0.00     0.000 C 
HETATM   31  C13 UNL     1       2.399  -7.749 -29.765  1.00  0.00     0.002 C 
HETATM   32  C14 UNL     1       1.450  -7.768 -28.568  1.00  0.00     0.025 C 
ENDBRANCH   1  27
TORSDOF 9
ENDMDL
MODEL 5
REMARK VINA RESULT: -7.639362912      2.380      3.445
REMARK  9 active torsions:
REMARK  status: ('A' for Active; 'I' for Inactive)
REMARK    1  A    between atoms: C1_2  and  C2_3 
REMARK       I    between atoms: C1_2  and  N5_25 
REMARK    2  A    between atoms: C2_3  and  N1_4 
REMARK    3  A    between atoms: N1_4  and  C3_5 
REMARK    4  A    between atoms: N1_4  and  C9_19 
REMARK    5  A    between atoms: C3_5  and  N2_7 
REMARK    6  A    between atoms: N2_7  and  N3_9 
REMARK    7  A    between atoms: N3_9  and  C4_11 
REMARK    8  A    between atoms: C4_11  and  N4_13 
REMARK    9  A    between atoms: N5_25  and  C15_27 
ROOT
HETATM    1  N1  UNL     1       3.846  -7.007 -23.491  1.00  0.00    -0.344 N 
ENDROOT
BRANCH   1   2
HETATM    2  C2  UNL     1       5.092  -7.716 -23.700  1.00  0.00     0.228 C 
BRANCH   2   3
HETATM    3  C1  UNL     1       5.035  -9.145 -23.335  1.00  0.00     0.235 C 
HETATM    4  O1  UNL     1       4.309  -9.520 -22.389  1.00  0.00    -0.272 OA
HETATM    5  N5  UNL     1       5.808 -10.080 -24.068  1.00  0.00    -0.355 N 
ATOM      6  H5  UNL     1       6.398  -9.769 -24.839  1.00  0.00     0.162 HD
BRANCH   5   7
HETATM    7  C15 UNL     1       5.750 -11.490 -23.706  1.00  0.00     0.084 C 
HETATM    8  C16 UNL     1       4.832 -12.153 -24.691  1.00  0.00     0.025 C 
HETATM    9  C17 UNL     1       5.035 -13.627 -24.815  1.00  0.00     0.002 C 
HETATM   10  C18 UNL     1       6.466 -13.823 -25.313  1.00  0.00     0.000 C 
HETATM   11  C19 UNL     1       7.373 -13.361 -24.227  1.00  0.00     0.002 C 
HETATM   12  C20 UNL     1       7.144 -12.004 -23.700  1.00  0.00     0.025 C 
ENDBRANCH   5   7
ENDBRANCH   2   3
ENDBRANCH   1   2
BRANCH   1  13
HETATM   13  C3  UNL     1       2.699  -7.334 -24.244  1.00  0.00     0.189 C 
HETATM   14  S1  UNL     1       2.461  -6.608 -25.691  1.00  0.00    -0.039 SA
BRANCH  13  15
HETATM   15  N2  UNL     1       1.745  -8.278 -23.768  1.00  0.00    -0.274 N 
ATOM     16  H2  UNL     1       1.938  -8.797 -22.912  1.00  0.00     0.189 HD
BRANCH  15  17
HETATM   17  N3  UNL     1       0.559  -8.504 -24.450  1.00  0.00    -0.274 N 
ATOM     18  H3  UNL     1      -0.177  -7.803 -24.374  1.00  0.00     0.189 HD
BRANCH  17  19
HETATM   19  C4  UNL     1       0.306  -9.654 -25.248  1.00  0.00     0.188 C 
HETATM   20  S2  UNL     1       0.184  -9.426 -26.860  1.00  0.00    -0.039 SA
BRANCH  19  21
HETATM   21  N4  UNL     1       0.166 -10.935 -24.660  1.00  0.00    -0.353 N 
HETATM   22  C5  UNL     1       1.278 -11.639 -24.075  1.00  0.00     0.151 C 
HETATM   23  C6  UNL     1       0.800 -13.078 -23.846  1.00  0.00     0.187 C 
HETATM   24  O2  UNL     1      -0.274 -13.129 -22.993  1.00  0.00    -0.388 OA
HETATM   25  C7  UNL     1      -1.316 -12.304 -23.325  1.00  0.00     0.187 C 
HETATM   26  C8  UNL     1      -1.123 -11.577 -24.636  1.00  0.00     0.151 C 
ENDBRANCH  19  21
ENDBRANCH  17  19
ENDBRANCH  15  17
ENDBRANCH  13  15
ENDBRANCH   1  13
BRANCH   1  27
HETATM   27  C9  UNL     1       3.740  -5.943 -22.496  1.00  0.00     0.087 C 
HETATM   28  C10 UNL     1       4.535  -4.762 -22.988  1.00  0.00     0.025 C 
HETATM   29  C11 UNL     1       5.003  -3.891 -21.835  1.00  0.00     0.002 C 
HETATM   30  C12 UNL     1       4.014  -3.939 -20.699  1.00  0.00     0.000 C 
HETATM   31  C13 UNL     1       3.853  -5.324 -20.145  1.00  0.00     0.002 C 
HETATM   32  C14 UNL     1       4.309  -6.370 -21.161  1.00  0.00     0.025 C 
ENDBRANCH   1  27
TORSDOF 9
ENDMDL
