MODEL 1
REMARK VINA RESULT: -10.224629972      0.000      0.000
REMARK  8 active torsions:
REMARK  status: ('A' for Active; 'I' for Inactive)
REMARK    1  A    between atoms: C1_2  and  C2_4 
REMARK    2  A    between atoms: N2_11  and  C9_12 
REMARK    3  A    between atoms: C9_12  and  O2_13 
REMARK    4  A    between atoms: C9_12  and  C10_15 
REMARK    5  A    between atoms: C13_18  and  N3_19 
REMARK    6  A    between atoms: N3_19  and  C14_21 
REMARK    7  A    between atoms: C17_26  and  N5_27 
REMARK    8  A    between atoms: N5_27  and  C18_29 
ROOT
HETATM    1  C10 UNL     1       7.529 -10.482 -23.543  1.00  0.00     0.015 A 
HETATM    2  C11 UNL     1       6.495  -9.701 -24.092  1.00  0.00     0.018 A 
HETATM    3  C12 UNL     1       5.852  -8.723 -23.368  1.00  0.00     0.031 A 
HETATM    4  C13 UNL     1       6.197  -8.469 -22.068  1.00  0.00     0.049 A 
HETATM    5  C24 UNL     1       7.189  -9.197 -21.496  1.00  0.00     0.031 A 
HETATM    6  C25 UNL     1       7.829 -10.183 -22.248  1.00  0.00     0.018 A 
ENDROOT
BRANCH   4   7
HETATM    7  N3  UNL     1       5.531  -7.469 -21.350  1.00  0.00    -0.192 N 
ATOM      8  H3  UNL     1       5.620  -7.474 -20.334  1.00  0.00     0.184 HD
BRANCH   7   9
HETATM    9  C14 UNL     1       4.811  -6.540 -21.885  1.00  0.00     0.684 A 
HETATM   10  N4  UNL     1       5.328  -5.337 -22.196  1.00  0.00    -0.202 N 
HETATM   11  C15 UNL     1       4.532  -4.395 -22.759  1.00  0.00     0.110 A 
ATOM     12  H4  UNL     1       6.311  -5.135 -22.011  1.00  0.00     0.183 HD
HETATM   13  C16 UNL     1       3.205  -4.632 -23.022  1.00  0.00     0.066 A 
HETATM   14  C17 UNL     1       2.690  -5.867 -22.698  1.00  0.00     0.122 A 
HETATM   15  N6  UNL     1       3.508  -6.778 -22.143  1.00  0.00    -0.176 N 
ATOM     16  H6  UNL     1       3.125  -7.692 -21.904  1.00  0.00     0.186 HD
BRANCH  14  17
HETATM   17  N5  UNL     1       1.443  -6.176 -22.915  1.00  0.00    -0.342 N 
ATOM     18  H5  UNL     1       0.726  -5.858 -22.263  1.00  0.00     0.167 HD
BRANCH  17  19
HETATM   19  C18 UNL     1       1.065  -6.949 -24.046  1.00  0.00     0.033 A 
HETATM   20  C19 UNL     1       1.211  -8.320 -24.063  1.00  0.00     0.029 A 
HETATM   21  C20 UNL     1       0.827  -9.042 -25.196  1.00  0.00     0.002 A 
HETATM   22  C21 UNL     1       0.300  -8.424 -26.311  1.00  0.00     0.000 A 
HETATM   23  C22 UNL     1       0.160  -7.054 -26.279  1.00  0.00     0.002 A 
HETATM   24  C23 UNL     1       0.543  -6.329 -25.151  1.00  0.00     0.029 A 
ENDBRANCH  17  19
ENDBRANCH  14  17
ENDBRANCH   7   9
ENDBRANCH   4   7
BRANCH   1  25
HETATM   25  C9  UNL     1       8.133 -11.468 -24.403  1.00  0.00     0.149 C 
BRANCH  25  26
HETATM   26  N2  UNL     1       7.578 -12.449 -25.221  1.00  0.00    -0.343 N 
HETATM   27  C2  UNL     1       8.268 -12.905 -26.446  1.00  0.00     0.176 C 
HETATM   28  C3  UNL     1       7.365 -13.850 -27.148  1.00  0.00     0.041 C 
HETATM   29  C4  UNL     1       6.019 -13.600 -26.566  1.00  0.00     0.011 C 
HETATM   30  C5  UNL     1       5.224 -14.858 -26.412  1.00  0.00     0.007 C 
HETATM   31  C8  UNL     1       6.344 -13.163 -25.120  1.00  0.00     0.091 C 
HETATM   32  C6  UNL     1       5.904 -15.524 -25.250  1.00  0.00     0.002 C 
HETATM   33  C7  UNL     1       6.441 -14.457 -24.357  1.00  0.00     0.026 C 
BRANCH  27  34
HETATM   34  C1  UNL     1       9.543 -13.583 -26.161  1.00  0.00     0.254 C 
HETATM   35  N1  UNL     1      10.716 -13.021 -26.737  1.00  0.00    -0.060 NA
HETATM   36  O1  UNL     1       9.686 -14.610 -25.459  1.00  0.00    -0.275 OA
ENDBRANCH  27  34
ENDBRANCH  25  26
BRANCH  25  37
HETATM   37  O2  UNL     1       9.454 -11.461 -24.441  1.00  0.00    -0.346 OA
ATOM     38  H2  UNL     1       9.807 -10.636 -24.752  1.00  0.00     0.219 HD
ENDBRANCH  25  37
ENDBRANCH   1  25
TORSDOF 8
ENDMDL
MODEL 2
REMARK VINA RESULT: -10.064787744      1.012      1.380
REMARK  8 active torsions:
REMARK  status: ('A' for Active; 'I' for Inactive)
REMARK    1  A    between atoms: C1_2  and  C2_4 
REMARK    2  A    between atoms: N2_11  and  C9_12 
REMARK    3  A    between atoms: C9_12  and  O2_13 
REMARK    4  A    between atoms: C9_12  and  C10_15 
REMARK    5  A    between atoms: C13_18  and  N3_19 
REMARK    6  A    between atoms: N3_19  and  C14_21 
REMARK    7  A    between atoms: C17_26  and  N5_27 
REMARK    8  A    between atoms: N5_27  and  C18_29 
ROOT
HETATM    1  C10 UNL     1       7.381 -10.013 -23.699  1.00  0.00     0.015 A 
HETATM    2  C11 UNL     1       6.166 -10.286 -23.045  1.00  0.00     0.018 A 
HETATM    3  C12 UNL     1       5.423  -9.300 -22.437  1.00  0.00     0.031 A 
HETATM    4  C13 UNL     1       5.843  -7.997 -22.445  1.00  0.00     0.049 A 
HETATM    5  C24 UNL     1       7.009  -7.686 -23.065  1.00  0.00     0.031 A 
HETATM    6  C25 UNL     1       7.746  -8.701 -23.676  1.00  0.00     0.018 A 
ENDROOT
BRANCH   4   7
HETATM    7  N3  UNL     1       5.071  -7.009 -21.822  1.00  0.00    -0.192 N 
ATOM      8  H3  UNL     1       5.242  -6.826 -20.834  1.00  0.00     0.184 HD
BRANCH   7   9
HETATM    9  C14 UNL     1       4.157  -6.314 -22.413  1.00  0.00     0.684 A 
HETATM   10  N4  UNL     1       4.342  -5.017 -22.718  1.00  0.00    -0.202 N 
HETATM   11  C15 UNL     1       3.352  -4.330 -23.340  1.00  0.00     0.110 A 
ATOM     12  H4  UNL     1       5.220  -4.554 -22.484  1.00  0.00     0.183 HD
HETATM   13  C16 UNL     1       2.158  -4.922 -23.669  1.00  0.00     0.066 A 
HETATM   14  C17 UNL     1       1.982  -6.250 -23.351  1.00  0.00     0.122 A 
HETATM   15  N6  UNL     1       2.984  -6.900 -22.735  1.00  0.00    -0.176 N 
ATOM     16  H6  UNL     1       2.853  -7.884 -22.500  1.00  0.00     0.186 HD
BRANCH  14  17
HETATM   17  N5  UNL     1       0.881  -6.889 -23.628  1.00  0.00    -0.342 N 
ATOM     18  H5  UNL     1       0.133  -6.924 -22.936  1.00  0.00     0.167 HD
BRANCH  17  19
HETATM   19  C18 UNL     1       0.705  -7.538 -24.881  1.00  0.00     0.033 A 
HETATM   20  C19 UNL     1       0.253  -6.853 -25.989  1.00  0.00     0.029 A 
HETATM   21  C20 UNL     1       0.094  -7.529 -27.202  1.00  0.00     0.002 A 
HETATM   22  C21 UNL     1       0.378  -8.872 -27.330  1.00  0.00     0.000 A 
HETATM   23  C22 UNL     1       0.830  -9.542 -26.215  1.00  0.00     0.002 A 
HETATM   24  C23 UNL     1       0.989  -8.872 -25.002  1.00  0.00     0.029 A 
ENDBRANCH  17  19
ENDBRANCH  14  17
ENDBRANCH   7   9
ENDBRANCH   4   7
BRANCH   1  25
HETATM   25  C9  UNL     1       8.064 -11.127 -24.307  1.00  0.00     0.149 C 
BRANCH  25  26
HETATM   26  N2  UNL     1       7.611 -12.152 -25.135  1.00  0.00    -0.343 N 
HETATM   27  C2  UNL     1       8.412 -12.614 -26.288  1.00  0.00     0.176 C 
HETATM   28  C3  UNL     1       7.602 -13.612 -27.029  1.00  0.00     0.041 C 
HETATM   29  C4  UNL     1       6.206 -13.398 -26.562  1.00  0.00     0.011 C 
HETATM   30  C5  UNL     1       5.447 -14.681 -26.432  1.00  0.00     0.007 C 
HETATM   31  C8  UNL     1       6.399 -12.910 -25.108  1.00  0.00     0.091 C 
HETATM   32  C6  UNL     1       6.057 -15.288 -25.200  1.00  0.00     0.002 C 
HETATM   33  C7  UNL     1       6.483 -14.177 -24.301  1.00  0.00     0.026 C 
BRANCH  27  34
HETATM   34  C1  UNL     1       9.684 -13.234 -25.885  1.00  0.00     0.254 C 
HETATM   35  N1  UNL     1       9.646 -14.611 -25.531  1.00  0.00    -0.060 NA
HETATM   36  O1  UNL     1      10.794 -12.658 -25.825  1.00  0.00    -0.275 OA
ENDBRANCH  27  34
ENDBRANCH  25  26
BRANCH  25  37
HETATM   37  O2  UNL     1       9.356 -11.217 -24.048  1.00  0.00    -0.346 OA
ATOM     38  H2  UNL     1       9.751 -10.373 -23.861  1.00  0.00     0.219 HD
ENDBRANCH  25  37
ENDBRANCH   1  25
TORSDOF 8
ENDMDL
MODEL 3
REMARK VINA RESULT: -10.004473776      0.934      1.123
REMARK  8 active torsions:
REMARK  status: ('A' for Active; 'I' for Inactive)
REMARK    1  A    between atoms: C1_2  and  C2_4 
REMARK    2  A    between atoms: N2_11  and  C9_12 
REMARK    3  A    between atoms: C9_12  and  O2_13 
REMARK    4  A    between atoms: C9_12  and  C10_15 
REMARK    5  A    between atoms: C13_18  and  N3_19 
REMARK    6  A    between atoms: N3_19  and  C14_21 
REMARK    7  A    between atoms: C17_26  and  N5_27 
REMARK    8  A    between atoms: N5_27  and  C18_29 
ROOT
HETATM    1  C10 UNL     1       7.363 -10.353 -23.424  1.00  0.00     0.015 A 
HETATM    2  C11 UNL     1       6.322  -9.611 -24.009  1.00  0.00     0.018 A 
HETATM    3  C12 UNL     1       5.610  -8.666 -23.306  1.00  0.00     0.031 A 
HETATM    4  C13 UNL     1       5.893  -8.406 -21.992  1.00  0.00     0.049 A 
HETATM    5  C24 UNL     1       6.890  -9.097 -21.385  1.00  0.00     0.031 A 
HETATM    6  C25 UNL     1       7.599 -10.051 -22.116  1.00  0.00     0.018 A 
ENDROOT
BRANCH   4   7
HETATM    7  N3  UNL     1       5.158  -7.438 -21.297  1.00  0.00    -0.192 N 
ATOM      8  H3  UNL     1       4.979  -7.600 -20.306  1.00  0.00     0.184 HD
BRANCH   7   9
HETATM    9  C14 UNL     1       4.692  -6.356 -21.823  1.00  0.00     0.684 A 
HETATM   10  N4  UNL     1       5.396  -5.209 -21.821  1.00  0.00    -0.202 N 
HETATM   11  C15 UNL     1       4.864  -4.099 -22.388  1.00  0.00     0.110 A 
ATOM     12  H4  UNL     1       6.323  -5.175 -21.396  1.00  0.00     0.183 HD
HETATM   13  C16 UNL     1       3.619  -4.108 -22.968  1.00  0.00     0.066 A 
HETATM   14  C17 UNL     1       2.910  -5.289 -22.963  1.00  0.00     0.122 A 
HETATM   15  N6  UNL     1       3.468  -6.370 -22.393  1.00  0.00    -0.176 N 
ATOM     16  H6  UNL     1       2.942  -7.244 -22.390  1.00  0.00     0.186 HD
BRANCH  14  17
HETATM   17  N5  UNL     1       1.723  -5.386 -23.492  1.00  0.00    -0.342 N 
ATOM     18  H5  UNL     1       0.912  -5.056 -22.970  1.00  0.00     0.167 HD
BRANCH  17  19
HETATM   19  C18 UNL     1       1.541  -5.946 -24.786  1.00  0.00     0.033 A 
HETATM   20  C19 UNL     1       2.553  -5.938 -25.723  1.00  0.00     0.029 A 
HETATM   21  C20 UNL     1       2.332  -6.499 -26.983  1.00  0.00     0.002 A 
HETATM   22  C21 UNL     1       1.124  -7.067 -27.327  1.00  0.00     0.000 A 
HETATM   23  C22 UNL     1       0.122  -7.068 -26.380  1.00  0.00     0.002 A 
HETATM   24  C23 UNL     1       0.338  -6.509 -25.121  1.00  0.00     0.029 A 
ENDBRANCH  17  19
ENDBRANCH  14  17
ENDBRANCH   7   9
ENDBRANCH   4   7
BRANCH   1  25
HETATM   25  C9  UNL     1       8.041 -11.308 -24.263  1.00  0.00     0.149 C 
BRANCH  25  26
HETATM   26  N2  UNL     1       7.559 -12.292 -25.124  1.00  0.00    -0.343 N 
HETATM   27  C2  UNL     1       8.297 -12.667 -26.348  1.00  0.00     0.176 C 
HETATM   28  C3  UNL     1       7.464 -13.638 -27.099  1.00  0.00     0.041 C 
HETATM   29  C4  UNL     1       6.095 -13.485 -26.537  1.00  0.00     0.011 C 
HETATM   30  C5  UNL     1       5.372 -14.791 -26.440  1.00  0.00     0.007 C 
HETATM   31  C8  UNL     1       6.367 -13.079 -25.071  1.00  0.00     0.091 C 
HETATM   32  C6  UNL     1       6.067 -15.455 -25.286  1.00  0.00     0.002 C 
HETATM   33  C7  UNL     1       6.525 -14.390 -24.348  1.00  0.00     0.026 C 
BRANCH  27  34
HETATM   34  C1  UNL     1       9.604 -13.280 -26.059  1.00  0.00     0.254 C 
HETATM   35  N1  UNL     1       9.600 -14.636 -25.632  1.00  0.00    -0.060 NA
HETATM   36  O1  UNL     1      10.717 -12.713 -26.156  1.00  0.00    -0.275 OA
ENDBRANCH  27  34
ENDBRANCH  25  26
BRANCH  25  37
HETATM   37  O2  UNL     1       9.361 -11.264 -24.230  1.00  0.00    -0.346 OA
ATOM     38  H2  UNL     1       9.741 -11.052 -25.075  1.00  0.00     0.219 HD
ENDBRANCH  25  37
ENDBRANCH   1  25
TORSDOF 8
ENDMDL
MODEL 4
REMARK VINA RESULT: -9.986658938      2.584      7.682
REMARK  8 active torsions:
REMARK  status: ('A' for Active; 'I' for Inactive)
REMARK    1  A    between atoms: C1_2  and  C2_4 
REMARK    2  A    between atoms: N2_11  and  C9_12 
REMARK    3  A    between atoms: C9_12  and  O2_13 
REMARK    4  A    between atoms: C9_12  and  C10_15 
REMARK    5  A    between atoms: C13_18  and  N3_19 
REMARK    6  A    between atoms: N3_19  and  C14_21 
REMARK    7  A    between atoms: C17_26  and  N5_27 
REMARK    8  A    between atoms: N5_27  and  C18_29 
ROOT
HETATM    1  C10 UNL     1       5.945  -8.281 -22.391  1.00  0.00     0.015 A 
HETATM    2  C11 UNL     1       6.361  -8.273 -23.735  1.00  0.00     0.018 A 
HETATM    3  C12 UNL     1       7.397  -9.058 -24.187  1.00  0.00     0.031 A 
HETATM    4  C13 UNL     1       8.072  -9.889 -23.334  1.00  0.00     0.049 A 
HETATM    5  C24 UNL     1       7.706  -9.931 -22.029  1.00  0.00     0.031 A 
HETATM    6  C25 UNL     1       6.653  -9.127 -21.592  1.00  0.00     0.018 A 
ENDROOT
BRANCH   4   7
HETATM    7  N3  UNL     1       9.122 -10.680 -23.815  1.00  0.00    -0.192 N 
ATOM      8  H3  UNL     1      10.075 -10.386 -23.600  1.00  0.00     0.184 HD
BRANCH   7   9
HETATM    9  C14 UNL     1       8.968 -11.757 -24.512  1.00  0.00     0.684 A 
HETATM   10  N4  UNL     1       9.891 -12.159 -25.404  1.00  0.00    -0.202 N 
HETATM   11  C15 UNL     1       9.684 -13.298 -26.110  1.00  0.00     0.110 A 
ATOM     12  H4  UNL     1      10.741 -11.613 -25.547  1.00  0.00     0.183 HD
HETATM   13  C16 UNL     1       8.553 -14.057 -25.943  1.00  0.00     0.066 A 
HETATM   14  C17 UNL     1       7.616 -13.633 -25.027  1.00  0.00     0.122 A 
HETATM   15  N6  UNL     1       7.854 -12.500 -24.344  1.00  0.00    -0.176 N 
ATOM     16  H6  UNL     1       7.160 -12.187 -23.665  1.00  0.00     0.186 HD
BRANCH  14  17
HETATM   17  N5  UNL     1       6.515 -14.294 -24.805  1.00  0.00    -0.342 N 
ATOM     18  H5  UNL     1       6.535 -15.313 -24.794  1.00  0.00     0.167 HD
BRANCH  17  19
HETATM   19  C18 UNL     1       5.287 -13.616 -24.578  1.00  0.00     0.033 A 
HETATM   20  C19 UNL     1       4.073 -14.252 -24.739  1.00  0.00     0.029 A 
HETATM   21  C20 UNL     1       2.889 -13.549 -24.505  1.00  0.00     0.002 A 
HETATM   22  C21 UNL     1       2.890 -12.227 -24.114  1.00  0.00     0.000 A 
HETATM   23  C22 UNL     1       4.110 -11.606 -23.956  1.00  0.00     0.002 A 
HETATM   24  C23 UNL     1       5.295 -12.303 -24.189  1.00  0.00     0.029 A 
ENDBRANCH  17  19
ENDBRANCH  14  17
ENDBRANCH   7   9
ENDBRANCH   4   7
BRANCH   1  25
HETATM   25  C9  UNL     1       4.841  -7.423 -22.040  1.00  0.00     0.149 C 
BRANCH  25  26
HETATM   26  N2  UNL     1       3.751  -6.968 -22.777  1.00  0.00    -0.343 N 
HETATM   27  C2  UNL     1       3.528  -5.524 -23.003  1.00  0.00     0.176 C 
HETATM   28  C3  UNL     1       2.230  -5.371 -23.706  1.00  0.00     0.041 C 
HETATM   29  C4  UNL     1       1.524  -6.663 -23.493  1.00  0.00     0.011 C 
HETATM   30  C5  UNL     1       0.738  -7.085 -24.693  1.00  0.00     0.007 C 
HETATM   31  C8  UNL     1       2.683  -7.681 -23.406  1.00  0.00     0.091 C 
HETATM   32  C6  UNL     1       1.817  -7.519 -25.644  1.00  0.00     0.002 C 
HETATM   33  C7  UNL     1       2.952  -8.056 -24.839  1.00  0.00     0.026 C 
BRANCH  27  34
HETATM   34  C1  UNL     1       4.588  -4.906 -23.817  1.00  0.00     0.254 C 
HETATM   35  N1  UNL     1       5.418  -3.947 -23.174  1.00  0.00    -0.060 NA
HETATM   36  O1  UNL     1       4.822  -5.150 -25.023  1.00  0.00    -0.275 OA
ENDBRANCH  27  34
ENDBRANCH  25  26
BRANCH  25  37
HETATM   37  O2  UNL     1       4.840  -6.972 -20.799  1.00  0.00    -0.346 OA
ATOM     38  H2  UNL     1       5.183  -6.089 -20.729  1.00  0.00     0.219 HD
ENDBRANCH  25  37
ENDBRANCH   1  25
TORSDOF 8
ENDMDL
MODEL 5
REMARK VINA RESULT: -9.985386801      3.049      9.561
REMARK  8 active torsions:
REMARK  status: ('A' for Active; 'I' for Inactive)
REMARK    1  A    between atoms: C1_2  and  C2_4 
REMARK    2  A    between atoms: N2_11  and  C9_12 
REMARK    3  A    between atoms: C9_12  and  O2_13 
REMARK    4  A    between atoms: C9_12  and  C10_15 
REMARK    5  A    between atoms: C13_18  and  N3_19 
REMARK    6  A    between atoms: N3_19  and  C14_21 
REMARK    7  A    between atoms: C17_26  and  N5_27 
REMARK    8  A    between atoms: N5_27  and  C18_29 
ROOT
HETATM    1  C10 UNL     1       4.353  -8.858 -23.816  1.00  0.00     0.015 A 
HETATM    2  C11 UNL     1       5.573  -8.182 -23.629  1.00  0.00     0.018 A 
HETATM    3  C12 UNL     1       6.784  -8.834 -23.658  1.00  0.00     0.031 A 
HETATM    4  C13 UNL     1       6.851 -10.184 -23.874  1.00  0.00     0.049 A 
HETATM    5  C24 UNL     1       5.700 -10.878 -24.060  1.00  0.00     0.031 A 
HETATM    6  C25 UNL     1       4.483 -10.198 -24.027  1.00  0.00     0.018 A 
ENDROOT
BRANCH   4   7
HETATM    7  N3  UNL     1       8.094 -10.827 -23.902  1.00  0.00    -0.192 N 
ATOM      8  H3  UNL     1       8.891 -10.338 -23.495  1.00  0.00     0.184 HD
BRANCH   7   9
HETATM    9  C14 UNL     1       8.303 -11.997 -24.409  1.00  0.00     0.684 A 
HETATM   10  N4  UNL     1       7.633 -13.082 -23.979  1.00  0.00    -0.202 N 
HETATM   11  C15 UNL     1       7.886 -14.288 -24.544  1.00  0.00     0.110 A 
ATOM     12  H4  UNL     1       6.941 -12.998 -23.234  1.00  0.00     0.183 HD
HETATM   13  C16 UNL     1       8.811 -14.437 -25.547  1.00  0.00     0.066 A 
HETATM   14  C17 UNL     1       9.488 -13.318 -25.977  1.00  0.00     0.122 A 
HETATM   15  N6  UNL     1       9.212 -12.138 -25.395  1.00  0.00    -0.176 N 
ATOM     16  H6  UNL     1       9.714 -11.310 -25.715  1.00  0.00     0.186 HD
BRANCH  14  17
HETATM   17  N5  UNL     1      10.381 -13.370 -26.925  1.00  0.00    -0.342 N 
ATOM     18  H5  UNL     1      10.079 -13.377 -27.899  1.00  0.00     0.167 HD
BRANCH  17  19
HETATM   19  C18 UNL     1      11.769 -13.416 -26.623  1.00  0.00     0.033 A 
HETATM   20  C19 UNL     1      12.222 -13.439 -25.321  1.00  0.00     0.029 A 
HETATM   21  C20 UNL     1      13.596 -13.485 -25.069  1.00  0.00     0.002 A 
HETATM   22  C21 UNL     1      14.524 -13.509 -26.088  1.00  0.00     0.000 A 
HETATM   23  C22 UNL     1      14.056 -13.487 -27.383  1.00  0.00     0.002 A 
HETATM   24  C23 UNL     1      12.686 -13.440 -27.641  1.00  0.00     0.029 A 
ENDBRANCH  17  19
ENDBRANCH  14  17
ENDBRANCH   7   9
ENDBRANCH   4   7
BRANCH   1  25
HETATM   25  C9  UNL     1       3.150  -8.066 -23.773  1.00  0.00     0.149 C 
BRANCH  25  26
HETATM   26  N2  UNL     1       2.154  -7.842 -24.720  1.00  0.00    -0.343 N 
HETATM   27  C2  UNL     1       1.311  -6.629 -24.672  1.00  0.00     0.176 C 
HETATM   28  C3  UNL     1       0.278  -6.754 -25.730  1.00  0.00     0.041 C 
HETATM   29  C4  UNL     1       0.261  -8.200 -26.081  1.00  0.00     0.011 C 
HETATM   30  C5  UNL     1       0.045  -8.427 -27.543  1.00  0.00     0.007 C 
HETATM   31  C8  UNL     1       1.722  -8.634 -25.829  1.00  0.00     0.091 C 
HETATM   32  C6  UNL     1       1.368  -8.021 -28.127  1.00  0.00     0.002 C 
HETATM   33  C7  UNL     1       2.427  -8.322 -27.122  1.00  0.00     0.026 C 
BRANCH  27  34
HETATM   34  C1  UNL     1       2.078  -5.393 -24.898  1.00  0.00     0.254 C 
HETATM   35  N1  UNL     1       2.084  -4.436 -23.846  1.00  0.00    -0.060 NA
HETATM   36  O1  UNL     1       2.726  -5.111 -25.932  1.00  0.00    -0.275 OA
ENDBRANCH  27  34
ENDBRANCH  25  26
BRANCH  25  37
HETATM   37  O2  UNL     1       2.927  -7.425 -22.640  1.00  0.00    -0.346 OA
ATOM     38  H2  UNL     1       3.672  -6.904 -22.361  1.00  0.00     0.219 HD
ENDBRANCH  25  37
ENDBRANCH   1  25
TORSDOF 8
ENDMDL
