MODEL 1
REMARK VINA RESULT: -7.346307605      0.000      0.000
REMARK  5 active torsions:
REMARK  status: ('A' for Active; 'I' for Inactive)
REMARK       I    between atoms: C1_2  and  N1_3 
REMARK       I    between atoms: C1_2  and  N2_11 
REMARK    1  A    between atoms: N1_3  and  C2_5 
REMARK    2  A    between atoms: N3_18  and  C14_19 
REMARK    3  A    between atoms: C14_19  and  N4_21 
REMARK    4  A    between atoms: N4_21  and  C15_23 
REMARK    5  A    between atoms: C19_27  and  N5_28 
ROOT
HETATM    1  O1  UNL     1       1.885  -9.443 -26.576  1.00  0.00    -0.247 OA
HETATM    2  C1  UNL     1       1.583  -9.059 -25.411  1.00  0.00     0.318 C 
HETATM    3  N1  UNL     1       1.057 -10.011 -24.508  1.00  0.00    -0.338 N 
ATOM      4  H1  UNL     1       0.808  -9.718 -23.564  1.00  0.00     0.164 HD
HETATM    5  N2  UNL     1       1.777  -7.703 -25.048  1.00  0.00    -0.334 N 
HETATM    6  C8  UNL     1       2.322  -6.790 -26.021  1.00  0.00     0.128 C 
HETATM    7  C9  UNL     1       3.226  -5.746 -25.395  1.00  0.00     0.033 C 
HETATM    8  C10 UNL     1       2.713  -5.209 -24.107  1.00  0.00     0.001 C 
HETATM    9  C11 UNL     1       1.350  -5.753 -23.762  1.00  0.00     0.033 C 
HETATM   10  C12 UNL     1       1.425  -7.260 -23.709  1.00  0.00     0.128 C 
HETATM   11  C13 UNL     1       3.725  -5.478 -23.010  1.00  0.00     0.137 C 
HETATM   12  N3  UNL     1       4.755  -4.453 -23.310  1.00  0.00    -0.355 N 
HETATM   13  C18 UNL     1       4.172  -3.434 -24.149  1.00  0.00     0.151 C 
HETATM   14  C19 UNL     1       2.696  -3.696 -24.015  1.00  0.00     0.111 C 
ENDROOT
BRANCH  14  15
HETATM   15  N5  UNL     1       1.798  -2.999 -24.769  1.00  0.00    -0.386 N 
HETATM   16  C20 UNL     1       0.702  -2.299 -24.316  1.00  0.00     0.058 C 
HETATM   17  C21 UNL     1      -0.126  -1.985 -25.545  1.00  0.00     0.046 C 
HETATM   18  C22 UNL     1       0.416  -2.935 -26.606  1.00  0.00     0.025 C 
HETATM   19  C23 UNL     1       1.876  -3.029 -26.187  1.00  0.00     0.123 C 
ENDBRANCH  14  15
BRANCH  12  20
HETATM   20  C14 UNL     1       6.060  -4.584 -22.786  1.00  0.00     0.170 C 
HETATM   21  S1  UNL     1       6.830  -3.232 -22.165  1.00  0.00    -0.041 SA
BRANCH  20  22
HETATM   22  N4  UNL     1       6.792  -5.760 -22.733  1.00  0.00    -0.362 N 
ATOM     23  H4  UNL     1       7.372  -5.893 -21.904  1.00  0.00     0.162 HD
BRANCH  22  24
HETATM   24  C15 UNL     1       6.829  -6.822 -23.714  1.00  0.00     0.084 A 
HETATM   25  C16 UNL     1       6.205  -8.138 -23.369  1.00  0.00     0.027 A 
HETATM   26  C17 UNL     1       7.697  -8.000 -23.350  1.00  0.00     0.027 A 
ENDBRANCH  22  24
ENDBRANCH  20  22
ENDBRANCH  12  20
BRANCH   3  27
HETATM   27  C2  UNL     1       0.867 -11.374 -24.890  1.00  0.00     0.086 C 
HETATM   28  C3  UNL     1      -0.582 -11.591 -25.235  1.00  0.00     0.025 C 
HETATM   29  C4  UNL     1      -1.449 -11.738 -24.002  1.00  0.00     0.002 C 
HETATM   30  C5  UNL     1      -0.969 -12.779 -23.047  1.00  0.00     0.000 C 
HETATM   31  C6  UNL     1       0.306 -13.392 -23.635  1.00  0.00     0.002 C 
HETATM   32  C7  UNL     1       1.314 -12.262 -23.748  1.00  0.00     0.025 C 
ENDBRANCH   3  27
TORSDOF 5
ENDMDL
MODEL 2
REMARK VINA RESULT: -7.106934711      3.046      8.151
REMARK  5 active torsions:
REMARK  status: ('A' for Active; 'I' for Inactive)
REMARK       I    between atoms: C1_2  and  N1_3 
REMARK       I    between atoms: C1_2  and  N2_11 
REMARK    1  A    between atoms: N1_3  and  C2_5 
REMARK    2  A    between atoms: N3_18  and  C14_19 
REMARK    3  A    between atoms: C14_19  and  N4_21 
REMARK    4  A    between atoms: N4_21  and  C15_23 
REMARK    5  A    between atoms: C19_27  and  N5_28 
ROOT
HETATM    1  O1  UNL     1       2.144  -3.894 -26.860  1.00  0.00    -0.247 OA
HETATM    2  C1  UNL     1       1.594  -4.252 -25.781  1.00  0.00     0.318 C 
HETATM    3  N1  UNL     1       0.726  -3.340 -25.138  1.00  0.00    -0.338 N 
ATOM      4  H1  UNL     1       0.274  -3.613 -24.266  1.00  0.00     0.164 HD
HETATM    5  N2  UNL     1       1.860  -5.540 -25.252  1.00  0.00    -0.334 N 
HETATM    6  C8  UNL     1       2.754  -6.417 -25.965  1.00  0.00     0.128 C 
HETATM    7  C9  UNL     1       2.342  -7.872 -25.865  1.00  0.00     0.033 C 
HETATM    8  C10 UNL     1       1.871  -8.265 -24.510  1.00  0.00     0.001 C 
HETATM    9  C11 UNL     1       2.007  -7.146 -23.510  1.00  0.00     0.033 C 
HETATM   10  C12 UNL     1       1.231  -5.949 -24.008  1.00  0.00     0.128 C 
HETATM   11  C13 UNL     1       0.446  -8.776 -24.600  1.00  0.00     0.137 C 
HETATM   12  N3  UNL     1       0.658 -10.122 -25.186  1.00  0.00    -0.355 N 
HETATM   13  C18 UNL     1       2.035 -10.507 -24.991  1.00  0.00     0.151 C 
HETATM   14  C19 UNL     1       2.513  -9.523 -23.957  1.00  0.00     0.111 C 
ENDROOT
BRANCH  14  15
HETATM   15  N5  UNL     1       3.826  -9.487 -23.592  1.00  0.00    -0.386 N 
HETATM   16  C20 UNL     1       4.551  -8.378 -23.212  1.00  0.00     0.058 C 
HETATM   17  C21 UNL     1       6.003  -8.810 -23.219  1.00  0.00     0.046 C 
HETATM   18  C22 UNL     1       5.999 -10.101 -24.030  1.00  0.00     0.025 C 
HETATM   19  C23 UNL     1       4.628 -10.657 -23.676  1.00  0.00     0.123 C 
ENDBRANCH  14  15
BRANCH  12  20
HETATM   20  C14 UNL     1      -0.414 -10.804 -25.804  1.00  0.00     0.170 C 
HETATM   21  S1  UNL     1      -0.779 -10.472 -27.404  1.00  0.00    -0.041 SA
BRANCH  20  22
HETATM   22  N4  UNL     1      -1.221 -11.752 -25.195  1.00  0.00    -0.362 N 
ATOM     23  H4  UNL     1      -1.789 -12.327 -25.818  1.00  0.00     0.162 HD
BRANCH  22  24
HETATM   24  C15 UNL     1      -1.354 -12.023 -23.781  1.00  0.00     0.084 A 
HETATM   25  C16 UNL     1      -0.364 -12.938 -23.131  1.00  0.00     0.027 A 
HETATM   26  C17 UNL     1      -1.744 -13.437 -23.433  1.00  0.00     0.027 A 
ENDBRANCH  22  24
ENDBRANCH  20  22
ENDBRANCH  12  20
BRANCH   3  27
HETATM   27  C2  UNL     1       0.469  -2.046 -25.683  1.00  0.00     0.086 C 
HETATM   28  C3  UNL     1       0.342  -1.054 -24.559  1.00  0.00     0.025 C 
HETATM   29  C4  UNL     1      -1.012  -1.121 -23.885  1.00  0.00     0.002 C 
HETATM   30  C5  UNL     1      -2.162  -1.003 -24.829  1.00  0.00     0.000 C 
HETATM   31  C6  UNL     1      -1.586  -0.851 -26.240  1.00  0.00     0.002 C 
HETATM   32  C7  UNL     1      -0.792  -2.115 -26.518  1.00  0.00     0.025 C 
ENDBRANCH   3  27
TORSDOF 5
ENDMDL
MODEL 3
REMARK VINA RESULT: -7.089851535      3.224      7.842
REMARK  5 active torsions:
REMARK  status: ('A' for Active; 'I' for Inactive)
REMARK       I    between atoms: C1_2  and  N1_3 
REMARK       I    between atoms: C1_2  and  N2_11 
REMARK    1  A    between atoms: N1_3  and  C2_5 
REMARK    2  A    between atoms: N3_18  and  C14_19 
REMARK    3  A    between atoms: C14_19  and  N4_21 
REMARK    4  A    between atoms: N4_21  and  C15_23 
REMARK    5  A    between atoms: C19_27  and  N5_28 
ROOT
HETATM    1  O1  UNL     1       2.838  -5.161 -23.786  1.00  0.00    -0.247 OA
HETATM    2  C1  UNL     1       2.885  -5.812 -24.867  1.00  0.00     0.318 C 
HETATM    3  N1  UNL     1       3.263  -5.127 -26.044  1.00  0.00    -0.338 N 
ATOM      4  H1  UNL     1       3.306  -5.638 -26.926  1.00  0.00     0.164 HD
HETATM    5  N2  UNL     1       2.561  -7.192 -24.868  1.00  0.00    -0.334 N 
HETATM    6  C8  UNL     1       2.187  -7.823 -23.628  1.00  0.00     0.128 C 
HETATM    7  C9  UNL     1       2.675  -9.255 -23.535  1.00  0.00     0.033 C 
HETATM    8  C10 UNL     1       2.534 -10.015 -24.805  1.00  0.00     0.001 C 
HETATM    9  C11 UNL     1       1.838  -9.216 -25.877  1.00  0.00     0.033 C 
HETATM   10  C12 UNL     1       2.610  -7.940 -26.113  1.00  0.00     0.128 C 
HETATM   11  C13 UNL     1       3.897 -10.503 -25.257  1.00  0.00     0.137 C 
HETATM   12  N3  UNL     1       4.125 -11.630 -24.320  1.00  0.00    -0.355 N 
HETATM   13  C18 UNL     1       2.861 -12.033 -23.754  1.00  0.00     0.151 C 
HETATM   14  C19 UNL     1       1.862 -11.367 -24.661  1.00  0.00     0.111 C 
ENDROOT
BRANCH  14  15
HETATM   15  N5  UNL     1       0.529 -11.415 -24.376  1.00  0.00    -0.386 N 
HETATM   16  C20 UNL     1      -0.105 -12.291 -23.523  1.00  0.00     0.058 C 
HETATM   17  C21 UNL     1      -1.587 -12.137 -23.799  1.00  0.00     0.046 C 
HETATM   18  C22 UNL     1      -1.639 -11.423 -25.144  1.00  0.00     0.025 C 
HETATM   19  C23 UNL     1      -0.382 -10.567 -25.062  1.00  0.00     0.123 C 
ENDBRANCH  14  15
BRANCH  12  20
HETATM   20  C14 UNL     1       5.431 -12.130 -24.116  1.00  0.00     0.170 C 
HETATM   21  S1  UNL     1       6.586 -11.138 -23.417  1.00  0.00    -0.041 SA
BRANCH  20  22
HETATM   22  N4  UNL     1       5.866 -13.403 -24.450  1.00  0.00    -0.362 N 
ATOM     23  H4  UNL     1       6.566 -13.816 -23.833  1.00  0.00     0.162 HD
BRANCH  22  24
HETATM   24  C15 UNL     1       5.445 -14.215 -25.570  1.00  0.00     0.084 A 
HETATM   25  C16 UNL     1       4.174 -14.994 -25.452  1.00  0.00     0.027 A 
HETATM   26  C17 UNL     1       5.488 -15.703 -25.335  1.00  0.00     0.027 A 
ENDBRANCH  22  24
ENDBRANCH  20  22
ENDBRANCH  12  20
BRANCH   3  27
HETATM   27  C2  UNL     1       3.585  -3.737 -26.027  1.00  0.00     0.086 C 
HETATM   28  C3  UNL     1       3.385  -3.167 -27.405  1.00  0.00     0.025 C 
HETATM   29  C4  UNL     1       4.534  -3.497 -28.334  1.00  0.00     0.002 C 
HETATM   30  C5  UNL     1       5.874  -3.122 -27.795  1.00  0.00     0.000 C 
HETATM   31  C6  UNL     1       5.657  -2.501 -26.411  1.00  0.00     0.002 C 
HETATM   32  C7  UNL     1       5.015  -3.578 -25.553  1.00  0.00     0.025 C 
ENDBRANCH   3  27
TORSDOF 5
ENDMDL
MODEL 4
REMARK VINA RESULT: -6.976807946      3.187      4.226
REMARK  5 active torsions:
REMARK  status: ('A' for Active; 'I' for Inactive)
REMARK       I    between atoms: C1_2  and  N1_3 
REMARK       I    between atoms: C1_2  and  N2_11 
REMARK    1  A    between atoms: N1_3  and  C2_5 
REMARK    2  A    between atoms: N3_18  and  C14_19 
REMARK    3  A    between atoms: C14_19  and  N4_21 
REMARK    4  A    between atoms: N4_21  and  C15_23 
REMARK    5  A    between atoms: C19_27  and  N5_28 
ROOT
HETATM    1  O1  UNL     1       3.425 -10.145 -24.485  1.00  0.00    -0.247 OA
HETATM    2  C1  UNL     1       2.431  -9.411 -24.222  1.00  0.00     0.318 C 
HETATM    3  N1  UNL     1       1.136  -9.954 -24.385  1.00  0.00    -0.338 N 
ATOM      4  H1  UNL     1       0.323  -9.375 -24.177  1.00  0.00     0.164 HD
HETATM    5  N2  UNL     1       2.640  -8.081 -23.777  1.00  0.00    -0.334 N 
HETATM    6  C8  UNL     1       3.990  -7.598 -23.630  1.00  0.00     0.128 C 
HETATM    7  C9  UNL     1       4.141  -6.646 -22.460  1.00  0.00     0.033 C 
HETATM    8  C10 UNL     1       3.011  -5.690 -22.321  1.00  0.00     0.001 C 
HETATM    9  C11 UNL     1       2.012  -5.816 -23.442  1.00  0.00     0.033 C 
HETATM   10  C12 UNL     1       1.496  -7.235 -23.479  1.00  0.00     0.128 C 
HETATM   11  C13 UNL     1       2.363  -5.869 -20.961  1.00  0.00     0.137 C 
HETATM   12  N3  UNL     1       3.355  -5.207 -20.079  1.00  0.00    -0.355 N 
HETATM   13  C18 UNL     1       4.192  -4.345 -20.878  1.00  0.00     0.151 C 
HETATM   14  C19 UNL     1       3.425  -4.239 -22.169  1.00  0.00     0.111 C 
ENDROOT
BRANCH  14  15
HETATM   15  N5  UNL     1       3.962  -3.591 -23.242  1.00  0.00    -0.386 N 
HETATM   16  C20 UNL     1       3.316  -2.725 -24.096  1.00  0.00     0.058 C 
HETATM   17  C21 UNL     1       4.246  -2.536 -25.276  1.00  0.00     0.046 C 
HETATM   18  C22 UNL     1       5.232  -3.692 -25.157  1.00  0.00     0.025 C 
HETATM   19  C23 UNL     1       5.299  -3.855 -23.645  1.00  0.00     0.123 C 
ENDBRANCH  14  15
BRANCH  12  20
HETATM   20  C14 UNL     1       3.359  -5.472 -18.691  1.00  0.00     0.170 C 
HETATM   21  S1  UNL     1       3.662  -7.030 -18.158  1.00  0.00    -0.041 SA
BRANCH  20  22
HETATM   22  N4  UNL     1       3.128  -4.537 -17.694  1.00  0.00    -0.362 N 
ATOM     23  H4  UNL     1       3.956  -4.147 -17.242  1.00  0.00     0.162 HD
BRANCH  22  24
HETATM   24  C15 UNL     1       1.853  -4.049 -17.218  1.00  0.00     0.084 A 
HETATM   25  C16 UNL     1       1.840  -3.005 -16.147  1.00  0.00     0.027 A 
HETATM   26  C17 UNL     1       1.512  -4.424 -15.798  1.00  0.00     0.027 A 
ENDBRANCH  22  24
ENDBRANCH  20  22
ENDBRANCH  12  20
BRANCH   3  27
HETATM   27  C2  UNL     1       0.942 -11.294 -24.835  1.00  0.00     0.086 C 
HETATM   28  C3  UNL     1      -0.426 -11.414 -25.452  1.00  0.00     0.025 C 
HETATM   29  C4  UNL     1      -1.517 -11.528 -24.408  1.00  0.00     0.002 C 
HETATM   30  C5  UNL     1      -1.287 -12.614 -23.411  1.00  0.00     0.000 C 
HETATM   31  C6  UNL     1       0.037 -13.296 -23.768  1.00  0.00     0.002 C 
HETATM   32  C7  UNL     1       1.113 -12.230 -23.656  1.00  0.00     0.025 C 
ENDBRANCH   3  27
TORSDOF 5
ENDMDL
MODEL 5
REMARK VINA RESULT: -6.953881119      2.788      7.803
REMARK  5 active torsions:
REMARK  status: ('A' for Active; 'I' for Inactive)
REMARK       I    between atoms: C1_2  and  N1_3 
REMARK       I    between atoms: C1_2  and  N2_11 
REMARK    1  A    between atoms: N1_3  and  C2_5 
REMARK    2  A    between atoms: N3_18  and  C14_19 
REMARK    3  A    between atoms: C14_19  and  N4_21 
REMARK    4  A    between atoms: N4_21  and  C15_23 
REMARK    5  A    between atoms: C19_27  and  N5_28 
ROOT
HETATM    1  O1  UNL     1       2.424  -3.516 -26.528  1.00  0.00    -0.247 OA
HETATM    2  C1  UNL     1       1.931  -3.862 -25.418  1.00  0.00     0.318 C 
HETATM    3  N1  UNL     1       0.945  -3.033 -24.836  1.00  0.00    -0.338 N 
ATOM      4  H1  UNL     1       0.536  -3.298 -23.940  1.00  0.00     0.164 HD
HETATM    5  N2  UNL     1       2.375  -5.056 -24.796  1.00  0.00    -0.334 N 
HETATM    6  C8  UNL     1       3.381  -5.852 -25.451  1.00  0.00     0.128 C 
HETATM    7  C9  UNL     1       3.176  -7.339 -25.235  1.00  0.00     0.033 C 
HETATM    8  C10 UNL     1       2.767  -7.688 -23.849  1.00  0.00     0.001 C 
HETATM    9  C11 UNL     1       2.746  -6.487 -22.938  1.00  0.00     0.033 C 
HETATM   10  C12 UNL     1       1.811  -5.452 -23.516  1.00  0.00     0.128 C 
HETATM   11  C13 UNL     1       1.427  -8.397 -23.882  1.00  0.00     0.137 C 
HETATM   12  N3  UNL     1       1.824  -9.742 -24.367  1.00  0.00    -0.355 N 
HETATM   13  C18 UNL     1       3.241  -9.915 -24.160  1.00  0.00     0.151 C 
HETATM   14  C19 UNL     1       3.579  -8.797 -23.210  1.00  0.00     0.111 C 
ENDROOT
BRANCH  14  15
HETATM   15  N5  UNL     1       4.875  -8.551 -22.864  1.00  0.00    -0.386 N 
HETATM   16  C20 UNL     1       5.918  -8.255 -23.714  1.00  0.00     0.058 C 
HETATM   17  C21 UNL     1       7.178  -8.385 -22.884  1.00  0.00     0.046 C 
HETATM   18  C22 UNL     1       6.732  -9.173 -21.658  1.00  0.00     0.025 C 
HETATM   19  C23 UNL     1       5.296  -8.688 -21.514  1.00  0.00     0.123 C 
ENDBRANCH  14  15
BRANCH  12  20
HETATM   20  C14 UNL     1       0.856 -10.612 -24.917  1.00  0.00     0.170 C 
HETATM   21  S1  UNL     1       0.016 -10.137 -26.286  1.00  0.00    -0.041 SA
BRANCH  20  22
HETATM   22  N4  UNL     1       0.523 -11.862 -24.419  1.00  0.00    -0.362 N 
ATOM     23  H4  UNL     1      -0.431 -12.177 -24.596  1.00  0.00     0.162 HD
BRANCH  22  24
HETATM   24  C15 UNL     1       1.367 -12.772 -23.679  1.00  0.00     0.084 A 
HETATM   25  C16 UNL     1       2.475 -13.470 -24.403  1.00  0.00     0.027 A 
HETATM   26  C17 UNL     1       1.228 -14.225 -24.056  1.00  0.00     0.027 A 
ENDBRANCH  22  24
ENDBRANCH  20  22
ENDBRANCH  12  20
BRANCH   3  27
HETATM   27  C2  UNL     1       0.508  -1.833 -25.474  1.00  0.00     0.086 C 
HETATM   28  C3  UNL     1       0.233  -0.789 -24.426  1.00  0.00     0.025 C 
HETATM   29  C4  UNL     1      -1.103  -0.999 -23.745  1.00  0.00     0.002 C 
HETATM   30  C5  UNL     1      -2.251  -1.117 -24.691  1.00  0.00     0.000 C 
HETATM   31  C6  UNL     1      -1.693  -0.990 -26.112  1.00  0.00     0.002 C 
HETATM   32  C7  UNL     1      -0.724  -2.144 -26.298  1.00  0.00     0.025 C 
ENDBRANCH   3  27
TORSDOF 5
ENDMDL
