MODEL 1
REMARK VINA RESULT: -10.124208956      0.000      0.000
REMARK  3 active torsions:
REMARK  status: ('A' for Active; 'I' for Inactive)
REMARK    1  A    between atoms: C4_5  and  N2_6 
REMARK       I    between atoms: N2_6  and  C5_7 
REMARK       I    between atoms: C5_7  and  N3_9 
REMARK    2  A    between atoms: C6_10  and  C7_11 
REMARK       I    between atoms: C7_11  and  N4_13 
REMARK    3  A    between atoms: N4_13  and  C8_15 
ROOT
HETATM    1  N2  UNL     1       1.355 -11.027 -25.015  1.00  0.00    -0.389 NA
HETATM    2  C5  UNL     1       1.803  -9.790 -25.318  1.00  0.00     0.392 C 
HETATM    3  O1  UNL     1       1.311  -9.110 -26.304  1.00  0.00    -0.230 OA
HETATM    4  N3  UNL     1       2.860  -9.080 -24.605  1.00  0.00    -0.303 N 
HETATM    5  C6  UNL     1       3.611  -9.607 -23.514  1.00  0.00     0.183 C 
HETATM    6  C18 UNL     1       4.298  -8.460 -22.832  1.00  0.00     0.042 C 
HETATM    7  C19 UNL     1       4.097  -7.295 -23.717  1.00  0.00     0.015 C 
HETATM    8  C20 UNL     1       3.302  -6.151 -23.159  1.00  0.00    -0.008 C 
HETATM    9  C21 UNL     1       1.950  -6.582 -22.636  1.00  0.00     0.005 C 
HETATM   10  C22 UNL     1       1.123  -6.912 -23.892  1.00  0.00     0.007 C 
HETATM   11  C23 UNL     1       2.122  -6.782 -24.990  1.00  0.00     0.009 C 
HETATM   12  C24 UNL     1       2.844  -5.518 -24.498  1.00  0.00     0.011 C 
HETATM   13  C25 UNL     1       3.266  -7.754 -24.891  1.00  0.00     0.099 C 
ENDROOT
BRANCH   5  14
HETATM   14  C7  UNL     1       4.723 -10.504 -24.031  1.00  0.00     0.241 C 
HETATM   15  O2  UNL     1       5.866 -10.054 -24.221  1.00  0.00    -0.271 OA
HETATM   16  N4  UNL     1       4.490 -11.869 -24.306  1.00  0.00    -0.350 N 
ATOM     17  H4  UNL     1       3.548 -12.235 -24.167  1.00  0.00     0.163 HD
BRANCH  16  18
HETATM   18  C8  UNL     1       5.505 -12.769 -24.771  1.00  0.00     0.034 C 
HETATM   19  C9  UNL     1       4.944 -14.176 -24.606  1.00  0.00     0.035 C 
HETATM   20  C10 UNL     1       5.887 -15.132 -25.293  1.00  0.00    -0.012 C 
HETATM   21  C11 UNL     1       6.032 -14.842 -26.750  1.00  0.00     0.009 C 
HETATM   22  C15 UNL     1       7.267 -15.066 -24.660  1.00  0.00     0.009 C 
HETATM   23  C12 UNL     1       6.607 -13.448 -26.880  1.00  0.00    -0.012 C 
HETATM   24  C13 UNL     1       7.952 -13.297 -26.209  1.00  0.00     0.009 C 
HETATM   25  C17 UNL     1       5.677 -12.479 -26.250  1.00  0.00     0.035 C 
HETATM   26  C14 UNL     1       7.777 -13.665 -24.755  1.00  0.00    -0.012 C 
HETATM   27  C16 UNL     1       6.809 -12.736 -24.041  1.00  0.00     0.035 C 
ENDBRANCH  16  18
ENDBRANCH   5  14
BRANCH   1  28
HETATM   28  C4  UNL     1       0.888 -12.301 -24.711  1.00  0.00     0.198 C 
HETATM   29  C3  UNL     1       1.545 -13.043 -23.621  1.00  0.00     0.071 C 
HETATM   30  C2  UNL     1       0.478 -13.250 -22.573  1.00  0.00     0.275 C 
HETATM   31  N1  UNL     1      -0.759 -13.324 -23.346  1.00  0.00     0.087 N 
HETATM   32  C1  UNL     1      -1.876 -13.037 -22.509  1.00  0.00     0.310 C 
HETATM   33  C26 UNL     1      -0.608 -12.345 -24.357  1.00  0.00     0.311 C 
ENDBRANCH   1  28
TORSDOF 3
ENDMDL
MODEL 2
REMARK VINA RESULT: -10.090176191      0.199      1.312
REMARK  3 active torsions:
REMARK  status: ('A' for Active; 'I' for Inactive)
REMARK    1  A    between atoms: C4_5  and  N2_6 
REMARK       I    between atoms: N2_6  and  C5_7 
REMARK       I    between atoms: C5_7  and  N3_9 
REMARK    2  A    between atoms: C6_10  and  C7_11 
REMARK       I    between atoms: C7_11  and  N4_13 
REMARK    3  A    between atoms: N4_13  and  C8_15 
ROOT
HETATM    1  N2  UNL     1       1.256 -11.025 -24.974  1.00  0.00    -0.389 NA
HETATM    2  C5  UNL     1       1.743  -9.798 -25.257  1.00  0.00     0.392 C 
HETATM    3  O1  UNL     1       1.248  -9.071 -26.208  1.00  0.00    -0.230 OA
HETATM    4  N3  UNL     1       2.849  -9.150 -24.559  1.00  0.00    -0.303 N 
HETATM    5  C6  UNL     1       3.611  -9.737 -23.507  1.00  0.00     0.183 C 
HETATM    6  C18 UNL     1       4.364  -8.636 -22.816  1.00  0.00     0.042 C 
HETATM    7  C19 UNL     1       4.182  -7.440 -23.661  1.00  0.00     0.015 C 
HETATM    8  C20 UNL     1       3.449  -6.283 -23.048  1.00  0.00    -0.008 C 
HETATM    9  C21 UNL     1       2.098  -6.675 -22.494  1.00  0.00     0.005 C 
HETATM   10  C22 UNL     1       1.220  -6.938 -23.731  1.00  0.00     0.007 C 
HETATM   11  C23 UNL     1       2.189  -6.815 -24.857  1.00  0.00     0.009 C 
HETATM   12  C24 UNL     1       2.976  -5.594 -24.354  1.00  0.00     0.011 C 
HETATM   13  C25 UNL     1       3.297  -7.833 -24.821  1.00  0.00     0.099 C 
ENDROOT
BRANCH   5  14
HETATM   14  C7  UNL     1       4.671 -10.660 -24.083  1.00  0.00     0.241 C 
HETATM   15  O2  UNL     1       5.812 -10.239 -24.334  1.00  0.00    -0.271 OA
HETATM   16  N4  UNL     1       4.388 -12.019 -24.345  1.00  0.00    -0.350 N 
ATOM     17  H4  UNL     1       3.446 -12.361 -24.155  1.00  0.00     0.163 HD
BRANCH  16  18
HETATM   18  C8  UNL     1       5.354 -12.943 -24.864  1.00  0.00     0.034 C 
HETATM   19  C9  UNL     1       5.566 -12.571 -26.326  1.00  0.00     0.035 C 
HETATM   20  C10 UNL     1       6.737 -13.369 -26.841  1.00  0.00    -0.012 C 
HETATM   21  C11 UNL     1       7.995 -13.088 -26.088  1.00  0.00     0.009 C 
HETATM   22  C15 UNL     1       6.451 -14.859 -26.741  1.00  0.00     0.009 C 
HETATM   23  C12 UNL     1       7.759 -13.485 -24.646  1.00  0.00    -0.012 C 
HETATM   24  C13 UNL     1       7.401 -14.944 -24.484  1.00  0.00     0.009 C 
HETATM   25  C17 UNL     1       6.637 -12.681 -24.100  1.00  0.00     0.035 C 
HETATM   26  C14 UNL     1       6.166 -15.202 -25.315  1.00  0.00    -0.012 C 
HETATM   27  C16 UNL     1       4.974 -14.388 -24.839  1.00  0.00     0.035 C 
ENDBRANCH  16  18
ENDBRANCH   5  14
BRANCH   1  28
HETATM   28  C4  UNL     1       0.749 -12.288 -24.690  1.00  0.00     0.198 C 
HETATM   29  C3  UNL     1       1.450 -13.113 -23.691  1.00  0.00     0.071 C 
HETATM   30  C2  UNL     1       0.458 -13.318 -22.571  1.00  0.00     0.275 C 
HETATM   31  N1  UNL     1      -0.837 -13.296 -23.243  1.00  0.00     0.087 N 
HETATM   32  C1  UNL     1      -1.870 -12.996 -22.307  1.00  0.00     0.310 C 
HETATM   33  C26 UNL     1      -0.715 -12.277 -24.219  1.00  0.00     0.311 C 
ENDBRANCH   1  28
TORSDOF 3
ENDMDL
MODEL 3
REMARK VINA RESULT: -10.012494278      0.214      1.321
REMARK  3 active torsions:
REMARK  status: ('A' for Active; 'I' for Inactive)
REMARK    1  A    between atoms: C4_5  and  N2_6 
REMARK       I    between atoms: N2_6  and  C5_7 
REMARK       I    between atoms: C5_7  and  N3_9 
REMARK    2  A    between atoms: C6_10  and  C7_11 
REMARK       I    between atoms: C7_11  and  N4_13 
REMARK    3  A    between atoms: N4_13  and  C8_15 
ROOT
HETATM    1  N2  UNL     1       1.344 -10.970 -24.964  1.00  0.00    -0.389 NA
HETATM    2  C5  UNL     1       1.810  -9.729 -25.224  1.00  0.00     0.392 C 
HETATM    3  O1  UNL     1       1.288  -8.984 -26.145  1.00  0.00    -0.230 OA
HETATM    4  N3  UNL     1       2.923  -9.087 -24.532  1.00  0.00    -0.303 N 
HETATM    5  C6  UNL     1       3.714  -9.692 -23.512  1.00  0.00     0.183 C 
HETATM    6  C18 UNL     1       4.468  -8.602 -22.808  1.00  0.00     0.042 C 
HETATM    7  C19 UNL     1       4.254  -7.385 -23.616  1.00  0.00     0.015 C 
HETATM    8  C20 UNL     1       3.522  -6.254 -22.957  1.00  0.00    -0.008 C 
HETATM    9  C21 UNL     1       2.187  -6.677 -22.387  1.00  0.00     0.005 C 
HETATM   10  C22 UNL     1       1.287  -6.917 -23.612  1.00  0.00     0.007 C 
HETATM   11  C23 UNL     1       2.230  -6.753 -24.753  1.00  0.00     0.009 C 
HETATM   12  C24 UNL     1       3.013  -5.536 -24.234  1.00  0.00     0.011 C 
HETATM   13  C25 UNL     1       3.350  -7.758 -24.767  1.00  0.00     0.099 C 
ENDROOT
BRANCH   5  14
HETATM   14  C7  UNL     1       4.772 -10.586 -24.134  1.00  0.00     0.241 C 
HETATM   15  O2  UNL     1       5.919 -10.160 -24.350  1.00  0.00    -0.271 OA
HETATM   16  N4  UNL     1       4.482 -11.925 -24.482  1.00  0.00    -0.350 N 
ATOM     17  H4  UNL     1       3.535 -12.270 -24.322  1.00  0.00     0.163 HD
BRANCH  16  18
HETATM   18  C8  UNL     1       5.445 -12.823 -25.048  1.00  0.00     0.034 C 
HETATM   19  C9  UNL     1       6.731 -12.635 -24.253  1.00  0.00     0.035 C 
HETATM   20  C10 UNL     1       7.693 -13.720 -24.667  1.00  0.00    -0.012 C 
HETATM   21  C11 UNL     1       7.160 -15.089 -24.399  1.00  0.00     0.009 C 
HETATM   22  C15 UNL     1       8.004 -13.617 -26.152  1.00  0.00     0.009 C 
HETATM   23  C12 UNL     1       5.896 -15.250 -25.216  1.00  0.00    -0.012 C 
HETATM   24  C13 UNL     1       6.126 -15.091 -26.701  1.00  0.00     0.009 C 
HETATM   25  C17 UNL     1       4.913 -14.221 -24.798  1.00  0.00     0.035 C 
HETATM   26  C14 UNL     1       6.728 -13.723 -26.922  1.00  0.00    -0.012 C 
HETATM   27  C16 UNL     1       5.792 -12.607 -26.486  1.00  0.00     0.035 C 
ENDBRANCH  16  18
ENDBRANCH   5  14
BRANCH   1  28
HETATM   28  C4  UNL     1       0.857 -12.246 -24.704  1.00  0.00     0.198 C 
HETATM   29  C3  UNL     1       1.522 -13.047 -23.661  1.00  0.00     0.071 C 
HETATM   30  C2  UNL     1       0.474 -13.277 -22.600  1.00  0.00     0.275 C 
HETATM   31  N1  UNL     1      -0.781 -13.294 -23.347  1.00  0.00     0.087 N 
HETATM   32  C1  UNL     1      -1.874 -13.021 -22.474  1.00  0.00     0.310 C 
HETATM   33  C26 UNL     1      -0.631 -12.276 -24.318  1.00  0.00     0.311 C 
ENDBRANCH   1  28
TORSDOF 3
ENDMDL
MODEL 4
REMARK VINA RESULT: -9.445347843      3.503      7.545
REMARK  3 active torsions:
REMARK  status: ('A' for Active; 'I' for Inactive)
REMARK    1  A    between atoms: C4_5  and  N2_6 
REMARK       I    between atoms: N2_6  and  C5_7 
REMARK       I    between atoms: C5_7  and  N3_9 
REMARK    2  A    between atoms: C6_10  and  C7_11 
REMARK       I    between atoms: C7_11  and  N4_13 
REMARK    3  A    between atoms: N4_13  and  C8_15 
ROOT
HETATM    1  N2  UNL     1       4.466  -6.258 -22.229  1.00  0.00    -0.389 NA
HETATM    2  C5  UNL     1       5.393  -6.953 -22.923  1.00  0.00     0.392 C 
HETATM    3  O1  UNL     1       6.489  -6.401 -23.338  1.00  0.00    -0.230 OA
HETATM    4  N3  UNL     1       5.290  -8.362 -23.287  1.00  0.00    -0.303 N 
HETATM    5  C6  UNL     1       4.173  -9.203 -23.006  1.00  0.00     0.183 C 
HETATM    6  C18 UNL     1       4.613 -10.626 -23.186  1.00  0.00     0.042 C 
HETATM    7  C19 UNL     1       5.952 -10.553 -23.804  1.00  0.00     0.015 C 
HETATM    8  C20 UNL     1       7.097 -11.104 -23.006  1.00  0.00    -0.008 C 
HETATM    9  C21 UNL     1       7.187 -10.502 -21.623  1.00  0.00     0.005 C 
HETATM   10  C22 UNL     1       7.671  -9.058 -21.846  1.00  0.00     0.007 C 
HETATM   11  C23 UNL     1       7.666  -8.933 -23.331  1.00  0.00     0.009 C 
HETATM   12  C24 UNL     1       8.247 -10.312 -23.681  1.00  0.00     0.011 C 
HETATM   13  C25 UNL     1       6.305  -9.092 -23.951  1.00  0.00     0.099 C 
ENDROOT
BRANCH   5  14
HETATM   14  C7  UNL     1       3.080  -8.978 -24.036  1.00  0.00     0.241 C 
HETATM   15  O2  UNL     1       2.195  -9.831 -24.220  1.00  0.00    -0.271 OA
HETATM   16  N4  UNL     1       3.038  -7.796 -24.809  1.00  0.00    -0.350 N 
ATOM     17  H4  UNL     1       3.774  -7.104 -24.670  1.00  0.00     0.163 HD
BRANCH  16  18
HETATM   18  C8  UNL     1       2.017  -7.518 -25.776  1.00  0.00     0.034 C 
HETATM   19  C9  UNL     1       2.350  -6.158 -26.376  1.00  0.00     0.035 C 
HETATM   20  C10 UNL     1       1.434  -5.935 -27.554  1.00  0.00    -0.012 C 
HETATM   21  C11 UNL     1       1.598  -6.978 -28.610  1.00  0.00     0.009 C 
HETATM   22  C15 UNL     1      -0.019  -5.943 -27.106  1.00  0.00     0.009 C 
HETATM   23  C12 UNL     1       1.243  -8.312 -27.988  1.00  0.00    -0.012 C 
HETATM   24  C13 UNL     1      -0.172  -8.362 -27.460  1.00  0.00     0.009 C 
HETATM   25  C17 UNL     1       2.159  -8.577 -26.852  1.00  0.00     0.035 C 
HETATM   26  C14 UNL     1      -0.316  -7.250 -26.447  1.00  0.00    -0.012 C 
HETATM   27  C16 UNL     1       0.617  -7.430 -25.261  1.00  0.00     0.035 C 
ENDBRANCH  16  18
ENDBRANCH   5  14
BRANCH   1  28
HETATM   28  C4  UNL     1       3.517  -5.536 -21.514  1.00  0.00     0.198 C 
HETATM   29  C3  UNL     1       3.383  -5.798 -20.071  1.00  0.00     0.071 C 
HETATM   30  C2  UNL     1       3.745  -4.499 -19.390  1.00  0.00     0.275 C 
HETATM   31  N1  UNL     1       3.338  -3.477 -20.351  1.00  0.00     0.087 N 
HETATM   32  C1  UNL     1       4.030  -2.258 -20.090  1.00  0.00     0.310 C 
HETATM   33  C26 UNL     1       3.695  -4.011 -21.612  1.00  0.00     0.311 C 
ENDBRANCH   1  28
TORSDOF 3
ENDMDL
MODEL 5
REMARK VINA RESULT: -9.297291022      3.456      7.582
REMARK  3 active torsions:
REMARK  status: ('A' for Active; 'I' for Inactive)
REMARK    1  A    between atoms: C4_5  and  N2_6 
REMARK       I    between atoms: N2_6  and  C5_7 
REMARK       I    between atoms: C5_7  and  N3_9 
REMARK    2  A    between atoms: C6_10  and  C7_11 
REMARK       I    between atoms: C7_11  and  N4_13 
REMARK    3  A    between atoms: N4_13  and  C8_15 
ROOT
HETATM    1  N2  UNL     1       4.585  -6.344 -22.474  1.00  0.00    -0.389 NA
HETATM    2  C5  UNL     1       5.555  -7.062 -23.080  1.00  0.00     0.392 C 
HETATM    3  O1  UNL     1       6.694  -6.536 -23.399  1.00  0.00    -0.230 OA
HETATM    4  N3  UNL     1       5.454  -8.471 -23.444  1.00  0.00    -0.303 N 
HETATM    5  C6  UNL     1       4.299  -9.287 -23.259  1.00  0.00     0.183 C 
HETATM    6  C18 UNL     1       4.723 -10.720 -23.391  1.00  0.00     0.042 C 
HETATM    7  C19 UNL     1       6.112 -10.680 -23.889  1.00  0.00     0.015 C 
HETATM    8  C20 UNL     1       7.171 -11.249 -22.990  1.00  0.00    -0.008 C 
HETATM    9  C21 UNL     1       7.150 -10.638 -21.607  1.00  0.00     0.005 C 
HETATM   10  C22 UNL     1       7.683  -9.206 -21.794  1.00  0.00     0.007 C 
HETATM   11  C23 UNL     1       7.812  -9.092 -23.274  1.00  0.00     0.009 C 
HETATM   12  C24 UNL     1       8.392 -10.486 -23.564  1.00  0.00     0.011 C 
HETATM   13  C25 UNL     1       6.508  -9.227 -24.012  1.00  0.00     0.099 C 
ENDROOT
BRANCH   5  14
HETATM   14  C7  UNL     1       3.306  -9.047 -24.383  1.00  0.00     0.241 C 
HETATM   15  O2  UNL     1       2.695  -9.994 -24.905  1.00  0.00    -0.271 OA
HETATM   16  N4  UNL     1       3.049  -7.743 -24.862  1.00  0.00    -0.350 N 
ATOM     17  H4  UNL     1       3.563  -6.966 -24.446  1.00  0.00     0.163 HD
BRANCH  16  18
HETATM   18  C8  UNL     1       2.106  -7.453 -25.902  1.00  0.00     0.034 C 
HETATM   19  C9  UNL     1       0.728  -7.465 -25.251  1.00  0.00     0.035 C 
HETATM   20  C10 UNL     1      -0.264  -6.941 -26.259  1.00  0.00    -0.012 C 
HETATM   21  C11 UNL     1       0.047  -5.547 -26.695  1.00  0.00     0.009 C 
HETATM   22  C15 UNL     1      -0.286  -7.827 -27.493  1.00  0.00     0.009 C 
HETATM   23  C12 UNL     1       1.411  -5.572 -27.352  1.00  0.00    -0.012 C 
HETATM   24  C13 UNL     1       1.474  -6.491 -28.550  1.00  0.00     0.009 C 
HETATM   25  C17 UNL     1       2.416  -6.043 -26.368  1.00  0.00     0.035 C 
HETATM   26  C14 UNL     1       1.086  -7.874 -28.081  1.00  0.00    -0.012 C 
HETATM   27  C16 UNL     1       2.052  -8.418 -27.041  1.00  0.00     0.035 C 
ENDBRANCH  16  18
ENDBRANCH   5  14
BRANCH   1  28
HETATM   28  C4  UNL     1       3.593  -5.596 -21.851  1.00  0.00     0.198 C 
HETATM   29  C3  UNL     1       3.439  -5.721 -20.391  1.00  0.00     0.071 C 
HETATM   30  C2  UNL     1       3.733  -4.347 -19.837  1.00  0.00     0.275 C 
HETATM   31  N1  UNL     1       3.304  -3.443 -20.900  1.00  0.00     0.087 N 
HETATM   32  C1  UNL     1       3.938  -2.175 -20.750  1.00  0.00     0.310 C 
HETATM   33  C26 UNL     1       3.708  -4.082 -22.096  1.00  0.00     0.311 C 
ENDBRANCH   1  28
TORSDOF 3
ENDMDL
