MODEL 1
REMARK VINA RESULT: -9.525821179      0.000      0.000
REMARK  5 active torsions:
REMARK  status: ('A' for Active; 'I' for Inactive)
REMARK       I    between atoms: C1_2  and  N1_3 
REMARK       I    between atoms: C1_2  and  N2_10 
REMARK    1  A    between atoms: N1_3  and  C2_5 
REMARK    2  A    between atoms: N3_13  and  C9_14 
REMARK    3  A    between atoms: C9_14  and  O2_15 
REMARK    4  A    between atoms: C9_14  and  C10_17 
REMARK       I    between atoms: N4_21  and  C14_22 
REMARK       I    between atoms: C14_22  and  N5_24 
REMARK    5  A    between atoms: N5_24  and  C15_26 
ROOT
HETATM    1  C9  UNL     1       6.699 -11.428 -23.255  1.00  0.00     0.119 C 
ENDROOT
BRANCH   1   2
HETATM    2  N3  UNL     1       5.875 -10.333 -23.562  1.00  0.00    -0.362 N 
HETATM    3  C8  UNL     1       4.439 -10.608 -23.688  1.00  0.00     0.144 C 
HETATM    4  C7  UNL     1       3.711  -9.537 -24.473  1.00  0.00     0.147 C 
HETATM    5  N2  UNL     1       4.093  -8.216 -23.997  1.00  0.00    -0.331 N 
HETATM    6  C1  UNL     1       3.318  -7.112 -24.335  1.00  0.00     0.318 C 
HETATM    7  C23 UNL     1       5.282  -8.048 -23.174  1.00  0.00     0.147 C 
HETATM    8  O1  UNL     1       3.620  -5.965 -23.936  1.00  0.00    -0.247 OA
HETATM    9  N1  UNL     1       2.166  -7.262 -25.143  1.00  0.00    -0.338 N 
ATOM     10  H1  UNL     1       1.917  -8.196 -25.470  1.00  0.00     0.164 HD
HETATM   11  C22 UNL     1       6.339  -9.013 -23.759  1.00  0.00     0.144 C 
BRANCH   9  12
HETATM   12  C2  UNL     1       1.328  -6.147 -25.526  1.00  0.00     0.086 C 
HETATM   13  C3  UNL     1      -0.070  -6.578 -25.831  1.00  0.00     0.025 C 
HETATM   14  C4  UNL     1      -0.279  -6.485 -27.318  1.00  0.00     0.002 C 
HETATM   15  C5  UNL     1       1.122  -6.367 -27.863  1.00  0.00     0.002 C 
HETATM   16  C6  UNL     1       1.837  -5.546 -26.834  1.00  0.00     0.025 C 
ENDBRANCH   9  12
ENDBRANCH   1   2
BRANCH   1  17
HETATM   17  O2  UNL     1       7.380 -11.383 -22.128  1.00  0.00    -0.349 OA
ATOM     18  H2  UNL     1       7.401 -12.168 -21.594  1.00  0.00     0.219 HD
ENDBRANCH   1  17
BRANCH   1  19
HETATM   19  C10 UNL     1       6.865 -12.616 -24.079  1.00  0.00     0.078 C 
HETATM   20  C11 UNL     1       5.634 -13.353 -24.449  1.00  0.00     0.016 C 
HETATM   21  C12 UNL     1       5.721 -13.922 -25.852  1.00  0.00     0.021 C 
HETATM   22  C13 UNL     1       7.010 -14.573 -26.140  1.00  0.00     0.127 C 
HETATM   23  N4  UNL     1       8.145 -13.700 -25.831  1.00  0.00    -0.333 N 
HETATM   24  C14 UNL     1       9.461 -14.119 -26.111  1.00  0.00     0.318 C 
HETATM   25  C21 UNL     1       7.823 -12.426 -25.231  1.00  0.00     0.140 C 
HETATM   26  O3  UNL     1       9.631 -15.268 -26.597  1.00  0.00    -0.247 OA
HETATM   27  N5  UNL     1      10.576 -13.308 -25.872  1.00  0.00    -0.338 N 
ATOM     28  H5  UNL     1      10.459 -12.372 -25.484  1.00  0.00     0.164 HD
BRANCH  27  29
HETATM   29  C15 UNL     1      11.922 -13.821 -26.187  1.00  0.00     0.086 C 
HETATM   30  C16 UNL     1      12.409 -13.199 -27.510  1.00  0.00     0.025 C 
HETATM   31  C17 UNL     1      13.703 -13.919 -27.841  1.00  0.00     0.002 C 
HETATM   32  C18 UNL     1      14.263 -14.632 -26.644  1.00  0.00     0.000 C 
HETATM   33  C19 UNL     1      14.232 -13.842 -25.374  1.00  0.00     0.002 C 
HETATM   34  C20 UNL     1      12.861 -13.297 -25.133  1.00  0.00     0.025 C 
ENDBRANCH  27  29
ENDBRANCH   1  19
TORSDOF 5
ENDMDL
MODEL 2
REMARK VINA RESULT: -9.479818820      4.107      7.709
REMARK  5 active torsions:
REMARK  status: ('A' for Active; 'I' for Inactive)
REMARK       I    between atoms: C1_2  and  N1_3 
REMARK       I    between atoms: C1_2  and  N2_10 
REMARK    1  A    between atoms: N1_3  and  C2_5 
REMARK    2  A    between atoms: N3_13  and  C9_14 
REMARK    3  A    between atoms: C9_14  and  O2_15 
REMARK    4  A    between atoms: C9_14  and  C10_17 
REMARK       I    between atoms: N4_21  and  C14_22 
REMARK       I    between atoms: C14_22  and  N5_24 
REMARK    5  A    between atoms: N5_24  and  C15_26 
ROOT
HETATM    1  C9  UNL     1       7.187 -10.202 -23.791  1.00  0.00     0.119 C 
ENDROOT
BRANCH   1   2
HETATM    2  N3  UNL     1       6.414  -9.199 -23.185  1.00  0.00    -0.362 N 
HETATM    3  C8  UNL     1       6.478  -9.118 -21.721  1.00  0.00     0.144 C 
HETATM    4  C7  UNL     1       5.295  -8.379 -21.130  1.00  0.00     0.147 C 
HETATM    5  N2  UNL     1       5.064  -7.138 -21.852  1.00  0.00    -0.331 N 
HETATM    6  C1  UNL     1       4.258  -6.155 -21.290  1.00  0.00     0.318 C 
HETATM    7  C23 UNL     1       5.669  -6.926 -23.160  1.00  0.00     0.147 C 
HETATM    8  O1  UNL     1       4.045  -5.075 -21.888  1.00  0.00    -0.247 OA
HETATM    9  N1  UNL     1       3.657  -6.354 -20.026  1.00  0.00    -0.338 N 
ATOM     10  H1  UNL     1       3.828  -7.231 -19.536  1.00  0.00     0.164 HD
HETATM   11  C22 UNL     1       5.591  -8.289 -23.886  1.00  0.00     0.144 C 
BRANCH   9  12
HETATM   12  C2  UNL     1       2.808  -5.364 -19.397  1.00  0.00     0.086 C 
HETATM   13  C3  UNL     1       3.394  -4.854 -18.121  1.00  0.00     0.025 C 
HETATM   14  C4  UNL     1       2.592  -5.411 -16.977  1.00  0.00     0.002 C 
HETATM   15  C5  UNL     1       1.803  -6.529 -17.613  1.00  0.00     0.002 C 
HETATM   16  C6  UNL     1       1.488  -6.009 -18.982  1.00  0.00     0.025 C 
ENDBRANCH   9  12
ENDBRANCH   1   2
BRANCH   1  17
HETATM   17  O2  UNL     1       8.487 -10.005 -23.875  1.00  0.00    -0.349 OA
ATOM     18  H2  UNL     1       9.058 -10.651 -23.476  1.00  0.00     0.219 HD
ENDBRANCH   1  17
BRANCH   1  19
HETATM   19  C10 UNL     1       6.672 -11.449 -24.338  1.00  0.00     0.078 C 
HETATM   20  C11 UNL     1       7.670 -12.461 -24.757  1.00  0.00     0.016 C 
HETATM   21  C12 UNL     1       7.192 -13.871 -24.469  1.00  0.00     0.021 C 
HETATM   22  C13 UNL     1       5.791 -14.105 -24.858  1.00  0.00     0.127 C 
HETATM   23  N4  UNL     1       4.892 -13.096 -24.292  1.00  0.00    -0.333 N 
HETATM   24  C14 UNL     1       3.500 -13.194 -24.490  1.00  0.00     0.318 C 
HETATM   25  C21 UNL     1       5.520 -12.026 -23.551  1.00  0.00     0.140 C 
HETATM   26  O3  UNL     1       3.061 -14.145 -25.189  1.00  0.00    -0.247 OA
HETATM   27  N5  UNL     1       2.595 -12.279 -23.939  1.00  0.00    -0.338 N 
ATOM     28  H5  UNL     1       2.930 -11.505 -23.365  1.00  0.00     0.164 HD
BRANCH  27  29
HETATM   29  C15 UNL     1       1.154 -12.447 -24.196  1.00  0.00     0.086 C 
HETATM   30  C16 UNL     1       0.465 -12.973 -22.922  1.00  0.00     0.025 C 
HETATM   31  C17 UNL     1      -0.961 -13.286 -23.335  1.00  0.00     0.002 C 
HETATM   32  C18 UNL     1      -1.322 -12.622 -24.633  1.00  0.00     0.000 C 
HETATM   33  C19 UNL     1      -0.879 -11.198 -24.751  1.00  0.00     0.002 C 
HETATM   34  C20 UNL     1       0.575 -11.076 -24.423  1.00  0.00     0.025 C 
ENDBRANCH  27  29
ENDBRANCH   1  19
TORSDOF 5
ENDMDL
MODEL 3
REMARK VINA RESULT: -9.321355461      1.894     10.555
REMARK  5 active torsions:
REMARK  status: ('A' for Active; 'I' for Inactive)
REMARK       I    between atoms: C1_2  and  N1_3 
REMARK       I    between atoms: C1_2  and  N2_10 
REMARK    1  A    between atoms: N1_3  and  C2_5 
REMARK    2  A    between atoms: N3_13  and  C9_14 
REMARK    3  A    between atoms: C9_14  and  O2_15 
REMARK    4  A    between atoms: C9_14  and  C10_17 
REMARK       I    between atoms: N4_21  and  C14_22 
REMARK       I    between atoms: C14_22  and  N5_24 
REMARK    5  A    between atoms: N5_24  and  C15_26 
ROOT
HETATM    1  C9  UNL     1       5.278 -11.142 -24.087  1.00  0.00     0.119 C 
ENDROOT
BRANCH   1   2
HETATM    2  N3  UNL     1       6.356 -11.893 -24.583  1.00  0.00    -0.362 N 
HETATM    3  C8  UNL     1       7.640 -11.731 -23.892  1.00  0.00     0.144 C 
HETATM    4  C7  UNL     1       8.815 -12.162 -24.744  1.00  0.00     0.147 C 
HETATM    5  N2  UNL     1       8.549 -13.458 -25.350  1.00  0.00    -0.331 N 
HETATM    6  C1  UNL     1       9.597 -14.192 -25.894  1.00  0.00     0.318 C 
HETATM    7  C23 UNL     1       7.191 -13.984 -25.393  1.00  0.00     0.147 C 
HETATM    8  O1  UNL     1       9.397 -15.312 -26.418  1.00  0.00    -0.247 OA
HETATM    9  N1  UNL     1      10.918 -13.687 -25.868  1.00  0.00    -0.338 N 
ATOM     10  H1  UNL     1      11.084 -12.776 -25.441  1.00  0.00     0.164 HD
HETATM   11  C22 UNL     1       6.279 -12.770 -25.688  1.00  0.00     0.144 C 
BRANCH   9  12
HETATM   12  C2  UNL     1      12.043 -14.409 -26.421  1.00  0.00     0.086 C 
HETATM   13  C3  UNL     1      13.282 -14.223 -25.606  1.00  0.00     0.025 C 
HETATM   14  C4  UNL     1      14.225 -13.338 -26.376  1.00  0.00     0.002 C 
HETATM   15  C5  UNL     1      13.346 -12.733 -27.443  1.00  0.00     0.002 C 
HETATM   16  C6  UNL     1      12.397 -13.837 -27.792  1.00  0.00     0.025 C 
ENDBRANCH   9  12
ENDBRANCH   1   2
BRANCH   1  17
HETATM   17  O2  UNL     1       5.550 -10.154 -23.260  1.00  0.00    -0.349 OA
ATOM     18  H2  UNL     1       5.425  -9.267 -23.577  1.00  0.00     0.219 HD
ENDBRANCH   1  17
BRANCH   1  19
HETATM   19  C10 UNL     1       3.876 -11.364 -24.411  1.00  0.00     0.078 C 
HETATM   20  C11 UNL     1       3.337 -12.721 -24.161  1.00  0.00     0.016 C 
HETATM   21  C12 UNL     1       1.900 -12.673 -23.679  1.00  0.00     0.021 C 
HETATM   22  C13 UNL     1       1.056 -11.743 -24.446  1.00  0.00     0.127 C 
HETATM   23  N4  UNL     1       1.651 -10.406 -24.530  1.00  0.00    -0.333 N 
HETATM   24  C14 UNL     1       0.954  -9.357 -25.161  1.00  0.00     0.318 C 
HETATM   25  C21 UNL     1       2.963 -10.256 -23.944  1.00  0.00     0.140 C 
HETATM   26  O3  UNL     1      -0.167  -9.608 -25.676  1.00  0.00    -0.247 OA
HETATM   27  N5  UNL     1       1.460  -8.054 -25.233  1.00  0.00    -0.338 N 
ATOM     28  H5  UNL     1       2.364  -7.829 -24.817  1.00  0.00     0.164 HD
BRANCH  27  29
HETATM   29  C15 UNL     1       0.673  -7.011 -25.916  1.00  0.00     0.086 C 
HETATM   30  C16 UNL     1       1.088  -5.626 -25.382  1.00  0.00     0.025 C 
HETATM   31  C17 UNL     1       0.107  -4.648 -26.000  1.00  0.00     0.002 C 
HETATM   32  C18 UNL     1      -0.610  -5.247 -27.176  1.00  0.00     0.000 C 
HETATM   33  C19 UNL     1       0.264  -6.015 -28.115  1.00  0.00     0.002 C 
HETATM   34  C20 UNL     1       1.082  -7.017 -27.365  1.00  0.00     0.025 C 
ENDBRANCH  27  29
ENDBRANCH   1  19
TORSDOF 5
ENDMDL
MODEL 4
REMARK VINA RESULT: -9.320625912      3.105      9.540
REMARK  5 active torsions:
REMARK  status: ('A' for Active; 'I' for Inactive)
REMARK       I    between atoms: C1_2  and  N1_3 
REMARK       I    between atoms: C1_2  and  N2_10 
REMARK    1  A    between atoms: N1_3  and  C2_5 
REMARK    2  A    between atoms: N3_13  and  C9_14 
REMARK    3  A    between atoms: C9_14  and  O2_15 
REMARK    4  A    between atoms: C9_14  and  C10_17 
REMARK       I    between atoms: N4_21  and  C14_22 
REMARK       I    between atoms: C14_22  and  N5_24 
REMARK    5  A    between atoms: N5_24  and  C15_26 
ROOT
HETATM    1  C9  UNL     1       4.842  -7.884 -20.717  1.00  0.00     0.119 C 
ENDROOT
BRANCH   1   2
HETATM    2  N3  UNL     1       5.568  -8.789 -21.507  1.00  0.00    -0.362 N 
HETATM    3  C8  UNL     1       4.905  -9.279 -22.720  1.00  0.00     0.144 C 
HETATM    4  C7  UNL     1       5.513 -10.568 -23.232  1.00  0.00     0.147 C 
HETATM    5  N2  UNL     1       6.964 -10.461 -23.269  1.00  0.00    -0.331 N 
HETATM    6  C1  UNL     1       7.703 -11.381 -24.003  1.00  0.00     0.318 C 
HETATM    7  C23 UNL     1       7.640  -9.400 -22.537  1.00  0.00     0.147 C 
HETATM    8  O1  UNL     1       8.952 -11.310 -24.056  1.00  0.00    -0.247 OA
HETATM    9  N1  UNL     1       7.058 -12.422 -24.710  1.00  0.00    -0.338 N 
ATOM     10  H1  UNL     1       6.041 -12.483 -24.670  1.00  0.00     0.164 HD
HETATM   11  C22 UNL     1       6.869  -9.251 -21.204  1.00  0.00     0.144 C 
BRANCH   9  12
HETATM   12  C2  UNL     1       7.781 -13.407 -25.487  1.00  0.00     0.086 C 
HETATM   13  C3  UNL     1       7.237 -13.533 -26.873  1.00  0.00     0.025 C 
HETATM   14  C4  UNL     1       6.510 -14.846 -26.978  1.00  0.00     0.002 C 
HETATM   15  C5  UNL     1       6.332 -15.264 -25.539  1.00  0.00     0.002 C 
HETATM   16  C6  UNL     1       7.587 -14.790 -24.872  1.00  0.00     0.025 C 
ENDBRANCH   9  12
ENDBRANCH   1   2
BRANCH   1  17
HETATM   17  O2  UNL     1       4.829  -8.083 -19.415  1.00  0.00    -0.349 OA
ATOM     18  H2  UNL     1       3.988  -8.059 -18.973  1.00  0.00     0.219 HD
ENDBRANCH   1  17
BRANCH   1  19
HETATM   19  C10 UNL     1       4.097  -6.737 -21.217  1.00  0.00     0.078 C 
HETATM   20  C11 UNL     1       4.101  -5.517 -20.377  1.00  0.00     0.016 C 
HETATM   21  C12 UNL     1       4.128  -4.257 -21.219  1.00  0.00     0.021 C 
HETATM   22  C13 UNL     1       3.190  -4.291 -22.354  1.00  0.00     0.127 C 
HETATM   23  N4  UNL     1       3.360  -5.498 -23.167  1.00  0.00    -0.333 N 
HETATM   24  C14 UNL     1       2.603  -5.676 -24.342  1.00  0.00     0.318 C 
HETATM   25  C21 UNL     1       4.323  -6.461 -22.684  1.00  0.00     0.140 C 
HETATM   26  O3  UNL     1       1.760  -4.792 -24.649  1.00  0.00    -0.247 OA
HETATM   27  N5  UNL     1       2.756  -6.790 -25.175  1.00  0.00    -0.338 N 
ATOM     28  H5  UNL     1       3.437  -7.514 -24.947  1.00  0.00     0.164 HD
BRANCH  27  29
HETATM   29  C15 UNL     1       1.922  -6.906 -26.385  1.00  0.00     0.086 C 
HETATM   30  C16 UNL     1       2.696  -6.347 -27.594  1.00  0.00     0.025 C 
HETATM   31  C17 UNL     1       1.701  -6.338 -28.739  1.00  0.00     0.002 C 
HETATM   32  C18 UNL     1       0.516  -7.216 -28.453  1.00  0.00     0.000 C 
HETATM   33  C19 UNL     1       0.853  -8.546 -27.857  1.00  0.00     0.002 C 
HETATM   34  C20 UNL     1       1.747  -8.374 -26.671  1.00  0.00     0.025 C 
ENDBRANCH  27  29
ENDBRANCH   1  19
TORSDOF 5
ENDMDL
MODEL 5
REMARK VINA RESULT: -9.048211128      2.547     10.016
REMARK  5 active torsions:
REMARK  status: ('A' for Active; 'I' for Inactive)
REMARK       I    between atoms: C1_2  and  N1_3 
REMARK       I    between atoms: C1_2  and  N2_10 
REMARK    1  A    between atoms: N1_3  and  C2_5 
REMARK    2  A    between atoms: N3_13  and  C9_14 
REMARK    3  A    between atoms: C9_14  and  O2_15 
REMARK    4  A    between atoms: C9_14  and  C10_17 
REMARK       I    between atoms: N4_21  and  C14_22 
REMARK       I    between atoms: C14_22  and  N5_24 
REMARK    5  A    between atoms: N5_24  and  C15_26 
ROOT
HETATM    1  C9  UNL     1       6.169  -9.085 -22.205  1.00  0.00     0.119 C 
ENDROOT
BRANCH   1   2
HETATM    2  N3  UNL     1       6.698 -10.081 -23.041  1.00  0.00    -0.362 N 
HETATM    3  C8  UNL     1       8.122 -10.390 -22.874  1.00  0.00     0.144 C 
HETATM    4  C7  UNL     1       8.712 -11.081 -24.086  1.00  0.00     0.147 C 
HETATM    5  N2  UNL     1       7.845 -12.167 -24.517  1.00  0.00    -0.331 N 
HETATM    6  C1  UNL     1       8.336 -13.134 -25.388  1.00  0.00     0.318 C 
HETATM    7  C23 UNL     1       6.470 -12.241 -24.045  1.00  0.00     0.147 C 
HETATM    8  O1  UNL     1       7.614 -14.082 -25.772  1.00  0.00    -0.247 OA
HETATM    9  N1  UNL     1       9.667 -13.067 -25.861  1.00  0.00    -0.338 N 
ATOM     10  H1  UNL     1      10.258 -12.296 -25.550  1.00  0.00     0.164 HD
HETATM   11  C22 UNL     1       5.955 -10.783 -24.018  1.00  0.00     0.144 C 
BRANCH   9  12
HETATM   12  C2  UNL     1      10.226 -14.045 -26.769  1.00  0.00     0.086 C 
HETATM   13  C3  UNL     1      11.010 -15.093 -26.048  1.00  0.00     0.025 C 
HETATM   14  C4  UNL     1      12.471 -14.866 -26.329  1.00  0.00     0.002 C 
HETATM   15  C5  UNL     1      12.506 -13.467 -26.894  1.00  0.00     0.002 C 
HETATM   16  C6  UNL     1      11.241 -13.372 -27.689  1.00  0.00     0.025 C 
ENDBRANCH   9  12
ENDBRANCH   1   2
BRANCH   1  17
HETATM   17  O2  UNL     1       6.743  -8.903 -21.034  1.00  0.00    -0.349 OA
ATOM     18  H2  UNL     1       6.919  -8.009 -20.763  1.00  0.00     0.219 HD
ENDBRANCH   1  17
BRANCH   1  19
HETATM   19  C10 UNL     1       5.034  -8.230 -22.524  1.00  0.00     0.078 C 
HETATM   20  C11 UNL     1       5.252  -6.768 -22.440  1.00  0.00     0.016 C 
HETATM   21  C12 UNL     1       4.487  -6.025 -23.518  1.00  0.00     0.021 C 
HETATM   22  C13 UNL     1       3.100  -6.492 -23.679  1.00  0.00     0.127 C 
HETATM   23  N4  UNL     1       3.030  -7.945 -23.860  1.00  0.00    -0.333 N 
HETATM   24  C14 UNL     1       1.792  -8.571 -24.105  1.00  0.00     0.318 C 
HETATM   25  C21 UNL     1       4.282  -8.659 -23.761  1.00  0.00     0.140 C 
HETATM   26  O3  UNL     1       0.755  -7.857 -24.129  1.00  0.00    -0.247 OA
HETATM   27  N5  UNL     1       1.676  -9.949 -24.324  1.00  0.00    -0.338 N 
ATOM     28  H5  UNL     1       2.504 -10.543 -24.314  1.00  0.00     0.164 HD
BRANCH  27  29
HETATM   29  C15 UNL     1       0.344 -10.530 -24.569  1.00  0.00     0.086 C 
HETATM   30  C16 UNL     1       0.089 -10.602 -26.087  1.00  0.00     0.025 C 
HETATM   31  C17 UNL     1      -1.359 -11.034 -26.231  1.00  0.00     0.002 C 
HETATM   32  C18 UNL     1      -1.892 -11.626 -24.958  1.00  0.00     0.000 C 
HETATM   33  C19 UNL     1      -0.964 -12.580 -24.276  1.00  0.00     0.002 C 
HETATM   34  C20 UNL     1       0.387 -11.963 -24.106  1.00  0.00     0.025 C 
ENDBRANCH  27  29
ENDBRANCH   1  19
TORSDOF 5
ENDMDL
