MODEL 1
REMARK VINA RESULT: -9.590963425      0.000      0.000
REMARK  4 active torsions:
REMARK  status: ('A' for Active; 'I' for Inactive)
REMARK    1  A    between atoms: O1_1  and  C1_3 
REMARK    2  A    between atoms: N1_6  and  C4_7 
REMARK    3  A    between atoms: C12_15  and  C13_16 
REMARK    4  A    between atoms: C19_24  and  C20_25 
ROOT
HETATM    1  C1  UNL     1       3.996 -10.396 -23.947  1.00  0.00     0.147 C 
HETATM    2  C2  UNL     1       4.332 -11.876 -23.815  1.00  0.00     0.054 C 
HETATM    3  C3  UNL     1       5.203 -12.260 -24.999  1.00  0.00     0.280 C 
HETATM    4  N1  UNL     1       5.584 -13.624 -24.830  1.00  0.00     0.093 N 
HETATM    5  C9  UNL     1       4.433 -14.503 -24.865  1.00  0.00     0.273 C 
HETATM    6  C10 UNL     1       3.122 -13.760 -24.857  1.00  0.00     0.041 C 
HETATM    7  C11 UNL     1       3.103 -12.746 -23.721  1.00  0.00     0.046 C 
HETATM    8  C12 UNL     1       1.837 -12.008 -23.707  1.00  0.00     0.020 C 
HETATM    9  N2  UNL     1       1.695 -10.836 -24.264  1.00  0.00    -0.385 N 
ATOM     10  H2  UNL     1       0.805 -10.338 -24.244  1.00  0.00     0.160 HD
HETATM   11  C19 UNL     1       2.859 -10.276 -24.911  1.00  0.00     0.114 C 
ENDROOT
BRANCH   8  12
HETATM   12  C13 UNL     1       0.655 -12.561 -23.056  1.00  0.00    -0.013 A 
HETATM   13  C14 UNL     1       0.710 -13.164 -21.836  1.00  0.00     0.013 A 
HETATM   14  C15 UNL     1      -0.424 -13.692 -21.217  1.00  0.00     0.001 A 
HETATM   15  C16 UNL     1      -1.638 -13.595 -21.872  1.00  0.00     0.000 A 
HETATM   16  C17 UNL     1      -1.738 -12.999 -23.094  1.00  0.00     0.001 A 
HETATM   17  C18 UNL     1      -0.601 -12.489 -23.675  1.00  0.00     0.013 A 
ENDBRANCH   8  12
BRANCH  11  18
HETATM   18  C20 UNL     1       2.635  -8.909 -25.451  1.00  0.00     0.011 C 
HETATM   19  C21 UNL     1       2.242  -8.820 -26.883  1.00  0.00     0.007 C 
HETATM   20  C22 UNL     1       0.793  -8.409 -27.062  1.00  0.00     0.000 C 
HETATM   21  C23 UNL     1       0.542  -7.028 -26.484  1.00  0.00     0.000 C 
HETATM   22  C24 UNL     1       1.372  -6.803 -25.233  1.00  0.00     0.000 C 
HETATM   23  C25 UNL     1       1.577  -8.188 -24.607  1.00  0.00     0.007 C 
ENDBRANCH  11  18
BRANCH   1  24
HETATM   24  O1  UNL     1       3.695  -9.930 -22.663  1.00  0.00    -0.393 OA
ATOM     25  H1  UNL     1       3.308 -10.657 -22.188  1.00  0.00     0.210 HD
ENDBRANCH   1  24
BRANCH   4  26
HETATM   26  C4  UNL     1       6.568 -14.129 -25.713  1.00  0.00     0.223 C 
HETATM   27  C5  UNL     1       7.114 -13.206 -26.734  1.00  0.00     0.036 C 
HETATM   28  C6  UNL     1       8.549 -12.901 -26.351  1.00  0.00     0.002 C 
HETATM   29  C7  UNL     1       8.961 -14.262 -25.767  1.00  0.00     0.002 C 
HETATM   30  C8  UNL     1       7.772 -14.530 -24.864  1.00  0.00     0.036 C 
ENDBRANCH   4  26
TORSDOF 4
ENDMDL
MODEL 2
REMARK VINA RESULT: -9.207589980      2.162      2.946
REMARK  4 active torsions:
REMARK  status: ('A' for Active; 'I' for Inactive)
REMARK    1  A    between atoms: O1_1  and  C1_3 
REMARK    2  A    between atoms: N1_6  and  C4_7 
REMARK    3  A    between atoms: C12_15  and  C13_16 
REMARK    4  A    between atoms: C19_24  and  C20_25 
ROOT
HETATM    1  C1  UNL     1       5.086  -9.657 -22.753  1.00  0.00     0.147 C 
HETATM    2  C2  UNL     1       5.222 -11.157 -22.974  1.00  0.00     0.054 C 
HETATM    3  C3  UNL     1       6.472 -11.392 -23.805  1.00  0.00     0.280 C 
HETATM    4  N1  UNL     1       6.641 -12.802 -23.942  1.00  0.00     0.093 N 
HETATM    5  C9  UNL     1       5.544 -13.398 -24.675  1.00  0.00     0.273 C 
HETATM    6  C10 UNL     1       4.410 -12.439 -24.924  1.00  0.00     0.041 C 
HETATM    7  C11 UNL     1       4.000 -11.764 -23.622  1.00  0.00     0.046 C 
HETATM    8  C12 UNL     1       2.903 -10.819 -23.850  1.00  0.00     0.020 C 
HETATM    9  N2  UNL     1       3.096  -9.539 -24.024  1.00  0.00    -0.385 N 
ATOM     10  H2  UNL     1       2.318  -8.898 -24.182  1.00  0.00     0.160 HD
HETATM   11  C19 UNL     1       4.462  -9.074 -23.981  1.00  0.00     0.114 C 
ENDROOT
BRANCH   8  12
HETATM   12  C13 UNL     1       1.519 -11.275 -23.894  1.00  0.00    -0.013 A 
HETATM   13  C14 UNL     1       0.543 -10.579 -24.540  1.00  0.00     0.013 A 
HETATM   14  C15 UNL     1      -0.782 -11.018 -24.579  1.00  0.00     0.001 A 
HETATM   15  C16 UNL     1      -1.102 -12.201 -23.937  1.00  0.00     0.000 A 
HETATM   16  C17 UNL     1      -0.156 -12.929 -23.279  1.00  0.00     0.001 A 
HETATM   17  C18 UNL     1       1.139 -12.466 -23.261  1.00  0.00     0.013 A 
ENDBRANCH   8  12
BRANCH  11  18
HETATM   18  C20 UNL     1       4.589  -7.598 -24.110  1.00  0.00     0.011 C 
HETATM   19  C21 UNL     1       3.456  -6.789 -23.587  1.00  0.00     0.007 C 
HETATM   20  C22 UNL     1       3.816  -6.042 -22.315  1.00  0.00     0.000 C 
HETATM   21  C23 UNL     1       4.942  -5.055 -22.563  1.00  0.00     0.000 C 
HETATM   22  C24 UNL     1       5.935  -5.605 -23.572  1.00  0.00     0.000 C 
HETATM   23  C25 UNL     1       5.881  -7.130 -23.430  1.00  0.00     0.007 C 
ENDBRANCH  11  18
BRANCH   1  24
HETATM   24  O1  UNL     1       4.318  -9.483 -21.597  1.00  0.00    -0.393 OA
ATOM     25  H1  UNL     1       4.785  -8.866 -21.045  1.00  0.00     0.210 HD
ENDBRANCH   1  24
BRANCH   4  26
HETATM   26  C4  UNL     1       7.860 -13.249 -24.505  1.00  0.00     0.223 C 
HETATM   27  C5  UNL     1       7.796 -13.985 -25.789  1.00  0.00     0.036 C 
HETATM   28  C6  UNL     1       8.385 -13.087 -26.859  1.00  0.00     0.002 C 
HETATM   29  C7  UNL     1       9.489 -12.395 -26.043  1.00  0.00     0.002 C 
HETATM   30  C8  UNL     1       8.699 -12.010 -24.807  1.00  0.00     0.036 C 
ENDBRANCH   4  26
TORSDOF 4
ENDMDL
MODEL 3
REMARK VINA RESULT: -9.163918828      2.938      4.279
REMARK  4 active torsions:
REMARK  status: ('A' for Active; 'I' for Inactive)
REMARK    1  A    between atoms: O1_1  and  C1_3 
REMARK    2  A    between atoms: N1_6  and  C4_7 
REMARK    3  A    between atoms: C12_15  and  C13_16 
REMARK    4  A    between atoms: C19_24  and  C20_25 
ROOT
HETATM    1  C1  UNL     1       7.568 -10.707 -22.737  1.00  0.00     0.147 C 
HETATM    2  C2  UNL     1       7.777 -11.992 -23.527  1.00  0.00     0.054 C 
HETATM    3  C3  UNL     1       8.880 -11.738 -24.541  1.00  0.00     0.280 C 
HETATM    4  N1  UNL     1       9.130 -12.965 -25.223  1.00  0.00     0.093 N 
HETATM    5  C9  UNL     1       7.973 -13.397 -25.977  1.00  0.00     0.273 C 
HETATM    6  C10 UNL     1       6.742 -12.576 -25.693  1.00  0.00     0.041 C 
HETATM    7  C11 UNL     1       6.513 -12.482 -24.190  1.00  0.00     0.046 C 
HETATM    8  C12 UNL     1       5.324 -11.677 -23.896  1.00  0.00     0.020 C 
HETATM    9  N2  UNL     1       5.386 -10.408 -23.595  1.00  0.00    -0.385 N 
ATOM     10  H2  UNL     1       4.546  -9.865 -23.394  1.00  0.00     0.160 HD
HETATM   11  C19 UNL     1       6.699  -9.809 -23.558  1.00  0.00     0.114 C 
ENDROOT
BRANCH   8  12
HETATM   12  C13 UNL     1       3.992 -12.269 -23.928  1.00  0.00    -0.013 A 
HETATM   13  C14 UNL     1       3.766 -13.528 -24.394  1.00  0.00     0.013 A 
HETATM   14  C15 UNL     1       2.489 -14.092 -24.423  1.00  0.00     0.001 A 
HETATM   15  C16 UNL     1       1.425 -13.337 -23.961  1.00  0.00     0.000 A 
HETATM   16  C17 UNL     1       1.607 -12.073 -23.485  1.00  0.00     0.001 A 
HETATM   17  C18 UNL     1       2.879 -11.550 -23.471  1.00  0.00     0.013 A 
ENDBRANCH   8  12
BRANCH  11  18
HETATM   18  C20 UNL     1       6.688  -8.384 -23.133  1.00  0.00     0.011 C 
HETATM   19  C21 UNL     1       7.854  -7.560 -23.550  1.00  0.00     0.007 C 
HETATM   20  C22 UNL     1       7.494  -6.552 -24.626  1.00  0.00     0.000 C 
HETATM   21  C23 UNL     1       6.457  -5.565 -24.123  1.00  0.00     0.000 C 
HETATM   22  C24 UNL     1       5.471  -6.242 -23.187  1.00  0.00     0.000 C 
HETATM   23  C25 UNL     1       5.405  -7.708 -23.630  1.00  0.00     0.007 C 
ENDBRANCH  11  18
BRANCH   1  24
HETATM   24  O1  UNL     1       7.000 -11.071 -21.511  1.00  0.00    -0.393 OA
ATOM     25  H1  UNL     1       6.597 -10.289 -21.150  1.00  0.00     0.210 HD
ENDBRANCH   1  24
BRANCH   4  26
HETATM   26  C4  UNL     1      10.265 -13.008 -26.069  1.00  0.00     0.223 C 
HETATM   27  C5  UNL     1      11.535 -12.453 -25.545  1.00  0.00     0.036 C 
HETATM   28  C6  UNL     1      12.477 -13.616 -25.310  1.00  0.00     0.002 C 
HETATM   29  C7  UNL     1      12.076 -14.522 -26.484  1.00  0.00     0.002 C 
HETATM   30  C8  UNL     1      10.566 -14.478 -26.346  1.00  0.00     0.036 C 
ENDBRANCH   4  26
TORSDOF 4
ENDMDL
MODEL 4
REMARK VINA RESULT: -8.503138061      2.667      5.129
REMARK  4 active torsions:
REMARK  status: ('A' for Active; 'I' for Inactive)
REMARK    1  A    between atoms: O1_1  and  C1_3 
REMARK    2  A    between atoms: N1_6  and  C4_7 
REMARK    3  A    between atoms: C12_15  and  C13_16 
REMARK    4  A    between atoms: C19_24  and  C20_25 
ROOT
HETATM    1  C1  UNL     1       2.916 -10.000 -25.292  1.00  0.00     0.147 C 
HETATM    2  C2  UNL     1       4.394 -10.150 -24.959  1.00  0.00     0.054 C 
HETATM    3  C3  UNL     1       4.627 -11.588 -24.526  1.00  0.00     0.280 C 
HETATM    4  N1  UNL     1       6.025 -11.747 -24.292  1.00  0.00     0.093 N 
HETATM    5  C9  UNL     1       6.478 -10.912 -23.200  1.00  0.00     0.273 C 
HETATM    6  C10 UNL     1       5.429  -9.940 -22.725  1.00  0.00     0.041 C 
HETATM    7  C11 UNL     1       4.857  -9.170 -23.908  1.00  0.00     0.046 C 
HETATM    8  C12 UNL     1       3.827  -8.227 -23.464  1.00  0.00     0.020 C 
HETATM    9  N2  UNL     1       2.552  -8.503 -23.499  1.00  0.00    -0.385 N 
ATOM     10  H2  UNL     1       1.850  -7.833 -23.185  1.00  0.00     0.160 HD
HETATM   11  C19 UNL     1       2.180  -9.804 -24.006  1.00  0.00     0.114 C 
ENDROOT
BRANCH   8  12
HETATM   12  C13 UNL     1       4.188  -6.910 -22.952  1.00  0.00    -0.013 A 
HETATM   13  C14 UNL     1       3.465  -6.281 -21.984  1.00  0.00     0.013 A 
HETATM   14  C15 UNL     1       3.813  -5.020 -21.498  1.00  0.00     0.001 A 
HETATM   15  C16 UNL     1       4.932  -4.398 -22.022  1.00  0.00     0.000 A 
HETATM   16  C17 UNL     1       5.684  -4.991 -22.991  1.00  0.00     0.001 A 
HETATM   17  C18 UNL     1       5.311  -6.234 -23.447  1.00  0.00     0.013 A 
ENDBRANCH   8  12
BRANCH  11  18
HETATM   18  C20 UNL     1       0.709 -10.009 -24.085  1.00  0.00     0.011 C 
HETATM   19  C21 UNL     1       0.018  -9.402 -25.254  1.00  0.00     0.007 C 
HETATM   20  C22 UNL     1      -0.451 -10.442 -26.254  1.00  0.00     0.000 C 
HETATM   21  C23 UNL     1      -1.462 -11.384 -25.627  1.00  0.00     0.000 C 
HETATM   22  C24 UNL     1      -1.125 -11.653 -24.171  1.00  0.00     0.000 C 
HETATM   23  C25 UNL     1       0.397 -11.510 -24.056  1.00  0.00     0.007 C 
ENDBRANCH  11  18
BRANCH   1  24
HETATM   24  O1  UNL     1       2.805  -8.918 -26.173  1.00  0.00    -0.393 OA
ATOM     25  H1  UNL     1       1.880  -8.802 -26.354  1.00  0.00     0.210 HD
ENDBRANCH   1  24
BRANCH   4  26
HETATM   26  C4  UNL     1       6.493 -13.066 -24.080  1.00  0.00     0.223 C 
HETATM   27  C5  UNL     1       5.766 -14.170 -24.748  1.00  0.00     0.036 C 
HETATM   28  C6  UNL     1       6.671 -14.721 -25.832  1.00  0.00     0.002 C 
HETATM   29  C7  UNL     1       8.035 -14.564 -25.141  1.00  0.00     0.002 C 
HETATM   30  C8  UNL     1       7.911 -13.138 -24.638  1.00  0.00     0.036 C 
ENDBRANCH   4  26
TORSDOF 4
ENDMDL
MODEL 5
REMARK VINA RESULT: -8.470093938      3.641      5.751
REMARK  4 active torsions:
REMARK  status: ('A' for Active; 'I' for Inactive)
REMARK    1  A    between atoms: O1_1  and  C1_3 
REMARK    2  A    between atoms: N1_6  and  C4_7 
REMARK    3  A    between atoms: C12_15  and  C13_16 
REMARK    4  A    between atoms: C19_24  and  C20_25 
ROOT
HETATM    1  C1  UNL     1       1.260  -6.734 -25.337  1.00  0.00     0.147 C 
HETATM    2  C2  UNL     1       2.018  -7.021 -24.047  1.00  0.00     0.054 C 
HETATM    3  C3  UNL     1       3.365  -6.323 -24.138  1.00  0.00     0.280 C 
HETATM    4  N1  UNL     1       4.039  -6.525 -22.897  1.00  0.00     0.093 N 
HETATM    5  C9  UNL     1       4.318  -7.927 -22.668  1.00  0.00     0.273 C 
HETATM    6  C10 UNL     1       3.654  -8.833 -23.671  1.00  0.00     0.041 C 
HETATM    7  C11 UNL     1       2.172  -8.498 -23.778  1.00  0.00     0.046 C 
HETATM    8  C12 UNL     1       1.514  -9.365 -24.759  1.00  0.00     0.020 C 
HETATM    9  N2  UNL     1       1.307  -9.004 -25.997  1.00  0.00    -0.385 N 
ATOM     10  H2  UNL     1       0.848  -9.623 -26.664  1.00  0.00     0.160 HD
HETATM   11  C19 UNL     1       1.761  -7.686 -26.376  1.00  0.00     0.114 C 
ENDROOT
BRANCH   8  12
HETATM   12  C13 UNL     1       1.049 -10.697 -24.389  1.00  0.00    -0.013 A 
HETATM   13  C14 UNL     1       1.894 -11.660 -23.926  1.00  0.00     0.013 A 
HETATM   14  C15 UNL     1       1.446 -12.934 -23.574  1.00  0.00     0.001 A 
HETATM   15  C16 UNL     1       0.097 -13.217 -23.702  1.00  0.00     0.000 A 
HETATM   16  C17 UNL     1      -0.782 -12.282 -24.161  1.00  0.00     0.001 A 
HETATM   17  C18 UNL     1      -0.305 -11.037 -24.499  1.00  0.00     0.013 A 
ENDBRANCH   8  12
BRANCH  11  18
HETATM   18  C20 UNL     1       1.420  -7.324 -27.777  1.00  0.00     0.011 C 
HETATM   19  C21 UNL     1       1.641  -5.906 -28.166  1.00  0.00     0.007 C 
HETATM   20  C22 UNL     1       2.817  -5.742 -29.112  1.00  0.00     0.000 C 
HETATM   21  C23 UNL     1       2.579  -6.489 -30.411  1.00  0.00     0.000 C 
HETATM   22  C24 UNL     1       1.823  -7.782 -30.165  1.00  0.00     0.000 C 
HETATM   23  C25 UNL     1       2.194  -8.226 -28.745  1.00  0.00     0.007 C 
ENDBRANCH  11  18
BRANCH   1  24
HETATM   24  O1  UNL     1      -0.101  -6.881 -25.050  1.00  0.00    -0.393 OA
ATOM     25  H1  UNL     1      -0.567  -6.803 -25.875  1.00  0.00     0.210 HD
ENDBRANCH   1  24
BRANCH   4  26
HETATM   26  C4  UNL     1       5.227  -5.785 -22.685  1.00  0.00     0.223 C 
HETATM   27  C5  UNL     1       6.027  -5.413 -23.875  1.00  0.00     0.036 C 
HETATM   28  C6  UNL     1       5.899  -3.913 -24.059  1.00  0.00     0.002 C 
HETATM   29  C7  UNL     1       5.848  -3.471 -22.588  1.00  0.00     0.002 C 
HETATM   30  C8  UNL     1       4.824  -4.455 -22.054  1.00  0.00     0.036 C 
ENDBRANCH   4  26
TORSDOF 4
ENDMDL
