MODEL 1
REMARK VINA RESULT: -9.303392072      0.000      0.000
REMARK  4 active torsions:
REMARK  status: ('A' for Active; 'I' for Inactive)
REMARK    1  A    between atoms: C6_6  and  N1_7 
REMARK    2  A    between atoms: C9_10  and  N2_11 
REMARK    3  A    between atoms: C12_14  and  O1_15 
REMARK    4  A    between atoms: C12_14  and  C13_17 
ROOT
HETATM    1  N2  UNL     1       4.471  -8.924 -23.803  1.00  0.00    -0.388 N 
HETATM    2  C10 UNL     1       3.398  -9.028 -24.758  1.00  0.00     0.125 C 
HETATM    3  C11 UNL     1       2.185  -8.466 -24.049  1.00  0.00     0.058 C 
HETATM    4  C12 UNL     1       2.358  -7.012 -23.806  1.00  0.00     0.071 C 
HETATM    5  C19 UNL     1       3.784  -6.556 -23.683  1.00  0.00     0.054 C 
HETATM    6  C20 UNL     1       3.918  -5.511 -22.562  1.00  0.00     0.018 C 
HETATM    7  C21 UNL     1       4.805  -7.635 -23.522  1.00  0.00     0.066 C 
ENDROOT
BRANCH   1   8
HETATM    8  C9  UNL     1       4.629 -10.075 -23.098  1.00  0.00     0.090 C 
HETATM    9  C8  UNL     1       3.663 -11.116 -23.674  1.00  0.00     0.056 C 
HETATM   10  C7  UNL     1       4.330 -12.428 -23.981  1.00  0.00     0.275 C 
HETATM   11  N1  UNL     1       5.558 -12.327 -24.682  1.00  0.00     0.097 N 
HETATM   12  C24 UNL     1       6.407 -11.241 -24.250  1.00  0.00     0.279 C 
HETATM   13  C22 UNL     1       5.916 -10.755 -22.923  1.00  0.00     0.033 C 
HETATM   14  C23 UNL     1       6.952 -10.036 -22.108  1.00  0.00     0.014 C 
BRANCH  11  15
HETATM   15  C6  UNL     1       6.308 -13.564 -24.574  1.00  0.00     0.251 C 
HETATM   16  C2  UNL     1       5.993 -14.583 -25.570  1.00  0.00    -0.056 C 
HETATM   17  C1  UNL     1       4.921 -15.337 -25.678  1.00  0.00     0.016 C 
HETATM   18  C3  UNL     1       7.137 -14.675 -26.520  1.00  0.00     0.035 C 
HETATM   19  C4  UNL     1       8.354 -14.270 -25.713  1.00  0.00     0.007 C 
HETATM   20  C5  UNL     1       7.797 -13.321 -24.680  1.00  0.00     0.041 C 
ENDBRANCH  11  15
ENDBRANCH   1   8
BRANCH   4  21
HETATM   21  O1  UNL     1       1.782  -6.781 -22.526  1.00  0.00    -0.389 OA
ATOM     22  H1  UNL     1       0.904  -6.465 -22.707  1.00  0.00     0.210 HD
ENDBRANCH   4  21
BRANCH   4  23
HETATM   23  C13 UNL     1       1.546  -6.119 -24.721  1.00  0.00     0.021 C 
HETATM   24  C14 UNL     1       0.371  -6.850 -25.322  1.00  0.00     0.007 C 
HETATM   25  C15 UNL     1      -0.195  -6.003 -26.472  1.00  0.00     0.000 C 
HETATM   26  C16 UNL     1       0.753  -6.051 -27.639  1.00  0.00     0.000 C 
HETATM   27  C17 UNL     1       2.185  -6.056 -27.161  1.00  0.00     0.000 C 
HETATM   28  C18 UNL     1       2.298  -5.405 -25.775  1.00  0.00     0.007 C 
ENDBRANCH   4  23
TORSDOF 4
ENDMDL
MODEL 2
REMARK VINA RESULT: -8.836163459      2.398      8.501
REMARK  4 active torsions:
REMARK  status: ('A' for Active; 'I' for Inactive)
REMARK    1  A    between atoms: C6_6  and  N1_7 
REMARK    2  A    between atoms: C9_10  and  N2_11 
REMARK    3  A    between atoms: C12_14  and  O1_15 
REMARK    4  A    between atoms: C12_14  and  C13_17 
ROOT
HETATM    1  N2  UNL     1       5.443 -11.990 -24.675  1.00  0.00    -0.388 N 
HETATM    2  C10 UNL     1       6.724 -11.440 -25.041  1.00  0.00     0.125 C 
HETATM    3  C11 UNL     1       7.742 -12.366 -24.412  1.00  0.00     0.058 C 
HETATM    4  C12 UNL     1       7.688 -13.704 -25.054  1.00  0.00     0.071 C 
HETATM    5  C19 UNL     1       6.355 -14.072 -25.639  1.00  0.00     0.054 C 
HETATM    6  C20 UNL     1       6.035 -15.551 -25.359  1.00  0.00     0.018 C 
HETATM    7  C21 UNL     1       5.204 -13.201 -25.247  1.00  0.00     0.066 C 
ENDROOT
BRANCH   1   8
HETATM    8  C9  UNL     1       4.949 -11.405 -23.552  1.00  0.00     0.090 C 
HETATM    9  C8  UNL     1       5.809 -10.175 -23.244  1.00  0.00     0.056 C 
HETATM   10  C7  UNL     1       4.993  -8.935 -23.002  1.00  0.00     0.275 C 
HETATM   11  N1  UNL     1       3.964  -8.700 -23.949  1.00  0.00     0.097 N 
HETATM   12  C24 UNL     1       3.253  -9.886 -24.368  1.00  0.00     0.279 C 
HETATM   13  C22 UNL     1       3.553 -10.985 -23.398  1.00  0.00     0.033 C 
HETATM   14  C23 UNL     1       2.522 -12.076 -23.364  1.00  0.00     0.014 C 
BRANCH  11  15
HETATM   15  C6  UNL     1       3.001  -7.750 -23.426  1.00  0.00     0.251 C 
HETATM   16  C2  UNL     1       3.194  -6.363 -23.837  1.00  0.00    -0.056 C 
HETATM   17  C1  UNL     1       4.119  -5.508 -23.464  1.00  0.00     0.016 C 
HETATM   18  C3  UNL     1       2.117  -6.010 -24.804  1.00  0.00     0.035 C 
HETATM   19  C4  UNL     1       0.941  -6.887 -24.423  1.00  0.00     0.007 C 
HETATM   20  C5  UNL     1       1.589  -8.113 -23.830  1.00  0.00     0.041 C 
ENDBRANCH  11  15
ENDBRANCH   1   8
BRANCH   4  21
HETATM   21  O1  UNL     1       7.897 -14.630 -23.994  1.00  0.00    -0.389 OA
ATOM     22  H1  UNL     1       7.251 -15.311 -24.132  1.00  0.00     0.210 HD
ENDBRANCH   4  21
BRANCH   4  23
HETATM   23  C13 UNL     1       8.832 -13.995 -26.003  1.00  0.00     0.021 C 
HETATM   24  C14 UNL     1       9.753 -15.061 -25.463  1.00  0.00     0.007 C 
HETATM   25  C15 UNL     1      11.042 -15.062 -26.298  1.00  0.00     0.000 C 
HETATM   26  C16 UNL     1      11.852 -13.839 -25.965  1.00  0.00     0.000 C 
HETATM   27  C17 UNL     1      10.950 -12.653 -25.725  1.00  0.00     0.000 C 
HETATM   28  C18 UNL     1       9.614 -12.828 -26.461  1.00  0.00     0.007 C 
ENDBRANCH   4  23
TORSDOF 4
ENDMDL
MODEL 3
REMARK VINA RESULT: -8.256414139      2.936      8.590
REMARK  4 active torsions:
REMARK  status: ('A' for Active; 'I' for Inactive)
REMARK    1  A    between atoms: C6_6  and  N1_7 
REMARK    2  A    between atoms: C9_10  and  N2_11 
REMARK    3  A    between atoms: C12_14  and  O1_15 
REMARK    4  A    between atoms: C12_14  and  C13_17 
ROOT
HETATM    1  N2  UNL     1       6.264 -11.877 -25.070  1.00  0.00    -0.388 N 
HETATM    2  C10 UNL     1       7.523 -11.243 -24.769  1.00  0.00     0.125 C 
HETATM    3  C11 UNL     1       8.433 -12.368 -24.326  1.00  0.00     0.058 C 
HETATM    4  C12 UNL     1       8.712 -13.283 -25.462  1.00  0.00     0.071 C 
HETATM    5  C19 UNL     1       7.641 -13.331 -26.513  1.00  0.00     0.054 C 
HETATM    6  C20 UNL     1       7.433 -14.776 -27.000  1.00  0.00     0.018 C 
HETATM    7  C21 UNL     1       6.334 -12.706 -26.147  1.00  0.00     0.066 C 
ENDROOT
BRANCH   1   8
HETATM    8  C9  UNL     1       5.419 -11.841 -24.007  1.00  0.00     0.090 C 
HETATM    9  C8  UNL     1       5.489 -10.438 -23.396  1.00  0.00     0.056 C 
HETATM   10  C7  UNL     1       4.133  -9.825 -23.178  1.00  0.00     0.275 C 
HETATM   11  N1  UNL     1       3.242  -9.935 -24.276  1.00  0.00     0.097 N 
HETATM   12  C24 UNL     1       3.289 -11.206 -24.960  1.00  0.00     0.279 C 
HETATM   13  C22 UNL     1       3.997 -12.191 -24.083  1.00  0.00     0.033 C 
HETATM   14  C23 UNL     1       3.671 -13.626 -24.380  1.00  0.00     0.014 C 
BRANCH  11  15
HETATM   15  C6  UNL     1       1.877  -9.696 -23.847  1.00  0.00     0.251 C 
HETATM   16  C2  UNL     1       1.347  -8.368 -24.137  1.00  0.00    -0.056 C 
HETATM   17  C1  UNL     1       1.639  -7.216 -23.575  1.00  0.00     0.016 C 
HETATM   18  C3  UNL     1       0.345  -8.495 -25.232  1.00  0.00     0.035 C 
HETATM   19  C4  UNL     1      -0.220  -9.894 -25.089  1.00  0.00     0.007 C 
HETATM   20  C5  UNL     1       0.917 -10.677 -24.482  1.00  0.00     0.041 C 
ENDBRANCH  11  15
ENDBRANCH   1   8
BRANCH   4  21
HETATM   21  O1  UNL     1       8.732 -14.585 -24.890  1.00  0.00    -0.389 OA
ATOM     22  H1  UNL     1       8.626 -15.177 -25.625  1.00  0.00     0.210 HD
ENDBRANCH   4  21
BRANCH   4  23
HETATM   23  C13 UNL     1      10.097 -13.142 -26.059  1.00  0.00     0.021 C 
HETATM   24  C14 UNL     1      10.795 -14.474 -26.180  1.00  0.00     0.007 C 
HETATM   25  C15 UNL     1      12.283 -14.222 -26.468  1.00  0.00     0.000 C 
HETATM   26  C16 UNL     1      12.950 -13.702 -25.224  1.00  0.00     0.000 C 
HETATM   27  C17 UNL     1      12.023 -12.781 -24.470  1.00  0.00     0.000 C 
HETATM   28  C18 UNL     1      10.989 -12.154 -25.416  1.00  0.00     0.007 C 
ENDBRANCH   4  23
TORSDOF 4
ENDMDL
MODEL 4
REMARK VINA RESULT: -8.157646566      1.569      1.970
REMARK  4 active torsions:
REMARK  status: ('A' for Active; 'I' for Inactive)
REMARK    1  A    between atoms: C6_6  and  N1_7 
REMARK    2  A    between atoms: C9_10  and  N2_11 
REMARK    3  A    between atoms: C12_14  and  O1_15 
REMARK    4  A    between atoms: C12_14  and  C13_17 
ROOT
HETATM    1  N2  UNL     1       5.427  -8.382 -23.631  1.00  0.00    -0.388 N 
HETATM    2  C10 UNL     1       4.097  -7.958 -23.992  1.00  0.00     0.125 C 
HETATM    3  C11 UNL     1       3.708  -6.946 -22.936  1.00  0.00     0.058 C 
HETATM    4  C12 UNL     1       4.556  -5.731 -23.050  1.00  0.00     0.071 C 
HETATM    5  C19 UNL     1       5.917  -5.963 -23.639  1.00  0.00     0.054 C 
HETATM    6  C20 UNL     1       6.974  -5.134 -22.888  1.00  0.00     0.018 C 
HETATM    7  C21 UNL     1       6.349  -7.389 -23.752  1.00  0.00     0.066 C 
ENDROOT
BRANCH   1   8
HETATM    8  C9  UNL     1       5.405  -9.512 -22.877  1.00  0.00     0.090 C 
HETATM    9  C8  UNL     1       4.185 -10.337 -23.300  1.00  0.00     0.056 C 
HETATM   10  C7  UNL     1       4.521 -11.774 -23.588  1.00  0.00     0.275 C 
HETATM   11  N1  UNL     1       5.666 -11.972 -24.402  1.00  0.00     0.097 N 
HETATM   12  C24 UNL     1       6.766 -11.082 -24.114  1.00  0.00     0.279 C 
HETATM   13  C22 UNL     1       6.527 -10.450 -22.779  1.00  0.00     0.033 C 
HETATM   14  C23 UNL     1       7.770  -9.943 -22.105  1.00  0.00     0.014 C 
BRANCH  11  15
HETATM   15  C6  UNL     1       6.140 -13.337 -24.288  1.00  0.00     0.251 C 
HETATM   16  C2  UNL     1       5.579 -14.283 -25.248  1.00  0.00    -0.056 C 
HETATM   17  C1  UNL     1       4.369 -14.793 -25.302  1.00  0.00     0.016 C 
HETATM   18  C3  UNL     1       6.642 -14.631 -26.233  1.00  0.00     0.035 C 
HETATM   19  C4  UNL     1       7.946 -14.480 -25.477  1.00  0.00     0.007 C 
HETATM   20  C5  UNL     1       7.642 -13.418 -24.450  1.00  0.00     0.041 C 
ENDBRANCH  11  15
ENDBRANCH   1   8
BRANCH   4  21
HETATM   21  O1  UNL     1       4.794  -5.323 -21.709  1.00  0.00    -0.389 OA
ATOM     22  H1  UNL     1       4.218  -4.580 -21.573  1.00  0.00     0.210 HD
ENDBRANCH   4  21
BRANCH   4  23
HETATM   23  C13 UNL     1       3.860  -4.533 -23.662  1.00  0.00     0.021 C 
HETATM   24  C14 UNL     1       2.365  -4.591 -23.468  1.00  0.00     0.007 C 
HETATM   25  C15 UNL     1       1.712  -3.545 -24.384  1.00  0.00     0.000 C 
HETATM   26  C16 UNL     1       1.799  -4.011 -25.812  1.00  0.00     0.000 C 
HETATM   27  C17 UNL     1       3.108  -4.717 -26.063  1.00  0.00     0.000 C 
HETATM   28  C18 UNL     1       4.182  -4.240 -25.074  1.00  0.00     0.007 C 
ENDBRANCH   4  23
TORSDOF 4
ENDMDL
MODEL 5
REMARK VINA RESULT: -7.962675817      2.079      3.422
REMARK  4 active torsions:
REMARK  status: ('A' for Active; 'I' for Inactive)
REMARK    1  A    between atoms: C6_6  and  N1_7 
REMARK    2  A    between atoms: C9_10  and  N2_11 
REMARK    3  A    between atoms: C12_14  and  O1_15 
REMARK    4  A    between atoms: C12_14  and  C13_17 
ROOT
HETATM    1  N2  UNL     1       1.119  -8.455 -25.210  1.00  0.00    -0.388 N 
HETATM    2  C10 UNL     1       0.379  -7.267 -24.867  1.00  0.00     0.125 C 
HETATM    3  C11 UNL     1       1.393  -6.144 -24.926  1.00  0.00     0.058 C 
HETATM    4  C12 UNL     1       1.850  -5.936 -26.324  1.00  0.00     0.071 C 
HETATM    5  C19 UNL     1       1.780  -7.153 -27.200  1.00  0.00     0.054 C 
HETATM    6  C20 UNL     1       3.022  -7.234 -28.106  1.00  0.00     0.018 C 
HETATM    7  C21 UNL     1       1.554  -8.454 -26.499  1.00  0.00     0.066 C 
ENDROOT
BRANCH   1   8
HETATM    8  C9  UNL     1       1.567  -9.103 -24.103  1.00  0.00     0.090 C 
HETATM    9  C8  UNL     1       1.040 -10.541 -24.153  1.00  0.00     0.056 C 
HETATM   10  C7  UNL     1       2.115 -11.568 -23.925  1.00  0.00     0.275 C 
HETATM   11  N1  UNL     1       3.308 -11.362 -24.664  1.00  0.00     0.097 N 
HETATM   12  C24 UNL     1       3.723  -9.982 -24.758  1.00  0.00     0.279 C 
HETATM   13  C22 UNL     1       2.982  -9.192 -23.726  1.00  0.00     0.033 C 
HETATM   14  C23 UNL     1       3.654  -7.910 -23.330  1.00  0.00     0.014 C 
BRANCH  11  15
HETATM   15  C6  UNL     1       4.398 -12.129 -24.093  1.00  0.00     0.251 C 
HETATM   16  C2  UNL     1       4.770 -13.337 -24.823  1.00  0.00    -0.056 C 
HETATM   17  C1  UNL     1       4.126 -14.479 -24.924  1.00  0.00     0.016 C 
HETATM   18  C3  UNL     1       6.083 -13.095 -25.484  1.00  0.00     0.035 C 
HETATM   19  C4  UNL     1       6.789 -12.086 -24.602  1.00  0.00     0.007 C 
HETATM   20  C5  UNL     1       5.659 -11.303 -23.982  1.00  0.00     0.041 C 
ENDBRANCH  11  15
ENDBRANCH   1   8
BRANCH   4  21
HETATM   21  O1  UNL     1       3.236  -5.633 -26.216  1.00  0.00    -0.389 OA
ATOM     22  H1  UNL     1       3.676  -6.334 -26.681  1.00  0.00     0.210 HD
ENDBRANCH   4  21
BRANCH   4  23
HETATM   23  C13 UNL     1       1.276  -4.708 -26.998  1.00  0.00     0.021 C 
HETATM   24  C14 UNL     1       2.302  -3.609 -27.134  1.00  0.00     0.007 C 
HETATM   25  C15 UNL     1       1.577  -2.308 -27.509  1.00  0.00     0.000 C 
HETATM   26  C16 UNL     1       0.820  -1.798 -26.313  1.00  0.00     0.000 C 
HETATM   27  C17 UNL     1       0.235  -2.944 -25.525  1.00  0.00     0.000 C 
HETATM   28  C18 UNL     1       0.024  -4.170 -26.424  1.00  0.00     0.007 C 
ENDBRANCH   4  23
TORSDOF 4
ENDMDL
