MODEL 1
REMARK VINA RESULT: -9.951279024      0.000      0.000
REMARK  3 active torsions:
REMARK  status: ('A' for Active; 'I' for Inactive)
REMARK    1  A    between atoms: C1_2  and  C2_4 
REMARK    2  A    between atoms: N2_11  and  C9_12 
REMARK    3  A    between atoms: C12_15  and  C13_16 
ROOT
HETATM    1  C9  UNL     1       3.487  -9.776 -24.003  1.00  0.00     0.253 C 
HETATM    2  C10 UNL     1       3.336 -11.278 -24.323  1.00  0.00     0.042 C 
HETATM    3  C11 UNL     1       4.348 -11.909 -23.339  1.00  0.00     0.045 C 
HETATM    4  C12 UNL     1       5.683 -11.685 -23.984  1.00  0.00     0.088 C 
HETATM    5  C19 UNL     1       6.846 -11.635 -23.032  1.00  0.00     0.043 C 
HETATM    6  C20 UNL     1       7.858 -10.613 -23.545  1.00  0.00     0.003 C 
HETATM    7  C21 UNL     1       7.869  -9.342 -22.760  1.00  0.00     0.000 C 
HETATM    8  C22 UNL     1       6.988  -8.337 -23.487  1.00  0.00     0.002 C 
HETATM    9  C23 UNL     1       5.557  -8.696 -23.207  1.00  0.00     0.034 C 
HETATM   10  C24 UNL     1       4.928  -9.482 -24.339  1.00  0.00     0.156 C 
HETATM   11  O2  UNL     1       5.667 -10.544 -24.771  1.00  0.00    -0.368 OA
ENDROOT
BRANCH   1  12
HETATM   12  N2  UNL     1       2.490  -9.019 -24.564  1.00  0.00     0.105 N 
HETATM   13  C5  UNL     1       1.125  -9.048 -24.312  1.00  0.00     0.226 C 
HETATM   14  C4  UNL     1       0.346  -9.424 -25.577  1.00  0.00     0.037 C 
HETATM   15  C6  UNL     1       1.136  -7.550 -24.093  1.00  0.00     0.071 C 
HETATM   16  C3  UNL     1       0.568  -8.480 -26.710  1.00  0.00     0.016 C 
HETATM   17  C2  UNL     1       2.017  -8.180 -26.908  1.00  0.00     0.077 C 
HETATM   18  C8  UNL     1       2.556  -7.113 -26.000  1.00  0.00     0.049 C 
HETATM   19  C7  UNL     1       2.574  -7.580 -24.562  1.00  0.00     0.227 C 
BRANCH  17  20
HETATM   20  C1  UNL     1       2.175  -7.673 -28.317  1.00  0.00     0.235 C 
HETATM   21  N1  UNL     1       1.357  -6.636 -28.807  1.00  0.00    -0.062 NA
HETATM   22  O1  UNL     1       3.040  -8.160 -29.104  1.00  0.00    -0.277 OA
ENDBRANCH  17  20
ENDBRANCH   1  12
BRANCH   4  23
HETATM   23  C13 UNL     1       5.928 -12.831 -24.916  1.00  0.00    -0.024 A 
HETATM   24  C14 UNL     1       6.662 -12.707 -26.070  1.00  0.00     0.010 A 
HETATM   25  C15 UNL     1       6.902 -13.793 -26.924  1.00  0.00     0.001 A 
HETATM   26  C16 UNL     1       6.382 -15.022 -26.591  1.00  0.00     0.000 A 
HETATM   27  C17 UNL     1       5.639 -15.188 -25.442  1.00  0.00     0.001 A 
HETATM   28  C18 UNL     1       5.424 -14.098 -24.628  1.00  0.00     0.010 A 
ENDBRANCH   4  23
TORSDOF 3
ENDMDL
MODEL 2
REMARK VINA RESULT: -9.696512499      1.324      1.749
REMARK  3 active torsions:
REMARK  status: ('A' for Active; 'I' for Inactive)
REMARK    1  A    between atoms: C1_2  and  C2_4 
REMARK    2  A    between atoms: N2_11  and  C9_12 
REMARK    3  A    between atoms: C12_15  and  C13_16 
ROOT
HETATM    1  C9  UNL     1       3.780  -9.690 -24.073  1.00  0.00     0.253 C 
HETATM    2  C10 UNL     1       3.584 -11.180 -24.424  1.00  0.00     0.042 C 
HETATM    3  C11 UNL     1       4.513 -11.866 -23.397  1.00  0.00     0.045 C 
HETATM    4  C12 UNL     1       5.889 -11.691 -23.965  1.00  0.00     0.088 C 
HETATM    5  C19 UNL     1       7.000 -11.703 -22.950  1.00  0.00     0.043 C 
HETATM    6  C20 UNL     1       8.080 -10.719 -23.391  1.00  0.00     0.003 C 
HETATM    7  C21 UNL     1       8.100  -9.459 -22.587  1.00  0.00     0.000 C 
HETATM    8  C22 UNL     1       7.304  -8.408 -23.346  1.00  0.00     0.002 C 
HETATM    9  C23 UNL     1       5.847  -8.709 -23.150  1.00  0.00     0.034 C 
HETATM   10  C24 UNL     1       5.248  -9.453 -24.327  1.00  0.00     0.156 C 
HETATM   11  O2  UNL     1       5.965 -10.540 -24.734  1.00  0.00    -0.368 OA
ENDROOT
BRANCH   1  12
HETATM   12  N2  UNL     1       2.848  -8.884 -24.677  1.00  0.00     0.105 N 
HETATM   13  C5  UNL     1       2.291  -7.698 -24.217  1.00  0.00     0.226 C 
HETATM   14  C4  UNL     1       0.773  -7.839 -24.053  1.00  0.00     0.037 C 
HETATM   15  C6  UNL     1       2.646  -7.025 -25.525  1.00  0.00     0.071 C 
HETATM   16  C3  UNL     1       0.072  -8.196 -25.321  1.00  0.00     0.016 C 
HETATM   17  C2  UNL     1       0.753  -9.317 -26.035  1.00  0.00     0.077 C 
HETATM   18  C8  UNL     1       1.921  -8.894 -26.877  1.00  0.00     0.049 C 
HETATM   19  C7  UNL     1       3.060  -8.396 -26.016  1.00  0.00     0.227 C 
BRANCH  17  20
HETATM   20  C1  UNL     1      -0.260  -9.925 -26.969  1.00  0.00     0.235 C 
HETATM   21  N1  UNL     1      -0.930 -11.117 -26.631  1.00  0.00    -0.062 NA
HETATM   22  O1  UNL     1      -0.540  -9.390 -28.082  1.00  0.00    -0.277 OA
ENDBRANCH  17  20
ENDBRANCH   1  12
BRANCH   4  23
HETATM   23  C13 UNL     1       6.137 -12.834 -24.900  1.00  0.00    -0.024 A 
HETATM   24  C14 UNL     1       6.864 -12.704 -26.057  1.00  0.00     0.010 A 
HETATM   25  C15 UNL     1       7.107 -13.786 -26.914  1.00  0.00     0.001 A 
HETATM   26  C16 UNL     1       6.597 -15.020 -26.579  1.00  0.00     0.000 A 
HETATM   27  C17 UNL     1       5.862 -15.192 -25.427  1.00  0.00     0.001 A 
HETATM   28  C18 UNL     1       5.644 -14.105 -24.610  1.00  0.00     0.010 A 
ENDBRANCH   4  23
TORSDOF 3
ENDMDL
MODEL 3
REMARK VINA RESULT: -9.641089486      1.463      1.858
REMARK  3 active torsions:
REMARK  status: ('A' for Active; 'I' for Inactive)
REMARK    1  A    between atoms: C1_2  and  C2_4 
REMARK    2  A    between atoms: N2_11  and  C9_12 
REMARK    3  A    between atoms: C12_15  and  C13_16 
ROOT
HETATM    1  C9  UNL     1       3.645  -9.766 -24.091  1.00  0.00     0.253 C 
HETATM    2  C10 UNL     1       3.483 -11.257 -24.451  1.00  0.00     0.042 C 
HETATM    3  C11 UNL     1       4.421 -11.930 -23.422  1.00  0.00     0.045 C 
HETATM    4  C12 UNL     1       5.796 -11.722 -23.981  1.00  0.00     0.088 C 
HETATM    5  C19 UNL     1       6.901 -11.716 -22.960  1.00  0.00     0.043 C 
HETATM    6  C20 UNL     1       7.963 -10.706 -23.391  1.00  0.00     0.003 C 
HETATM    7  C21 UNL     1       7.952  -9.450 -22.580  1.00  0.00     0.000 C 
HETATM    8  C22 UNL     1       7.137  -8.413 -23.338  1.00  0.00     0.002 C 
HETATM    9  C23 UNL     1       5.685  -8.746 -23.151  1.00  0.00     0.034 C 
HETATM   10  C24 UNL     1       5.109  -9.496 -24.335  1.00  0.00     0.156 C 
HETATM   11  O2  UNL     1       5.851 -10.565 -24.743  1.00  0.00    -0.368 OA
ENDROOT
BRANCH   1  12
HETATM   12  N2  UNL     1       2.699  -8.977 -24.696  1.00  0.00     0.105 N 
HETATM   13  C5  UNL     1       1.898  -9.260 -25.794  1.00  0.00     0.226 C 
HETATM   14  C4  UNL     1       2.177  -8.279 -26.938  1.00  0.00     0.037 C 
HETATM   15  C6  UNL     1       0.673  -8.856 -25.004  1.00  0.00     0.071 C 
HETATM   16  C3  UNL     1       1.933  -6.854 -26.566  1.00  0.00     0.016 C 
HETATM   17  C2  UNL     1       2.551  -6.509 -25.251  1.00  0.00     0.077 C 
HETATM   18  C8  UNL     1       1.723  -6.893 -24.060  1.00  0.00     0.049 C 
HETATM   19  C7  UNL     1       1.629  -8.396 -23.924  1.00  0.00     0.227 C 
BRANCH  17  20
HETATM   20  C1  UNL     1       2.701  -5.012 -25.213  1.00  0.00     0.235 C 
HETATM   21  N1  UNL     1       1.885  -4.225 -24.377  1.00  0.00    -0.062 NA
HETATM   22  O1  UNL     1       3.558  -4.412 -25.929  1.00  0.00    -0.277 OA
ENDBRANCH  17  20
ENDBRANCH   1  12
BRANCH   4  23
HETATM   23  C13 UNL     1       6.073 -12.855 -24.920  1.00  0.00    -0.024 A 
HETATM   24  C14 UNL     1       6.797 -12.701 -26.077  1.00  0.00     0.010 A 
HETATM   25  C15 UNL     1       7.068 -13.774 -26.938  1.00  0.00     0.001 A 
HETATM   26  C16 UNL     1       6.590 -15.021 -26.609  1.00  0.00     0.000 A 
HETATM   27  C17 UNL     1       5.859 -15.217 -25.457  1.00  0.00     0.001 A 
HETATM   28  C18 UNL     1       5.613 -14.138 -24.636  1.00  0.00     0.010 A 
ENDBRANCH   4  23
TORSDOF 3
ENDMDL
MODEL 4
REMARK VINA RESULT: -9.035895073      1.074      1.248
REMARK  3 active torsions:
REMARK  status: ('A' for Active; 'I' for Inactive)
REMARK    1  A    between atoms: C1_2  and  C2_4 
REMARK    2  A    between atoms: N2_11  and  C9_12 
REMARK    3  A    between atoms: C12_15  and  C13_16 
ROOT
HETATM    1  C9  UNL     1       3.744  -9.242 -23.847  1.00  0.00     0.253 C 
HETATM    2  C10 UNL     1       3.365 -10.704 -24.161  1.00  0.00     0.042 C 
HETATM    3  C11 UNL     1       4.271 -11.479 -23.178  1.00  0.00     0.045 C 
HETATM    4  C12 UNL     1       5.622 -11.463 -23.827  1.00  0.00     0.088 C 
HETATM    5  C19 UNL     1       6.783 -11.588 -22.879  1.00  0.00     0.043 C 
HETATM    6  C20 UNL     1       7.938 -10.734 -23.398  1.00  0.00     0.003 C 
HETATM    7  C21 UNL     1       8.144  -9.476 -22.618  1.00  0.00     0.000 C 
HETATM    8  C22 UNL     1       7.424  -8.351 -23.347  1.00  0.00     0.002 C 
HETATM    9  C23 UNL     1       5.957  -8.487 -23.061  1.00  0.00     0.034 C 
HETATM   10  C24 UNL     1       5.211  -9.172 -24.189  1.00  0.00     0.156 C 
HETATM   11  O2  UNL     1       5.779 -10.335 -24.619  1.00  0.00    -0.368 OA
ENDROOT
BRANCH   1  12
HETATM   12  N2  UNL     1       2.871  -8.344 -24.409  1.00  0.00     0.105 N 
HETATM   13  C5  UNL     1       2.041  -7.425 -23.782  1.00  0.00     0.226 C 
HETATM   14  C4  UNL     1       0.570  -7.715 -24.103  1.00  0.00     0.037 C 
HETATM   15  C6  UNL     1       2.593  -6.326 -24.663  1.00  0.00     0.071 C 
HETATM   16  C3  UNL     1       0.263  -7.667 -25.562  1.00  0.00     0.016 C 
HETATM   17  C2  UNL     1       1.264  -8.431 -26.366  1.00  0.00     0.077 C 
HETATM   18  C8  UNL     1       2.520  -7.669 -26.672  1.00  0.00     0.049 C 
HETATM   19  C7  UNL     1       3.324  -7.417 -25.416  1.00  0.00     0.227 C 
BRANCH  17  20
HETATM   20  C1  UNL     1       0.616  -8.753 -27.686  1.00  0.00     0.235 C 
HETATM   21  N1  UNL     1       1.055  -8.136 -28.875  1.00  0.00    -0.062 NA
HETATM   22  O1  UNL     1      -0.339  -9.581 -27.772  1.00  0.00    -0.277 OA
ENDBRANCH  17  20
ENDBRANCH   1  12
BRANCH   4  23
HETATM   23  C13 UNL     1       5.687 -12.636 -24.756  1.00  0.00    -0.024 A 
HETATM   24  C14 UNL     1       6.472 -12.650 -25.883  1.00  0.00     0.010 A 
HETATM   25  C15 UNL     1       6.540 -13.763 -26.733  1.00  0.00     0.001 A 
HETATM   26  C16 UNL     1       5.793 -14.876 -26.424  1.00  0.00     0.000 A 
HETATM   27  C17 UNL     1       4.993 -14.902 -25.303  1.00  0.00     0.001 A 
HETATM   28  C18 UNL     1       4.951 -13.789 -24.492  1.00  0.00     0.010 A 
ENDBRANCH   4  23
TORSDOF 3
ENDMDL
MODEL 5
REMARK VINA RESULT: -8.926682903      2.610      6.730
REMARK  3 active torsions:
REMARK  status: ('A' for Active; 'I' for Inactive)
REMARK    1  A    between atoms: C1_2  and  C2_4 
REMARK    2  A    between atoms: N2_11  and  C9_12 
REMARK    3  A    between atoms: C12_15  and  C13_16 
ROOT
HETATM    1  C9  UNL     1       4.121  -9.534 -23.216  1.00  0.00     0.253 C 
HETATM    2  C10 UNL     1       3.692  -8.198 -23.858  1.00  0.00     0.042 C 
HETATM    3  C11 UNL     1       2.156  -8.259 -23.706  1.00  0.00     0.045 C 
HETATM    4  C12 UNL     1       1.709  -9.178 -24.803  1.00  0.00     0.088 C 
HETATM    5  C19 UNL     1       0.408  -9.888 -24.546  1.00  0.00     0.043 C 
HETATM    6  C20 UNL     1       0.486 -11.291 -25.144  1.00  0.00     0.003 C 
HETATM    7  C21 UNL     1       0.644 -12.366 -24.118  1.00  0.00     0.000 C 
HETATM    8  C22 UNL     1       2.125 -12.693 -24.007  1.00  0.00     0.002 C 
HETATM    9  C23 UNL     1       2.776 -11.602 -23.208  1.00  0.00     0.034 C 
HETATM   10  C24 UNL     1       3.465 -10.576 -24.086  1.00  0.00     0.156 C 
HETATM   11  O2  UNL     1       2.698 -10.101 -25.109  1.00  0.00    -0.368 OA
ENDROOT
BRANCH   1  12
HETATM   12  N2  UNL     1       5.473  -9.594 -22.987  1.00  0.00     0.105 N 
HETATM   13  C5  UNL     1       6.343  -8.574 -22.623  1.00  0.00     0.226 C 
HETATM   14  C4  UNL     1       7.422  -8.373 -23.692  1.00  0.00     0.037 C 
HETATM   15  C6  UNL     1       6.851  -9.419 -21.475  1.00  0.00     0.071 C 
HETATM   16  C3  UNL     1       8.246  -9.593 -23.937  1.00  0.00     0.016 C 
HETATM   17  C2  UNL     1       7.399 -10.813 -24.093  1.00  0.00     0.077 C 
HETATM   18  C8  UNL     1       6.975 -11.440 -22.797  1.00  0.00     0.049 C 
HETATM   19  C7  UNL     1       6.015 -10.543 -22.047  1.00  0.00     0.227 C 
BRANCH  17  20
HETATM   20  C1  UNL     1       8.230 -11.837 -24.820  1.00  0.00     0.235 C 
HETATM   21  N1  UNL     1       9.631 -11.862 -24.678  1.00  0.00    -0.062 NA
HETATM   22  O1  UNL     1       7.701 -12.702 -25.580  1.00  0.00    -0.277 OA
ENDBRANCH  17  20
ENDBRANCH   1  12
BRANCH   4  23
HETATM   23  C13 UNL     1       1.519  -8.347 -26.034  1.00  0.00    -0.024 A 
HETATM   24  C14 UNL     1       2.241  -8.546 -27.184  1.00  0.00     0.010 A 
HETATM   25  C15 UNL     1       2.040  -7.775 -28.338  1.00  0.00     0.001 A 
HETATM   26  C16 UNL     1       1.084  -6.785 -28.310  1.00  0.00     0.000 A 
HETATM   27  C17 UNL     1       0.339  -6.553 -27.175  1.00  0.00     0.001 A 
HETATM   28  C18 UNL     1       0.566  -7.331 -26.061  1.00  0.00     0.010 A 
ENDBRANCH   4  23
TORSDOF 3
ENDMDL
