MODEL 1
REMARK VINA RESULT: -9.689915093      0.000      0.000
REMARK  3 active torsions:
REMARK  status: ('A' for Active; 'I' for Inactive)
REMARK    1  A    between atoms: N1_7  and  C6_9 
REMARK    2  A    between atoms: C9_12  and  C10_13 
REMARK       I    between atoms: C10_13  and  N2_15 
REMARK    3  A    between atoms: N2_15  and  C11_17 
ROOT
HETATM    1  C6  UNL     1       1.276  -8.371 -25.440  1.00  0.00     0.081 C 
HETATM    2  C7  UNL     1       2.178  -8.191 -24.245  1.00  0.00     0.026 C 
HETATM    3  C8  UNL     1       2.956  -9.454 -23.936  1.00  0.00     0.016 C 
HETATM    4  C9  UNL     1       2.081 -10.668 -23.890  1.00  0.00     0.078 C 
HETATM    5  C22 UNL     1       1.179 -10.778 -25.089  1.00  0.00     0.016 C 
HETATM    6  C23 UNL     1       0.324  -9.526 -25.121  1.00  0.00     0.026 C 
ENDROOT
BRANCH   4   7
HETATM    7  C10 UNL     1       2.946 -11.872 -23.840  1.00  0.00     0.222 C 
HETATM    8  O2  UNL     1       2.452 -13.015 -23.624  1.00  0.00    -0.273 OA
HETATM    9  N2  UNL     1       4.342 -11.698 -24.042  1.00  0.00    -0.356 N 
ATOM     10  H2  UNL     1       4.720 -10.766 -24.216  1.00  0.00     0.162 HD
BRANCH   9  11
HETATM   11  C11 UNL     1       5.231 -12.846 -24.001  1.00  0.00     0.088 C 
HETATM   12  C12 UNL     1       6.599 -12.383 -23.754  1.00  0.00     0.030 C 
HETATM   13  C13 UNL     1       7.701 -13.009 -24.532  1.00  0.00    -0.012 C 
HETATM   14  C14 UNL     1       7.740 -14.505 -24.444  1.00  0.00     0.009 C 
HETATM   15  C18 UNL     1       7.781 -12.492 -25.951  1.00  0.00     0.009 C 
HETATM   16  C15 UNL     1       6.945 -15.216 -25.481  1.00  0.00    -0.013 C 
HETATM   17  C16 UNL     1       7.162 -14.698 -26.878  1.00  0.00     0.009 C 
HETATM   18  C21 UNL     1       5.481 -15.070 -25.141  1.00  0.00     0.011 C 
HETATM   19  C17 UNL     1       6.876 -13.232 -26.886  1.00  0.00    -0.013 C 
HETATM   20  C19 UNL     1       5.455 -12.947 -26.494  1.00  0.00     0.011 C 
HETATM   21  C20 UNL     1       5.002 -13.638 -25.253  1.00  0.00     0.009 C 
ENDBRANCH   9  11
ENDBRANCH   4   7
BRANCH   1  22
HETATM   22  N1  UNL     1       0.450  -7.216 -25.601  1.00  0.00    -0.391 N 
HETATM   23  C5  UNL     1       0.820  -6.286 -26.378  1.00  0.00    -0.011 C 
HETATM   24  C4  UNL     1       2.085  -6.381 -27.114  1.00  0.00     0.053 C 
HETATM   25  C24 UNL     1      -0.071  -5.098 -26.520  1.00  0.00     0.130 C 
HETATM   26  C3  UNL     1       2.355  -5.110 -27.880  1.00  0.00     0.013 C 
HETATM   27  C2  UNL     1       2.093  -3.864 -27.065  1.00  0.00     0.079 C 
HETATM   28  C1  UNL     1       0.791  -3.907 -26.379  1.00  0.00     0.132 C 
HETATM   29  O1  UNL     1       0.428  -2.974 -25.708  1.00  0.00    -0.298 OA
ATOM     30  H1  UNL     1      -0.432  -7.141 -25.093  1.00  0.00     0.159 HD
ENDBRANCH   1  22
TORSDOF 3
ENDMDL
MODEL 2
REMARK VINA RESULT: -9.492415607      0.984      1.138
REMARK  3 active torsions:
REMARK  status: ('A' for Active; 'I' for Inactive)
REMARK    1  A    between atoms: N1_7  and  C6_9 
REMARK    2  A    between atoms: C9_12  and  C10_13 
REMARK       I    between atoms: C10_13  and  N2_15 
REMARK    3  A    between atoms: N2_15  and  C11_17 
ROOT
HETATM    1  C6  UNL     1       2.280  -7.448 -25.394  1.00  0.00     0.081 C 
HETATM    2  C7  UNL     1       3.301  -7.315 -24.292  1.00  0.00     0.026 C 
HETATM    3  C8  UNL     1       3.872  -8.661 -23.894  1.00  0.00     0.016 C 
HETATM    4  C9  UNL     1       2.808  -9.685 -23.648  1.00  0.00     0.078 C 
HETATM    5  C22 UNL     1       1.798  -9.750 -24.762  1.00  0.00     0.016 C 
HETATM    6  C23 UNL     1       1.173  -8.373 -24.880  1.00  0.00     0.026 C 
ENDROOT
BRANCH   4   7
HETATM    7  C10 UNL     1       3.452 -11.015 -23.520  1.00  0.00     0.222 C 
HETATM    8  O2  UNL     1       2.881 -11.953 -22.894  1.00  0.00    -0.273 OA
HETATM    9  N2  UNL     1       4.727 -11.198 -24.121  1.00  0.00    -0.356 N 
ATOM     10  H2  UNL     1       5.169 -10.427 -24.622  1.00  0.00     0.162 HD
BRANCH   9  11
HETATM   11  C11 UNL     1       5.399 -12.482 -24.021  1.00  0.00     0.088 C 
HETATM   12  C12 UNL     1       6.816 -12.257 -23.719  1.00  0.00     0.030 C 
HETATM   13  C13 UNL     1       7.824 -13.083 -24.435  1.00  0.00    -0.012 C 
HETATM   14  C14 UNL     1       7.598 -14.560 -24.322  1.00  0.00     0.009 C 
HETATM   15  C18 UNL     1       8.053 -12.620 -25.857  1.00  0.00     0.009 C 
HETATM   16  C15 UNL     1       6.736 -15.146 -25.383  1.00  0.00    -0.013 C 
HETATM   17  C16 UNL     1       7.100 -14.706 -26.777  1.00  0.00     0.009 C 
HETATM   18  C21 UNL     1       5.307 -14.741 -25.113  1.00  0.00     0.011 C 
HETATM   19  C17 UNL     1       7.073 -13.213 -26.821  1.00  0.00    -0.013 C 
HETATM   20  C19 UNL     1       5.709 -12.678 -26.499  1.00  0.00     0.011 C 
HETATM   21  C20 UNL     1       5.089 -13.251 -25.270  1.00  0.00     0.009 C 
ENDBRANCH   9  11
ENDBRANCH   4   7
BRANCH   1  22
HETATM   22  N1  UNL     1       1.655  -6.185 -25.629  1.00  0.00    -0.391 N 
HETATM   23  C5  UNL     1       1.919  -5.545 -26.691  1.00  0.00    -0.011 C 
HETATM   24  C4  UNL     1       2.857  -6.086 -27.680  1.00  0.00     0.053 C 
HETATM   25  C24 UNL     1       1.245  -4.232 -26.901  1.00  0.00     0.130 C 
HETATM   26  C3  UNL     1       3.090  -5.097 -28.794  1.00  0.00     0.013 C 
HETATM   27  C2  UNL     1       3.311  -3.688 -28.293  1.00  0.00     0.079 C 
HETATM   28  C1  UNL     1       2.299  -3.278 -27.306  1.00  0.00     0.132 C 
HETATM   29  O1  UNL     1       2.327  -2.171 -26.831  1.00  0.00    -0.298 OA
ATOM     30  H1  UNL     1       1.000  -5.801 -24.947  1.00  0.00     0.159 HD
ENDBRANCH   1  22
TORSDOF 3
ENDMDL
MODEL 3
REMARK VINA RESULT: -9.024701265      2.373      8.870
REMARK  3 active torsions:
REMARK  status: ('A' for Active; 'I' for Inactive)
REMARK    1  A    between atoms: N1_7  and  C6_9 
REMARK    2  A    between atoms: C9_12  and  C10_13 
REMARK       I    between atoms: C10_13  and  N2_15 
REMARK    3  A    between atoms: N2_15  and  C11_17 
ROOT
HETATM    1  C6  UNL     1       5.751 -13.641 -25.062  1.00  0.00     0.081 C 
HETATM    2  C7  UNL     1       4.508 -14.418 -24.705  1.00  0.00     0.026 C 
HETATM    3  C8  UNL     1       3.277 -13.536 -24.711  1.00  0.00     0.016 C 
HETATM    4  C9  UNL     1       3.474 -12.271 -23.937  1.00  0.00     0.078 C 
HETATM    5  C22 UNL     1       4.745 -11.556 -24.308  1.00  0.00     0.016 C 
HETATM    6  C23 UNL     1       5.890 -12.512 -24.037  1.00  0.00     0.026 C 
ENDROOT
BRANCH   4   7
HETATM    7  C10 UNL     1       2.329 -11.366 -24.208  1.00  0.00     0.222 C 
HETATM    8  O2  UNL     1       1.158 -11.681 -23.854  1.00  0.00    -0.273 OA
HETATM    9  N2  UNL     1       2.594 -10.140 -24.876  1.00  0.00    -0.356 N 
ATOM     10  H2  UNL     1       3.548  -9.906 -25.153  1.00  0.00     0.162 HD
BRANCH   9  11
HETATM   11  C11 UNL     1       1.507  -9.222 -25.167  1.00  0.00     0.088 C 
HETATM   12  C12 UNL     1       1.233  -9.245 -26.606  1.00  0.00     0.030 C 
HETATM   13  C13 UNL     1       0.977  -7.949 -27.291  1.00  0.00    -0.012 C 
HETATM   14  C14 UNL     1      -0.113  -7.132 -26.667  1.00  0.00     0.009 C 
HETATM   15  C18 UNL     1       2.244  -7.163 -27.544  1.00  0.00     0.009 C 
HETATM   16  C15 UNL     1       0.337  -6.192 -25.605  1.00  0.00    -0.013 C 
HETATM   17  C16 UNL     1       1.546  -5.379 -25.983  1.00  0.00     0.009 C 
HETATM   18  C21 UNL     1       0.667  -6.993 -24.370  1.00  0.00     0.011 C 
HETATM   19  C17 UNL     1       2.641  -6.317 -26.374  1.00  0.00    -0.013 C 
HETATM   20  C19 UNL     1       3.018  -7.225 -25.240  1.00  0.00     0.011 C 
HETATM   21  C20 UNL     1       1.867  -7.894 -24.569  1.00  0.00     0.009 C 
ENDBRANCH   9  11
ENDBRANCH   4   7
BRANCH   1  22
HETATM   22  N1  UNL     1       6.904 -14.468 -24.890  1.00  0.00    -0.391 N 
HETATM   23  C5  UNL     1       8.059 -13.968 -25.044  1.00  0.00    -0.011 C 
HETATM   24  C4  UNL     1       8.225 -12.554 -25.394  1.00  0.00     0.053 C 
HETATM   25  C24 UNL     1       9.237 -14.863 -24.856  1.00  0.00     0.130 C 
HETATM   26  C3  UNL     1       9.678 -12.229 -25.630  1.00  0.00     0.013 C 
HETATM   27  C2  UNL     1      10.384 -13.263 -26.477  1.00  0.00     0.079 C 
HETATM   28  C1  UNL     1      10.127 -14.636 -26.013  1.00  0.00     0.132 C 
HETATM   29  O1  UNL     1      10.640 -15.572 -26.573  1.00  0.00    -0.298 OA
ATOM     30  H1  UNL     1       6.798 -15.453 -24.646  1.00  0.00     0.159 HD
ENDBRANCH   1  22
TORSDOF 3
ENDMDL
MODEL 4
REMARK VINA RESULT: -8.799176776      1.742      2.066
REMARK  3 active torsions:
REMARK  status: ('A' for Active; 'I' for Inactive)
REMARK    1  A    between atoms: N1_7  and  C6_9 
REMARK    2  A    between atoms: C9_12  and  C10_13 
REMARK       I    between atoms: C10_13  and  N2_15 
REMARK    3  A    between atoms: N2_15  and  C11_17 
ROOT
HETATM    1  C6  UNL     1       3.083  -6.909 -25.026  1.00  0.00     0.081 C 
HETATM    2  C7  UNL     1       3.129  -7.092 -23.529  1.00  0.00     0.026 C 
HETATM    3  C8  UNL     1       3.569  -8.491 -23.150  1.00  0.00     0.016 C 
HETATM    4  C9  UNL     1       2.814  -9.549 -23.892  1.00  0.00     0.078 C 
HETATM    5  C22 UNL     1       2.771  -9.298 -25.375  1.00  0.00     0.016 C 
HETATM    6  C23 UNL     1       2.108  -7.950 -25.581  1.00  0.00     0.026 C 
ENDROOT
BRANCH   4   7
HETATM    7  C10 UNL     1       3.476 -10.856 -23.656  1.00  0.00     0.222 C 
HETATM    8  O2  UNL     1       2.952 -11.718 -22.895  1.00  0.00    -0.273 OA
HETATM    9  N2  UNL     1       4.713 -11.104 -24.311  1.00  0.00    -0.356 N 
ATOM     10  H2  UNL     1       5.117 -10.393 -24.922  1.00  0.00     0.162 HD
BRANCH   9  11
HETATM   11  C11 UNL     1       5.401 -12.367 -24.110  1.00  0.00     0.088 C 
HETATM   12  C12 UNL     1       6.816 -12.103 -23.835  1.00  0.00     0.030 C 
HETATM   13  C13 UNL     1       7.830 -12.973 -24.487  1.00  0.00    -0.012 C 
HETATM   14  C14 UNL     1       7.621 -14.438 -24.252  1.00  0.00     0.009 C 
HETATM   15  C18 UNL     1       8.048 -12.625 -25.943  1.00  0.00     0.009 C 
HETATM   16  C15 UNL     1       6.762 -15.119 -25.258  1.00  0.00    -0.013 C 
HETATM   17  C16 UNL     1       7.114 -14.790 -26.684  1.00  0.00     0.009 C 
HETATM   18  C21 UNL     1       5.330 -14.709 -25.014  1.00  0.00     0.011 C 
HETATM   19  C17 UNL     1       7.071 -13.306 -26.850  1.00  0.00    -0.013 C 
HETATM   20  C19 UNL     1       5.701 -12.761 -26.565  1.00  0.00     0.011 C 
HETATM   21  C20 UNL     1       5.094 -13.239 -25.291  1.00  0.00     0.009 C 
ENDBRANCH   9  11
ENDBRANCH   4   7
BRANCH   1  22
HETATM   22  N1  UNL     1       2.516  -5.636 -25.340  1.00  0.00    -0.391 N 
HETATM   23  C5  UNL     1       3.279  -4.638 -25.517  1.00  0.00    -0.011 C 
HETATM   24  C4  UNL     1       4.734  -4.777 -25.403  1.00  0.00     0.053 C 
HETATM   25  C24 UNL     1       2.649  -3.327 -25.845  1.00  0.00     0.130 C 
HETATM   26  C3  UNL     1       5.411  -3.437 -25.544  1.00  0.00     0.013 C 
HETATM   27  C2  UNL     1       4.731  -2.346 -24.748  1.00  0.00     0.079 C 
HETATM   28  C1  UNL     1       3.274  -2.326 -24.957  1.00  0.00     0.132 C 
HETATM   29  O1  UNL     1       2.593  -1.496 -24.408  1.00  0.00    -0.298 OA
ATOM     30  H1  UNL     1       1.505  -5.530 -25.423  1.00  0.00     0.159 HD
ENDBRANCH   1  22
TORSDOF 3
ENDMDL
MODEL 5
REMARK VINA RESULT: -8.775642388      1.182      1.417
REMARK  3 active torsions:
REMARK  status: ('A' for Active; 'I' for Inactive)
REMARK    1  A    between atoms: N1_7  and  C6_9 
REMARK    2  A    between atoms: C9_12  and  C10_13 
REMARK       I    between atoms: C10_13  and  N2_15 
REMARK    3  A    between atoms: N2_15  and  C11_17 
ROOT
HETATM    1  C6  UNL     1       1.969  -7.296 -25.538  1.00  0.00     0.081 C 
HETATM    2  C7  UNL     1       1.457  -7.661 -24.167  1.00  0.00     0.026 C 
HETATM    3  C8  UNL     1       2.160  -8.884 -23.615  1.00  0.00     0.016 C 
HETATM    4  C9  UNL     1       2.199 -10.014 -24.596  1.00  0.00     0.078 C 
HETATM    5  C22 UNL     1       2.684  -9.586 -25.954  1.00  0.00     0.016 C 
HETATM    6  C23 UNL     1       1.740  -8.507 -26.446  1.00  0.00     0.026 C 
ENDROOT
BRANCH   4   7
HETATM    7  C10 UNL     1       3.115 -11.059 -24.077  1.00  0.00     0.222 C 
HETATM    8  O2  UNL     1       2.946 -11.556 -22.927  1.00  0.00    -0.273 OA
HETATM    9  N2  UNL     1       4.185 -11.481 -24.912  1.00  0.00    -0.356 N 
ATOM     10  H2  UNL     1       4.303 -11.067 -25.838  1.00  0.00     0.162 HD
BRANCH   9  11
HETATM   11  C11 UNL     1       5.111 -12.500 -24.449  1.00  0.00     0.088 C 
HETATM   12  C12 UNL     1       6.356 -11.856 -24.021  1.00  0.00     0.030 C 
HETATM   13  C13 UNL     1       7.642 -12.497 -24.404  1.00  0.00    -0.012 C 
HETATM   14  C14 UNL     1       7.753 -13.937 -24.002  1.00  0.00     0.009 C 
HETATM   15  C18 UNL     1       8.010 -12.250 -25.850  1.00  0.00     0.009 C 
HETATM   16  C15 UNL     1       7.259 -14.910 -25.014  1.00  0.00    -0.013 C 
HETATM   17  C16 UNL     1       7.756 -14.643 -26.410  1.00  0.00     0.009 C 
HETATM   18  C21 UNL     1       5.751 -14.859 -25.027  1.00  0.00     0.011 C 
HETATM   19  C17 UNL     1       7.388 -13.244 -26.781  1.00  0.00    -0.013 C 
HETATM   20  C19 UNL     1       5.901 -13.043 -26.763  1.00  0.00     0.011 C 
HETATM   21  C20 UNL     1       5.222 -13.533 -25.530  1.00  0.00     0.009 C 
ENDBRANCH   9  11
ENDBRANCH   4   7
BRANCH   1  22
HETATM   22  N1  UNL     1       1.176  -6.242 -26.086  1.00  0.00    -0.391 N 
HETATM   23  C5  UNL     1       1.561  -5.040 -25.958  1.00  0.00    -0.011 C 
HETATM   24  C4  UNL     1       2.808  -4.721 -25.256  1.00  0.00     0.053 C 
HETATM   25  C24 UNL     1       0.706  -3.968 -26.545  1.00  0.00     0.130 C 
HETATM   26  C3  UNL     1       2.989  -3.229 -25.139  1.00  0.00     0.013 C 
HETATM   27  C2  UNL     1       1.727  -2.513 -24.716  1.00  0.00     0.079 C 
HETATM   28  C1  UNL     1       0.555  -2.932 -25.502  1.00  0.00     0.132 C 
HETATM   29  O1  UNL     1      -0.523  -2.433 -25.298  1.00  0.00    -0.298 OA
ATOM     30  H1  UNL     1       0.307  -6.454 -26.576  1.00  0.00     0.159 HD
ENDBRANCH   1  22
TORSDOF 3
ENDMDL
