MODEL 1
REMARK VINA RESULT: -5.954535292      0.000      0.000
REMARK  11 active torsions:
REMARK  status: ('A' for Active; 'I' for Inactive)
REMARK    1  A    between atoms: C4_5  and  C5_6 
REMARK    2  A    between atoms: C5_6  and  N1_8 
REMARK    3  A    between atoms: N1_8  and  C7_11 
REMARK    4  A    between atoms: C9_13  and  C10_14 
REMARK    5  A    between atoms: C14_22  and  N2_23 
REMARK    6  A    between atoms: N2_23  and  C15_25 
REMARK    7  A    between atoms: C18_29  and  N3_30 
REMARK    8  A    between atoms: N3_30  and  C19_32 
REMARK    9  A    between atoms: C20_35  and  C21_36 
REMARK       I    between atoms: C21_36  and  N5_38 
REMARK   10  A    between atoms: N5_38  and  C22_40 
REMARK   11  A    between atoms: C22_40  and  C23_41 
ROOT
HETATM    1  C1  UNL     1      -3.615   7.199   3.020  1.00  0.00     0.051 C 
HETATM    2  C2  UNL     1      -4.293   8.532   3.307  1.00  0.00    -0.028 A 
HETATM    3  C3  UNL     1      -4.553   8.873   4.605  1.00  0.00     0.059 A 
HETATM    4  S1  UNL     1      -5.295  10.393   4.471  1.00  0.00    -0.101 SA
HETATM    5  C4  UNL     1      -5.264  10.572   2.776  1.00  0.00     0.040 A 
HETATM    6  C18 UNL     1      -4.665   9.421   2.351  1.00  0.00     0.055 A 
ENDROOT
BRANCH   5   7
HETATM    7  C5  UNL     1      -5.779  11.736   1.940  1.00  0.00     0.224 C 
HETATM    8  C6  UNL     1      -7.288  11.642   1.856  1.00  0.00     0.046 C 
BRANCH   7   9
HETATM    9  N1  UNL     1      -5.334  12.972   2.505  1.00  0.00    -0.059 N 
ATOM     10  H12 UNL     1      -6.093  13.653   2.553  1.00  0.00     0.278 HD
ATOM     11  H11 UNL     1      -5.142  12.878   3.501  1.00  0.00     0.278 HD
BRANCH   9  12
HETATM   12  C7  UNL     1      -4.199  13.502   1.800  1.00  0.00     0.210 C 
HETATM   13  C8  UNL     1      -3.553  14.647   2.602  1.00  0.00     0.023 C 
HETATM   14  C9  UNL     1      -2.608  15.487   2.161  1.00  0.00     0.059 C 
HETATM   15  C11 UNL     1      -1.982  15.524   0.798  1.00  0.00     0.019 A 
HETATM   16  C12 UNL     1      -2.626  15.320  -0.404  1.00  0.00    -0.038 A 
HETATM   17  C14 UNL     1      -0.664  15.859   0.712  1.00  0.00     0.087 A 
HETATM   18  C13 UNL     1      -1.908  15.472  -1.540  1.00  0.00     0.060 A 
HETATM   19  C16 UNL     1      -4.128  14.890  -0.530  1.00  0.00     0.042 C 
HETATM   20  S2  UNL     1      -0.360  15.889  -1.016  1.00  0.00    -0.083 SA
HETATM   21  C17 UNL     1      -4.362  14.031   0.519  1.00  0.00     0.042 C 
BRANCH  14  22
HETATM   22  C10 UNL     1      -2.167  16.486   3.122  1.00  0.00     0.418 C 
HETATM   23  F1  UNL     1      -2.306  17.815   2.800  1.00  0.00    -0.166 F 
HETATM   24  F2  UNL     1      -3.380  16.511   3.961  1.00  0.00    -0.166 F 
HETATM   25  F3  UNL     1      -1.346  16.134   4.138  1.00  0.00    -0.166 F 
ENDBRANCH  14  22
BRANCH  17  26
HETATM   26  N2  UNL     1       0.320  16.042   1.712  1.00  0.00    -0.328 N 
ATOM     27  H2  UNL     1       0.446  15.366   2.465  1.00  0.00     0.168 HD
BRANCH  26  28
HETATM   28  C15 UNL     1       1.129  17.214   1.620  1.00  0.00     0.353 C 
HETATM   29  O1  UNL     1       0.652  18.332   1.931  1.00  0.00    -0.283 OA
ENDBRANCH  26  28
ENDBRANCH  17  26
ENDBRANCH   9  12
ENDBRANCH   7   9
ENDBRANCH   5   7
BRANCH   6  30
HETATM   30  N3  UNL     1      -4.445   9.164   0.926  1.00  0.00    -0.341 N 
ATOM     31  H3  UNL     1      -4.798   8.297   0.521  1.00  0.00     0.167 HD
BRANCH  30  32
HETATM   32  C19 UNL     1      -3.825   9.988   0.172  1.00  0.00     0.112 A 
HETATM   33  N4  UNL     1      -2.625  10.525   0.416  1.00  0.00    -0.338 N 
HETATM   34  C20 UNL     1      -2.005  11.376  -0.423  1.00  0.00     0.102 A 
ATOM     35  H4  UNL     1      -2.153  10.275   1.285  1.00  0.00     0.167 HD
HETATM   36  C28 UNL     1      -2.639  11.728  -1.617  1.00  0.00     0.036 A 
HETATM   37  C29 UNL     1      -3.870  11.194  -1.893  1.00  0.00     0.013 A 
HETATM   38  C30 UNL     1      -4.473  10.326  -1.012  1.00  0.00    -0.018 A 
HETATM   39  C31 UNL     1      -5.809   9.763  -1.350  1.00  0.00     0.052 C 
BRANCH  34  40
HETATM   40  C21 UNL     1      -0.696  11.917  -0.112  1.00  0.00     0.268 C 
HETATM   41  O2  UNL     1       0.073  12.204  -1.096  1.00  0.00    -0.266 OA
HETATM   42  N5  UNL     1      -0.191  12.156   1.182  1.00  0.00    -0.355 N 
ATOM     43  H5  UNL     1      -0.780  11.940   1.986  1.00  0.00     0.162 HD
BRANCH  42  44
HETATM   44  C22 UNL     1       1.133  12.697   1.411  1.00  0.00     0.127 C 
BRANCH  44  45
HETATM   45  C23 UNL     1       1.959  11.871   2.334  1.00  0.00     0.003 C 
HETATM   46  C24 UNL     1       2.974  10.987   1.667  1.00  0.00     0.006 C 
HETATM   47  C25 UNL     1       3.190   9.825   2.581  1.00  0.00     0.000 C 
HETATM   48  C26 UNL     1       2.044   9.775   3.515  1.00  0.00     0.000 C 
HETATM   49  C27 UNL     1       1.120  10.889   3.132  1.00  0.00     0.006 C 
ENDBRANCH  44  45
ENDBRANCH  42  44
ENDBRANCH  34  40
ENDBRANCH  30  32
ENDBRANCH   6  30
TORSDOF 11
ENDMDL
MODEL 2
REMARK VINA RESULT: -5.658806469      3.432      6.739
REMARK  11 active torsions:
REMARK  status: ('A' for Active; 'I' for Inactive)
REMARK    1  A    between atoms: C4_5  and  C5_6 
REMARK    2  A    between atoms: C5_6  and  N1_8 
REMARK    3  A    between atoms: N1_8  and  C7_11 
REMARK    4  A    between atoms: C9_13  and  C10_14 
REMARK    5  A    between atoms: C14_22  and  N2_23 
REMARK    6  A    between atoms: N2_23  and  C15_25 
REMARK    7  A    between atoms: C18_29  and  N3_30 
REMARK    8  A    between atoms: N3_30  and  C19_32 
REMARK    9  A    between atoms: C20_35  and  C21_36 
REMARK       I    between atoms: C21_36  and  N5_38 
REMARK   10  A    between atoms: N5_38  and  C22_40 
REMARK   11  A    between atoms: C22_40  and  C23_41 
ROOT
HETATM    1  C1  UNL     1       2.391  14.345   2.544  1.00  0.00     0.051 C 
HETATM    2  C2  UNL     1       2.163  13.123   1.662  1.00  0.00    -0.028 A 
HETATM    3  C3  UNL     1       2.740  11.937   2.020  1.00  0.00     0.059 A 
HETATM    4  S1  UNL     1       2.243  10.873   0.794  1.00  0.00    -0.101 SA
HETATM    5  C4  UNL     1       1.315  11.948  -0.150  1.00  0.00     0.040 A 
HETATM    6  C18 UNL     1       1.419  13.129   0.528  1.00  0.00     0.055 A 
ENDROOT
BRANCH   5   7
HETATM    7  C5  UNL     1       0.554  11.658  -1.436  1.00  0.00     0.224 C 
HETATM    8  C6  UNL     1       1.505  11.023  -2.429  1.00  0.00     0.046 C 
BRANCH   7   9
HETATM    9  N1  UNL     1      -0.579  10.832  -1.154  1.00  0.00    -0.059 N 
ATOM     10  H12 UNL     1      -0.606  10.016  -1.766  1.00  0.00     0.278 HD
ATOM     11  H11 UNL     1      -0.477  10.355  -0.259  1.00  0.00     0.278 HD
BRANCH   9  12
HETATM   12  C7  UNL     1      -1.808  11.575  -1.215  1.00  0.00     0.210 C 
HETATM   13  C8  UNL     1      -2.984  10.713  -0.718  1.00  0.00     0.023 C 
HETATM   14  C9  UNL     1      -4.285  11.014  -0.822  1.00  0.00     0.059 C 
HETATM   15  C11 UNL     1      -4.894  12.231  -1.454  1.00  0.00     0.019 A 
HETATM   16  C12 UNL     1      -4.466  12.855  -2.606  1.00  0.00    -0.038 A 
HETATM   17  C14 UNL     1      -6.023  12.743  -0.889  1.00  0.00     0.087 A 
HETATM   18  C13 UNL     1      -5.192  13.898  -3.068  1.00  0.00     0.060 A 
HETATM   19  C16 UNL     1      -3.171  12.451  -3.391  1.00  0.00     0.042 C 
HETATM   20  S2  UNL     1      -6.459  14.059  -1.965  1.00  0.00    -0.083 SA
HETATM   21  C17 UNL     1      -2.251  12.086  -2.436  1.00  0.00     0.042 C 
BRANCH  14  22
HETATM   22  C10 UNL     1      -5.197  10.024  -0.271  1.00  0.00     0.418 C 
HETATM   23  F1  UNL     1      -6.031   9.348  -1.131  1.00  0.00    -0.166 F 
HETATM   24  F2  UNL     1      -4.256   8.889  -0.214  1.00  0.00    -0.166 F 
HETATM   25  F3  UNL     1      -5.461  10.007   1.055  1.00  0.00    -0.166 F 
ENDBRANCH  14  22
BRANCH  17  26
HETATM   26  N2  UNL     1      -6.685  12.433   0.322  1.00  0.00    -0.328 N 
ATOM     27  H2  UNL     1      -6.819  11.467   0.623  1.00  0.00     0.168 HD
BRANCH  26  28
HETATM   28  C15 UNL     1      -7.156  13.530   1.104  1.00  0.00     0.353 C 
HETATM   29  O1  UNL     1      -7.256  13.415   2.349  1.00  0.00    -0.283 OA
ENDBRANCH  26  28
ENDBRANCH  17  26
ENDBRANCH   9  12
ENDBRANCH   7   9
ENDBRANCH   5   7
BRANCH   6  30
HETATM   30  N3  UNL     1       0.757  14.341   0.040  1.00  0.00    -0.341 N 
ATOM     31  H3  UNL     1       1.326  15.081  -0.370  1.00  0.00     0.167 HD
BRANCH  30  32
HETATM   32  C19 UNL     1      -0.508  14.504   0.111  1.00  0.00     0.112 A 
HETATM   33  N4  UNL     1      -1.313  13.995   1.049  1.00  0.00    -0.338 N 
HETATM   34  C20 UNL     1      -2.641  14.212   1.089  1.00  0.00     0.102 A 
ATOM     35  H4  UNL     1      -0.899  13.409   1.774  1.00  0.00     0.167 HD
HETATM   36  C28 UNL     1      -3.223  15.012   0.104  1.00  0.00     0.036 A 
HETATM   37  C29 UNL     1      -2.423  15.546  -0.871  1.00  0.00     0.013 A 
HETATM   38  C30 UNL     1      -1.069  15.303  -0.880  1.00  0.00    -0.018 A 
HETATM   39  C31 UNL     1      -0.232  15.906  -1.954  1.00  0.00     0.052 C 
BRANCH  34  40
HETATM   40  C21 UNL     1      -3.464  13.644   2.140  1.00  0.00     0.268 C 
HETATM   41  O2  UNL     1      -4.162  14.453   2.846  1.00  0.00    -0.266 OA
HETATM   42  N5  UNL     1      -3.564  12.274   2.456  1.00  0.00    -0.355 N 
ATOM     43  H5  UNL     1      -3.022  11.604   1.910  1.00  0.00     0.162 HD
BRANCH  42  44
HETATM   44  C22 UNL     1      -4.408  11.784   3.525  1.00  0.00     0.127 C 
BRANCH  44  45
HETATM   45  C23 UNL     1      -4.003  10.444   4.033  1.00  0.00     0.003 C 
HETATM   46  C24 UNL     1      -3.281   9.576   3.043  1.00  0.00     0.006 C 
HETATM   47  C25 UNL     1      -3.560   8.161   3.437  1.00  0.00     0.000 C 
HETATM   48  C26 UNL     1      -4.745   8.172   4.323  1.00  0.00     0.000 C 
HETATM   49  C27 UNL     1      -5.199   9.594   4.428  1.00  0.00     0.006 C 
ENDBRANCH  44  45
ENDBRANCH  42  44
ENDBRANCH  34  40
ENDBRANCH  30  32
ENDBRANCH   6  30
TORSDOF 11
ENDMDL
MODEL 3
REMARK VINA RESULT: -5.532651841      7.471     11.401
REMARK  11 active torsions:
REMARK  status: ('A' for Active; 'I' for Inactive)
REMARK    1  A    between atoms: C4_5  and  C5_6 
REMARK    2  A    between atoms: C5_6  and  N1_8 
REMARK    3  A    between atoms: N1_8  and  C7_11 
REMARK    4  A    between atoms: C9_13  and  C10_14 
REMARK    5  A    between atoms: C14_22  and  N2_23 
REMARK    6  A    between atoms: N2_23  and  C15_25 
REMARK    7  A    between atoms: C18_29  and  N3_30 
REMARK    8  A    between atoms: N3_30  and  C19_32 
REMARK    9  A    between atoms: C20_35  and  C21_36 
REMARK       I    between atoms: C21_36  and  N5_38 
REMARK   10  A    between atoms: N5_38  and  C22_40 
REMARK   11  A    between atoms: C22_40  and  C23_41 
ROOT
HETATM    1  C1  UNL     1       1.066  13.129   1.903  1.00  0.00     0.051 C 
HETATM    2  C2  UNL     1       1.863  11.893   2.299  1.00  0.00    -0.028 A 
HETATM    3  C3  UNL     1       1.238  10.908   3.012  1.00  0.00     0.059 A 
HETATM    4  S1  UNL     1       2.458   9.750   3.235  1.00  0.00    -0.101 SA
HETATM    5  C4  UNL     1       3.738  10.532   2.422  1.00  0.00     0.040 A 
HETATM    6  C18 UNL     1       3.169  11.696   1.991  1.00  0.00     0.055 A 
ENDROOT
BRANCH   5   7
HETATM    7  C5  UNL     1       5.167  10.045   2.226  1.00  0.00     0.224 C 
HETATM    8  C6  UNL     1       5.970  10.386   3.463  1.00  0.00     0.046 C 
BRANCH   7   9
HETATM    9  N1  UNL     1       5.168   8.645   1.937  1.00  0.00    -0.059 N 
ATOM     10  H12 UNL     1       5.518   8.103   2.728  1.00  0.00     0.278 HD
ATOM     11  H11 UNL     1       4.219   8.273   1.898  1.00  0.00     0.278 HD
BRANCH   9  12
HETATM   12  C7  UNL     1       5.897   8.348   0.735  1.00  0.00     0.210 C 
HETATM   13  C8  UNL     1       6.665   7.022   0.882  1.00  0.00     0.023 C 
HETATM   14  C9  UNL     1       7.591   6.545   0.041  1.00  0.00     0.059 C 
HETATM   15  C11 UNL     1       8.106   7.191  -1.212  1.00  0.00     0.019 A 
HETATM   16  C12 UNL     1       8.360   8.534  -1.395  1.00  0.00    -0.038 A 
HETATM   17  C14 UNL     1       8.428   6.381  -2.259  1.00  0.00     0.087 A 
HETATM   18  C13 UNL     1       8.899   8.920  -2.574  1.00  0.00     0.060 A 
HETATM   19  C16 UNL     1       8.030   9.640  -0.335  1.00  0.00     0.042 C 
HETATM   20  S2  UNL     1       9.072   7.492  -3.455  1.00  0.00    -0.083 SA
HETATM   21  C17 UNL     1       6.855   9.247   0.264  1.00  0.00     0.042 C 
BRANCH  14  22
HETATM   22  C10 UNL     1       8.169   5.263   0.414  1.00  0.00     0.418 C 
HETATM   23  F1  UNL     1       9.538   5.152   0.475  1.00  0.00    -0.166 F 
HETATM   24  F2  UNL     1       8.066   5.412   1.878  1.00  0.00    -0.166 F 
HETATM   25  F3  UNL     1       7.415   4.141   0.370  1.00  0.00    -0.166 F 
ENDBRANCH  14  22
BRANCH  17  26
HETATM   26  N2  UNL     1       8.221   4.997  -2.467  1.00  0.00    -0.328 N 
ATOM     27  H2  UNL     1       7.297   4.575  -2.367  1.00  0.00     0.168 HD
BRANCH  26  28
HETATM   28  C15 UNL     1       9.362   4.217  -2.821  1.00  0.00     0.353 C 
HETATM   29  O1  UNL     1       9.235   2.992  -3.060  1.00  0.00    -0.283 OA
ENDBRANCH  26  28
ENDBRANCH  17  26
ENDBRANCH   9  12
ENDBRANCH   7   9
ENDBRANCH   5   7
BRANCH   6  30
HETATM   30  N3  UNL     1       3.946  12.682   1.237  1.00  0.00    -0.341 N 
ATOM     31  H3  UNL     1       4.110  13.600   1.650  1.00  0.00     0.167 HD
BRANCH  30  32
HETATM   32  C19 UNL     1       4.425  12.433   0.079  1.00  0.00     0.112 A 
HETATM   33  N4  UNL     1       3.793  11.792  -0.910  1.00  0.00    -0.338 N 
HETATM   34  C20 UNL     1       4.337  11.571  -2.122  1.00  0.00     0.102 A 
ATOM     35  H4  UNL     1       2.847  11.451  -0.737  1.00  0.00     0.167 HD
HETATM   36  C28 UNL     1       5.631  12.031  -2.374  1.00  0.00     0.036 A 
HETATM   37  C29 UNL     1       6.303  12.691  -1.379  1.00  0.00     0.013 A 
HETATM   38  C30 UNL     1       5.715  12.899  -0.153  1.00  0.00    -0.018 A 
HETATM   39  C31 UNL     1       6.476  13.624   0.902  1.00  0.00     0.052 C 
BRANCH  34  40
HETATM   40  C21 UNL     1       3.599  10.881  -3.162  1.00  0.00     0.268 C 
HETATM   41  O2  UNL     1       3.017   9.784  -2.845  1.00  0.00    -0.266 OA
HETATM   42  N5  UNL     1       3.464  11.310  -4.497  1.00  0.00    -0.355 N 
ATOM     43  H5  UNL     1       3.913  12.180  -4.781  1.00  0.00     0.162 HD
BRANCH  42  44
HETATM   44  C22 UNL     1       2.711  10.560  -5.481  1.00  0.00     0.127 C 
BRANCH  44  45
HETATM   45  C23 UNL     1       3.560   9.687  -6.339  1.00  0.00     0.003 C 
HETATM   46  C24 UNL     1       3.586   8.238  -5.947  1.00  0.00     0.006 C 
HETATM   47  C25 UNL     1       4.901   7.698  -6.409  1.00  0.00     0.000 C 
HETATM   48  C26 UNL     1       5.796   8.851  -6.647  1.00  0.00     0.000 C 
HETATM   49  C27 UNL     1       5.025  10.084  -6.289  1.00  0.00     0.006 C 
ENDBRANCH  44  45
ENDBRANCH  42  44
ENDBRANCH  34  40
ENDBRANCH  30  32
ENDBRANCH   6  30
TORSDOF 11
ENDMDL
MODEL 4
REMARK VINA RESULT: -5.467569223      3.446      6.764
REMARK  11 active torsions:
REMARK  status: ('A' for Active; 'I' for Inactive)
REMARK    1  A    between atoms: C4_5  and  C5_6 
REMARK    2  A    between atoms: C5_6  and  N1_8 
REMARK    3  A    between atoms: N1_8  and  C7_11 
REMARK    4  A    between atoms: C9_13  and  C10_14 
REMARK    5  A    between atoms: C14_22  and  N2_23 
REMARK    6  A    between atoms: N2_23  and  C15_25 
REMARK    7  A    between atoms: C18_29  and  N3_30 
REMARK    8  A    between atoms: N3_30  and  C19_32 
REMARK    9  A    between atoms: C20_35  and  C21_36 
REMARK       I    between atoms: C21_36  and  N5_38 
REMARK   10  A    between atoms: N5_38  and  C22_40 
REMARK   11  A    between atoms: C22_40  and  C23_41 
ROOT
HETATM    1  C1  UNL     1       2.611   9.762   3.017  1.00  0.00     0.051 C 
HETATM    2  C2  UNL     1       2.475  10.026   1.523  1.00  0.00    -0.028 A 
HETATM    3  C3  UNL     1       2.970   9.102   0.644  1.00  0.00     0.059 A 
HETATM    4  S1  UNL     1       2.616   9.775  -0.873  1.00  0.00    -0.101 SA
HETATM    5  C4  UNL     1       1.850  11.213  -0.370  1.00  0.00     0.040 A 
HETATM    6  C18 UNL     1       1.890  11.128   0.992  1.00  0.00     0.055 A 
ENDROOT
BRANCH   5   7
HETATM    7  C5  UNL     1       1.262  12.320  -1.234  1.00  0.00     0.224 C 
HETATM    8  C6  UNL     1       2.293  12.732  -2.263  1.00  0.00     0.046 C 
BRANCH   7   9
HETATM    9  N1  UNL     1       0.040  11.875  -1.828  1.00  0.00    -0.059 N 
ATOM     10  H12 UNL     1       0.062  11.973  -2.843  1.00  0.00     0.278 HD
ATOM     11  H11 UNL     1      -0.055  10.861  -1.769  1.00  0.00     0.278 HD
BRANCH   9  12
HETATM   12  C7  UNL     1      -1.102  12.541  -1.262  1.00  0.00     0.210 C 
HETATM   13  C8  UNL     1      -2.401  11.816  -1.660  1.00  0.00     0.023 C 
HETATM   14  C9  UNL     1      -3.648  12.268  -1.476  1.00  0.00     0.059 C 
HETATM   15  C11 UNL     1      -4.065  13.575  -0.867  1.00  0.00     0.019 A 
HETATM   16  C12 UNL     1      -3.449  14.795  -1.046  1.00  0.00    -0.038 A 
HETATM   17  C14 UNL     1      -5.203  13.593  -0.116  1.00  0.00     0.087 A 
HETATM   18  C13 UNL     1      -4.019  15.881  -0.477  1.00  0.00     0.060 A 
HETATM   19  C16 UNL     1      -2.112  14.992  -1.840  1.00  0.00     0.042 C 
HETATM   20  S2  UNL     1      -5.387  15.285   0.309  1.00  0.00    -0.083 SA
HETATM   21  C17 UNL     1      -1.348  13.879  -1.571  1.00  0.00     0.042 C 
BRANCH  14  22
HETATM   22  C10 UNL     1      -4.704  11.386  -1.945  1.00  0.00     0.418 C 
HETATM   23  F1  UNL     1      -5.734  11.927  -2.680  1.00  0.00    -0.166 F 
HETATM   24  F2  UNL     1      -4.031  10.891  -3.161  1.00  0.00    -0.166 F 
HETATM   25  F3  UNL     1      -4.855  10.157  -1.402  1.00  0.00    -0.166 F 
ENDBRANCH  14  22
BRANCH  17  26
HETATM   26  N2  UNL     1      -6.029  12.544   0.352  1.00  0.00    -0.328 N 
ATOM     27  H2  UNL     1      -6.114  11.665  -0.159  1.00  0.00     0.168 HD
BRANCH  26  28
HETATM   28  C15 UNL     1      -6.737  12.770   1.569  1.00  0.00     0.353 C 
HETATM   29  O1  UNL     1      -6.125  12.758   2.663  1.00  0.00    -0.283 OA
ENDBRANCH  26  28
ENDBRANCH  17  26
ENDBRANCH   9  12
ENDBRANCH   7   9
ENDBRANCH   5   7
BRANCH   6  30
HETATM   30  N3  UNL     1       1.329  12.189   1.832  1.00  0.00    -0.341 N 
ATOM     31  H3  UNL     1       1.966  12.813   2.328  1.00  0.00     0.167 HD
BRANCH  30  32
HETATM   32  C19 UNL     1       0.071  12.361   1.965  1.00  0.00     0.112 A 
HETATM   33  N4  UNL     1      -0.847  11.393   2.062  1.00  0.00    -0.338 N 
HETATM   34  C20 UNL     1      -2.163  11.628   2.221  1.00  0.00     0.102 A 
ATOM     35  H4  UNL     1      -0.533  10.424   2.012  1.00  0.00     0.167 HD
HETATM   36  C28 UNL     1      -2.609  12.949   2.290  1.00  0.00     0.036 A 
HETATM   37  C29 UNL     1      -1.691  13.961   2.193  1.00  0.00     0.013 A 
HETATM   38  C30 UNL     1      -0.353  13.684   2.032  1.00  0.00    -0.018 A 
HETATM   39  C31 UNL     1       0.614  14.812   1.935  1.00  0.00     0.052 C 
BRANCH  34  40
HETATM   40  C21 UNL     1      -3.112  10.537   2.333  1.00  0.00     0.268 C 
HETATM   41  O2  UNL     1      -4.071  10.499   1.484  1.00  0.00    -0.266 OA
HETATM   42  N5  UNL     1      -3.075   9.511   3.298  1.00  0.00    -0.355 N 
ATOM     43  H5  UNL     1      -2.323   9.511   3.986  1.00  0.00     0.162 HD
BRANCH  42  44
HETATM   44  C22 UNL     1      -4.066   8.455   3.347  1.00  0.00     0.127 C 
BRANCH  44  45
HETATM   45  C23 UNL     1      -4.992   8.564   4.508  1.00  0.00     0.003 C 
HETATM   46  C24 UNL     1      -5.894   9.764   4.496  1.00  0.00     0.006 C 
HETATM   47  C25 UNL     1      -6.207  10.073   5.925  1.00  0.00     0.000 C 
HETATM   48  C26 UNL     1      -5.193   9.392   6.760  1.00  0.00     0.000 C 
HETATM   49  C27 UNL     1      -4.247   8.706   5.824  1.00  0.00     0.006 C 
ENDBRANCH  44  45
ENDBRANCH  42  44
ENDBRANCH  34  40
ENDBRANCH  30  32
ENDBRANCH   6  30
TORSDOF 11
ENDMDL
MODEL 5
REMARK VINA RESULT: -5.450254751      4.074      7.354
REMARK  11 active torsions:
REMARK  status: ('A' for Active; 'I' for Inactive)
REMARK    1  A    between atoms: C4_5  and  C5_6 
REMARK    2  A    between atoms: C5_6  and  N1_8 
REMARK    3  A    between atoms: N1_8  and  C7_11 
REMARK    4  A    between atoms: C9_13  and  C10_14 
REMARK    5  A    between atoms: C14_22  and  N2_23 
REMARK    6  A    between atoms: N2_23  and  C15_25 
REMARK    7  A    between atoms: C18_29  and  N3_30 
REMARK    8  A    between atoms: N3_30  and  C19_32 
REMARK    9  A    between atoms: C20_35  and  C21_36 
REMARK       I    between atoms: C21_36  and  N5_38 
REMARK   10  A    between atoms: N5_38  and  C22_40 
REMARK   11  A    between atoms: C22_40  and  C23_41 
ROOT
HETATM    1  C1  UNL     1       2.669  10.125  -1.815  1.00  0.00     0.051 C 
HETATM    2  C2  UNL     1       1.894  10.718  -2.985  1.00  0.00    -0.028 A 
HETATM    3  C3  UNL     1       1.903  10.059  -4.183  1.00  0.00     0.059 A 
HETATM    4  S1  UNL     1       0.942  11.041  -5.179  1.00  0.00    -0.101 SA
HETATM    5  C4  UNL     1       0.546  12.268  -4.063  1.00  0.00     0.040 A 
HETATM    6  C18 UNL     1       1.184  11.873  -2.923  1.00  0.00     0.055 A 
ENDROOT
BRANCH   5   7
HETATM    7  C5  UNL     1      -0.314  13.504  -4.288  1.00  0.00     0.224 C 
HETATM    8  C6  UNL     1       0.304  14.332  -5.394  1.00  0.00     0.046 C 
BRANCH   7   9
HETATM    9  N1  UNL     1      -1.659  13.114  -4.578  1.00  0.00    -0.059 N 
ATOM     10  H12 UNL     1      -2.018  13.599  -5.401  1.00  0.00     0.278 HD
ATOM     11  H11 UNL     1      -1.700  12.157  -4.928  1.00  0.00     0.278 HD
BRANCH   9  12
HETATM   12  C7  UNL     1      -2.524  13.295  -3.445  1.00  0.00     0.210 C 
HETATM   13  C8  UNL     1      -3.749  12.369  -3.547  1.00  0.00     0.023 C 
HETATM   14  C9  UNL     1      -4.843  12.414  -2.776  1.00  0.00     0.059 C 
HETATM   15  C11 UNL     1      -5.136  13.375  -1.662  1.00  0.00     0.019 A 
HETATM   16  C12 UNL     1      -4.839  14.722  -1.644  1.00  0.00    -0.038 A 
HETATM   17  C14 UNL     1      -5.825  12.908  -0.583  1.00  0.00     0.087 A 
HETATM   18  C13 UNL     1      -5.253  15.447  -0.580  1.00  0.00     0.060 A 
HETATM   19  C16 UNL     1      -4.022  15.453  -2.763  1.00  0.00     0.042 C 
HETATM   20  S2  UNL     1      -6.045  14.337   0.413  1.00  0.00    -0.083 SA
HETATM   21  C17 UNL     1      -3.067  14.553  -3.180  1.00  0.00     0.042 C 
BRANCH  14  22
HETATM   22  C10 UNL     1      -5.861  11.422  -3.083  1.00  0.00     0.418 C 
HETATM   23  F1  UNL     1      -7.133  11.855  -3.379  1.00  0.00    -0.166 F 
HETATM   24  F2  UNL     1      -5.540  11.235  -4.510  1.00  0.00    -0.166 F 
HETATM   25  F3  UNL     1      -5.664  10.123  -2.761  1.00  0.00    -0.166 F 
ENDBRANCH  14  22
BRANCH  17  26
HETATM   26  N2  UNL     1      -6.208  11.597  -0.216  1.00  0.00    -0.328 N 
ATOM     27  H2  UNL     1      -5.518  10.855  -0.096  1.00  0.00     0.168 HD
BRANCH  26  28
HETATM   28  C15 UNL     1      -7.601  11.359  -0.020  1.00  0.00     0.353 C 
HETATM   29  O1  UNL     1      -8.159  10.393  -0.595  1.00  0.00    -0.283 OA
ENDBRANCH  26  28
ENDBRANCH  17  26
ENDBRANCH   9  12
ENDBRANCH   7   9
ENDBRANCH   5   7
BRANCH   6  30
HETATM   30  N3  UNL     1       1.105  12.670  -1.697  1.00  0.00    -0.341 N 
ATOM     31  H3  UNL     1       1.944  13.146  -1.364  1.00  0.00     0.167 HD
BRANCH  30  32
HETATM   32  C19 UNL     1       0.022  12.791  -1.030  1.00  0.00     0.112 A 
HETATM   33  N4  UNL     1      -0.809  11.797  -0.698  1.00  0.00    -0.338 N 
HETATM   34  C20 UNL     1      -1.931  11.975   0.025  1.00  0.00     0.102 A 
ATOM     35  H4  UNL     1      -0.581  10.853  -1.009  1.00  0.00     0.167 HD
HETATM   36  C28 UNL     1      -2.257  13.262   0.458  1.00  0.00     0.036 A 
HETATM   37  C29 UNL     1      -1.424  14.299   0.131  1.00  0.00     0.013 A 
HETATM   38  C30 UNL     1      -0.285  14.080  -0.609  1.00  0.00    -0.018 A 
HETATM   39  C31 UNL     1       0.597  15.233  -0.939  1.00  0.00     0.052 C 
BRANCH  34  40
HETATM   40  C21 UNL     1      -2.789  10.857   0.367  1.00  0.00     0.268 C 
HETATM   41  O2  UNL     1      -3.286  10.177  -0.598  1.00  0.00    -0.266 OA
HETATM   42  N5  UNL     1      -3.128  10.451   1.673  1.00  0.00    -0.355 N 
ATOM     43  H5  UNL     1      -2.747  10.971   2.464  1.00  0.00     0.162 HD
BRANCH  42  44
HETATM   44  C22 UNL     1      -3.998   9.323   1.934  1.00  0.00     0.127 C 
BRANCH  44  45
HETATM   45  C23 UNL     1      -4.798   9.466   3.182  1.00  0.00     0.003 C 
HETATM   46  C24 UNL     1      -4.506  10.698   3.990  1.00  0.00     0.006 C 
HETATM   47  C25 UNL     1      -4.832  10.361   5.410  1.00  0.00     0.000 C 
HETATM   48  C26 UNL     1      -4.874   8.886   5.517  1.00  0.00     0.000 C 
HETATM   49  C27 UNL     1      -4.534   8.339   4.166  1.00  0.00     0.006 C 
ENDBRANCH  44  45
ENDBRANCH  42  44
ENDBRANCH  34  40
ENDBRANCH  30  32
ENDBRANCH   6  30
TORSDOF 11
ENDMDL
