MODEL 1
REMARK VINA RESULT: -6.403213223      0.000      0.000
REMARK  10 active torsions:
REMARK  status: ('A' for Active; 'I' for Inactive)
REMARK    1  A    between atoms: C2_2  and  C3_3 
REMARK    2  A    between atoms: C3_3  and  C4_4 
REMARK    3  A    between atoms: C8_8  and  C9_9 
REMARK    4  A    between atoms: C12_17  and  O1_18 
REMARK       I    between atoms: N3_24  and  C16_25 
REMARK    5  A    between atoms: C16_25  and  C17_27 
REMARK    6  A    between atoms: C17_27  and  C18_28 
REMARK    7  A    between atoms: C17_27  and  N4_35 
REMARK    8  A    between atoms: C18_28  and  C19_29 
REMARK    9  A    between atoms: N4_35  and  S2_37 
REMARK   10  A    between atoms: S2_37  and  C25_40 
ROOT
HETATM    1  C4  UNL     1       2.859  10.338  -4.705  1.00  0.00     0.011 C 
HETATM    2  C5  UNL     1       4.119  11.029  -4.200  1.00  0.00     0.032 C 
HETATM    3  C6  UNL     1       3.556  11.682  -2.914  1.00  0.00     0.092 C 
HETATM    4  C7  UNL     1       2.760  12.862  -3.390  1.00  0.00     0.060 C 
HETATM    5  C8  UNL     1       1.362  12.607  -3.624  1.00  0.00    -0.060 C 
HETATM    6  C14 UNL     1       0.874  11.173  -3.544  1.00  0.00     0.061 C 
HETATM    7  C15 UNL     1       1.992  10.192  -3.483  1.00  0.00     0.096 C 
HETATM    8  N3  UNL     1       2.882  10.571  -2.370  1.00  0.00    -0.340 N 
HETATM    9  C16 UNL     1       2.932   9.849  -1.150  1.00  0.00     0.244 C 
HETATM   10  O2  UNL     1       2.129   8.851  -1.024  1.00  0.00    -0.271 OA
ENDROOT
BRANCH   9  11
HETATM   11  C17 UNL     1       3.804  10.091   0.002  1.00  0.00     0.185 C 
BRANCH  11  12
HETATM   12  C18 UNL     1       5.274  10.050  -0.212  1.00  0.00     0.040 C 
BRANCH  12  13
HETATM   13  C19 UNL     1       6.163   9.227   0.612  1.00  0.00    -0.012 C 
HETATM   14  C20 UNL     1       5.511   7.811   0.757  1.00  0.00     0.005 C 
HETATM   15  C21 UNL     1       6.558   6.804   1.124  1.00  0.00     0.000 C 
HETATM   16  C22 UNL     1       7.464   7.442   2.159  1.00  0.00     0.000 C 
HETATM   17  C23 UNL     1       6.598   8.434   2.901  1.00  0.00     0.000 C 
HETATM   18  C24 UNL     1       6.221   9.637   2.075  1.00  0.00     0.005 C 
ENDBRANCH  12  13
ENDBRANCH  11  12
BRANCH  11  19
HETATM   19  N4  UNL     1       3.417  11.408   0.485  1.00  0.00    -0.302 N 
ATOM     20  H4  UNL     1       3.637  12.234  -0.071  1.00  0.00     0.173 HD
BRANCH  19  21
HETATM   21  S2  UNL     1       2.627  11.579   1.920  1.00  0.00     0.259 S 
HETATM   22  O3  UNL     1       2.859  10.430   2.901  1.00  0.00    -0.201 OA
HETATM   23  O4  UNL     1       2.935  12.897   2.633  1.00  0.00    -0.201 OA
BRANCH  21  24
HETATM   24  C25 UNL     1       0.897  11.599   1.670  1.00  0.00     0.082 A 
HETATM   25  C26 UNL     1      -0.034  11.529   2.675  1.00  0.00     0.028 A 
HETATM   26  C27 UNL     1      -1.396  11.518   2.454  1.00  0.00     0.047 A 
HETATM   27  C28 UNL     1      -1.898  11.579   1.163  1.00  0.00     0.154 A 
HETATM   28  F2  UNL     1      -3.239  11.570   0.938  1.00  0.00    -0.203 F 
HETATM   29  C29 UNL     1      -0.983  11.650   0.140  1.00  0.00     0.156 A 
HETATM   30  F3  UNL     1      -1.440  11.711  -1.126  1.00  0.00    -0.203 F 
HETATM   31  C30 UNL     1       0.370  11.661   0.368  1.00  0.00     0.070 A 
ENDBRANCH  21  24
ENDBRANCH  19  21
ENDBRANCH  11  19
ENDBRANCH   9  11
BRANCH   1  32
HETATM   32  C3  UNL     1       3.222   8.996  -5.303  1.00  0.00     0.006 C 
BRANCH  32  33
HETATM   33  C2  UNL     1       4.309   9.180  -6.326  1.00  0.00    -0.004 C 
HETATM   34  C1  UNL     1       5.126   7.881  -6.375  1.00  0.00     0.005 C 
ENDBRANCH  32  33
ENDBRANCH   1  32
BRANCH   5  35
HETATM   35  C9  UNL     1       0.635  13.277  -4.766  1.00  0.00     0.039 A 
HETATM   36  C10 UNL     1      -0.444  14.098  -4.347  1.00  0.00     0.102 A 
HETATM   37  N1  UNL     1      -0.711  14.274  -2.937  1.00  0.00    -0.093 NA
HETATM   38  S1  UNL     1      -1.356  14.853  -5.548  1.00  0.00    -0.054 SA
HETATM   39  C11 UNL     1      -0.822  14.503  -7.121  1.00  0.00     0.106 A 
HETATM   40  N2  UNL     1      -1.383  14.980  -8.210  1.00  0.00    -0.391 N 
HETATM   41  C12 UNL     1       0.258  13.666  -7.167  1.00  0.00     0.139 A 
ATOM     42  H22 UNL     1      -2.188  15.605  -8.175  1.00  0.00     0.157 HD
ATOM     43  H21 UNL     1      -1.061  14.770  -9.155  1.00  0.00     0.157 HD
HETATM   44  C13 UNL     1       0.918  13.110  -6.081  1.00  0.00     0.165 A 
HETATM   45  F1  UNL     1       1.957  12.290  -6.496  1.00  0.00    -0.202 F 
BRANCH  41  46
HETATM   46  O1  UNL     1       0.697  13.380  -8.485  1.00  0.00    -0.355 OA
ATOM     47  H1  UNL     1       1.480  12.842  -8.516  1.00  0.00     0.218 HD
ENDBRANCH  41  46
ENDBRANCH   5  35
TORSDOF 10
ENDMDL
MODEL 2
REMARK VINA RESULT: -6.233149993      5.244      7.403
REMARK  10 active torsions:
REMARK  status: ('A' for Active; 'I' for Inactive)
REMARK    1  A    between atoms: C2_2  and  C3_3 
REMARK    2  A    between atoms: C3_3  and  C4_4 
REMARK    3  A    between atoms: C8_8  and  C9_9 
REMARK    4  A    between atoms: C12_17  and  O1_18 
REMARK       I    between atoms: N3_24  and  C16_25 
REMARK    5  A    between atoms: C16_25  and  C17_27 
REMARK    6  A    between atoms: C17_27  and  C18_28 
REMARK    7  A    between atoms: C17_27  and  N4_35 
REMARK    8  A    between atoms: C18_28  and  C19_29 
REMARK    9  A    between atoms: N4_35  and  S2_37 
REMARK   10  A    between atoms: S2_37  and  C25_40 
ROOT
HETATM    1  C4  UNL     1      -3.328  12.102  -2.877  1.00  0.00     0.011 C 
HETATM    2  C5  UNL     1      -3.019  11.124  -1.750  1.00  0.00     0.032 C 
HETATM    3  C6  UNL     1      -2.403  12.105  -0.722  1.00  0.00     0.092 C 
HETATM    4  C7  UNL     1      -1.021  12.390  -1.234  1.00  0.00     0.060 C 
HETATM    5  C8  UNL     1      -0.908  13.543  -2.091  1.00  0.00    -0.060 C 
HETATM    6  C14 UNL     1      -2.183  14.235  -2.529  1.00  0.00     0.061 C 
HETATM    7  C15 UNL     1      -3.403  13.446  -2.204  1.00  0.00     0.096 C 
HETATM    8  N3  UNL     1      -3.375  13.123  -0.765  1.00  0.00    -0.340 N 
HETATM    9  C16 UNL     1      -4.224  13.759   0.179  1.00  0.00     0.244 C 
HETATM   10  O2  UNL     1      -5.009  14.677  -0.264  1.00  0.00    -0.271 OA
ENDROOT
BRANCH   9  11
HETATM   11  C17 UNL     1      -4.329  13.492   1.615  1.00  0.00     0.185 C 
BRANCH  11  12
HETATM   12  C18 UNL     1      -3.665  14.433   2.553  1.00  0.00     0.040 C 
BRANCH  12  13
HETATM   13  C19 UNL     1      -2.420  15.127   2.215  1.00  0.00    -0.012 C 
HETATM   14  C20 UNL     1      -1.250  14.089   2.302  1.00  0.00     0.005 C 
HETATM   15  C21 UNL     1      -0.081  14.571   1.499  1.00  0.00     0.000 C 
HETATM   16  C22 UNL     1       0.069  16.058   1.756  1.00  0.00     0.000 C 
HETATM   17  C23 UNL     1      -0.461  16.285   3.153  1.00  0.00     0.000 C 
HETATM   18  C24 UNL     1      -1.956  16.129   3.260  1.00  0.00     0.005 C 
ENDBRANCH  12  13
ENDBRANCH  11  12
BRANCH  11  19
HETATM   19  N4  UNL     1      -5.761  13.467   1.879  1.00  0.00    -0.302 N 
ATOM     20  H4  UNL     1      -6.234  14.322   2.172  1.00  0.00     0.173 HD
BRANCH  19  21
HETATM   21  S2  UNL     1      -6.623  12.075   1.712  1.00  0.00     0.259 S 
HETATM   22  O3  UNL     1      -7.786  11.939   2.694  1.00  0.00    -0.201 OA
HETATM   23  O4  UNL     1      -7.154  11.852   0.295  1.00  0.00    -0.201 OA
BRANCH  21  24
HETATM   24  C25 UNL     1      -5.612  10.685   2.035  1.00  0.00     0.082 A 
HETATM   25  C26 UNL     1      -4.979   9.944   1.069  1.00  0.00     0.028 A 
HETATM   26  C27 UNL     1      -4.208   8.832   1.343  1.00  0.00     0.047 A 
HETATM   27  C28 UNL     1      -4.035   8.404   2.650  1.00  0.00     0.154 A 
HETATM   28  F2  UNL     1      -3.276   7.311   2.927  1.00  0.00    -0.203 F 
HETATM   29  C29 UNL     1      -4.660   9.132   3.634  1.00  0.00     0.156 A 
HETATM   30  F3  UNL     1      -4.510   8.740   4.915  1.00  0.00    -0.203 F 
HETATM   31  C30 UNL     1      -5.425  10.235   3.353  1.00  0.00     0.070 A 
ENDBRANCH  21  24
ENDBRANCH  19  21
ENDBRANCH  11  19
ENDBRANCH   9  11
BRANCH   1  32
HETATM   32  C3  UNL     1      -4.641  11.724  -3.529  1.00  0.00     0.006 C 
BRANCH  32  33
HETATM   33  C2  UNL     1      -5.402  10.794  -2.623  1.00  0.00    -0.004 C 
HETATM   34  C1  UNL     1      -6.718  10.434  -3.327  1.00  0.00     0.005 C 
ENDBRANCH  32  33
ENDBRANCH   1  32
BRANCH   5  35
HETATM   35  C9  UNL     1       0.043  13.541  -3.265  1.00  0.00     0.039 A 
HETATM   36  C10 UNL     1       1.149  14.415  -3.100  1.00  0.00     0.102 A 
HETATM   37  N1  UNL     1       1.310  15.148  -1.865  1.00  0.00    -0.093 NA
HETATM   38  S1  UNL     1       2.245  14.528  -4.378  1.00  0.00    -0.054 SA
HETATM   39  C11 UNL     1       1.840  13.547  -5.702  1.00  0.00     0.106 A 
HETATM   40  N2  UNL     1       2.550  13.477  -6.807  1.00  0.00    -0.391 N 
HETATM   41  C12 UNL     1       0.694  12.823  -5.528  1.00  0.00     0.139 A 
ATOM     42  H22 UNL     1       3.405  14.017  -6.937  1.00  0.00     0.157 HD
ATOM     43  H21 UNL     1       2.307  12.887  -7.603  1.00  0.00     0.157 HD
HETATM   44  C13 UNL     1      -0.122  12.828  -4.406  1.00  0.00     0.165 A 
HETATM   45  F1  UNL     1      -1.215  11.992  -4.582  1.00  0.00    -0.202 F 
BRANCH  41  46
HETATM   46  O1  UNL     1       0.365  12.007  -6.640  1.00  0.00    -0.355 OA
ATOM     47  H1  UNL     1      -0.570  11.927  -6.789  1.00  0.00     0.218 HD
ENDBRANCH  41  46
ENDBRANCH   5  35
TORSDOF 10
ENDMDL
MODEL 3
REMARK VINA RESULT: -6.225858517      3.045      5.051
REMARK  10 active torsions:
REMARK  status: ('A' for Active; 'I' for Inactive)
REMARK    1  A    between atoms: C2_2  and  C3_3 
REMARK    2  A    between atoms: C3_3  and  C4_4 
REMARK    3  A    between atoms: C8_8  and  C9_9 
REMARK    4  A    between atoms: C12_17  and  O1_18 
REMARK       I    between atoms: N3_24  and  C16_25 
REMARK    5  A    between atoms: C16_25  and  C17_27 
REMARK    6  A    between atoms: C17_27  and  C18_28 
REMARK    7  A    between atoms: C17_27  and  N4_35 
REMARK    8  A    between atoms: C18_28  and  C19_29 
REMARK    9  A    between atoms: N4_35  and  S2_37 
REMARK   10  A    between atoms: S2_37  and  C25_40 
ROOT
HETATM    1  C4  UNL     1       2.916  10.274  -5.025  1.00  0.00     0.011 C 
HETATM    2  C5  UNL     1       4.210  10.947  -4.584  1.00  0.00     0.032 C 
HETATM    3  C6  UNL     1       3.699  11.673  -3.314  1.00  0.00     0.092 C 
HETATM    4  C7  UNL     1       2.927  12.854  -3.823  1.00  0.00     0.060 C 
HETATM    5  C8  UNL     1       1.516  12.632  -4.011  1.00  0.00    -0.060 C 
HETATM    6  C14 UNL     1       0.988  11.220  -3.855  1.00  0.00     0.061 C 
HETATM    7  C15 UNL     1       2.077  10.208  -3.778  1.00  0.00     0.096 C 
HETATM    8  N3  UNL     1       3.007  10.609  -2.705  1.00  0.00    -0.340 N 
HETATM    9  C16 UNL     1       3.068   9.939  -1.455  1.00  0.00     0.244 C 
HETATM   10  O2  UNL     1       2.239   8.973  -1.265  1.00  0.00    -0.271 OA
ENDROOT
BRANCH   9  11
HETATM   11  C17 UNL     1       3.976  10.205  -0.337  1.00  0.00     0.185 C 
BRANCH  11  12
HETATM   12  C18 UNL     1       3.546  11.180   0.699  1.00  0.00     0.040 C 
BRANCH  12  13
HETATM   13  C19 UNL     1       2.222  11.125   1.324  1.00  0.00    -0.012 C 
HETATM   14  C20 UNL     1       1.894  12.551   1.881  1.00  0.00     0.005 C 
HETATM   15  C21 UNL     1       0.413  12.700   2.057  1.00  0.00     0.000 C 
HETATM   16  C22 UNL     1      -0.110  11.405   2.649  1.00  0.00     0.000 C 
HETATM   17  C23 UNL     1       1.032  10.838   3.459  1.00  0.00     0.000 C 
HETATM   18  C24 UNL     1       2.170  10.324   2.615  1.00  0.00     0.005 C 
ENDBRANCH  12  13
ENDBRANCH  11  12
BRANCH  11  19
HETATM   19  N4  UNL     1       4.192   8.903   0.278  1.00  0.00    -0.302 N 
ATOM     20  H4  UNL     1       3.394   8.370   0.624  1.00  0.00     0.173 HD
BRANCH  19  21
HETATM   21  S2  UNL     1       5.710   8.282   0.420  1.00  0.00     0.259 S 
HETATM   22  O3  UNL     1       5.764   6.755   0.405  1.00  0.00    -0.201 OA
HETATM   23  O4  UNL     1       6.689   8.814  -0.628  1.00  0.00    -0.201 OA
BRANCH  21  24
HETATM   24  C25 UNL     1       6.414   8.729   1.957  1.00  0.00     0.082 A 
HETATM   25  C26 UNL     1       5.706   9.236   3.017  1.00  0.00     0.028 A 
HETATM   26  C27 UNL     1       6.284   9.611   4.213  1.00  0.00     0.047 A 
HETATM   27  C28 UNL     1       7.653   9.485   4.399  1.00  0.00     0.154 A 
HETATM   28  F2  UNL     1       8.229   9.850   5.575  1.00  0.00    -0.203 F 
HETATM   29  C29 UNL     1       8.382   8.979   3.350  1.00  0.00     0.156 A 
HETATM   30  F3  UNL     1       9.715   8.845   3.501  1.00  0.00    -0.203 F 
HETATM   31  C30 UNL     1       7.799   8.609   2.165  1.00  0.00     0.070 A 
ENDBRANCH  21  24
ENDBRANCH  19  21
ENDBRANCH  11  19
ENDBRANCH   9  11
BRANCH   1  32
HETATM   32  C3  UNL     1       3.224   8.895  -5.571  1.00  0.00     0.006 C 
BRANCH  32  33
HETATM   33  C2  UNL     1       4.526   8.933  -6.324  1.00  0.00    -0.004 C 
HETATM   34  C1  UNL     1       5.091   7.505  -6.346  1.00  0.00     0.005 C 
ENDBRANCH  32  33
ENDBRANCH   1  32
BRANCH   5  35
HETATM   35  C9  UNL     1       0.780  13.274  -5.164  1.00  0.00     0.039 A 
HETATM   36  C10 UNL     1      -0.367  14.009  -4.765  1.00  0.00     0.102 A 
HETATM   37  N1  UNL     1      -0.689  14.136  -3.362  1.00  0.00    -0.093 NA
HETATM   38  S1  UNL     1      -1.292  14.723  -5.981  1.00  0.00    -0.054 SA
HETATM   39  C11 UNL     1      -0.685  14.443  -7.542  1.00  0.00     0.106 A 
HETATM   40  N2  UNL     1      -1.244  14.903  -8.639  1.00  0.00    -0.391 N 
HETATM   41  C12 UNL     1       0.452  13.685  -7.568  1.00  0.00     0.139 A 
ATOM     42  H22 UNL     1      -2.093  15.469  -8.620  1.00  0.00     0.157 HD
ATOM     43  H21 UNL     1      -0.879  14.735  -9.578  1.00  0.00     0.157 HD
HETATM   44  C13 UNL     1       1.115  13.154  -6.471  1.00  0.00     0.165 A 
HETATM   45  F1  UNL     1       2.221  12.417  -6.868  1.00  0.00    -0.202 F 
BRANCH  41  46
HETATM   46  O1  UNL     1       0.951  13.457  -8.876  1.00  0.00    -0.355 OA
ATOM     47  H1  UNL     1       1.725  13.969  -9.081  1.00  0.00     0.218 HD
ENDBRANCH  41  46
ENDBRANCH   5  35
TORSDOF 10
ENDMDL
MODEL 4
REMARK VINA RESULT: -6.098903767      4.031      8.151
REMARK  10 active torsions:
REMARK  status: ('A' for Active; 'I' for Inactive)
REMARK    1  A    between atoms: C2_2  and  C3_3 
REMARK    2  A    between atoms: C3_3  and  C4_4 
REMARK    3  A    between atoms: C8_8  and  C9_9 
REMARK    4  A    between atoms: C12_17  and  O1_18 
REMARK       I    between atoms: N3_24  and  C16_25 
REMARK    5  A    between atoms: C16_25  and  C17_27 
REMARK    6  A    between atoms: C17_27  and  C18_28 
REMARK    7  A    between atoms: C17_27  and  N4_35 
REMARK    8  A    between atoms: C18_28  and  C19_29 
REMARK    9  A    between atoms: N4_35  and  S2_37 
REMARK   10  A    between atoms: S2_37  and  C25_40 
ROOT
HETATM    1  C4  UNL     1       3.252  10.382  -1.330  1.00  0.00     0.011 C 
HETATM    2  C5  UNL     1       1.847  10.021  -0.864  1.00  0.00     0.032 C 
HETATM    3  C6  UNL     1       1.776  10.877   0.424  1.00  0.00     0.092 C 
HETATM    4  C7  UNL     1       2.604  10.137   1.432  1.00  0.00     0.060 C 
HETATM    5  C8  UNL     1       3.989  10.528   1.497  1.00  0.00    -0.060 C 
HETATM    6  C14 UNL     1       4.509  11.494   0.450  1.00  0.00     0.061 C 
HETATM    7  C15 UNL     1       3.544  11.700  -0.666  1.00  0.00     0.096 C 
HETATM    8  N3  UNL     1       2.247  12.101  -0.088  1.00  0.00    -0.340 N 
HETATM    9  C16 UNL     1       1.752  13.429  -0.168  1.00  0.00     0.244 C 
HETATM   10  O2  UNL     1       2.505  14.303  -0.737  1.00  0.00    -0.271 OA
ENDROOT
BRANCH   9  11
HETATM   11  C17 UNL     1       0.465  13.938   0.315  1.00  0.00     0.185 C 
BRANCH  11  12
HETATM   12  C18 UNL     1      -0.073  13.388   1.586  1.00  0.00     0.040 C 
BRANCH  12  13
HETATM   13  C19 UNL     1      -1.248  12.515   1.625  1.00  0.00    -0.012 C 
HETATM   14  C20 UNL     1      -2.452  13.352   2.174  1.00  0.00     0.005 C 
HETATM   15  C21 UNL     1      -3.745  12.712   1.767  1.00  0.00     0.000 C 
HETATM   16  C22 UNL     1      -3.589  11.214   1.944  1.00  0.00     0.000 C 
HETATM   17  C23 UNL     1      -2.591  11.038   3.066  1.00  0.00     0.000 C 
HETATM   18  C24 UNL     1      -1.186  11.426   2.684  1.00  0.00     0.005 C 
ENDBRANCH  12  13
ENDBRANCH  11  12
BRANCH  11  19
HETATM   19  N4  UNL     1       0.666  15.373   0.449  1.00  0.00    -0.302 N 
ATOM     20  H4  UNL     1       1.612  15.744   0.540  1.00  0.00     0.173 HD
BRANCH  19  21
HETATM   21  S2  UNL     1      -0.617  16.405   0.457  1.00  0.00     0.259 S 
HETATM   22  O3  UNL     1      -0.322  17.773  -0.157  1.00  0.00    -0.201 OA
HETATM   23  O4  UNL     1      -1.867  15.830  -0.211  1.00  0.00    -0.201 OA
BRANCH  21  24
HETATM   24  C25 UNL     1      -1.109  16.758   2.098  1.00  0.00     0.082 A 
HETATM   25  C26 UNL     1      -2.401  17.015   2.483  1.00  0.00     0.028 A 
HETATM   26  C27 UNL     1      -2.765  17.320   3.779  1.00  0.00     0.047 A 
HETATM   27  C28 UNL     1      -1.807  17.382   4.780  1.00  0.00     0.154 A 
HETATM   28  F2  UNL     1      -2.158  17.680   6.059  1.00  0.00    -0.203 F 
HETATM   29  C29 UNL     1      -0.506  17.127   4.416  1.00  0.00     0.156 A 
HETATM   30  F3  UNL     1       0.448  17.180   5.367  1.00  0.00    -0.203 F 
HETATM   31  C30 UNL     1      -0.153  16.825   3.126  1.00  0.00     0.070 A 
ENDBRANCH  21  24
ENDBRANCH  19  21
ENDBRANCH  11  19
ENDBRANCH   9  11
BRANCH   1  32
HETATM   32  C3  UNL     1       3.272  10.494  -2.839  1.00  0.00     0.006 C 
BRANCH  32  33
HETATM   33  C2  UNL     1       1.918  10.134  -3.388  1.00  0.00    -0.004 C 
HETATM   34  C1  UNL     1       2.104   9.732  -4.858  1.00  0.00     0.005 C 
ENDBRANCH  32  33
ENDBRANCH   1  32
BRANCH   5  35
HETATM   35  C9  UNL     1       5.070   9.504   1.754  1.00  0.00     0.039 A 
HETATM   36  C10 UNL     1       5.996   9.897   2.755  1.00  0.00     0.102 A 
HETATM   37  N1  UNL     1       5.810  11.145   3.459  1.00  0.00    -0.093 NA
HETATM   38  S1  UNL     1       7.275   8.847   3.083  1.00  0.00    -0.054 SA
HETATM   39  C11 UNL     1       7.252   7.439   2.136  1.00  0.00     0.106 A 
HETATM   40  N2  UNL     1       8.150   6.483   2.220  1.00  0.00    -0.391 N 
HETATM   41  C12 UNL     1       6.206   7.378   1.257  1.00  0.00     0.139 A 
ATOM     42  H22 UNL     1       8.930   6.529   2.876  1.00  0.00     0.157 HD
ATOM     43  H21 UNL     1       8.136   5.636   1.650  1.00  0.00     0.157 HD
HETATM   44  C13 UNL     1       5.211   8.330   1.091  1.00  0.00     0.165 A 
HETATM   45  F1  UNL     1       4.323   7.953   0.095  1.00  0.00    -0.202 F 
BRANCH  41  46
HETATM   46  O1  UNL     1       6.195   6.197   0.471  1.00  0.00    -0.355 OA
ATOM     47  H1  UNL     1       5.821   5.447   0.917  1.00  0.00     0.218 HD
ENDBRANCH  41  46
ENDBRANCH   5  35
TORSDOF 10
ENDMDL
MODEL 5
REMARK VINA RESULT: -6.088373366      5.358      9.838
REMARK  10 active torsions:
REMARK  status: ('A' for Active; 'I' for Inactive)
REMARK    1  A    between atoms: C2_2  and  C3_3 
REMARK    2  A    between atoms: C3_3  and  C4_4 
REMARK    3  A    between atoms: C8_8  and  C9_9 
REMARK    4  A    between atoms: C12_17  and  O1_18 
REMARK       I    between atoms: N3_24  and  C16_25 
REMARK    5  A    between atoms: C16_25  and  C17_27 
REMARK    6  A    between atoms: C17_27  and  C18_28 
REMARK    7  A    between atoms: C17_27  and  N4_35 
REMARK    8  A    between atoms: C18_28  and  C19_29 
REMARK    9  A    between atoms: N4_35  and  S2_37 
REMARK   10  A    between atoms: S2_37  and  C25_40 
ROOT
HETATM    1  C4  UNL     1       6.905   9.417   2.585  1.00  0.00     0.011 C 
HETATM    2  C5  UNL     1       6.971   7.896   2.655  1.00  0.00     0.032 C 
HETATM    3  C6  UNL     1       6.824   7.564   1.150  1.00  0.00     0.092 C 
HETATM    4  C7  UNL     1       5.369   7.769   0.843  1.00  0.00     0.060 C 
HETATM    5  C8  UNL     1       5.019   9.085   0.375  1.00  0.00    -0.060 C 
HETATM    6  C14 UNL     1       6.086  10.162   0.404  1.00  0.00     0.061 C 
HETATM    7  C15 UNL     1       7.294   9.749   1.169  1.00  0.00     0.096 C 
HETATM    8  N3  UNL     1       7.771   8.464   0.623  1.00  0.00    -0.340 N 
HETATM    9  C16 UNL     1       8.938   8.359  -0.178  1.00  0.00     0.244 C 
HETATM   10  O2  UNL     1       9.560   9.450  -0.454  1.00  0.00    -0.271 OA
ENDROOT
BRANCH   9  11
HETATM   11  C17 UNL     1       9.541   7.144  -0.732  1.00  0.00     0.185 C 
BRANCH  11  12
HETATM   12  C18 UNL     1       9.829   6.020   0.196  1.00  0.00     0.040 C 
BRANCH  12  13
HETATM   13  C19 UNL     1      10.528   6.215   1.469  1.00  0.00    -0.012 C 
HETATM   14  C20 UNL     1      11.791   5.290   1.472  1.00  0.00     0.005 C 
HETATM   15  C21 UNL     1      12.792   5.799   2.465  1.00  0.00     0.000 C 
HETATM   16  C22 UNL     1      12.030   6.216   3.708  1.00  0.00     0.000 C 
HETATM   17  C23 UNL     1      10.805   5.332   3.750  1.00  0.00     0.000 C 
HETATM   18  C24 UNL     1       9.795   5.656   2.678  1.00  0.00     0.005 C 
ENDBRANCH  12  13
ENDBRANCH  11  12
BRANCH  11  19
HETATM   19  N4  UNL     1       8.605   6.704  -1.757  1.00  0.00    -0.302 N 
ATOM     20  H4  UNL     1       7.729   6.259  -1.482  1.00  0.00     0.173 HD
BRANCH  19  21
HETATM   21  S2  UNL     1       8.945   6.917  -3.353  1.00  0.00     0.259 S 
HETATM   22  O3  UNL     1       7.721   7.211  -4.219  1.00  0.00    -0.201 OA
HETATM   23  O4  UNL     1       9.997   7.996  -3.615  1.00  0.00    -0.201 OA
BRANCH  21  24
HETATM   24  C25 UNL     1       9.623   5.456  -4.035  1.00  0.00     0.082 A 
HETATM   25  C26 UNL     1       9.959   5.299  -5.356  1.00  0.00     0.028 A 
HETATM   26  C27 UNL     1      10.466   4.128  -5.881  1.00  0.00     0.047 A 
HETATM   27  C28 UNL     1      10.666   3.024  -5.066  1.00  0.00     0.154 A 
HETATM   28  F2  UNL     1      11.167   1.867  -5.576  1.00  0.00    -0.203 F 
HETATM   29  C29 UNL     1      10.338   3.159  -3.739  1.00  0.00     0.156 A 
HETATM   30  F3  UNL     1      10.521   2.103  -2.922  1.00  0.00    -0.203 F 
HETATM   31  C30 UNL     1       9.833   4.327  -3.225  1.00  0.00     0.070 A 
ENDBRANCH  21  24
ENDBRANCH  19  21
ENDBRANCH  11  19
ENDBRANCH   9  11
BRANCH   1  32
HETATM   32  C3  UNL     1       7.870  10.012   3.589  1.00  0.00     0.006 C 
BRANCH  32  33
HETATM   33  C2  UNL     1       8.956   9.016   3.893  1.00  0.00    -0.004 C 
HETATM   34  C1  UNL     1      10.264   9.559   3.299  1.00  0.00     0.005 C 
ENDBRANCH  32  33
ENDBRANCH   1  32
BRANCH   5  35
HETATM   35  C9  UNL     1       3.709   9.724   0.775  1.00  0.00     0.039 A 
HETATM   36  C10 UNL     1       2.939  10.177  -0.328  1.00  0.00     0.102 A 
HETATM   37  N1  UNL     1       3.407   9.947  -1.676  1.00  0.00    -0.093 NA
HETATM   38  S1  UNL     1       1.481  10.954   0.011  1.00  0.00    -0.054 SA
HETATM   39  C11 UNL     1       1.152  11.074   1.672  1.00  0.00     0.106 A 
HETATM   40  N2  UNL     1       0.074  11.641   2.166  1.00  0.00    -0.391 N 
HETATM   41  C12 UNL     1       2.116  10.527   2.471  1.00  0.00     0.139 A 
ATOM     42  H22 UNL     1      -0.646  12.050   1.570  1.00  0.00     0.157 HD
ATOM     43  H21 UNL     1      -0.125  11.714   3.165  1.00  0.00     0.157 HD
HETATM   44  C13 UNL     1       3.285   9.910   2.048  1.00  0.00     0.165 A 
HETATM   45  F1  UNL     1       4.046   9.491   3.130  1.00  0.00    -0.202 F 
BRANCH  41  46
HETATM   46  O1  UNL     1       1.831  10.633   3.856  1.00  0.00    -0.355 OA
ATOM     47  H1  UNL     1       1.732  11.529   4.156  1.00  0.00     0.218 HD
ENDBRANCH  41  46
ENDBRANCH   5  35
TORSDOF 10
ENDMDL
