MODEL 1
REMARK VINA RESULT: -10.054502200      0.000      0.000
REMARK  3 active torsions:
REMARK  status: ('A' for Active; 'I' for Inactive)
REMARK    1  A    between atoms: C2_2  and  C3_3 
REMARK    2  A    between atoms: C2_2  and  C12_15 
REMARK    3  A    between atoms: C12_15  and  O3_16 
ROOT
HETATM    1  C12 UNL     1       4.822 -10.290 -23.389  1.00  0.00     0.118 C 
HETATM    2  C13 UNL     1       4.028 -11.508 -23.645  1.00  0.00    -0.008 A 
HETATM    3  C14 UNL     1       2.680 -11.834 -23.408  1.00  0.00     0.011 A 
HETATM    4  C15 UNL     1       2.207 -13.051 -23.846  1.00  0.00     0.001 A 
HETATM    5  C16 UNL     1       3.011 -13.955 -24.506  1.00  0.00     0.001 A 
HETATM    6  C17 UNL     1       4.329 -13.613 -24.725  1.00  0.00     0.013 A 
HETATM    7  C18 UNL     1       4.849 -12.384 -24.291  1.00  0.00    -0.016 A 
HETATM    8  C19 UNL     1       6.215 -11.869 -24.292  1.00  0.00    -0.016 A 
HETATM    9  C20 UNL     1       7.403 -12.466 -24.739  1.00  0.00     0.013 A 
HETATM   10  C21 UNL     1       8.621 -11.865 -24.531  1.00  0.00     0.001 A 
HETATM   11  C22 UNL     1       8.634 -10.668 -23.874  1.00  0.00     0.001 A 
HETATM   12  C23 UNL     1       7.468 -10.102 -23.450  1.00  0.00     0.011 A 
HETATM   13  C24 UNL     1       6.201 -10.669 -23.638  1.00  0.00    -0.008 A 
ENDROOT
BRANCH   1  14
HETATM   14  C2  UNL     1       4.311  -9.160 -24.205  1.00  0.00     0.048 C 
HETATM   15  C1  UNL     1       3.067  -9.529 -24.942  1.00  0.00     0.015 C 
BRANCH  14  16
HETATM   16  C3  UNL     1       4.013  -7.872 -23.466  1.00  0.00     0.138 C 
HETATM   17  C4  UNL     1       5.204  -7.049 -23.498  1.00  0.00    -0.006 C 
HETATM   18  C5  UNL     1       5.583  -5.870 -23.909  1.00  0.00     0.011 C 
HETATM   19  C6  UNL     1       4.785  -4.876 -24.561  1.00  0.00    -0.002 A 
HETATM   20  C7  UNL     1       5.498  -3.673 -24.625  1.00  0.00     0.014 A 
HETATM   21  C11 UNL     1       3.528  -4.846 -25.128  1.00  0.00     0.097 A 
HETATM   22  C8  UNL     1       4.983  -2.548 -25.208  1.00  0.00     0.001 A 
HETATM   23  C9  UNL     1       3.740  -2.543 -25.760  1.00  0.00     0.003 A 
HETATM   24  C10 UNL     1       3.007  -3.707 -25.718  1.00  0.00     0.039 A 
HETATM   25  O1  UNL     1       2.677  -5.942 -25.159  1.00  0.00    -0.252 OA
HETATM   26  S1  UNL     1       2.523  -7.112 -23.949  1.00  0.00     0.166 S 
HETATM   27  O2  UNL     1       1.579  -6.575 -22.691  1.00  0.00    -0.227 OA
ENDBRANCH  14  16
ENDBRANCH   1  14
BRANCH   1  28
HETATM   28  O3  UNL     1       4.688 -10.044 -22.008  1.00  0.00    -0.380 OA
ATOM     29  H3  UNL     1       4.536  -9.124 -21.825  1.00  0.00     0.211 HD
ENDBRANCH   1  28
TORSDOF 3
ENDMDL
MODEL 2
REMARK VINA RESULT: -9.899942206      2.008      7.685
REMARK  3 active torsions:
REMARK  status: ('A' for Active; 'I' for Inactive)
REMARK    1  A    between atoms: C2_2  and  C3_3 
REMARK    2  A    between atoms: C2_2  and  C12_15 
REMARK    3  A    between atoms: C12_15  and  O3_16 
ROOT
HETATM    1  C12 UNL     1       4.241  -7.181 -23.393  1.00  0.00     0.118 C 
HETATM    2  C13 UNL     1       4.680  -5.802 -23.687  1.00  0.00    -0.008 A 
HETATM    3  C14 UNL     1       5.741  -5.015 -23.202  1.00  0.00     0.011 A 
HETATM    4  C15 UNL     1       5.942  -3.767 -23.746  1.00  0.00     0.001 A 
HETATM    5  C16 UNL     1       5.138  -3.266 -24.747  1.00  0.00     0.001 A 
HETATM    6  C17 UNL     1       4.103  -4.054 -25.204  1.00  0.00     0.013 A 
HETATM    7  C18 UNL     1       3.864  -5.332 -24.673  1.00  0.00    -0.016 A 
HETATM    8  C19 UNL     1       2.773  -6.274 -24.901  1.00  0.00    -0.016 A 
HETATM    9  C20 UNL     1       1.648  -6.167 -25.730  1.00  0.00     0.013 A 
HETATM   10  C21 UNL     1       0.655  -7.117 -25.707  1.00  0.00     0.001 A 
HETATM   11  C22 UNL     1       0.803  -8.168 -24.848  1.00  0.00     0.001 A 
HETATM   12  C23 UNL     1       1.907  -8.256 -24.051  1.00  0.00     0.011 A 
HETATM   13  C24 UNL     1       2.948  -7.319 -24.038  1.00  0.00    -0.008 A 
ENDROOT
BRANCH   1  14
HETATM   14  C2  UNL     1       5.277  -8.154 -23.820  1.00  0.00     0.048 C 
HETATM   15  C1  UNL     1       6.638  -7.542 -23.835  1.00  0.00     0.015 C 
BRANCH  14  16
HETATM   16  C3  UNL     1       5.383  -9.430 -23.010  1.00  0.00     0.138 C 
HETATM   17  C4  UNL     1       4.452 -10.391 -23.564  1.00  0.00    -0.006 C 
HETATM   18  C5  UNL     1       4.458 -11.588 -24.086  1.00  0.00     0.011 C 
HETATM   19  C6  UNL     1       5.587 -12.441 -24.299  1.00  0.00    -0.002 A 
HETATM   20  C7  UNL     1       5.145 -13.719 -24.661  1.00  0.00     0.014 A 
HETATM   21  C11 UNL     1       6.956 -12.287 -24.241  1.00  0.00     0.097 A 
HETATM   22  C8  UNL     1       6.011 -14.741 -24.937  1.00  0.00     0.001 A 
HETATM   23  C9  UNL     1       7.358 -14.564 -24.872  1.00  0.00     0.003 A 
HETATM   24  C10 UNL     1       7.832 -13.322 -24.520  1.00  0.00     0.039 A 
HETATM   25  O1  UNL     1       7.577 -11.093 -23.899  1.00  0.00    -0.252 OA
HETATM   26  S1  UNL     1       7.017  -9.973 -22.764  1.00  0.00     0.166 S 
HETATM   27  O2  UNL     1       7.362 -10.450 -21.209  1.00  0.00    -0.227 OA
ENDBRANCH  14  16
ENDBRANCH   1  14
BRANCH   1  28
HETATM   28  O3  UNL     1       4.032  -7.213 -22.000  1.00  0.00    -0.380 OA
ATOM     29  H3  UNL     1       3.122  -7.375 -21.782  1.00  0.00     0.211 HD
ENDBRANCH   1  28
TORSDOF 3
ENDMDL
MODEL 3
REMARK VINA RESULT: -9.834149362      2.235      7.399
REMARK  3 active torsions:
REMARK  status: ('A' for Active; 'I' for Inactive)
REMARK    1  A    between atoms: C2_2  and  C3_3 
REMARK    2  A    between atoms: C2_2  and  C12_15 
REMARK    3  A    between atoms: C12_15  and  O3_16 
ROOT
HETATM    1  C12 UNL     1       1.892  -7.455 -24.493  1.00  0.00     0.118 C 
HETATM    2  C13 UNL     1       1.753  -6.031 -24.859  1.00  0.00    -0.008 A 
HETATM    3  C14 UNL     1       2.094  -4.838 -24.196  1.00  0.00     0.011 A 
HETATM    4  C15 UNL     1       1.911  -3.641 -24.851  1.00  0.00     0.001 A 
HETATM    5  C16 UNL     1       1.404  -3.577 -26.131  1.00  0.00     0.001 A 
HETATM    6  C17 UNL     1       1.075  -4.759 -26.760  1.00  0.00     0.013 A 
HETATM    7  C18 UNL     1       1.245  -5.999 -26.124  1.00  0.00    -0.016 A 
HETATM    8  C19 UNL     1       0.853  -7.344 -26.533  1.00  0.00    -0.016 A 
HETATM    9  C20 UNL     1       0.194  -7.779 -27.692  1.00  0.00     0.013 A 
HETATM   10  C21 UNL     1      -0.208  -9.086 -27.832  1.00  0.00     0.001 A 
HETATM   11  C22 UNL     1       0.056  -9.945 -26.805  1.00  0.00     0.001 A 
HETATM   12  C23 UNL     1       0.702  -9.504 -25.686  1.00  0.00     0.011 A 
HETATM   13  C24 UNL     1       1.135  -8.186 -25.493  1.00  0.00    -0.008 A 
ENDROOT
BRANCH   1  14
HETATM   14  C2  UNL     1       3.326  -7.821 -24.381  1.00  0.00     0.048 C 
HETATM   15  C1  UNL     1       4.168  -6.649 -24.001  1.00  0.00     0.015 C 
BRANCH  14  16
HETATM   16  C3  UNL     1       3.666  -8.934 -23.411  1.00  0.00     0.138 C 
HETATM   17  C4  UNL     1       3.313 -10.194 -24.032  1.00  0.00    -0.006 C 
HETATM   18  C5  UNL     1       3.877 -11.318 -24.382  1.00  0.00     0.011 C 
HETATM   19  C6  UNL     1       5.250 -11.691 -24.224  1.00  0.00    -0.002 A 
HETATM   20  C7  UNL     1       5.400 -13.053 -24.509  1.00  0.00     0.014 A 
HETATM   21  C11 UNL     1       6.411 -11.031 -23.880  1.00  0.00     0.097 A 
HETATM   22  C8  UNL     1       6.611 -13.684 -24.450  1.00  0.00     0.001 A 
HETATM   23  C9  UNL     1       7.743 -13.011 -24.108  1.00  0.00     0.003 A 
HETATM   24  C10 UNL     1       7.638 -11.670 -23.820  1.00  0.00     0.039 A 
HETATM   25  O1  UNL     1       6.458  -9.680 -23.563  1.00  0.00    -0.252 OA
HETATM   26  S1  UNL     1       5.266  -8.814 -22.736  1.00  0.00     0.166 S 
HETATM   27  O2  UNL     1       5.347  -9.070 -21.096  1.00  0.00    -0.227 OA
ENDBRANCH  14  16
ENDBRANCH   1  14
BRANCH   1  28
HETATM   28  O3  UNL     1       1.217  -7.588 -23.263  1.00  0.00    -0.380 OA
ATOM     29  H3  UNL     1       1.676  -8.170 -22.668  1.00  0.00     0.211 HD
ENDBRANCH   1  28
TORSDOF 3
ENDMDL
MODEL 4
REMARK VINA RESULT: -9.751550843      1.883      3.977
REMARK  3 active torsions:
REMARK  status: ('A' for Active; 'I' for Inactive)
REMARK    1  A    between atoms: C2_2  and  C3_3 
REMARK    2  A    between atoms: C2_2  and  C12_15 
REMARK    3  A    between atoms: C12_15  and  O3_16 
ROOT
HETATM    1  C12 UNL     1       5.758 -11.332 -24.134  1.00  0.00     0.118 C 
HETATM    2  C13 UNL     1       6.393 -12.199 -25.146  1.00  0.00    -0.008 A 
HETATM    3  C14 UNL     1       7.605 -12.109 -25.855  1.00  0.00     0.011 A 
HETATM    4  C15 UNL     1       7.963 -13.144 -26.689  1.00  0.00     0.001 A 
HETATM    5  C16 UNL     1       7.173 -14.262 -26.849  1.00  0.00     0.001 A 
HETATM    6  C17 UNL     1       5.989 -14.327 -26.146  1.00  0.00     0.013 A 
HETATM    7  C18 UNL     1       5.587 -13.290 -25.288  1.00  0.00    -0.016 A 
HETATM    8  C19 UNL     1       4.342 -13.082 -24.557  1.00  0.00    -0.016 A 
HETATM    9  C20 UNL     1       3.185 -13.874 -24.502  1.00  0.00     0.013 A 
HETATM   10  C21 UNL     1       2.055 -13.436 -23.854  1.00  0.00     0.001 A 
HETATM   11  C22 UNL     1       2.098 -12.204 -23.267  1.00  0.00     0.001 A 
HETATM   12  C23 UNL     1       3.234 -11.450 -23.328  1.00  0.00     0.011 A 
HETATM   13  C24 UNL     1       4.412 -11.849 -23.972  1.00  0.00    -0.008 A 
ENDROOT
BRANCH   1  14
HETATM   14  C2  UNL     1       6.582 -11.292 -22.899  1.00  0.00     0.048 C 
HETATM   15  C1  UNL     1       7.979 -11.753 -23.152  1.00  0.00     0.015 C 
BRANCH  14  16
HETATM   16  C3  UNL     1       6.686  -9.954 -22.198  1.00  0.00     0.138 C 
HETATM   17  C4  UNL     1       7.539  -9.095 -22.993  1.00  0.00    -0.006 C 
HETATM   18  C5  UNL     1       7.490  -7.945 -23.608  1.00  0.00     0.011 C 
HETATM   19  C6  UNL     1       6.380  -7.044 -23.686  1.00  0.00    -0.002 A 
HETATM   20  C7  UNL     1       6.803  -5.828 -24.233  1.00  0.00     0.014 A 
HETATM   21  C11 UNL     1       5.040  -7.112 -23.367  1.00  0.00     0.097 A 
HETATM   22  C8  UNL     1       5.948  -4.780 -24.434  1.00  0.00     0.001 A 
HETATM   23  C9  UNL     1       4.630  -4.870 -24.111  1.00  0.00     0.003 A 
HETATM   24  C10 UNL     1       4.174  -6.050 -23.571  1.00  0.00     0.039 A 
HETATM   25  O1  UNL     1       4.440  -8.236 -22.815  1.00  0.00    -0.252 OA
HETATM   26  S1  UNL     1       5.151  -9.296 -21.707  1.00  0.00     0.166 S 
HETATM   27  O2  UNL     1       5.123  -8.680 -20.163  1.00  0.00    -0.227 OA
ENDBRANCH  14  16
ENDBRANCH   1  14
BRANCH   1  28
HETATM   28  O3  UNL     1       5.661 -10.064 -24.741  1.00  0.00    -0.380 OA
ATOM     29  H3  UNL     1       6.339  -9.931 -25.393  1.00  0.00     0.211 HD
ENDBRANCH   1  28
TORSDOF 3
ENDMDL
MODEL 5
REMARK VINA RESULT: -9.749583890      2.495      7.348
REMARK  3 active torsions:
REMARK  status: ('A' for Active; 'I' for Inactive)
REMARK    1  A    between atoms: C2_2  and  C3_3 
REMARK    2  A    between atoms: C2_2  and  C12_15 
REMARK    3  A    between atoms: C12_15  and  O3_16 
ROOT
HETATM    1  C12 UNL     1       1.946  -8.791 -24.547  1.00  0.00     0.118 C 
HETATM    2  C13 UNL     1       1.525  -7.806 -25.562  1.00  0.00    -0.008 A 
HETATM    3  C14 UNL     1       1.920  -6.481 -25.828  1.00  0.00     0.011 A 
HETATM    4  C15 UNL     1       1.390  -5.839 -26.923  1.00  0.00     0.001 A 
HETATM    5  C16 UNL     1       0.486  -6.451 -27.765  1.00  0.00     0.001 A 
HETATM    6  C17 UNL     1       0.112  -7.748 -27.483  1.00  0.00     0.013 A 
HETATM    7  C18 UNL     1       0.629  -8.436 -26.374  1.00  0.00    -0.016 A 
HETATM    8  C19 UNL     1       0.288  -9.739 -25.812  1.00  0.00    -0.016 A 
HETATM    9  C20 UNL     1      -0.660 -10.683 -26.235  1.00  0.00     0.013 A 
HETATM   10  C21 UNL     1      -0.926 -11.806 -25.487  1.00  0.00     0.001 A 
HETATM   11  C22 UNL     1      -0.237 -11.969 -24.320  1.00  0.00     0.001 A 
HETATM   12  C23 UNL     1       0.684 -11.041 -23.928  1.00  0.00     0.011 A 
HETATM   13  C24 UNL     1       0.995  -9.883 -24.652  1.00  0.00    -0.008 A 
ENDROOT
BRANCH   1  14
HETATM   14  C2  UNL     1       3.370  -9.161 -24.746  1.00  0.00     0.048 C 
HETATM   15  C1  UNL     1       4.259  -7.962 -24.739  1.00  0.00     0.015 C 
BRANCH  14  16
HETATM   16  C3  UNL     1       3.959 -10.144 -23.755  1.00  0.00     0.138 C 
HETATM   17  C4  UNL     1       3.547 -11.476 -24.146  1.00  0.00    -0.006 C 
HETATM   18  C5  UNL     1       4.081 -12.619 -24.484  1.00  0.00     0.011 C 
HETATM   19  C6  UNL     1       5.473 -12.936 -24.581  1.00  0.00    -0.002 A 
HETATM   20  C7  UNL     1       5.627 -14.318 -24.742  1.00  0.00     0.014 A 
HETATM   21  C11 UNL     1       6.646 -12.211 -24.565  1.00  0.00     0.097 A 
HETATM   22  C8  UNL     1       6.855 -14.906 -24.873  1.00  0.00     0.001 A 
HETATM   23  C9  UNL     1       7.998 -14.170 -24.853  1.00  0.00     0.003 A 
HETATM   24  C10 UNL     1       7.889 -12.808 -24.697  1.00  0.00     0.039 A 
HETATM   25  O1  UNL     1       6.691 -10.832 -24.414  1.00  0.00    -0.252 OA
HETATM   26  S1  UNL     1       5.656  -9.906 -23.452  1.00  0.00     0.166 S 
HETATM   27  O2  UNL     1       6.088  -9.967 -21.848  1.00  0.00    -0.227 OA
ENDBRANCH  14  16
ENDBRANCH   1  14
BRANCH   1  28
HETATM   28  O3  UNL     1       1.736  -8.157 -23.306  1.00  0.00    -0.380 OA
ATOM     29  H3  UNL     1       2.083  -8.667 -22.584  1.00  0.00     0.211 HD
ENDBRANCH   1  28
TORSDOF 3
ENDMDL
