MODEL 1
REMARK VINA RESULT: -10.930872420      0.000      0.000
REMARK  3 active torsions:
REMARK  status: ('A' for Active; 'I' for Inactive)
REMARK    1  A    between atoms: C6_9  and  N3_10 
REMARK       I    between atoms: N3_10  and  C7_12 
REMARK    2  A    between atoms: C7_12  and  C8_14 
REMARK    3  A    between atoms: C11_17  and  C12_18 
ROOT
HETATM    1  N1  UNL     1       6.282 -15.225 -25.009  1.00  0.00    -0.191 NA
HETATM    2  C1  UNL     1       7.247 -14.614 -25.198  1.00  0.00     0.103 C 
HETATM    3  C2  UNL     1       8.455 -13.882 -25.464  1.00  0.00     0.086 A 
HETATM    4  C3  UNL     1       9.261 -14.350 -26.513  1.00  0.00     0.112 A 
HETATM    5  N2  UNL     1      10.393 -13.684 -26.781  1.00  0.00    -0.374 N 
ATOM      6  H2  UNL     1      10.992 -14.010 -27.540  1.00  0.00     0.164 HD
HETATM    7  C4  UNL     1      10.760 -12.598 -26.077  1.00  0.00     0.090 A 
HETATM    8  C5  UNL     1       9.981 -12.142 -25.061  1.00  0.00     0.048 A 
HETATM    9  C6  UNL     1       8.766 -12.785 -24.707  1.00  0.00     0.058 A 
ENDROOT
BRANCH   9  10
HETATM   10  N3  UNL     1       8.109 -12.316 -23.772  1.00  0.00    -0.321 N 
HETATM   11  C7  UNL     1       7.527 -11.134 -23.414  1.00  0.00     0.256 C 
HETATM   12  O1  UNL     1       8.203 -10.245 -22.822  1.00  0.00    -0.267 OA
ATOM     13  H3  UNL     1       7.955 -13.024 -23.053  1.00  0.00     0.169 HD
BRANCH  11  14
HETATM   14  C8  UNL     1       6.092 -10.878 -23.710  1.00  0.00     0.032 A 
HETATM   15  C9  UNL     1       5.457 -11.629 -24.660  1.00  0.00     0.018 A 
HETATM   16  C10 UNL     1       4.151 -11.421 -24.953  1.00  0.00     0.013 A 
HETATM   17  C11 UNL     1       3.460 -10.428 -24.273  1.00  0.00    -0.024 A 
HETATM   18  C25 UNL     1       4.102  -9.688 -23.332  1.00  0.00     0.013 A 
HETATM   19  C26 UNL     1       5.436  -9.885 -23.017  1.00  0.00     0.018 A 
BRANCH  17  20
HETATM   20  C12 UNL     1       2.050 -10.257 -24.642  1.00  0.00    -0.001 A 
HETATM   21  C13 UNL     1       1.077 -11.160 -24.249  1.00  0.00     0.003 A 
HETATM   22  C14 UNL     1       1.467 -12.249 -23.489  1.00  0.00     0.014 A 
HETATM   23  C18 UNL     1      -0.263 -10.991 -24.603  1.00  0.00     0.043 A 
HETATM   24  C15 UNL     1       0.523 -13.157 -23.088  1.00  0.00     0.001 A 
HETATM   25  C16 UNL     1      -0.794 -12.973 -23.446  1.00  0.00     0.002 A 
HETATM   26  C17 UNL     1      -1.224 -11.904 -24.203  1.00  0.00     0.030 A 
HETATM   27  N4  UNL     1      -0.607  -9.926 -25.339  1.00  0.00    -0.355 N 
HETATM   28  C19 UNL     1       0.297  -8.998 -25.760  1.00  0.00     0.043 A 
ATOM     29  H4  UNL     1      -1.587  -9.806 -25.596  1.00  0.00     0.166 HD
HETATM   30  C20 UNL     1      -0.113  -7.925 -26.513  1.00  0.00     0.030 A 
HETATM   31  C24 UNL     1       1.626  -9.184 -25.399  1.00  0.00     0.003 A 
HETATM   32  C21 UNL     1       0.829  -7.010 -26.919  1.00  0.00     0.002 A 
HETATM   33  C22 UNL     1       2.150  -7.187 -26.563  1.00  0.00     0.001 A 
HETATM   34  C23 UNL     1       2.561  -8.264 -25.807  1.00  0.00     0.014 A 
ENDBRANCH  17  20
ENDBRANCH  11  14
ENDBRANCH   9  10
TORSDOF 3
ENDMDL
MODEL 2
REMARK VINA RESULT: -10.889546493      0.060      3.179
REMARK  3 active torsions:
REMARK  status: ('A' for Active; 'I' for Inactive)
REMARK    1  A    between atoms: C6_9  and  N3_10 
REMARK       I    between atoms: N3_10  and  C7_12 
REMARK    2  A    between atoms: C7_12  and  C8_14 
REMARK    3  A    between atoms: C11_17  and  C12_18 
ROOT
HETATM    1  N1  UNL     1       6.297 -15.211 -25.045  1.00  0.00    -0.191 NA
HETATM    2  C1  UNL     1       7.266 -14.604 -25.234  1.00  0.00     0.103 C 
HETATM    3  C2  UNL     1       8.477 -13.877 -25.500  1.00  0.00     0.086 A 
HETATM    4  C3  UNL     1       9.279 -14.346 -26.551  1.00  0.00     0.112 A 
HETATM    5  N2  UNL     1      10.414 -13.686 -26.819  1.00  0.00    -0.374 N 
ATOM      6  H2  UNL     1      11.010 -14.012 -27.580  1.00  0.00     0.164 HD
HETATM    7  C4  UNL     1      10.788 -12.604 -26.112  1.00  0.00     0.090 A 
HETATM    8  C5  UNL     1      10.014 -12.147 -25.093  1.00  0.00     0.048 A 
HETATM    9  C6  UNL     1       8.795 -12.785 -24.739  1.00  0.00     0.058 A 
ENDROOT
BRANCH   9  10
HETATM   10  N3  UNL     1       8.143 -12.316 -23.802  1.00  0.00    -0.321 N 
HETATM   11  C7  UNL     1       7.558 -11.135 -23.444  1.00  0.00     0.256 C 
HETATM   12  O1  UNL     1       8.234 -10.241 -22.859  1.00  0.00    -0.267 OA
ATOM     13  H3  UNL     1       7.996 -13.021 -23.080  1.00  0.00     0.169 HD
BRANCH  11  14
HETATM   14  C8  UNL     1       6.120 -10.886 -23.731  1.00  0.00     0.032 A 
HETATM   15  C9  UNL     1       5.477 -11.653 -24.662  1.00  0.00     0.018 A 
HETATM   16  C10 UNL     1       4.168 -11.452 -24.947  1.00  0.00     0.013 A 
HETATM   17  C11 UNL     1       3.483 -10.449 -24.278  1.00  0.00    -0.024 A 
HETATM   18  C25 UNL     1       4.132  -9.693 -23.356  1.00  0.00     0.013 A 
HETATM   19  C26 UNL     1       5.469  -9.882 -23.049  1.00  0.00     0.018 A 
BRANCH  17  20
HETATM   20  C12 UNL     1       2.068 -10.286 -24.637  1.00  0.00    -0.001 A 
HETATM   21  C13 UNL     1       1.628  -9.225 -25.410  1.00  0.00     0.003 A 
HETATM   22  C14 UNL     1       2.564  -8.304 -25.846  1.00  0.00     0.014 A 
HETATM   23  C18 UNL     1       0.282  -9.077 -25.748  1.00  0.00     0.043 A 
HETATM   24  C15 UNL     1       2.154  -7.246 -26.613  1.00  0.00     0.001 A 
HETATM   25  C16 UNL     1       0.822  -7.116 -26.937  1.00  0.00     0.002 A 
HETATM   26  C17 UNL     1      -0.142  -8.011 -26.523  1.00  0.00     0.030 A 
HETATM   27  N4  UNL     1      -0.598  -9.987 -25.311  1.00  0.00    -0.355 N 
HETATM   28  C19 UNL     1      -0.236 -11.055 -24.547  1.00  0.00     0.043 A 
ATOM     29  H4  UNL     1      -1.581  -9.875 -25.560  1.00  0.00     0.166 HD
HETATM   30  C20 UNL     1      -1.182 -11.957 -24.126  1.00  0.00     0.030 A 
HETATM   31  C24 UNL     1       1.109 -11.186 -24.219  1.00  0.00     0.003 A 
HETATM   32  C21 UNL     1      -0.777 -13.021 -23.356  1.00  0.00     0.002 A 
HETATM   33  C22 UNL     1       0.556 -13.158 -23.028  1.00  0.00     0.001 A 
HETATM   34  C23 UNL     1       1.505 -12.253 -23.451  1.00  0.00     0.014 A 
ENDBRANCH  17  20
ENDBRANCH  11  14
ENDBRANCH   9  10
TORSDOF 3
ENDMDL
MODEL 3
REMARK VINA RESULT: -10.672752204      4.247      8.041
REMARK  3 active torsions:
REMARK  status: ('A' for Active; 'I' for Inactive)
REMARK    1  A    between atoms: C6_9  and  N3_10 
REMARK       I    between atoms: N3_10  and  C7_12 
REMARK    2  A    between atoms: C7_12  and  C8_14 
REMARK    3  A    between atoms: C11_17  and  C12_18 
ROOT
HETATM    1  N1  UNL     1       3.269  -1.972 -21.782  1.00  0.00    -0.191 NA
HETATM    2  C1  UNL     1       3.353  -2.901 -21.095  1.00  0.00     0.103 C 
HETATM    3  C2  UNL     1       3.449  -4.029 -20.210  1.00  0.00     0.086 A 
HETATM    4  C3  UNL     1       3.290  -3.773 -18.839  1.00  0.00     0.112 A 
HETATM    5  N2  UNL     1       3.375  -4.808 -17.992  1.00  0.00    -0.374 N 
ATOM      6  H2  UNL     1       3.262  -4.641 -16.992  1.00  0.00     0.164 HD
HETATM    7  C4  UNL     1       3.605  -6.061 -18.425  1.00  0.00     0.090 A 
HETATM    8  C5  UNL     1       3.759  -6.312 -19.752  1.00  0.00     0.048 A 
HETATM    9  C6  UNL     1       3.685  -5.276 -20.720  1.00  0.00     0.058 A 
ENDROOT
BRANCH   9  10
HETATM   10  N3  UNL     1       3.835  -5.577 -21.908  1.00  0.00    -0.321 N 
HETATM   11  C7  UNL     1       4.777  -6.149 -22.715  1.00  0.00     0.256 C 
HETATM   12  O1  UNL     1       5.696  -5.443 -23.220  1.00  0.00    -0.267 OA
ATOM     13  H3  UNL     1       3.008  -5.322 -22.449  1.00  0.00     0.169 HD
BRANCH  11  14
HETATM   14  C8  UNL     1       4.733  -7.605 -23.013  1.00  0.00     0.032 A 
HETATM   15  C9  UNL     1       4.146  -8.038 -24.169  1.00  0.00     0.018 A 
HETATM   16  C10 UNL     1       4.090  -9.357 -24.471  1.00  0.00     0.013 A 
HETATM   17  C11 UNL     1       4.638 -10.272 -23.583  1.00  0.00    -0.024 A 
HETATM   18  C25 UNL     1       5.217  -9.831 -22.437  1.00  0.00     0.013 A 
HETATM   19  C26 UNL     1       5.286  -8.487 -22.110  1.00  0.00     0.018 A 
BRANCH  17  20
HETATM   20  C12 UNL     1       4.540 -11.684 -23.972  1.00  0.00    -0.001 A 
HETATM   21  C13 UNL     1       5.651 -12.415 -24.357  1.00  0.00     0.003 A 
HETATM   22  C14 UNL     1       6.878 -11.777 -24.370  1.00  0.00     0.014 A 
HETATM   23  C18 UNL     1       5.551 -13.758 -24.725  1.00  0.00     0.043 A 
HETATM   24  C15 UNL     1       7.994 -12.478 -24.746  1.00  0.00     0.001 A 
HETATM   25  C16 UNL     1       7.875 -13.802 -25.105  1.00  0.00     0.002 A 
HETATM   26  C17 UNL     1       6.672 -14.474 -25.108  1.00  0.00     0.030 A 
HETATM   27  N4  UNL     1       4.348 -14.346 -24.702  1.00  0.00    -0.355 N 
HETATM   28  C19 UNL     1       3.213 -13.688 -24.334  1.00  0.00     0.043 A 
ATOM     29  H4  UNL     1       4.278 -15.328 -24.972  1.00  0.00     0.166 HD
HETATM   30  C20 UNL     1       2.005 -14.342 -24.329  1.00  0.00     0.030 A 
HETATM   31  C24 UNL     1       3.332 -12.352 -23.972  1.00  0.00     0.003 A 
HETATM   32  C21 UNL     1       0.883 -13.644 -23.952  1.00  0.00     0.002 A 
HETATM   33  C22 UNL     1       0.993 -12.318 -23.590  1.00  0.00     0.001 A 
HETATM   34  C23 UNL     1       2.205 -11.662 -23.595  1.00  0.00     0.014 A 
ENDBRANCH  17  20
ENDBRANCH  11  14
ENDBRANCH   9  10
TORSDOF 3
ENDMDL
MODEL 4
REMARK VINA RESULT: -10.661340897      4.240      7.856
REMARK  3 active torsions:
REMARK  status: ('A' for Active; 'I' for Inactive)
REMARK    1  A    between atoms: C6_9  and  N3_10 
REMARK       I    between atoms: N3_10  and  C7_12 
REMARK    2  A    between atoms: C7_12  and  C8_14 
REMARK    3  A    between atoms: C11_17  and  C12_18 
ROOT
HETATM    1  N1  UNL     1       3.270  -1.972 -21.825  1.00  0.00    -0.191 NA
HETATM    2  C1  UNL     1       3.353  -2.898 -21.135  1.00  0.00     0.103 C 
HETATM    3  C2  UNL     1       3.448  -4.022 -20.244  1.00  0.00     0.086 A 
HETATM    4  C3  UNL     1       3.289  -3.761 -18.874  1.00  0.00     0.112 A 
HETATM    5  N2  UNL     1       3.374  -4.792 -18.023  1.00  0.00    -0.374 N 
ATOM      6  H2  UNL     1       3.261  -4.621 -17.024  1.00  0.00     0.164 HD
HETATM    7  C4  UNL     1       3.605  -6.047 -18.451  1.00  0.00     0.090 A 
HETATM    8  C5  UNL     1       3.759  -6.304 -19.776  1.00  0.00     0.048 A 
HETATM    9  C6  UNL     1       3.685  -5.272 -20.749  1.00  0.00     0.058 A 
ENDROOT
BRANCH   9  10
HETATM   10  N3  UNL     1       3.835  -5.578 -21.936  1.00  0.00    -0.321 N 
HETATM   11  C7  UNL     1       4.777  -6.156 -22.739  1.00  0.00     0.256 C 
HETATM   12  O1  UNL     1       5.698  -5.455 -23.247  1.00  0.00    -0.267 OA
ATOM     13  H3  UNL     1       3.010  -5.323 -22.478  1.00  0.00     0.169 HD
BRANCH  11  14
HETATM   14  C8  UNL     1       4.728  -7.613 -23.032  1.00  0.00     0.032 A 
HETATM   15  C9  UNL     1       4.137  -8.049 -24.185  1.00  0.00     0.018 A 
HETATM   16  C10 UNL     1       4.076  -9.369 -24.481  1.00  0.00     0.013 A 
HETATM   17  C11 UNL     1       4.626 -10.281 -23.592  1.00  0.00    -0.024 A 
HETATM   18  C25 UNL     1       5.210  -9.837 -22.449  1.00  0.00     0.013 A 
HETATM   19  C26 UNL     1       5.283  -8.492 -22.128  1.00  0.00     0.018 A 
BRANCH  17  20
HETATM   20  C12 UNL     1       4.524 -11.695 -23.975  1.00  0.00    -0.001 A 
HETATM   21  C13 UNL     1       3.313 -12.367 -23.975  1.00  0.00     0.003 A 
HETATM   22  C14 UNL     1       2.180 -11.668 -23.599  1.00  0.00     0.014 A 
HETATM   23  C18 UNL     1       3.223 -13.711 -24.341  1.00  0.00     0.043 A 
HETATM   24  C15 UNL     1       0.970 -12.309 -23.591  1.00  0.00     0.001 A 
HETATM   25  C16 UNL     1       0.901 -13.635 -23.956  1.00  0.00     0.002 A 
HETATM   26  C17 UNL     1       2.005 -14.368 -24.336  1.00  0.00     0.030 A 
HETATM   27  N4  UNL     1       4.339 -14.359 -24.701  1.00  0.00    -0.355 N 
HETATM   28  C19 UNL     1       5.563 -13.761 -24.724  1.00  0.00     0.043 A 
ATOM     29  H4  UNL     1       4.270 -15.341 -24.968  1.00  0.00     0.166 HD
HETATM   30  C20 UNL     1       6.675 -14.474 -25.101  1.00  0.00     0.030 A 
HETATM   31  C24 UNL     1       5.633 -12.422 -24.355  1.00  0.00     0.003 A 
HETATM   32  C21 UNL     1       7.892 -13.836 -25.111  1.00  0.00     0.002 A 
HETATM   33  C22 UNL     1       7.969 -12.508 -24.748  1.00  0.00     0.001 A 
HETATM   34  C23 UNL     1       6.854 -11.792 -24.370  1.00  0.00     0.014 A 
ENDBRANCH  17  20
ENDBRANCH  11  14
ENDBRANCH   9  10
TORSDOF 3
ENDMDL
MODEL 5
REMARK VINA RESULT: -10.061833898      4.372      7.670
REMARK  3 active torsions:
REMARK  status: ('A' for Active; 'I' for Inactive)
REMARK    1  A    between atoms: C6_9  and  N3_10 
REMARK       I    between atoms: N3_10  and  C7_12 
REMARK    2  A    between atoms: C7_12  and  C8_14 
REMARK    3  A    between atoms: C11_17  and  C12_18 
ROOT
HETATM    1  N1  UNL     1       5.322  -1.970 -20.977  1.00  0.00    -0.191 NA
HETATM    2  C1  UNL     1       5.467  -2.437 -22.026  1.00  0.00     0.103 C 
HETATM    3  C2  UNL     1       5.651  -2.978 -23.345  1.00  0.00     0.086 A 
HETATM    4  C3  UNL     1       5.805  -2.056 -24.392  1.00  0.00     0.112 A 
HETATM    5  N2  UNL     1       5.978  -2.535 -25.632  1.00  0.00    -0.374 N 
ATOM      6  H2  UNL     1       6.091  -1.880 -26.405  1.00  0.00     0.164 HD
HETATM    7  C4  UNL     1       6.005  -3.857 -25.883  1.00  0.00     0.090 A 
HETATM    8  C5  UNL     1       5.857  -4.752 -24.872  1.00  0.00     0.048 A 
HETATM    9  C6  UNL     1       5.668  -4.334 -23.528  1.00  0.00     0.058 A 
ENDROOT
BRANCH   9  10
HETATM   10  N3  UNL     1       5.539  -5.203 -22.660  1.00  0.00    -0.321 N 
HETATM   11  C7  UNL     1       4.598  -6.089 -22.221  1.00  0.00     0.256 C 
HETATM   12  O1  UNL     1       3.724  -5.727 -21.383  1.00  0.00    -0.267 OA
ATOM     13  H3  UNL     1       6.392  -5.282 -22.104  1.00  0.00     0.169 HD
BRANCH  11  14
HETATM   14  C8  UNL     1       4.589  -7.490 -22.720  1.00  0.00     0.032 A 
HETATM   15  C9  UNL     1       5.137  -8.481 -21.953  1.00  0.00     0.018 A 
HETATM   16  C10 UNL     1       5.145  -9.767 -22.378  1.00  0.00     0.013 A 
HETATM   17  C11 UNL     1       4.587 -10.069 -23.611  1.00  0.00    -0.024 A 
HETATM   18  C25 UNL     1       4.046  -9.077 -24.365  1.00  0.00     0.013 A 
HETATM   19  C26 UNL     1       4.027  -7.756 -23.949  1.00  0.00     0.018 A 
BRANCH  17  20
HETATM   20  C12 UNL     1       4.631 -11.482 -24.009  1.00  0.00    -0.001 A 
HETATM   21  C13 UNL     1       5.810 -12.094 -24.401  1.00  0.00     0.003 A 
HETATM   22  C14 UNL     1       6.966 -11.335 -24.412  1.00  0.00     0.014 A 
HETATM   23  C18 UNL     1       5.845 -13.438 -24.778  1.00  0.00     0.043 A 
HETATM   24  C15 UNL     1       8.145 -11.917 -24.795  1.00  0.00     0.001 A 
HETATM   25  C16 UNL     1       8.161 -13.244 -25.163  1.00  0.00     0.002 A 
HETATM   26  C17 UNL     1       7.031 -14.035 -25.167  1.00  0.00     0.030 A 
HETATM   27  N4  UNL     1       4.707 -14.145 -24.755  1.00  0.00    -0.355 N 
HETATM   28  C19 UNL     1       3.513 -13.608 -24.381  1.00  0.00     0.043 A 
ATOM     29  H4  UNL     1       4.737 -15.127 -25.031  1.00  0.00     0.166 HD
HETATM   30  C20 UNL     1       2.377 -14.380 -24.377  1.00  0.00     0.030 A 
HETATM   31  C24 UNL     1       3.497 -12.268 -24.010  1.00  0.00     0.003 A 
HETATM   32  C21 UNL     1       1.191 -13.802 -23.993  1.00  0.00     0.002 A 
HETATM   33  C22 UNL     1       1.168 -12.474 -23.623  1.00  0.00     0.001 A 
HETATM   34  C23 UNL     1       2.307 -11.698 -23.626  1.00  0.00     0.014 A 
ENDBRANCH  17  20
ENDBRANCH  11  14
ENDBRANCH   9  10
TORSDOF 3
ENDMDL
