MODEL 1
REMARK VINA RESULT: -8.257427229      0.000      0.000
REMARK  5 active torsions:
REMARK  status: ('A' for Active; 'I' for Inactive)
REMARK    1  A    between atoms: C3_5  and  C4_6 
REMARK    2  A    between atoms: C12_16  and  C13_17 
REMARK    3  A    between atoms: C14_18  and  C15_19 
REMARK    4  A    between atoms: C18_22  and  C19_23 
REMARK       I    between atoms: C19_23  and  N3_25 
REMARK    5  A    between atoms: N3_25  and  C20_26 
ROOT
HETATM    1  C1  UNL     1       8.872 -10.711 -24.332  1.00  0.00     0.071 C 
HETATM    2  C2  UNL     1       9.403 -11.997 -24.906  1.00  0.00     0.041 A 
HETATM    3  N1  UNL     1      10.731 -12.082 -25.202  1.00  0.00    -0.355 N 
ATOM      4  H1  UNL     1      11.348 -11.288 -25.034  1.00  0.00     0.166 HD
HETATM    5  C3  UNL     1      11.222 -13.233 -25.723  1.00  0.00     0.065 A 
HETATM    6  C10 UNL     1      10.400 -14.291 -25.945  1.00  0.00     0.034 A 
HETATM    7  C11 UNL     1      10.914 -15.551 -26.497  1.00  0.00     0.070 C 
HETATM    8  N2  UNL     1       9.082 -14.171 -25.638  1.00  0.00    -0.349 N 
ATOM      9  H2  UNL     1       8.466 -14.966 -25.808  1.00  0.00     0.166 HD
HETATM   10  C12 UNL     1       8.562 -13.061 -25.127  1.00  0.00     0.110 A 
ENDROOT
BRANCH  10  11
HETATM   11  C13 UNL     1       7.168 -13.010 -24.812  1.00  0.00    -0.041 C 
HETATM   12  C14 UNL     1       5.962 -12.952 -24.579  1.00  0.00    -0.060 C 
BRANCH  12  13
HETATM   13  C15 UNL     1       4.552 -12.864 -24.352  1.00  0.00     0.018 A 
HETATM   14  C16 UNL     1       3.986 -11.661 -23.906  1.00  0.00     0.022 A 
HETATM   15  C17 UNL     1       2.632 -11.561 -23.679  1.00  0.00     0.020 A 
HETATM   16  C18 UNL     1       1.837 -12.655 -23.894  1.00  0.00     0.046 A 
HETATM   17  C24 UNL     1       2.327 -13.845 -24.325  1.00  0.00     0.020 A 
HETATM   18  C25 UNL     1       3.720 -13.918 -24.550  1.00  0.00     0.022 A 
BRANCH  16  19
HETATM   19  C19 UNL     1       0.370 -12.532 -23.637  1.00  0.00     0.321 C 
HETATM   20  O1  UNL     1      -0.019 -13.200 -22.647  1.00  0.00    -0.251 OA
HETATM   21  N3  UNL     1      -0.362 -11.721 -24.482  1.00  0.00    -0.400 NA
BRANCH  21  22
HETATM   22  C20 UNL     1      -1.085 -10.922 -25.316  1.00  0.00     0.086 C 
HETATM   23  C21 UNL     1      -1.077 -11.411 -26.787  1.00  0.00     0.053 C 
HETATM   24  C22 UNL     1      -2.568 -10.779 -24.986  1.00  0.00     0.053 C 
HETATM   25  C23 UNL     1      -0.482  -9.511 -25.389  1.00  0.00     0.053 C 
ENDBRANCH  21  22
ENDBRANCH  16  19
ENDBRANCH  12  13
ENDBRANCH  10  11
BRANCH   5  26
HETATM   26  C4  UNL     1      12.650 -13.256 -26.002  1.00  0.00    -0.007 A 
HETATM   27  C5  UNL     1      13.081 -13.275 -27.336  1.00  0.00     0.014 A 
HETATM   28  C6  UNL     1      14.401 -13.325 -27.704  1.00  0.00     0.001 A 
HETATM   29  C7  UNL     1      15.342 -13.361 -26.699  1.00  0.00     0.000 A 
HETATM   30  C8  UNL     1      14.942 -13.345 -25.382  1.00  0.00     0.001 A 
HETATM   31  C9  UNL     1      13.613 -13.293 -25.030  1.00  0.00     0.014 A 
ENDBRANCH   5  26
TORSDOF 5
ENDMDL
MODEL 2
REMARK VINA RESULT: -8.158767925      6.991      9.022
REMARK  5 active torsions:
REMARK  status: ('A' for Active; 'I' for Inactive)
REMARK    1  A    between atoms: C3_5  and  C4_6 
REMARK    2  A    between atoms: C12_16  and  C13_17 
REMARK    3  A    between atoms: C14_18  and  C15_19 
REMARK    4  A    between atoms: C18_22  and  C19_23 
REMARK       I    between atoms: C19_23  and  N3_25 
REMARK    5  A    between atoms: N3_25  and  C20_26 
ROOT
HETATM    1  C1  UNL     1       2.664  -8.944 -24.514  1.00  0.00     0.071 C 
HETATM    2  C2  UNL     1       3.967  -9.610 -24.164  1.00  0.00     0.041 A 
HETATM    3  N1  UNL     1       4.251 -10.822 -24.719  1.00  0.00    -0.355 N 
ATOM      4  H1  UNL     1       3.592 -11.263 -25.360  1.00  0.00     0.166 HD
HETATM    5  C3  UNL     1       5.420 -11.435 -24.410  1.00  0.00     0.065 A 
HETATM    6  C10 UNL     1       6.299 -10.847 -23.557  1.00  0.00     0.034 A 
HETATM    7  C11 UNL     1       7.576 -11.489 -23.219  1.00  0.00     0.070 C 
HETATM    8  N2  UNL     1       5.983  -9.639 -23.023  1.00  0.00    -0.349 N 
ATOM      9  H2  UNL     1       6.644  -9.200 -22.382  1.00  0.00     0.166 HD
HETATM   10  C12 UNL     1       4.849  -9.005 -23.300  1.00  0.00     0.110 A 
ENDROOT
BRANCH  10  11
HETATM   11  C13 UNL     1       4.589  -7.727 -22.715  1.00  0.00    -0.041 C 
HETATM   12  C14 UNL     1       4.341  -6.646 -22.184  1.00  0.00    -0.060 C 
BRANCH  12  13
HETATM   13  C15 UNL     1       4.020  -5.412 -21.535  1.00  0.00     0.018 A 
HETATM   14  C16 UNL     1       3.550  -5.413 -20.214  1.00  0.00     0.022 A 
HETATM   15  C17 UNL     1       3.233  -4.235 -19.577  1.00  0.00     0.020 A 
HETATM   16  C18 UNL     1       3.382  -3.052 -20.251  1.00  0.00     0.046 A 
HETATM   17  C24 UNL     1       3.833  -2.987 -21.530  1.00  0.00     0.020 A 
HETATM   18  C25 UNL     1       4.151  -4.212 -22.157  1.00  0.00     0.022 A 
BRANCH  16  19
HETATM   19  C19 UNL     1       3.028  -1.781 -19.548  1.00  0.00     0.321 C 
HETATM   20  O1  UNL     1       3.930  -0.910 -19.613  1.00  0.00    -0.251 OA
HETATM   21  N3  UNL     1       1.792  -1.712 -18.937  1.00  0.00    -0.400 NA
BRANCH  21  22
HETATM   22  C20 UNL     1       0.572  -1.643 -18.334  1.00  0.00     0.086 C 
HETATM   23  C21 UNL     1      -0.047  -3.036 -18.051  1.00  0.00     0.053 C 
HETATM   24  C22 UNL     1       0.536  -0.945 -16.977  1.00  0.00     0.053 C 
HETATM   25  C23 UNL     1      -0.457  -0.955 -19.243  1.00  0.00     0.053 C 
ENDBRANCH  21  22
ENDBRANCH  16  19
ENDBRANCH  12  13
ENDBRANCH  10  11
BRANCH   5  26
HETATM   26  C4  UNL     1       5.662 -12.720 -25.049  1.00  0.00    -0.007 A 
HETATM   27  C5  UNL     1       4.894 -13.827 -24.661  1.00  0.00     0.014 A 
HETATM   28  C6  UNL     1       5.063 -15.085 -25.181  1.00  0.00     0.001 A 
HETATM   29  C7  UNL     1       6.044 -15.255 -26.133  1.00  0.00     0.000 A 
HETATM   30  C8  UNL     1       6.811 -14.182 -26.528  1.00  0.00     0.001 A 
HETATM   31  C9  UNL     1       6.628 -12.927 -25.997  1.00  0.00     0.014 A 
ENDBRANCH   5  26
TORSDOF 5
ENDMDL
MODEL 3
REMARK VINA RESULT: -7.991631935      7.027      9.202
REMARK  5 active torsions:
REMARK  status: ('A' for Active; 'I' for Inactive)
REMARK    1  A    between atoms: C3_5  and  C4_6 
REMARK    2  A    between atoms: C12_16  and  C13_17 
REMARK    3  A    between atoms: C14_18  and  C15_19 
REMARK    4  A    between atoms: C18_22  and  C19_23 
REMARK       I    between atoms: C19_23  and  N3_25 
REMARK    5  A    between atoms: N3_25  and  C20_26 
ROOT
HETATM    1  C1  UNL     1       7.140  -8.289 -23.744  1.00  0.00     0.071 C 
HETATM    2  C2  UNL     1       6.006  -9.278 -23.697  1.00  0.00     0.041 A 
HETATM    3  N1  UNL     1       6.239 -10.559 -24.103  1.00  0.00    -0.355 N 
ATOM      4  H1  UNL     1       7.164 -10.836 -24.429  1.00  0.00     0.166 HD
HETATM    5  C3  UNL     1       5.226 -11.459 -24.069  1.00  0.00     0.065 A 
HETATM    6  C10 UNL     1       3.993 -11.089 -23.634  1.00  0.00     0.034 A 
HETATM    7  C11 UNL     1       2.887 -12.052 -23.578  1.00  0.00     0.070 C 
HETATM    8  N2  UNL     1       3.798  -9.805 -23.237  1.00  0.00    -0.349 N 
ATOM      9  H2  UNL     1       2.872  -9.529 -22.912  1.00  0.00     0.166 HD
HETATM   10  C12 UNL     1       4.763  -8.893 -23.254  1.00  0.00     0.110 A 
ENDROOT
BRANCH  10  11
HETATM   11  C13 UNL     1       4.491  -7.562 -22.806  1.00  0.00    -0.041 C 
HETATM   12  C14 UNL     1       4.240  -6.434 -22.387  1.00  0.00    -0.060 C 
BRANCH  12  13
HETATM   13  C15 UNL     1       3.925  -5.142 -21.860  1.00  0.00     0.018 A 
HETATM   14  C16 UNL     1       3.646  -4.989 -20.493  1.00  0.00     0.022 A 
HETATM   15  C17 UNL     1       3.337  -3.753 -19.972  1.00  0.00     0.020 A 
HETATM   16  C18 UNL     1       3.304  -2.667 -20.805  1.00  0.00     0.046 A 
HETATM   17  C24 UNL     1       3.565  -2.752 -22.134  1.00  0.00     0.020 A 
HETATM   18  C25 UNL     1       3.880  -4.033 -22.641  1.00  0.00     0.022 A 
BRANCH  16  19
HETATM   19  C19 UNL     1       2.960  -1.333 -20.224  1.00  0.00     0.321 C 
HETATM   20  O1  UNL     1       3.804  -0.442 -20.492  1.00  0.00    -0.251 OA
HETATM   21  N3  UNL     1       1.794  -1.236 -19.491  1.00  0.00    -0.400 NA
BRANCH  21  22
HETATM   22  C20 UNL     1       0.643  -1.139 -18.769  1.00  0.00     0.086 C 
HETATM   23  C21 UNL     1       0.812  -0.324 -17.461  1.00  0.00     0.053 C 
HETATM   24  C22 UNL     1      -0.532  -0.465 -19.470  1.00  0.00     0.053 C 
HETATM   25  C23 UNL     1       0.173  -2.521 -18.289  1.00  0.00     0.053 C 
ENDBRANCH  21  22
ENDBRANCH  16  19
ENDBRANCH  12  13
ENDBRANCH  10  11
BRANCH   5  26
HETATM   26  C4  UNL     1       5.550 -12.809 -24.504  1.00  0.00    -0.007 A 
HETATM   27  C5  UNL     1       4.514 -13.647 -24.944  1.00  0.00     0.014 A 
HETATM   28  C6  UNL     1       4.710 -14.943 -25.348  1.00  0.00     0.001 A 
HETATM   29  C7  UNL     1       5.996 -15.435 -25.312  1.00  0.00     0.000 A 
HETATM   30  C8  UNL     1       7.028 -14.630 -24.882  1.00  0.00     0.001 A 
HETATM   31  C9  UNL     1       6.814 -13.332 -24.482  1.00  0.00     0.014 A 
ENDBRANCH   5  26
TORSDOF 5
ENDMDL
MODEL 4
REMARK VINA RESULT: -7.987615919      7.063      9.084
REMARK  5 active torsions:
REMARK  status: ('A' for Active; 'I' for Inactive)
REMARK    1  A    between atoms: C3_5  and  C4_6 
REMARK    2  A    between atoms: C12_16  and  C13_17 
REMARK    3  A    between atoms: C14_18  and  C15_19 
REMARK    4  A    between atoms: C18_22  and  C19_23 
REMARK       I    between atoms: C19_23  and  N3_25 
REMARK    5  A    between atoms: N3_25  and  C20_26 
ROOT
HETATM    1  C1  UNL     1       2.569  -9.081 -24.602  1.00  0.00     0.071 C 
HETATM    2  C2  UNL     1       3.880  -9.722 -24.237  1.00  0.00     0.041 A 
HETATM    3  N1  UNL     1       4.171 -10.953 -24.748  1.00  0.00    -0.355 N 
ATOM      4  H1  UNL     1       3.511 -11.423 -25.366  1.00  0.00     0.166 HD
HETATM    5  C3  UNL     1       5.346 -11.544 -24.423  1.00  0.00     0.065 A 
HETATM    6  C10 UNL     1       6.226 -10.917 -23.600  1.00  0.00     0.034 A 
HETATM    7  C11 UNL     1       7.510 -11.536 -23.247  1.00  0.00     0.070 C 
HETATM    8  N2  UNL     1       5.904  -9.692 -23.110  1.00  0.00    -0.349 N 
ATOM      9  H2  UNL     1       6.565  -9.224 -22.490  1.00  0.00     0.166 HD
HETATM   10  C12 UNL     1       4.763  -9.079 -23.403  1.00  0.00     0.110 A 
ENDROOT
BRANCH  10  11
HETATM   11  C13 UNL     1       4.496  -7.781 -22.864  1.00  0.00    -0.041 C 
HETATM   12  C14 UNL     1       4.252  -6.684 -22.366  1.00  0.00    -0.060 C 
BRANCH  12  13
HETATM   13  C15 UNL     1       3.948  -5.430 -21.748  1.00  0.00     0.018 A 
HETATM   14  C16 UNL     1       3.967  -4.249 -22.507  1.00  0.00     0.022 A 
HETATM   15  C17 UNL     1       3.681  -3.034 -21.926  1.00  0.00     0.020 A 
HETATM   16  C18 UNL     1       3.376  -2.988 -20.592  1.00  0.00     0.046 A 
HETATM   17  C24 UNL     1       3.342  -4.095 -19.807  1.00  0.00     0.020 A 
HETATM   18  C25 UNL     1       3.639  -5.328 -20.431  1.00  0.00     0.022 A 
BRANCH  16  19
HETATM   19  C19 UNL     1       3.074  -1.660 -19.975  1.00  0.00     0.321 C 
HETATM   20  O1  UNL     1       3.692  -0.710 -20.517  1.00  0.00    -0.251 OA
HETATM   21  N3  UNL     1       2.178  -1.631 -18.925  1.00  0.00    -0.400 NA
BRANCH  21  22
HETATM   22  C20 UNL     1       1.294  -1.602 -17.889  1.00  0.00     0.086 C 
HETATM   23  C21 UNL     1       1.510  -2.752 -16.873  1.00  0.00     0.053 C 
HETATM   24  C22 UNL     1       1.317  -0.344 -17.026  1.00  0.00     0.053 C 
HETATM   25  C23 UNL     1      -0.145  -1.807 -18.384  1.00  0.00     0.053 C 
ENDBRANCH  21  22
ENDBRANCH  16  19
ENDBRANCH  12  13
ENDBRANCH  10  11
BRANCH   5  26
HETATM   26  C4  UNL     1       5.595 -12.850 -25.016  1.00  0.00    -0.007 A 
HETATM   27  C5  UNL     1       6.640 -12.988 -25.940  1.00  0.00     0.014 A 
HETATM   28  C6  UNL     1       6.939 -14.167 -26.574  1.00  0.00     0.001 A 
HETATM   29  C7  UNL     1       6.160 -15.265 -26.279  1.00  0.00     0.000 A 
HETATM   30  C8  UNL     1       5.127 -15.152 -25.375  1.00  0.00     0.001 A 
HETATM   31  C9  UNL     1       4.843 -13.962 -24.747  1.00  0.00     0.014 A 
ENDBRANCH   5  26
TORSDOF 5
ENDMDL
MODEL 5
REMARK VINA RESULT: -7.985109985      5.579     12.343
REMARK  5 active torsions:
REMARK  status: ('A' for Active; 'I' for Inactive)
REMARK    1  A    between atoms: C3_5  and  C4_6 
REMARK    2  A    between atoms: C12_16  and  C13_17 
REMARK    3  A    between atoms: C14_18  and  C15_19 
REMARK    4  A    between atoms: C18_22  and  C19_23 
REMARK       I    between atoms: C19_23  and  N3_25 
REMARK    5  A    between atoms: N3_25  and  C20_26 
ROOT
HETATM    1  C1  UNL     1       0.517  -6.968 -26.270  1.00  0.00     0.071 C 
HETATM    2  C2  UNL     1       0.863  -5.625 -25.686  1.00  0.00     0.041 A 
HETATM    3  N1  UNL     1       0.039  -4.569 -25.942  1.00  0.00    -0.355 N 
ATOM      4  H1  UNL     1      -0.794  -4.693 -26.516  1.00  0.00     0.166 HD
HETATM    5  C3  UNL     1       0.341  -3.352 -25.426  1.00  0.00     0.065 A 
HETATM    6  C10 UNL     1       1.450  -3.188 -24.659  1.00  0.00     0.034 A 
HETATM    7  C11 UNL     1       1.787  -1.882 -24.080  1.00  0.00     0.070 C 
HETATM    8  N2  UNL     1       2.248  -4.262 -24.424  1.00  0.00    -0.349 N 
ATOM      9  H2  UNL     1       3.081  -4.136 -23.850  1.00  0.00     0.166 HD
HETATM   10  C12 UNL     1       1.988  -5.470 -24.912  1.00  0.00     0.110 A 
ENDROOT
BRANCH  10  11
HETATM   11  C13 UNL     1       2.863  -6.561 -24.610  1.00  0.00    -0.041 C 
HETATM   12  C14 UNL     1       3.620  -7.504 -24.391  1.00  0.00    -0.060 C 
BRANCH  12  13
HETATM   13  C15 UNL     1       4.502  -8.611 -24.185  1.00  0.00     0.018 A 
HETATM   14  C16 UNL     1       5.825  -8.389 -23.775  1.00  0.00     0.022 A 
HETATM   15  C17 UNL     1       6.688  -9.443 -23.577  1.00  0.00     0.020 A 
HETATM   16  C18 UNL     1       6.240 -10.720 -23.785  1.00  0.00     0.046 A 
HETATM   17  C24 UNL     1       4.972 -10.998 -24.181  1.00  0.00     0.020 A 
HETATM   18  C25 UNL     1       4.108  -9.896 -24.376  1.00  0.00     0.022 A 
BRANCH  16  19
HETATM   19  C19 UNL     1       7.191 -11.853 -23.572  1.00  0.00     0.321 C 
HETATM   20  O1  UNL     1       7.783 -11.802 -22.464  1.00  0.00    -0.251 OA
HETATM   21  N3  UNL     1       7.301 -12.794 -24.576  1.00  0.00    -0.400 NA
BRANCH  21  22
HETATM   22  C20 UNL     1       7.409 -13.724 -25.566  1.00  0.00     0.086 C 
HETATM   23  C21 UNL     1       6.919 -13.206 -26.943  1.00  0.00     0.053 C 
HETATM   24  C22 UNL     1       8.818 -14.237 -25.850  1.00  0.00     0.053 C 
HETATM   25  C23 UNL     1       6.514 -14.939 -25.284  1.00  0.00     0.053 C 
ENDBRANCH  21  22
ENDBRANCH  16  19
ENDBRANCH  12  13
ENDBRANCH  10  11
BRANCH   5  26
HETATM   26  C4  UNL     1      -0.589  -2.275 -25.729  1.00  0.00    -0.007 A 
HETATM   27  C5  UNL     1      -1.531  -1.898 -24.761  1.00  0.00     0.014 A 
HETATM   28  C6  UNL     1      -2.467  -0.916 -24.958  1.00  0.00     0.001 A 
HETATM   29  C7  UNL     1      -2.473  -0.276 -26.178  1.00  0.00     0.000 A 
HETATM   30  C8  UNL     1      -1.558  -0.631 -27.144  1.00  0.00     0.001 A 
HETATM   31  C9  UNL     1      -0.625  -1.618 -26.929  1.00  0.00     0.014 A 
ENDBRANCH   5  26
TORSDOF 5
ENDMDL
