MODEL 1
REMARK VINA RESULT: -8.334716852      0.000      0.000
REMARK  2 active torsions:
REMARK  status: ('A' for Active; 'I' for Inactive)
REMARK    1  A    between atoms: C21_24  and  O2_25 
REMARK    2  A    between atoms: C21_24  and  C22_27 
ROOT
HETATM    1  C1  UNL     1       3.211  -7.507 -25.426  1.00  0.00     0.018 C 
HETATM    2  C2  UNL     1       1.927  -7.041 -25.858  1.00  0.00    -0.014 C 
HETATM    3  C3  UNL     1       1.266  -7.954 -26.902  1.00  0.00     0.012 C 
HETATM    4  C4  UNL     1       0.075  -7.341 -27.053  1.00  0.00     0.008 C 
HETATM    5  C5  UNL     1       0.214  -6.183 -26.095  1.00  0.00     0.019 C 
HETATM    6  C6  UNL     1       0.752  -7.015 -24.920  1.00  0.00     0.019 C 
HETATM    7  C7  UNL     1       1.616  -5.734 -26.474  1.00  0.00     0.083 C 
HETATM    8  N1  UNL     1       1.740  -5.827 -27.926  1.00  0.00    -0.356 N 
ATOM      9  H1  UNL     1       0.969  -6.356 -28.332  1.00  0.00     0.162 HD
HETATM   10  C8  UNL     1       2.544  -5.430 -28.815  1.00  0.00     0.155 C 
HETATM   11  C9  UNL     1       2.371  -5.703 -30.224  1.00  0.00     0.015 A 
HETATM   12  C10 UNL     1       3.271  -5.260 -31.173  1.00  0.00     0.016 A 
HETATM   13  C11 UNL     1       3.099  -5.519 -32.523  1.00  0.00     0.001 A 
HETATM   14  C12 UNL     1       2.002  -6.238 -32.945  1.00  0.00     0.000 A 
HETATM   15  C13 UNL     1       1.098  -6.686 -32.025  1.00  0.00     0.001 A 
HETATM   16  C14 UNL     1       1.296  -6.411 -30.677  1.00  0.00     0.016 A 
HETATM   17  O1  UNL     1       3.696  -4.679 -28.554  1.00  0.00    -0.293 OA
HETATM   18  C15 UNL     1       4.220  -4.269 -27.350  1.00  0.00     0.087 A 
HETATM   19  C16 UNL     1       5.556  -3.973 -27.470  1.00  0.00     0.038 A 
HETATM   20  C17 UNL     1       6.247  -3.553 -26.381  1.00  0.00     0.003 A 
HETATM   21  C18 UNL     1       5.583  -3.435 -25.178  1.00  0.00     0.001 A 
HETATM   22  C19 UNL     1       4.239  -3.737 -25.074  1.00  0.00     0.013 A 
HETATM   23  C20 UNL     1       3.493  -4.173 -26.172  1.00  0.00     0.017 A 
HETATM   24  C21 UNL     1       2.063  -4.450 -25.891  1.00  0.00     0.141 C 
ENDROOT
BRANCH  24  25
HETATM   25  O2  UNL     1       2.012  -4.575 -24.487  1.00  0.00    -0.377 OA
ATOM     26  H2  UNL     1       1.112  -4.434 -24.218  1.00  0.00     0.211 HD
ENDBRANCH  24  25
BRANCH  24  27
HETATM   27  C22 UNL     1       1.212  -3.280 -26.190  1.00  0.00    -0.017 A 
HETATM   28  C23 UNL     1      -0.115  -3.134 -25.909  1.00  0.00     0.011 A 
HETATM   29  C24 UNL     1      -0.842  -2.003 -26.224  1.00  0.00     0.001 A 
HETATM   30  C25 UNL     1      -0.222  -0.965 -26.850  1.00  0.00     0.000 A 
HETATM   31  C26 UNL     1       1.108  -1.045 -27.162  1.00  0.00     0.001 A 
HETATM   32  C27 UNL     1       1.796  -2.195 -26.828  1.00  0.00     0.011 A 
ENDBRANCH  24  27
TORSDOF 2
ENDMDL
MODEL 2
REMARK VINA RESULT: -8.091699536      1.101      1.267
REMARK  2 active torsions:
REMARK  status: ('A' for Active; 'I' for Inactive)
REMARK    1  A    between atoms: C21_24  and  O2_25 
REMARK    2  A    between atoms: C21_24  and  C22_27 
ROOT
HETATM    1  C1  UNL     1       3.722  -7.482 -24.452  1.00  0.00     0.018 C 
HETATM    2  C2  UNL     1       2.379  -7.160 -24.830  1.00  0.00    -0.014 C 
HETATM    3  C3  UNL     1       1.787  -8.127 -25.866  1.00  0.00     0.012 C 
HETATM    4  C4  UNL     1       0.530  -7.652 -25.965  1.00  0.00     0.008 C 
HETATM    5  C5  UNL     1       0.572  -6.499 -24.991  1.00  0.00     0.019 C 
HETATM    6  C6  UNL     1       1.243  -7.282 -23.851  1.00  0.00     0.019 C 
HETATM    7  C7  UNL     1       1.899  -5.888 -25.410  1.00  0.00     0.083 C 
HETATM    8  N1  UNL     1       1.979  -5.946 -26.867  1.00  0.00    -0.356 N 
ATOM      9  H1  UNL     1       1.258  -6.553 -27.255  1.00  0.00     0.162 HD
HETATM   10  C8  UNL     1       2.700  -5.447 -27.776  1.00  0.00     0.155 C 
HETATM   11  C9  UNL     1       2.507  -5.717 -29.183  1.00  0.00     0.015 A 
HETATM   12  C10 UNL     1       3.316  -5.162 -30.154  1.00  0.00     0.016 A 
HETATM   13  C11 UNL     1       3.125  -5.419 -31.502  1.00  0.00     0.001 A 
HETATM   14  C12 UNL     1       2.101  -6.252 -31.898  1.00  0.00     0.000 A 
HETATM   15  C13 UNL     1       1.288  -6.813 -30.956  1.00  0.00     0.001 A 
HETATM   16  C14 UNL     1       1.504  -6.537 -29.611  1.00  0.00     0.016 A 
HETATM   17  O1  UNL     1       3.768  -4.573 -27.542  1.00  0.00    -0.293 OA
HETATM   18  C15 UNL     1       4.286  -4.124 -26.349  1.00  0.00     0.087 A 
HETATM   19  C16 UNL     1       5.575  -3.675 -26.510  1.00  0.00     0.038 A 
HETATM   20  C17 UNL     1       6.253  -3.195 -25.438  1.00  0.00     0.003 A 
HETATM   21  C18 UNL     1       5.625  -3.172 -24.211  1.00  0.00     0.001 A 
HETATM   22  C19 UNL     1       4.329  -3.626 -24.065  1.00  0.00     0.013 A 
HETATM   23  C20 UNL     1       3.597  -4.128 -25.145  1.00  0.00     0.017 A 
HETATM   24  C21 UNL     1       2.219  -4.570 -24.819  1.00  0.00     0.141 C 
ENDROOT
BRANCH  24  25
HETATM   25  O2  UNL     1       2.234  -4.720 -23.418  1.00  0.00    -0.377 OA
ATOM     26  H2  UNL     1       1.575  -4.139 -23.058  1.00  0.00     0.211 HD
ENDBRANCH  24  25
BRANCH  24  27
HETATM   27  C22 UNL     1       1.230  -3.500 -25.067  1.00  0.00    -0.017 A 
HETATM   28  C23 UNL     1       0.290  -3.462 -26.054  1.00  0.00     0.011 A 
HETATM   29  C24 UNL     1      -0.603  -2.420 -26.218  1.00  0.00     0.001 A 
HETATM   30  C25 UNL     1      -0.557  -1.363 -25.361  1.00  0.00     0.000 A 
HETATM   31  C26 UNL     1       0.362  -1.337 -24.348  1.00  0.00     0.001 A 
HETATM   32  C27 UNL     1       1.234  -2.400 -24.221  1.00  0.00     0.011 A 
ENDBRANCH  24  27
TORSDOF 2
ENDMDL
MODEL 3
REMARK VINA RESULT: -8.068693261      0.935      1.512
REMARK  2 active torsions:
REMARK  status: ('A' for Active; 'I' for Inactive)
REMARK    1  A    between atoms: C21_24  and  O2_25 
REMARK    2  A    between atoms: C21_24  and  C22_27 
ROOT
HETATM    1  C1  UNL     1       2.800  -7.448 -25.328  1.00  0.00     0.018 C 
HETATM    2  C2  UNL     1       1.743  -6.874 -26.105  1.00  0.00    -0.014 C 
HETATM    3  C3  UNL     1       1.499  -7.601 -27.437  1.00  0.00     0.012 C 
HETATM    4  C4  UNL     1       0.429  -6.925 -27.899  1.00  0.00     0.008 C 
HETATM    5  C5  UNL     1       0.211  -5.923 -26.792  1.00  0.00     0.019 C 
HETATM    6  C6  UNL     1       0.313  -6.936 -25.641  1.00  0.00     0.019 C 
HETATM    7  C7  UNL     1       1.651  -5.482 -26.589  1.00  0.00     0.083 C 
HETATM    8  N1  UNL     1       2.276  -5.371 -27.905  1.00  0.00    -0.356 N 
ATOM      9  H1  UNL     1       1.701  -5.804 -28.627  1.00  0.00     0.162 HD
HETATM   10  C8  UNL     1       3.335  -4.882 -28.390  1.00  0.00     0.155 C 
HETATM   11  C9  UNL     1       3.669  -4.943 -29.795  1.00  0.00     0.015 A 
HETATM   12  C10 UNL     1       4.838  -4.406 -30.294  1.00  0.00     0.016 A 
HETATM   13  C11 UNL     1       5.152  -4.462 -31.643  1.00  0.00     0.001 A 
HETATM   14  C12 UNL     1       4.280  -5.068 -32.521  1.00  0.00     0.000 A 
HETATM   15  C13 UNL     1       3.117  -5.606 -32.050  1.00  0.00     0.001 A 
HETATM   16  C14 UNL     1       2.829  -5.536 -30.693  1.00  0.00     0.016 A 
HETATM   17  O1  UNL     1       4.313  -4.223 -27.636  1.00  0.00    -0.293 OA
HETATM   18  C15 UNL     1       4.378  -4.012 -26.278  1.00  0.00     0.087 A 
HETATM   19  C16 UNL     1       5.668  -3.755 -25.881  1.00  0.00     0.038 A 
HETATM   20  C17 UNL     1       5.929  -3.524 -24.571  1.00  0.00     0.003 A 
HETATM   21  C18 UNL     1       4.885  -3.554 -23.670  1.00  0.00     0.001 A 
HETATM   22  C19 UNL     1       3.593  -3.813 -24.085  1.00  0.00     0.013 A 
HETATM   23  C20 UNL     1       3.284  -4.057 -25.426  1.00  0.00     0.017 A 
HETATM   24  C21 UNL     1       1.850  -4.313 -25.703  1.00  0.00     0.141 C 
ENDROOT
BRANCH  24  25
HETATM   25  O2  UNL     1       1.313  -4.636 -24.441  1.00  0.00    -0.377 OA
ATOM     26  H2  UNL     1       1.909  -5.245 -24.021  1.00  0.00     0.211 HD
ENDBRANCH  24  25
BRANCH  24  27
HETATM   27  C22 UNL     1       1.142  -3.079 -26.103  1.00  0.00    -0.017 A 
HETATM   28  C23 UNL     1       1.679  -1.983 -26.712  1.00  0.00     0.011 A 
HETATM   29  C24 UNL     1       0.945  -0.864 -27.054  1.00  0.00     0.001 A 
HETATM   30  C25 UNL     1      -0.388  -0.831 -26.777  1.00  0.00     0.000 A 
HETATM   31  C26 UNL     1      -0.990  -1.897 -26.166  1.00  0.00     0.001 A 
HETATM   32  C27 UNL     1      -0.218  -2.995 -25.842  1.00  0.00     0.011 A 
ENDBRANCH  24  27
TORSDOF 2
ENDMDL
MODEL 4
REMARK VINA RESULT: -7.635722532      1.748      2.306
REMARK  2 active torsions:
REMARK  status: ('A' for Active; 'I' for Inactive)
REMARK    1  A    between atoms: C21_24  and  O2_25 
REMARK    2  A    between atoms: C21_24  and  C22_27 
ROOT
HETATM    1  C1  UNL     1       5.180  -6.169 -23.789  1.00  0.00     0.018 C 
HETATM    2  C2  UNL     1       3.749  -6.187 -23.843  1.00  0.00    -0.014 C 
HETATM    3  C3  UNL     1       3.176  -7.492 -24.418  1.00  0.00     0.012 C 
HETATM    4  C4  UNL     1       1.855  -7.273 -24.271  1.00  0.00     0.008 C 
HETATM    5  C5  UNL     1       1.851  -5.899 -23.644  1.00  0.00     0.019 C 
HETATM    6  C6  UNL     1       2.923  -6.206 -22.586  1.00  0.00     0.019 C 
HETATM    7  C7  UNL     1       2.873  -5.228 -24.547  1.00  0.00     0.083 C 
HETATM    8  N1  UNL     1       2.634  -5.685 -25.913  1.00  0.00    -0.356 N 
ATOM      9  H1  UNL     1       2.003  -6.485 -25.933  1.00  0.00     0.162 HD
HETATM   10  C8  UNL     1       2.997  -5.356 -27.078  1.00  0.00     0.155 C 
HETATM   11  C9  UNL     1       2.559  -6.044 -28.272  1.00  0.00     0.015 A 
HETATM   12  C10 UNL     1       2.979  -5.665 -29.531  1.00  0.00     0.016 A 
HETATM   13  C11 UNL     1       2.552  -6.323 -30.673  1.00  0.00     0.001 A 
HETATM   14  C12 UNL     1       1.685  -7.388 -30.563  1.00  0.00     0.000 A 
HETATM   15  C13 UNL     1       1.256  -7.780 -29.328  1.00  0.00     0.001 A 
HETATM   16  C14 UNL     1       1.700  -7.102 -28.200  1.00  0.00     0.016 A 
HETATM   17  O1  UNL     1       3.861  -4.292 -27.360  1.00  0.00    -0.293 OA
HETATM   18  C15 UNL     1       4.518  -3.445 -26.498  1.00  0.00     0.087 A 
HETATM   19  C16 UNL     1       5.599  -2.860 -27.111  1.00  0.00     0.038 A 
HETATM   20  C17 UNL     1       6.373  -1.992 -26.414  1.00  0.00     0.003 A 
HETATM   21  C18 UNL     1       6.050  -1.721 -25.101  1.00  0.00     0.001 A 
HETATM   22  C19 UNL     1       4.959  -2.317 -24.499  1.00  0.00     0.013 A 
HETATM   23  C20 UNL     1       4.137  -3.217 -25.184  1.00  0.00     0.017 A 
HETATM   24  C21 UNL     1       3.007  -3.762 -24.394  1.00  0.00     0.141 C 
ENDROOT
BRANCH  24  25
HETATM   25  O2  UNL     1       3.372  -3.503 -23.057  1.00  0.00    -0.377 OA
ATOM     26  H2  UNL     1       3.196  -4.289 -22.552  1.00  0.00     0.211 HD
ENDBRANCH  24  25
BRANCH  24  27
HETATM   27  C22 UNL     1       1.770  -2.981 -24.599  1.00  0.00    -0.017 A 
HETATM   28  C23 UNL     1       0.867  -3.121 -25.611  1.00  0.00     0.011 A 
HETATM   29  C24 UNL     1      -0.270  -2.347 -25.732  1.00  0.00     0.001 A 
HETATM   30  C25 UNL     1      -0.523  -1.385 -24.802  1.00  0.00     0.000 A 
HETATM   31  C26 UNL     1       0.342  -1.192 -23.760  1.00  0.00     0.001 A 
HETATM   32  C27 UNL     1       1.466  -1.989 -23.678  1.00  0.00     0.011 A 
ENDBRANCH  24  27
TORSDOF 2
ENDMDL
MODEL 5
REMARK VINA RESULT: -7.515396674      3.105      5.932
REMARK  2 active torsions:
REMARK  status: ('A' for Active; 'I' for Inactive)
REMARK    1  A    between atoms: C21_24  and  O2_25 
REMARK    2  A    between atoms: C21_24  and  C22_27 
ROOT
HETATM    1  C1  UNL     1       0.789  -6.719 -23.433  1.00  0.00     0.018 C 
HETATM    2  C2  UNL     1       1.494  -6.998 -24.648  1.00  0.00    -0.014 C 
HETATM    3  C3  UNL     1       1.759  -8.495 -24.871  1.00  0.00     0.012 C 
HETATM    4  C4  UNL     1       2.335  -8.469 -26.089  1.00  0.00     0.008 C 
HETATM    5  C5  UNL     1       2.324  -6.990 -26.391  1.00  0.00     0.019 C 
HETATM    6  C6  UNL     1       0.858  -6.760 -25.991  1.00  0.00     0.019 C 
HETATM    7  C7  UNL     1       2.816  -6.474 -25.049  1.00  0.00     0.083 C 
HETATM    8  N1  UNL     1       3.869  -7.372 -24.582  1.00  0.00    -0.356 N 
ATOM      9  H1  UNL     1       3.892  -8.234 -25.127  1.00  0.00     0.162 HD
HETATM   10  C8  UNL     1       4.758  -7.371 -23.685  1.00  0.00     0.155 C 
HETATM   11  C9  UNL     1       5.681  -8.464 -23.477  1.00  0.00     0.015 A 
HETATM   12  C10 UNL     1       6.638  -8.437 -22.484  1.00  0.00     0.016 A 
HETATM   13  C11 UNL     1       7.525  -9.484 -22.291  1.00  0.00     0.001 A 
HETATM   14  C12 UNL     1       7.459 -10.591 -23.109  1.00  0.00     0.000 A 
HETATM   15  C13 UNL     1       6.521 -10.641 -24.099  1.00  0.00     0.001 A 
HETATM   16  C14 UNL     1       5.645  -9.576 -24.268  1.00  0.00     0.016 A 
HETATM   17  O1  UNL     1       4.965  -6.320 -22.785  1.00  0.00    -0.293 OA
HETATM   18  C15 UNL     1       4.265  -5.144 -22.635  1.00  0.00     0.087 A 
HETATM   19  C16 UNL     1       4.466  -4.607 -21.387  1.00  0.00     0.038 A 
HETATM   20  C17 UNL     1       3.852  -3.445 -21.054  1.00  0.00     0.003 A 
HETATM   21  C18 UNL     1       3.039  -2.832 -21.985  1.00  0.00     0.001 A 
HETATM   22  C19 UNL     1       2.848  -3.385 -23.237  1.00  0.00     0.013 A 
HETATM   23  C20 UNL     1       3.462  -4.582 -23.617  1.00  0.00     0.017 A 
HETATM   24  C21 UNL     1       3.156  -5.035 -24.995  1.00  0.00     0.141 C 
ENDROOT
BRANCH  24  25
HETATM   25  O2  UNL     1       1.998  -4.308 -25.341  1.00  0.00    -0.377 OA
ATOM     26  H2  UNL     1       2.267  -3.424 -25.561  1.00  0.00     0.211 HD
ENDBRANCH  24  25
BRANCH  24  27
HETATM   27  C22 UNL     1       4.180  -4.582 -25.959  1.00  0.00    -0.017 A 
HETATM   28  C23 UNL     1       5.493  -4.319 -25.702  1.00  0.00     0.011 A 
HETATM   29  C24 UNL     1       6.390  -3.897 -26.665  1.00  0.00     0.001 A 
HETATM   30  C25 UNL     1       5.961  -3.727 -27.946  1.00  0.00     0.000 A 
HETATM   31  C26 UNL     1       4.655  -3.972 -28.272  1.00  0.00     0.001 A 
HETATM   32  C27 UNL     1       3.794  -4.393 -27.279  1.00  0.00     0.011 A 
ENDBRANCH  24  27
TORSDOF 2
ENDMDL
