MODEL 1
REMARK VINA RESULT: -6.708245749      0.000      0.000
REMARK  8 active torsions:
REMARK  status: ('A' for Active; 'I' for Inactive)
REMARK    1  A    between atoms: S1_2  and  C2_3 
REMARK    2  A    between atoms: C2_3  and  N1_4 
REMARK    3  A    between atoms: C2_3  and  O6_21 
REMARK       I    between atoms: N1_4  and  C3_6 
REMARK    4  A    between atoms: C3_6  and  O2_8 
REMARK    5  A    between atoms: O2_8  and  C4_9 
REMARK    6  A    between atoms: C7_14  and  O5_15 
REMARK    7  A    between atoms: C7_14  and  C8_17 
REMARK    8  A    between atoms: O6_21  and  C12_22 
ROOT
HETATM    1  O2  UNL     1     -21.153   3.683  15.640  1.00  0.00    -0.268 OA
ENDROOT
BRANCH   1   2
HETATM    2  C3  UNL     1     -20.422   2.548  15.378  1.00  0.00     0.369 C 
HETATM    3  N1  UNL     1     -20.959   1.231  15.429  1.00  0.00    -0.277 N 
ATOM      4  H1  UNL     1     -21.943   1.119  15.674  1.00  0.00     0.173 HD
HETATM    5  O1  UNL     1     -19.208   2.670  15.078  1.00  0.00    -0.238 OA
BRANCH   3   6
HETATM    6  C2  UNL     1     -20.203   0.075  15.160  1.00  0.00     0.186 C 
BRANCH   6   7
HETATM    7  S1  UNL     1     -20.395  -1.237  16.073  1.00  0.00    -0.091 SA
HETATM    8  C1  UNL     1     -22.010  -1.570  16.855  1.00  0.00     0.099 C 
ENDBRANCH   6   7
BRANCH   6   9
HETATM    9  O6  UNL     1     -19.313   0.075  14.124  1.00  0.00    -0.320 OA
BRANCH   9  10
HETATM   10  C12 UNL     1     -19.351  -0.662  12.945  1.00  0.00     0.059 C 
HETATM   11  C13 UNL     1     -18.640   0.181  11.885  1.00  0.00     0.045 C 
HETATM   12  C14 UNL     1     -20.742  -0.930  12.430  1.00  0.00     0.045 C 
HETATM   13  C15 UNL     1     -18.623  -1.992  13.076  1.00  0.00     0.045 C 
ENDBRANCH   9  10
ENDBRANCH   6   9
ENDBRANCH   3   6
ENDBRANCH   1   2
BRANCH   1  14
HETATM   14  C4  UNL     1     -21.923   3.864  16.816  1.00  0.00     0.316 C 
HETATM   15  O3  UNL     1     -21.078   3.522  17.912  1.00  0.00    -0.286 OA
HETATM   16  C5  UNL     1     -20.414   4.674  18.292  1.00  0.00     0.264 C 
HETATM   17  O4  UNL     1     -19.209   4.813  18.683  1.00  0.00    -0.265 OA
HETATM   18  C6  UNL     1     -21.397   5.780  18.163  1.00  0.00     0.154 C 
HETATM   19  C7  UNL     1     -22.303   5.287  17.055  1.00  0.00     0.123 C 
BRANCH  19  20
HETATM   20  O5  UNL     1     -22.116   6.103  15.949  1.00  0.00    -0.384 OA
ATOM     21  H5  UNL     1     -22.722   6.834  15.910  1.00  0.00     0.210 HD
ENDBRANCH  19  20
BRANCH  19  22
HETATM   22  C8  UNL     1     -23.762   5.417  17.471  1.00  0.00    -0.015 C 
HETATM   23  C9  UNL     1     -24.205   6.858  17.454  1.00  0.00     0.018 C 
HETATM   24  C10 UNL     1     -24.044   4.838  18.821  1.00  0.00     0.018 C 
HETATM   25  C11 UNL     1     -24.631   4.675  16.464  1.00  0.00     0.018 C 
ENDBRANCH  19  22
ENDBRANCH   1  14
TORSDOF 8
ENDMDL
MODEL 2
REMARK VINA RESULT: -6.672592852      2.226      7.268
REMARK  8 active torsions:
REMARK  status: ('A' for Active; 'I' for Inactive)
REMARK    1  A    between atoms: S1_2  and  C2_3 
REMARK    2  A    between atoms: C2_3  and  N1_4 
REMARK    3  A    between atoms: C2_3  and  O6_21 
REMARK       I    between atoms: N1_4  and  C3_6 
REMARK    4  A    between atoms: C3_6  and  O2_8 
REMARK    5  A    between atoms: O2_8  and  C4_9 
REMARK    6  A    between atoms: C7_14  and  O5_15 
REMARK    7  A    between atoms: C7_14  and  C8_17 
REMARK    8  A    between atoms: O6_21  and  C12_22 
ROOT
HETATM    1  O2  UNL     1     -21.279   0.824  15.367  1.00  0.00    -0.268 OA
ENDROOT
BRANCH   1   2
HETATM    2  C3  UNL     1     -21.467   2.155  15.657  1.00  0.00     0.369 C 
HETATM    3  N1  UNL     1     -22.665   2.681  16.217  1.00  0.00    -0.277 N 
ATOM      4  H1  UNL     1     -23.430   2.036  16.415  1.00  0.00     0.173 HD
HETATM    5  O1  UNL     1     -20.534   2.961  15.416  1.00  0.00    -0.238 OA
BRANCH   3   6
HETATM    6  C2  UNL     1     -22.850   4.045  16.512  1.00  0.00     0.186 C 
BRANCH   6   7
HETATM    7  S1  UNL     1     -24.275   4.738  16.229  1.00  0.00    -0.091 SA
HETATM    8  C1  UNL     1     -24.861   6.080  17.318  1.00  0.00     0.099 C 
ENDBRANCH   6   7
BRANCH   6   9
HETATM    9  O6  UNL     1     -21.816   4.769  17.035  1.00  0.00    -0.320 OA
BRANCH   9  10
HETATM   10  C12 UNL     1     -21.523   5.024  18.370  1.00  0.00     0.059 C 
HETATM   11  C13 UNL     1     -20.052   4.654  18.568  1.00  0.00     0.045 C 
HETATM   12  C14 UNL     1     -22.317   4.192  19.346  1.00  0.00     0.045 C 
HETATM   13  C15 UNL     1     -21.706   6.491  18.729  1.00  0.00     0.045 C 
ENDBRANCH   9  10
ENDBRANCH   6   9
ENDBRANCH   3   6
ENDBRANCH   1   2
BRANCH   1  14
HETATM   14  C4  UNL     1     -20.018   0.265  15.040  1.00  0.00     0.316 C 
HETATM   15  O3  UNL     1     -19.749  -0.734  16.022  1.00  0.00    -0.286 OA
HETATM   16  C5  UNL     1     -20.281  -1.921  15.554  1.00  0.00     0.264 C 
HETATM   17  O4  UNL     1     -20.873  -2.845  16.202  1.00  0.00    -0.265 OA
HETATM   18  C6  UNL     1     -20.030  -1.939  14.090  1.00  0.00     0.154 C 
HETATM   19  C7  UNL     1     -20.020  -0.466  13.740  1.00  0.00     0.123 C 
BRANCH  19  20
HETATM   20  O5  UNL     1     -21.133  -0.200  12.957  1.00  0.00    -0.384 OA
ATOM     21  H5  UNL     1     -20.999  -0.379  12.034  1.00  0.00     0.210 HD
ENDBRANCH  19  20
BRANCH  19  22
HETATM   22  C8  UNL     1     -18.790  -0.133  12.906  1.00  0.00    -0.015 C 
HETATM   23  C9  UNL     1     -19.171   0.203  11.486  1.00  0.00     0.018 C 
HETATM   24  C10 UNL     1     -17.772  -1.228  12.890  1.00  0.00     0.018 C 
HETATM   25  C11 UNL     1     -18.120   1.106  13.487  1.00  0.00     0.018 C 
ENDBRANCH  19  22
ENDBRANCH   1  14
TORSDOF 8
ENDMDL
MODEL 3
REMARK VINA RESULT: -6.576212015      1.935      7.448
REMARK  8 active torsions:
REMARK  status: ('A' for Active; 'I' for Inactive)
REMARK    1  A    between atoms: S1_2  and  C2_3 
REMARK    2  A    between atoms: C2_3  and  N1_4 
REMARK    3  A    between atoms: C2_3  and  O6_21 
REMARK       I    between atoms: N1_4  and  C3_6 
REMARK    4  A    between atoms: C3_6  and  O2_8 
REMARK    5  A    between atoms: O2_8  and  C4_9 
REMARK    6  A    between atoms: C7_14  and  O5_15 
REMARK    7  A    between atoms: C7_14  and  C8_17 
REMARK    8  A    between atoms: O6_21  and  C12_22 
ROOT
HETATM    1  O2  UNL     1     -20.812   1.148  14.670  1.00  0.00    -0.268 OA
ENDROOT
BRANCH   1   2
HETATM    2  C3  UNL     1     -20.703   2.356  15.318  1.00  0.00     0.369 C 
HETATM    3  N1  UNL     1     -21.728   2.911  16.134  1.00  0.00    -0.277 N 
ATOM      4  H1  UNL     1     -22.595   2.385  16.247  1.00  0.00     0.173 HD
HETATM    5  O1  UNL     1     -19.643   3.016  15.186  1.00  0.00    -0.238 OA
BRANCH   3   6
HETATM    6  C2  UNL     1     -21.608   4.149  16.794  1.00  0.00     0.186 C 
BRANCH   6   7
HETATM    7  S1  UNL     1     -20.400   4.389  17.830  1.00  0.00    -0.091 SA
HETATM    8  C1  UNL     1     -20.477   5.783  19.005  1.00  0.00     0.099 C 
ENDBRANCH   6   7
BRANCH   6   9
HETATM    9  O6  UNL     1     -22.520   5.136  16.549  1.00  0.00    -0.320 OA
BRANCH   9  10
HETATM   10  C12 UNL     1     -23.749   5.355  17.162  1.00  0.00     0.059 C 
HETATM   11  C13 UNL     1     -23.905   6.871  17.290  1.00  0.00     0.045 C 
HETATM   12  C14 UNL     1     -23.854   4.787  18.554  1.00  0.00     0.045 C 
HETATM   13  C15 UNL     1     -24.907   4.817  16.334  1.00  0.00     0.045 C 
ENDBRANCH   9  10
ENDBRANCH   6   9
ENDBRANCH   3   6
ENDBRANCH   1   2
BRANCH   1  14
HETATM   14  C4  UNL     1     -19.756   0.206  14.587  1.00  0.00     0.316 C 
HETATM   15  O3  UNL     1     -19.630  -0.379  15.882  1.00  0.00    -0.286 OA
HETATM   16  C5  UNL     1     -20.468  -1.478  15.918  1.00  0.00     0.264 C 
HETATM   17  O4  UNL     1     -21.191  -1.903  16.878  1.00  0.00    -0.265 OA
HETATM   18  C6  UNL     1     -20.377  -2.112  14.578  1.00  0.00     0.154 C 
HETATM   19  C7  UNL     1     -20.059  -0.937  13.678  1.00  0.00     0.123 C 
BRANCH  19  20
HETATM   20  O5  UNL     1     -21.153  -0.715  12.855  1.00  0.00    -0.384 OA
ATOM     21  H5  UNL     1     -21.853  -1.345  12.977  1.00  0.00     0.210 HD
ENDBRANCH  19  20
BRANCH  19  22
HETATM   22  C8  UNL     1     -18.876  -1.269  12.779  1.00  0.00    -0.015 C 
HETATM   23  C9  UNL     1     -18.199  -2.543  13.219  1.00  0.00     0.018 C 
HETATM   24  C10 UNL     1     -17.858  -0.175  12.714  1.00  0.00     0.018 C 
HETATM   25  C11 UNL     1     -19.384  -1.506  11.362  1.00  0.00     0.018 C 
ENDBRANCH  19  22
ENDBRANCH   1  14
TORSDOF 8
ENDMDL
MODEL 4
REMARK VINA RESULT: -6.492415158      5.013      7.569
REMARK  8 active torsions:
REMARK  status: ('A' for Active; 'I' for Inactive)
REMARK    1  A    between atoms: S1_2  and  C2_3 
REMARK    2  A    between atoms: C2_3  and  N1_4 
REMARK    3  A    between atoms: C2_3  and  O6_21 
REMARK       I    between atoms: N1_4  and  C3_6 
REMARK    4  A    between atoms: C3_6  and  O2_8 
REMARK    5  A    between atoms: O2_8  and  C4_9 
REMARK    6  A    between atoms: C7_14  and  O5_15 
REMARK    7  A    between atoms: C7_14  and  C8_17 
REMARK    8  A    between atoms: O6_21  and  C12_22 
ROOT
HETATM    1  O2  UNL     1     -18.840   0.408  11.369  1.00  0.00    -0.268 OA
ENDROOT
BRANCH   1   2
HETATM    2  C3  UNL     1     -18.694  -0.124  10.109  1.00  0.00     0.369 C 
HETATM    3  N1  UNL     1     -17.857  -1.236   9.811  1.00  0.00    -0.277 N 
ATOM      4  H1  UNL     1     -17.334  -1.665  10.575  1.00  0.00     0.173 HD
HETATM    5  O1  UNL     1     -19.330   0.396   9.159  1.00  0.00    -0.238 OA
BRANCH   3   6
HETATM    6  C2  UNL     1     -17.713  -1.774   8.519  1.00  0.00     0.186 C 
BRANCH   6   7
HETATM    7  S1  UNL     1     -16.564  -1.213   7.542  1.00  0.00    -0.091 SA
HETATM    8  C1  UNL     1     -16.792   0.389   6.699  1.00  0.00     0.099 C 
ENDBRANCH   6   7
BRANCH   6   9
HETATM    9  O6  UNL     1     -18.552  -2.770   8.105  1.00  0.00    -0.320 OA
BRANCH   9  10
HETATM   10  C12 UNL     1     -18.533  -4.118   8.444  1.00  0.00     0.059 C 
HETATM   11  C13 UNL     1     -19.161  -4.869   7.268  1.00  0.00     0.045 C 
HETATM   12  C14 UNL     1     -19.349  -4.459   9.664  1.00  0.00     0.045 C 
HETATM   13  C15 UNL     1     -17.118  -4.639   8.651  1.00  0.00     0.045 C 
ENDBRANCH   9  10
ENDBRANCH   6   9
ENDBRANCH   3   6
ENDBRANCH   1   2
BRANCH   1  14
HETATM   14  C4  UNL     1     -18.609  -0.325  12.560  1.00  0.00     0.316 C 
HETATM   15  O3  UNL     1     -18.024   0.584  13.490  1.00  0.00    -0.286 OA
HETATM   16  C5  UNL     1     -19.060   1.184  14.183  1.00  0.00     0.264 C 
HETATM   17  O4  UNL     1     -19.168   2.391  14.575  1.00  0.00    -0.265 OA
HETATM   18  C6  UNL     1     -20.077   0.124  14.404  1.00  0.00     0.154 C 
HETATM   19  C7  UNL     1     -19.865  -0.790  13.216  1.00  0.00     0.123 C 
BRANCH  19  20
HETATM   20  O5  UNL     1     -20.982  -0.702  12.399  1.00  0.00    -0.384 OA
ATOM     21  H5  UNL     1     -21.210  -1.523  11.979  1.00  0.00     0.210 HD
ENDBRANCH  19  20
BRANCH  19  22
HETATM   22  C8  UNL     1     -19.756  -2.237  13.679  1.00  0.00    -0.015 C 
HETATM   23  C9  UNL     1     -20.226  -2.388  15.104  1.00  0.00     0.018 C 
HETATM   24  C10 UNL     1     -18.373  -2.791  13.562  1.00  0.00     0.018 C 
HETATM   25  C11 UNL     1     -20.670  -3.101  12.819  1.00  0.00     0.018 C 
ENDBRANCH  19  22
ENDBRANCH   1  14
TORSDOF 8
ENDMDL
MODEL 5
REMARK VINA RESULT: -6.185499216      1.165      2.338
REMARK  8 active torsions:
REMARK  status: ('A' for Active; 'I' for Inactive)
REMARK    1  A    between atoms: S1_2  and  C2_3 
REMARK    2  A    between atoms: C2_3  and  N1_4 
REMARK    3  A    between atoms: C2_3  and  O6_21 
REMARK       I    between atoms: N1_4  and  C3_6 
REMARK    4  A    between atoms: C3_6  and  O2_8 
REMARK    5  A    between atoms: O2_8  and  C4_9 
REMARK    6  A    between atoms: C7_14  and  O5_15 
REMARK    7  A    between atoms: C7_14  and  C8_17 
REMARK    8  A    between atoms: O6_21  and  C12_22 
ROOT
HETATM    1  O2  UNL     1     -21.023   3.958  15.417  1.00  0.00    -0.268 OA
ENDROOT
BRANCH   1   2
HETATM    2  C3  UNL     1     -20.115   2.975  15.100  1.00  0.00     0.369 C 
HETATM    3  N1  UNL     1     -20.471   1.622  14.844  1.00  0.00    -0.277 N 
ATOM      4  H1  UNL     1     -21.456   1.362  14.899  1.00  0.00     0.173 HD
HETATM    5  O1  UNL     1     -18.898   3.280  15.031  1.00  0.00    -0.238 OA
BRANCH   3   6
HETATM    6  C2  UNL     1     -19.536   0.622  14.520  1.00  0.00     0.186 C 
BRANCH   6   7
HETATM    7  S1  UNL     1     -18.361   0.937  13.466  1.00  0.00    -0.091 SA
HETATM    8  C1  UNL     1     -18.381   0.147  11.822  1.00  0.00     0.099 C 
ENDBRANCH   6   7
BRANCH   6   9
HETATM    9  O6  UNL     1     -19.633  -0.610  15.103  1.00  0.00    -0.320 OA
BRANCH   9  10
HETATM   10  C12 UNL     1     -20.080  -1.802  14.545  1.00  0.00     0.059 C 
HETATM   11  C13 UNL     1     -20.825  -2.547  15.654  1.00  0.00     0.045 C 
HETATM   12  C14 UNL     1     -18.977  -2.714  14.072  1.00  0.00     0.045 C 
HETATM   13  C15 UNL     1     -21.041  -1.570  13.388  1.00  0.00     0.045 C 
ENDBRANCH   9  10
ENDBRANCH   6   9
ENDBRANCH   3   6
ENDBRANCH   1   2
BRANCH   1  14
HETATM   14  C4  UNL     1     -21.814   3.944  16.593  1.00  0.00     0.316 C 
HETATM   15  O3  UNL     1     -20.968   3.486  17.646  1.00  0.00    -0.286 OA
HETATM   16  C5  UNL     1     -20.358   4.598  18.195  1.00  0.00     0.264 C 
HETATM   17  O4  UNL     1     -19.165   4.729  18.623  1.00  0.00    -0.265 OA
HETATM   18  C6  UNL     1     -21.385   5.672  18.202  1.00  0.00     0.154 C 
HETATM   19  C7  UNL     1     -22.255   5.303  17.020  1.00  0.00     0.123 C 
BRANCH  19  20
HETATM   20  O5  UNL     1     -22.089   6.272  16.042  1.00  0.00    -0.384 OA
ATOM     21  H5  UNL     1     -21.307   6.799  16.159  1.00  0.00     0.210 HD
ENDBRANCH  19  20
BRANCH  19  22
HETATM   22  C8  UNL     1     -23.723   5.316  17.425  1.00  0.00    -0.015 C 
HETATM   23  C9  UNL     1     -23.914   4.718  18.796  1.00  0.00     0.018 C 
HETATM   24  C10 UNL     1     -24.609   4.601  16.455  1.00  0.00     0.018 C 
HETATM   25  C11 UNL     1     -24.202   6.761  17.502  1.00  0.00     0.018 C 
ENDBRANCH  19  22
ENDBRANCH   1  14
TORSDOF 8
ENDMDL
