MODEL 1
REMARK VINA RESULT: -8.228873229      0.000      0.000
REMARK  6 active torsions:
REMARK  status: ('A' for Active; 'I' for Inactive)
REMARK    1  A    between atoms: C6_7  and  O2_9 
REMARK    2  A    between atoms: O2_9  and  C8_10 
REMARK    3  A    between atoms: C8_10  and  O4_12 
REMARK    4  A    between atoms: O4_12  and  C9_13 
REMARK    5  A    between atoms: C9_13  and  N2_17 
REMARK       I    between atoms: N2_17  and  C10_19 
REMARK    6  A    between atoms: C10_19  and  C11_21 
ROOT
HETATM    1  C8  UNL     1     -18.545   1.653  14.227  1.00  0.00     0.415 C 
HETATM    2  O3  UNL     1     -17.491   1.967  13.671  1.00  0.00    -0.229 OA
ENDROOT
BRANCH   1   3
HETATM    3  O2  UNL     1     -18.794   0.297  14.332  1.00  0.00    -0.271 OA
BRANCH   3   4
HETATM    4  C6  UNL     1     -19.208  -0.551  13.316  1.00  0.00     0.189 C 
HETATM    5  C5  UNL     1     -20.040  -1.622  13.995  1.00  0.00     0.170 C 
HETATM    6  C4  UNL     1     -20.505  -2.733  13.171  1.00  0.00     0.091 C 
HETATM    7  O1  UNL     1     -20.322  -1.582  15.175  1.00  0.00    -0.294 OA
HETATM    8  C2  UNL     1     -19.533  -3.354  12.249  1.00  0.00    -0.035 C 
HETATM    9  C1  UNL     1     -20.294  -3.798  10.997  1.00  0.00     0.015 C 
HETATM   10  C3  UNL     1     -19.004  -4.649  12.873  1.00  0.00     0.015 C 
HETATM   11  C16 UNL     1     -18.359  -2.531  11.843  1.00  0.00     0.091 C 
HETATM   12  C15 UNL     1     -18.108  -1.355  12.696  1.00  0.00     0.170 C 
HETATM   13  O6  UNL     1     -16.970  -1.010  12.917  1.00  0.00    -0.294 OA
HETATM   14  C7  UNL     1     -20.070   0.081  12.273  1.00  0.00     0.064 C 
ENDBRANCH   3   4
ENDBRANCH   1   3
BRANCH   1  15
HETATM   15  O4  UNL     1     -19.381   2.621  14.695  1.00  0.00    -0.222 OA
BRANCH  15  16
HETATM   16  C9  UNL     1     -20.461   2.433  15.542  1.00  0.00     0.229 C 
HETATM   17  N1  UNL     1     -21.157   1.410  15.508  1.00  0.00    -0.365 N 
ATOM     18  H12 UNL     1     -20.937   0.673  14.838  1.00  0.00     0.159 HD
ATOM     19  H11 UNL     1     -21.952   1.271  16.132  1.00  0.00     0.159 HD
BRANCH  16  20
HETATM   20  N2  UNL     1     -20.775   3.485  16.500  1.00  0.00    -0.292 N 
HETATM   21  C10 UNL     1     -22.082   4.012  16.578  1.00  0.00     0.232 C 
HETATM   22  O5  UNL     1     -22.973   3.575  15.823  1.00  0.00    -0.272 OA
ATOM     23  H2  UNL     1     -20.046   3.843  17.117  1.00  0.00     0.172 HD
BRANCH  21  24
HETATM   24  C11 UNL     1     -22.412   5.076  17.544  1.00  0.00     0.030 C 
HETATM   25  C12 UNL     1     -23.572   4.674  18.440  1.00  0.00     0.025 C 
HETATM   26  C13 UNL     1     -22.790   6.370  16.879  1.00  0.00     0.025 C 
HETATM   27  C14 UNL     1     -21.230   5.356  18.446  1.00  0.00     0.025 C 
ENDBRANCH  21  24
ENDBRANCH  16  20
ENDBRANCH  15  16
ENDBRANCH   1  15
TORSDOF 6
ENDMDL
MODEL 2
REMARK VINA RESULT: -8.190893124      1.653      2.212
REMARK  6 active torsions:
REMARK  status: ('A' for Active; 'I' for Inactive)
REMARK    1  A    between atoms: C6_7  and  O2_9 
REMARK    2  A    between atoms: O2_9  and  C8_10 
REMARK    3  A    between atoms: C8_10  and  O4_12 
REMARK    4  A    between atoms: O4_12  and  C9_13 
REMARK    5  A    between atoms: C9_13  and  N2_17 
REMARK       I    between atoms: N2_17  and  C10_19 
REMARK    6  A    between atoms: C10_19  and  C11_21 
ROOT
HETATM    1  C8  UNL     1     -20.394   0.976  15.142  1.00  0.00     0.415 C 
HETATM    2  O3  UNL     1     -19.362   0.773  15.783  1.00  0.00    -0.229 OA
ENDROOT
BRANCH   1   3
HETATM    3  O2  UNL     1     -20.733   0.006  14.217  1.00  0.00    -0.271 OA
BRANCH   3   4
HETATM    4  C6  UNL     1     -19.860  -0.762  13.462  1.00  0.00     0.189 C 
HETATM    5  C5  UNL     1     -20.583  -1.034  12.157  1.00  0.00     0.170 C 
HETATM    6  C4  UNL     1     -19.939  -1.940  11.210  1.00  0.00     0.091 C 
HETATM    7  O1  UNL     1     -21.655  -0.533  11.884  1.00  0.00    -0.294 OA
HETATM    8  C2  UNL     1     -19.365  -3.191  11.743  1.00  0.00    -0.035 C 
HETATM    9  C1  UNL     1     -18.115  -3.519  10.922  1.00  0.00     0.015 C 
HETATM   10  C3  UNL     1     -20.335  -4.345  11.470  1.00  0.00     0.015 C 
HETATM   11  C16 UNL     1     -19.020  -3.218  13.193  1.00  0.00     0.091 C 
HETATM   12  C15 UNL     1     -19.639  -2.144  13.991  1.00  0.00     0.170 C 
HETATM   13  O6  UNL     1     -19.989  -2.372  15.127  1.00  0.00    -0.294 OA
HETATM   14  C7  UNL     1     -18.566  -0.100  13.120  1.00  0.00     0.064 C 
ENDBRANCH   3   4
ENDBRANCH   1   3
BRANCH   1  15
HETATM   15  O4  UNL     1     -21.124   2.103  15.368  1.00  0.00    -0.222 OA
BRANCH  15  16
HETATM   16  C9  UNL     1     -20.636   3.322  15.809  1.00  0.00     0.229 C 
HETATM   17  N1  UNL     1     -19.702   3.904  15.242  1.00  0.00    -0.365 N 
ATOM     18  H12 UNL     1     -19.270   3.480  14.421  1.00  0.00     0.159 HD
ATOM     19  H11 UNL     1     -19.343   4.802  15.566  1.00  0.00     0.159 HD
BRANCH  16  20
HETATM   20  N2  UNL     1     -21.254   3.928  16.982  1.00  0.00    -0.292 N 
HETATM   21  C10 UNL     1     -22.162   4.999  16.838  1.00  0.00     0.232 C 
HETATM   22  O5  UNL     1     -22.436   5.431  15.701  1.00  0.00    -0.272 OA
ATOM     23  H2  UNL     1     -21.030   3.575  17.912  1.00  0.00     0.172 HD
BRANCH  21  24
HETATM   24  C11 UNL     1     -22.794   5.618  18.017  1.00  0.00     0.030 C 
HETATM   25  C12 UNL     1     -21.757   6.209  18.958  1.00  0.00     0.025 C 
HETATM   26  C13 UNL     1     -23.618   4.647  18.814  1.00  0.00     0.025 C 
HETATM   27  C14 UNL     1     -23.706   6.749  17.594  1.00  0.00     0.025 C 
ENDBRANCH  21  24
ENDBRANCH  16  20
ENDBRANCH  15  16
ENDBRANCH   1  15
TORSDOF 6
ENDMDL
MODEL 3
REMARK VINA RESULT: -8.121121365      1.561      2.693
REMARK  6 active torsions:
REMARK  status: ('A' for Active; 'I' for Inactive)
REMARK    1  A    between atoms: C6_7  and  O2_9 
REMARK    2  A    between atoms: O2_9  and  C8_10 
REMARK    3  A    between atoms: C8_10  and  O4_12 
REMARK    4  A    between atoms: O4_12  and  C9_13 
REMARK    5  A    between atoms: C9_13  and  N2_17 
REMARK       I    between atoms: N2_17  and  C10_19 
REMARK    6  A    between atoms: C10_19  and  C11_21 
ROOT
HETATM    1  C8  UNL     1     -20.860   1.103  15.255  1.00  0.00     0.415 C 
HETATM    2  O3  UNL     1     -21.861   0.532  15.693  1.00  0.00    -0.229 OA
ENDROOT
BRANCH   1   3
HETATM    3  O2  UNL     1     -20.518   0.808  13.948  1.00  0.00    -0.271 OA
BRANCH   3   4
HETATM    4  C6  UNL     1     -19.975  -0.379  13.480  1.00  0.00     0.189 C 
HETATM    5  C5  UNL     1     -18.590  -0.021  12.977  1.00  0.00     0.170 C 
HETATM    6  C4  UNL     1     -17.830  -1.069  12.304  1.00  0.00     0.091 C 
HETATM    7  O1  UNL     1     -18.109   1.085  13.114  1.00  0.00    -0.294 OA
HETATM    8  C2  UNL     1     -18.537  -1.891  11.302  1.00  0.00    -0.035 C 
HETATM    9  C1  UNL     1     -17.960  -3.308  11.369  1.00  0.00     0.015 C 
HETATM   10  C3  UNL     1     -18.188  -1.385   9.899  1.00  0.00     0.015 C 
HETATM   11  C16 UNL     1     -20.021  -1.961  11.406  1.00  0.00     0.091 C 
HETATM   12  C15 UNL     1     -20.629  -0.912  12.244  1.00  0.00     0.170 C 
HETATM   13  O6  UNL     1     -21.703  -0.449  11.935  1.00  0.00    -0.294 OA
HETATM   14  C7  UNL     1     -19.808  -1.449  14.509  1.00  0.00     0.064 C 
ENDBRANCH   3   4
ENDBRANCH   1   3
BRANCH   1  15
HETATM   15  O4  UNL     1     -20.167   1.965  16.049  1.00  0.00    -0.222 OA
BRANCH  15  16
HETATM   16  C9  UNL     1     -20.164   3.347  15.953  1.00  0.00     0.229 C 
HETATM   17  N1  UNL     1     -19.676   3.941  14.984  1.00  0.00    -0.365 N 
ATOM     18  H12 UNL     1     -19.258   3.405  14.223  1.00  0.00     0.159 HD
ATOM     19  H11 UNL     1     -19.675   4.959  14.913  1.00  0.00     0.159 HD
BRANCH  16  20
HETATM   20  N2  UNL     1     -20.761   4.113  17.040  1.00  0.00    -0.292 N 
HETATM   21  C10 UNL     1     -21.948   4.847  16.829  1.00  0.00     0.232 C 
HETATM   22  O5  UNL     1     -22.489   4.841  15.706  1.00  0.00    -0.272 OA
ATOM     23  H2  UNL     1     -20.318   4.119  17.959  1.00  0.00     0.172 HD
BRANCH  21  24
HETATM   24  C11 UNL     1     -22.561   5.624  17.921  1.00  0.00     0.030 C 
HETATM   25  C12 UNL     1     -23.290   6.848  17.393  1.00  0.00     0.025 C 
HETATM   26  C13 UNL     1     -21.556   6.105  18.930  1.00  0.00     0.025 C 
HETATM   27  C14 UNL     1     -23.581   4.784  18.660  1.00  0.00     0.025 C 
ENDBRANCH  21  24
ENDBRANCH  16  20
ENDBRANCH  15  16
ENDBRANCH   1  15
TORSDOF 6
ENDMDL
MODEL 4
REMARK VINA RESULT: -8.058249650      1.084      1.728
REMARK  6 active torsions:
REMARK  status: ('A' for Active; 'I' for Inactive)
REMARK    1  A    between atoms: C6_7  and  O2_9 
REMARK    2  A    between atoms: O2_9  and  C8_10 
REMARK    3  A    between atoms: C8_10  and  O4_12 
REMARK    4  A    between atoms: O4_12  and  C9_13 
REMARK    5  A    between atoms: C9_13  and  N2_17 
REMARK       I    between atoms: N2_17  and  C10_19 
REMARK    6  A    between atoms: C10_19  and  C11_21 
ROOT
HETATM    1  C8  UNL     1     -19.043   1.529  13.943  1.00  0.00     0.415 C 
HETATM    2  O3  UNL     1     -17.867   1.548  13.577  1.00  0.00    -0.229 OA
ENDROOT
BRANCH   1   3
HETATM    3  O2  UNL     1     -19.809   0.481  13.467  1.00  0.00    -0.271 OA
BRANCH   3   4
HETATM    4  C6  UNL     1     -19.430  -0.850  13.381  1.00  0.00     0.189 C 
HETATM    5  C5  UNL     1     -20.470  -1.511  12.496  1.00  0.00     0.170 C 
HETATM    6  C4  UNL     1     -20.389  -2.960  12.335  1.00  0.00     0.091 C 
HETATM    7  O1  UNL     1     -21.344  -0.886  11.933  1.00  0.00    -0.294 OA
HETATM    8  C2  UNL     1     -20.165  -3.771  13.548  1.00  0.00    -0.035 C 
HETATM    9  C1  UNL     1     -19.308  -4.977  13.151  1.00  0.00     0.015 C 
HETATM   10  C3  UNL     1     -21.499  -4.365  14.010  1.00  0.00     0.015 C 
HETATM   11  C16 UNL     1     -19.540  -3.089  14.716  1.00  0.00     0.091 C 
HETATM   12  C15 UNL     1     -19.573  -1.616  14.658  1.00  0.00     0.170 C 
HETATM   13  O6  UNL     1     -19.721  -0.983  15.678  1.00  0.00    -0.294 OA
HETATM   14  C7  UNL     1     -18.097  -1.091  12.751  1.00  0.00     0.064 C 
ENDBRANCH   3   4
ENDBRANCH   1   3
BRANCH   1  15
HETATM   15  O4  UNL     1     -19.514   2.505  14.769  1.00  0.00    -0.222 OA
BRANCH  15  16
HETATM   16  C9  UNL     1     -20.614   2.411  15.605  1.00  0.00     0.229 C 
HETATM   17  N1  UNL     1     -21.389   1.446  15.573  1.00  0.00    -0.365 N 
ATOM     18  H12 UNL     1     -21.220   0.688  14.911  1.00  0.00     0.159 HD
ATOM     19  H11 UNL     1     -22.199   1.376  16.189  1.00  0.00     0.159 HD
BRANCH  16  20
HETATM   20  N2  UNL     1     -20.855   3.495  16.549  1.00  0.00    -0.292 N 
HETATM   21  C10 UNL     1     -22.135   4.079  16.655  1.00  0.00     0.232 C 
HETATM   22  O5  UNL     1     -23.067   3.666  15.936  1.00  0.00    -0.272 OA
ATOM     23  H2  UNL     1     -20.093   3.833  17.137  1.00  0.00     0.172 HD
BRANCH  21  24
HETATM   24  C11 UNL     1     -22.391   5.174  17.608  1.00  0.00     0.030 C 
HETATM   25  C12 UNL     1     -23.524   4.831  18.560  1.00  0.00     0.025 C 
HETATM   26  C13 UNL     1     -22.754   6.465  16.929  1.00  0.00     0.025 C 
HETATM   27  C14 UNL     1     -21.163   5.436  18.454  1.00  0.00     0.025 C 
ENDBRANCH  21  24
ENDBRANCH  16  20
ENDBRANCH  15  16
ENDBRANCH   1  15
TORSDOF 6
ENDMDL
MODEL 5
REMARK VINA RESULT: -8.016281209      1.553      2.362
REMARK  6 active torsions:
REMARK  status: ('A' for Active; 'I' for Inactive)
REMARK    1  A    between atoms: C6_7  and  O2_9 
REMARK    2  A    between atoms: O2_9  and  C8_10 
REMARK    3  A    between atoms: C8_10  and  O4_12 
REMARK    4  A    between atoms: O4_12  and  C9_13 
REMARK    5  A    between atoms: C9_13  and  N2_17 
REMARK       I    between atoms: N2_17  and  C10_19 
REMARK    6  A    between atoms: C10_19  and  C11_21 
ROOT
HETATM    1  C8  UNL     1     -19.979   1.394  14.766  1.00  0.00     0.415 C 
HETATM    2  O3  UNL     1     -18.932   1.316  15.410  1.00  0.00    -0.229 OA
ENDROOT
BRANCH   1   3
HETATM    3  O2  UNL     1     -19.988   0.750  13.543  1.00  0.00    -0.271 OA
BRANCH   3   4
HETATM    4  C6  UNL     1     -19.915  -0.617  13.324  1.00  0.00     0.189 C 
HETATM    5  C5  UNL     1     -18.516  -0.870  12.797  1.00  0.00     0.170 C 
HETATM    6  C4  UNL     1     -18.200  -2.225  12.357  1.00  0.00     0.091 C 
HETATM    7  O1  UNL     1     -17.673   0.001  12.733  1.00  0.00    -0.294 OA
HETATM    8  C2  UNL     1     -19.193  -2.919  11.513  1.00  0.00    -0.035 C 
HETATM    9  C1  UNL     1     -19.146  -4.408  11.865  1.00  0.00     0.015 C 
HETATM   10  C3  UNL     1     -18.751  -2.841  10.049  1.00  0.00     0.015 C 
HETATM   11  C16 UNL     1     -20.603  -2.441  11.590  1.00  0.00     0.091 C 
HETATM   12  C15 UNL     1     -20.768  -1.108  12.196  1.00  0.00     0.170 C 
HETATM   13  O6  UNL     1     -21.625  -0.364  11.777  1.00  0.00    -0.294 OA
HETATM   14  C7  UNL     1     -20.088  -1.464  14.542  1.00  0.00     0.064 C 
ENDBRANCH   3   4
ENDBRANCH   1   3
BRANCH   1  15
HETATM   15  O4  UNL     1     -21.039   2.084  15.273  1.00  0.00    -0.222 OA
BRANCH  15  16
HETATM   16  C9  UNL     1     -20.981   3.272  15.982  1.00  0.00     0.229 C 
HETATM   17  N1  UNL     1     -19.971   3.989  15.990  1.00  0.00    -0.365 N 
ATOM     18  H12 UNL     1     -19.148   3.704  15.459  1.00  0.00     0.159 HD
ATOM     19  H11 UNL     1     -19.928   4.864  16.512  1.00  0.00     0.159 HD
BRANCH  16  20
HETATM   20  N2  UNL     1     -22.157   3.679  16.741  1.00  0.00    -0.292 N 
HETATM   21  C10 UNL     1     -22.655   4.995  16.635  1.00  0.00     0.232 C 
HETATM   22  O5  UNL     1     -22.086   5.815  15.889  1.00  0.00    -0.272 OA
ATOM     23  H2  UNL     1     -22.623   3.008  17.353  1.00  0.00     0.172 HD
BRANCH  21  24
HETATM   24  C11 UNL     1     -23.844   5.417  17.397  1.00  0.00     0.030 C 
HETATM   25  C12 UNL     1     -25.129   5.021  16.688  1.00  0.00     0.025 C 
HETATM   26  C13 UNL     1     -23.898   6.903  17.619  1.00  0.00     0.025 C 
HETATM   27  C14 UNL     1     -23.864   4.753  18.757  1.00  0.00     0.025 C 
ENDBRANCH  21  24
ENDBRANCH  16  20
ENDBRANCH  15  16
ENDBRANCH   1  15
TORSDOF 6
ENDMDL
