MODEL 1
REMARK VINA RESULT: -7.071285026      0.000      0.000
REMARK  3 active torsions:
REMARK  status: ('A' for Active; 'I' for Inactive)
REMARK    1  A    between atoms: C2_2  and  C3_3 
REMARK    2  A    between atoms: C13_17  and  O5_18 
REMARK    3  A    between atoms: C16_22  and  O6_23 
ROOT
HETATM    1  C3  UNL     1     -18.243  -4.379   9.799  1.00  0.00     0.140 C 
HETATM    2  O1  UNL     1     -19.480  -4.736  10.296  1.00  0.00    -0.292 OA
HETATM    3  C4  UNL     1     -19.906  -5.740  11.095  1.00  0.00     0.414 C 
HETATM    4  O2  UNL     1     -20.713  -6.658  10.682  1.00  0.00    -0.229 OA
HETATM    5  O3  UNL     1     -19.531  -5.892  12.423  1.00  0.00    -0.221 OA
HETATM    6  C5  UNL     1     -19.502  -4.978  13.423  1.00  0.00     0.271 C 
HETATM    7  O4  UNL     1     -18.450  -4.881  14.111  1.00  0.00    -0.264 OA
HETATM    8  C6  UNL     1     -20.620  -4.068  13.785  1.00  0.00     0.082 C 
HETATM    9  C7  UNL     1     -21.842  -4.978  13.986  1.00  0.00     0.020 C 
HETATM   10  C8  UNL     1     -20.387  -3.385  15.102  1.00  0.00     0.014 C 
HETATM   11  C9  UNL     1     -20.403  -1.881  15.006  1.00  0.00     0.001 C 
HETATM   12  C10 UNL     1     -19.415  -1.383  13.977  1.00  0.00     0.007 C 
HETATM   13  C11 UNL     1     -19.866  -0.157  13.256  1.00  0.00     0.011 C 
HETATM   14  C12 UNL     1     -19.086   1.068  13.703  1.00  0.00     0.012 C 
HETATM   15  C13 UNL     1     -19.898  -0.295  11.771  1.00  0.00     0.128 C 
HETATM   16  C14 UNL     1     -18.666  -0.923  11.178  1.00  0.00     0.040 C 
HETATM   17  C15 UNL     1     -17.901   0.130  10.437  1.00  0.00     0.015 C 
HETATM   18  C16 UNL     1     -19.118  -2.070  10.305  1.00  0.00     0.130 C 
HETATM   19  C17 UNL     1     -17.997  -2.891   9.775  1.00  0.00     0.040 C 
HETATM   20  C18 UNL     1     -17.691  -2.390   8.356  1.00  0.00     0.015 C 
ENDROOT
BRANCH   1  21
HETATM   21  C2  UNL     1     -17.055  -5.023  10.469  1.00  0.00     0.028 C 
HETATM   22  C1  UNL     1     -16.467  -6.169   9.688  1.00  0.00     0.007 C 
ENDBRANCH   1  21
BRANCH  18  23
HETATM   23  O6  UNL     1     -19.980  -1.605   9.325  1.00  0.00    -0.395 OA
ATOM     24  H6  UNL     1     -20.433  -2.335   8.919  1.00  0.00     0.210 HD
ENDBRANCH  18  23
BRANCH  15  25
HETATM   25  O5  UNL     1     -21.075  -0.976  11.379  1.00  0.00    -0.395 OA
ATOM     26  H5  UNL     1     -21.813  -0.379  11.396  1.00  0.00     0.210 HD
ENDBRANCH  15  25
TORSDOF 3
ENDMDL
MODEL 2
REMARK VINA RESULT: -6.811128147      1.938      5.046
REMARK  3 active torsions:
REMARK  status: ('A' for Active; 'I' for Inactive)
REMARK    1  A    between atoms: C2_2  and  C3_3 
REMARK    2  A    between atoms: C13_17  and  O5_18 
REMARK    3  A    between atoms: C16_22  and  O6_23 
ROOT
HETATM    1  C3  UNL     1     -18.387  -0.422  10.701  1.00  0.00     0.140 C 
HETATM    2  O1  UNL     1     -17.996  -0.219  12.009  1.00  0.00    -0.292 OA
HETATM    3  C4  UNL     1     -18.375   0.658  12.965  1.00  0.00     0.414 C 
HETATM    4  O2  UNL     1     -17.573   1.548  13.445  1.00  0.00    -0.229 OA
HETATM    5  O3  UNL     1     -19.643   0.697  13.529  1.00  0.00    -0.221 OA
HETATM    6  C5  UNL     1     -20.403  -0.312  14.017  1.00  0.00     0.271 C 
HETATM    7  O4  UNL     1     -21.599  -0.398  13.627  1.00  0.00    -0.264 OA
HETATM    8  C6  UNL     1     -19.944  -1.341  14.987  1.00  0.00     0.082 C 
HETATM    9  C7  UNL     1     -19.351  -0.557  16.168  1.00  0.00     0.020 C 
HETATM   10  C8  UNL     1     -21.086  -2.139  15.545  1.00  0.00     0.014 C 
HETATM   11  C9  UNL     1     -20.954  -3.622  15.304  1.00  0.00     0.001 C 
HETATM   12  C10 UNL     1     -20.771  -3.928  13.836  1.00  0.00     0.007 C 
HETATM   13  C11 UNL     1     -19.890  -5.102  13.573  1.00  0.00     0.011 C 
HETATM   14  C12 UNL     1     -20.691  -6.302  13.096  1.00  0.00     0.012 C 
HETATM   15  C13 UNL     1     -18.728  -4.810  12.684  1.00  0.00     0.128 C 
HETATM   16  C14 UNL     1     -19.073  -4.027  11.446  1.00  0.00     0.040 C 
HETATM   17  C15 UNL     1     -18.954  -4.932  10.259  1.00  0.00     0.015 C 
HETATM   18  C16 UNL     1     -18.149  -2.834  11.394  1.00  0.00     0.130 C 
HETATM   19  C17 UNL     1     -18.478  -1.875  10.305  1.00  0.00     0.040 C 
HETATM   20  C18 UNL     1     -17.561  -2.197   9.117  1.00  0.00     0.015 C 
ENDROOT
BRANCH   1  21
HETATM   21  C2  UNL     1     -19.680   0.239  10.291  1.00  0.00     0.028 C 
HETATM   22  C1  UNL     1     -19.564   1.072   9.041  1.00  0.00     0.007 C 
ENDBRANCH   1  21
BRANCH  18  23
HETATM   23  O6  UNL     1     -16.830  -3.258  11.381  1.00  0.00    -0.395 OA
ATOM     24  H6  UNL     1     -16.767  -4.107  10.959  1.00  0.00     0.210 HD
ENDBRANCH  18  23
BRANCH  15  25
HETATM   25  O5  UNL     1     -17.699  -4.186  13.430  1.00  0.00    -0.395 OA
ATOM     26  H5  UNL     1     -16.995  -3.922  12.849  1.00  0.00     0.210 HD
ENDBRANCH  15  25
TORSDOF 3
ENDMDL
MODEL 3
REMARK VINA RESULT: -6.756555617      1.824      4.958
REMARK  3 active torsions:
REMARK  status: ('A' for Active; 'I' for Inactive)
REMARK    1  A    between atoms: C2_2  and  C3_3 
REMARK    2  A    between atoms: C13_17  and  O5_18 
REMARK    3  A    between atoms: C16_22  and  O6_23 
ROOT
HETATM    1  C3  UNL     1     -18.236  -0.382  10.086  1.00  0.00     0.140 C 
HETATM    2  O1  UNL     1     -17.945  -0.379  11.435  1.00  0.00    -0.292 OA
HETATM    3  C4  UNL     1     -18.417   0.329  12.485  1.00  0.00     0.414 C 
HETATM    4  O2  UNL     1     -17.680   1.149  13.155  1.00  0.00    -0.229 OA
HETATM    5  O3  UNL     1     -19.722   0.253  12.953  1.00  0.00    -0.221 OA
HETATM    6  C5  UNL     1     -20.482  -0.836  13.221  1.00  0.00     0.271 C 
HETATM    7  O4  UNL     1     -21.645  -0.885  12.734  1.00  0.00    -0.264 OA
HETATM    8  C6  UNL     1     -20.059  -1.994  14.050  1.00  0.00     0.082 C 
HETATM    9  C7  UNL     1     -19.577  -1.393  15.379  1.00  0.00     0.020 C 
HETATM   10  C8  UNL     1     -21.212  -2.893  14.392  1.00  0.00     0.014 C 
HETATM   11  C9  UNL     1     -21.016  -4.317  13.935  1.00  0.00     0.001 C 
HETATM   12  C10 UNL     1     -20.721  -4.385  12.454  1.00  0.00     0.007 C 
HETATM   13  C11 UNL     1     -19.786  -5.485  12.079  1.00  0.00     0.011 C 
HETATM   14  C12 UNL     1     -20.512  -6.612  11.364  1.00  0.00     0.012 C 
HETATM   15  C13 UNL     1     -18.574  -5.033  11.335  1.00  0.00     0.128 C 
HETATM   16  C14 UNL     1     -18.857  -4.073  10.211  1.00  0.00     0.040 C 
HETATM   17  C15 UNL     1     -18.625  -4.778   8.910  1.00  0.00     0.015 C 
HETATM   18  C16 UNL     1     -17.970  -2.867  10.413  1.00  0.00     0.130 C 
HETATM   19  C17 UNL     1     -18.252  -1.757   9.465  1.00  0.00     0.040 C 
HETATM   20  C18 UNL     1     -17.244  -1.870   8.312  1.00  0.00     0.015 C 
ENDROOT
BRANCH   1  21
HETATM   21  C2  UNL     1     -19.518   0.308   9.689  1.00  0.00     0.028 C 
HETATM   22  C1  UNL     1     -19.346   1.308   8.576  1.00  0.00     0.007 C 
ENDBRANCH   1  21
BRANCH  18  23
HETATM   23  O6  UNL     1     -16.640  -3.258  10.433  1.00  0.00    -0.395 OA
ATOM     24  H6  UNL     1     -16.215  -2.921  11.213  1.00  0.00     0.210 HD
ENDBRANCH  18  23
BRANCH  15  25
HETATM   25  O5  UNL     1     -17.621  -4.513  12.243  1.00  0.00    -0.395 OA
ATOM     26  H5  UNL     1     -17.683  -4.970  13.073  1.00  0.00     0.210 HD
ENDBRANCH  15  25
TORSDOF 3
ENDMDL
MODEL 4
REMARK VINA RESULT: -6.740740736      1.808      4.802
REMARK  3 active torsions:
REMARK  status: ('A' for Active; 'I' for Inactive)
REMARK    1  A    between atoms: C2_2  and  C3_3 
REMARK    2  A    between atoms: C13_17  and  O5_18 
REMARK    3  A    between atoms: C16_22  and  O6_23 
ROOT
HETATM    1  C3  UNL     1     -19.097  -6.376  11.151  1.00  0.00     0.140 C 
HETATM    2  O1  UNL     1     -17.884  -6.000  10.611  1.00  0.00    -0.292 OA
HETATM    3  C4  UNL     1     -17.381  -6.021   9.356  1.00  0.00     0.414 C 
HETATM    4  O2  UNL     1     -16.374  -6.759   9.027  1.00  0.00    -0.229 OA
HETATM    5  O3  UNL     1     -17.878  -5.265   8.304  1.00  0.00    -0.221 OA
HETATM    6  C5  UNL     1     -18.194  -3.949   8.258  1.00  0.00     0.271 C 
HETATM    7  O4  UNL     1     -19.322  -3.623   7.797  1.00  0.00    -0.264 OA
HETATM    8  C6  UNL     1     -17.315  -2.839   8.712  1.00  0.00     0.082 C 
HETATM    9  C7  UNL     1     -15.980  -3.049   7.981  1.00  0.00     0.020 C 
HETATM   10  C8  UNL     1     -17.826  -1.499   8.271  1.00  0.00     0.014 C 
HETATM   11  C9  UNL     1     -18.076  -0.548   9.414  1.00  0.00     0.001 C 
HETATM   12  C10 UNL     1     -19.008  -1.152  10.440  1.00  0.00     0.007 C 
HETATM   13  C11 UNL     1     -18.707  -0.738  11.841  1.00  0.00     0.011 C 
HETATM   14  C12 UNL     1     -19.747   0.236  12.368  1.00  0.00     0.012 C 
HETATM   15  C13 UNL     1     -18.471  -1.874  12.779  1.00  0.00     0.128 C 
HETATM   16  C14 UNL     1     -19.487  -2.981  12.683  1.00  0.00     0.040 C 
HETATM   17  C15 UNL     1     -20.338  -2.958  13.915  1.00  0.00     0.015 C 
HETATM   18  C16 UNL     1     -18.729  -4.274  12.493  1.00  0.00     0.130 C 
HETATM   19  C17 UNL     1     -19.608  -5.442  12.221  1.00  0.00     0.040 C 
HETATM   20  C18 UNL     1     -19.828  -6.172  13.553  1.00  0.00     0.015 C 
ENDROOT
BRANCH   1  21
HETATM   21  C2  UNL     1     -20.218  -6.591  10.165  1.00  0.00     0.028 C 
HETATM   22  C1  UNL     1     -20.519  -8.043   9.898  1.00  0.00     0.007 C 
ENDBRANCH   1  21
BRANCH  18  23
HETATM   23  O6  UNL     1     -17.857  -4.469  13.551  1.00  0.00    -0.395 OA
ATOM     24  H6  UNL     1     -17.172  -5.078  13.299  1.00  0.00     0.210 HD
ENDBRANCH  18  23
BRANCH  15  25
HETATM   25  O5  UNL     1     -17.151  -2.358  12.623  1.00  0.00    -0.395 OA
ATOM     26  H5  UNL     1     -17.093  -3.247  12.953  1.00  0.00     0.210 HD
ENDBRANCH  15  25
TORSDOF 3
ENDMDL
MODEL 5
REMARK VINA RESULT: -6.412407606      1.990      6.288
REMARK  3 active torsions:
REMARK  status: ('A' for Active; 'I' for Inactive)
REMARK    1  A    between atoms: C2_2  and  C3_3 
REMARK    2  A    between atoms: C13_17  and  O5_18 
REMARK    3  A    between atoms: C16_22  and  O6_23 
ROOT
HETATM    1  C3  UNL     1     -20.194  -3.387  13.347  1.00  0.00     0.140 C 
HETATM    2  O1  UNL     1     -20.409  -3.115  12.011  1.00  0.00    -0.292 OA
HETATM    3  C4  UNL     1     -19.813  -2.286  11.125  1.00  0.00     0.414 C 
HETATM    4  O2  UNL     1     -20.430  -1.287  10.588  1.00  0.00    -0.229 OA
HETATM    5  O3  UNL     1     -18.497  -2.414  10.700  1.00  0.00    -0.221 OA
HETATM    6  C5  UNL     1     -17.832  -3.512  10.267  1.00  0.00     0.271 C 
HETATM    7  O4  UNL     1     -16.708  -3.767  10.779  1.00  0.00    -0.264 OA
HETATM    8  C6  UNL     1     -18.318  -4.454   9.225  1.00  0.00     0.082 C 
HETATM    9  C7  UNL     1     -18.667  -3.580   8.011  1.00  0.00     0.020 C 
HETATM   10  C8  UNL     1     -17.241  -5.394   8.769  1.00  0.00     0.014 C 
HETATM   11  C9  UNL     1     -17.598  -6.848   8.953  1.00  0.00     0.001 C 
HETATM   12  C10 UNL     1     -17.980  -7.146  10.384  1.00  0.00     0.007 C 
HETATM   13  C11 UNL     1     -19.036  -8.191  10.518  1.00  0.00     0.011 C 
HETATM   14  C12 UNL     1     -18.461  -9.496  11.043  1.00  0.00     0.012 C 
HETATM   15  C13 UNL     1     -20.237  -7.753  11.286  1.00  0.00     0.128 C 
HETATM   16  C14 UNL     1     -19.926  -7.042  12.576  1.00  0.00     0.040 C 
HETATM   17  C15 UNL     1     -20.296  -7.938  13.718  1.00  0.00     0.015 C 
HETATM   18  C16 UNL     1     -20.680  -5.734  12.564  1.00  0.00     0.130 C 
HETATM   19  C17 UNL     1     -20.345  -4.844  13.708  1.00  0.00     0.040 C 
HETATM   20  C18 UNL     1     -21.421  -5.053  14.783  1.00  0.00     0.015 C 
ENDROOT
BRANCH   1  21
HETATM   21  C2  UNL     1     -18.876  -2.916  13.910  1.00  0.00     0.028 C 
HETATM   22  C1  UNL     1     -17.810  -3.981  13.926  1.00  0.00     0.007 C 
ENDBRANCH   1  21
BRANCH  18  23
HETATM   23  O6  UNL     1     -22.038  -5.973  12.424  1.00  0.00    -0.395 OA
ATOM     24  H6  UNL     1     -22.214  -6.902  12.515  1.00  0.00     0.210 HD
ENDBRANCH  18  23
BRANCH  15  25
HETATM   25  O5  UNL     1     -21.084  -6.984  10.454  1.00  0.00    -0.395 OA
ATOM     26  H5  UNL     1     -21.564  -6.353  10.977  1.00  0.00     0.210 HD
ENDBRANCH  15  25
TORSDOF 3
ENDMDL
