MODEL 1
REMARK VINA RESULT: -7.937302929      0.000      0.000
REMARK  3 active torsions:
REMARK  status: ('A' for Active; 'I' for Inactive)
REMARK    1  A    between atoms: C2_2  and  O1_3 
REMARK    2  A    between atoms: O1_3  and  C3_4 
REMARK       I    between atoms: C3_4  and  N1_6 
REMARK       I    between atoms: N1_6  and  C4_8 
REMARK       I    between atoms: C4_8  and  N2_10 
REMARK    3  A    between atoms: N2_10  and  C5_12 
ROOT
HETATM    1  C5  UNL     1     -19.623   1.727  14.965  1.00  0.00     0.153 A 
HETATM    2  N3  UNL     1     -20.259   0.764  15.601  1.00  0.00    -0.335 N 
ATOM      3  H3  UNL     1     -20.792   0.969  16.445  1.00  0.00     0.168 HD
HETATM    4  C6  UNL     1     -20.196  -0.479  15.127  1.00  0.00     0.063 A 
HETATM    5  C7  UNL     1     -19.457  -0.650  13.993  1.00  0.00     0.043 A 
HETATM    6  S1  UNL     1     -18.889   0.947  13.652  1.00  0.00    -0.053 SA
HETATM    7  C8  UNL     1     -19.218  -1.918  13.260  1.00  0.00     0.167 A 
HETATM    8  C9  UNL     1     -19.822  -1.731  11.866  1.00  0.00     0.046 C 
HETATM    9  O4  UNL     1     -19.863  -2.943  13.891  1.00  0.00    -0.340 OA
HETATM   10  C10 UNL     1     -20.651  -2.884  15.060  1.00  0.00     0.089 A 
HETATM   11  C11 UNL     1     -21.259  -4.014  15.607  1.00  0.00     0.087 A 
HETATM   12  S2  UNL     1     -22.061  -3.411  16.964  1.00  0.00    -0.110 SA
HETATM   13  C12 UNL     1     -21.631  -1.770  16.833  1.00  0.00     0.066 A 
HETATM   14  C13 UNL     1     -20.844  -1.730  15.695  1.00  0.00     0.032 A 
ENDROOT
BRANCH   1  15
HETATM   15  N2  UNL     1     -19.575   3.005  15.287  1.00  0.00    -0.288 N 
HETATM   16  C4  UNL     1     -20.496   3.540  16.212  1.00  0.00     0.330 C 
HETATM   17  N1  UNL     1     -21.865   3.646  15.874  1.00  0.00    -0.254 N 
HETATM   18  O3  UNL     1     -20.098   3.918  17.331  1.00  0.00    -0.246 OA
HETATM   19  C3  UNL     1     -22.797   4.190  16.816  1.00  0.00     0.368 C 
ATOM     20  H1  UNL     1     -22.188   3.335  14.958  1.00  0.00     0.175 HD
HETATM   21  O2  UNL     1     -24.012   4.304  16.563  1.00  0.00    -0.238 OA
ATOM     22  H2  UNL     1     -18.869   3.609  14.865  1.00  0.00     0.172 HD
BRANCH  19  23
HETATM   23  O1  UNL     1     -22.347   4.611  18.063  1.00  0.00    -0.304 OA
BRANCH  23  24
HETATM   24  C2  UNL     1     -23.053   5.470  18.909  1.00  0.00     0.176 C 
HETATM   25  C1  UNL     1     -22.289   6.730  19.257  1.00  0.00     0.034 C 
ENDBRANCH  23  24
ENDBRANCH  19  23
ENDBRANCH   1  15
TORSDOF 3
ENDMDL
MODEL 2
REMARK VINA RESULT: -7.488502390      2.869      4.946
REMARK  3 active torsions:
REMARK  status: ('A' for Active; 'I' for Inactive)
REMARK    1  A    between atoms: C2_2  and  O1_3 
REMARK    2  A    between atoms: O1_3  and  C3_4 
REMARK       I    between atoms: C3_4  and  N1_6 
REMARK       I    between atoms: N1_6  and  C4_8 
REMARK       I    between atoms: C4_8  and  N2_10 
REMARK    3  A    between atoms: N2_10  and  C5_12 
ROOT
HETATM    1  C5  UNL     1     -20.687  -2.632  14.782  1.00  0.00     0.153 A 
HETATM    2  N3  UNL     1     -20.199  -2.309  13.603  1.00  0.00    -0.335 N 
ATOM      3  H3  UNL     1     -19.852  -1.366  13.428  1.00  0.00     0.168 HD
HETATM    4  C6  UNL     1     -20.163  -3.229  12.640  1.00  0.00     0.063 A 
HETATM    5  C7  UNL     1     -20.651  -4.459  12.971  1.00  0.00     0.043 A 
HETATM    6  S1  UNL     1     -21.134  -4.258  14.619  1.00  0.00    -0.053 SA
HETATM    7  C8  UNL     1     -20.734  -5.656  12.098  1.00  0.00     0.167 A 
HETATM    8  C9  UNL     1     -19.853  -6.726  12.749  1.00  0.00     0.046 C 
HETATM    9  O4  UNL     1     -20.235  -5.360  10.862  1.00  0.00    -0.340 OA
HETATM   10  C10 UNL     1     -19.707  -4.132  10.410  1.00  0.00     0.089 A 
HETATM   11  C11 UNL     1     -19.227  -3.959   9.112  1.00  0.00     0.087 A 
HETATM   12  S2  UNL     1     -18.723  -2.349   9.090  1.00  0.00    -0.110 SA
HETATM   13  C12 UNL     1     -19.115  -1.915  10.687  1.00  0.00     0.066 A 
HETATM   14  C13 UNL     1     -19.648  -3.076  11.218  1.00  0.00     0.032 A 
ENDROOT
BRANCH   1  15
HETATM   15  N2  UNL     1     -20.800  -1.856  15.843  1.00  0.00    -0.288 N 
HETATM   16  C4  UNL     1     -20.939  -0.460  15.691  1.00  0.00     0.330 C 
HETATM   17  N1  UNL     1     -19.861   0.314  15.202  1.00  0.00    -0.254 N 
HETATM   18  O3  UNL     1     -22.018   0.088  15.988  1.00  0.00    -0.246 OA
HETATM   19  C3  UNL     1     -20.007   1.731  15.050  1.00  0.00     0.368 C 
ATOM     20  H1  UNL     1     -18.980  -0.137  14.958  1.00  0.00     0.175 HD
HETATM   21  O2  UNL     1     -19.086   2.455  14.624  1.00  0.00    -0.238 OA
ATOM     22  H2  UNL     1     -20.786  -2.267  16.777  1.00  0.00     0.172 HD
BRANCH  19  23
HETATM   23  O1  UNL     1     -21.213   2.338  15.383  1.00  0.00    -0.304 OA
BRANCH  23  24
HETATM   24  C2  UNL     1     -21.328   3.489  16.168  1.00  0.00     0.176 C 
HETATM   25  C1  UNL     1     -22.760   3.834  16.518  1.00  0.00     0.034 C 
ENDBRANCH  23  24
ENDBRANCH  19  23
ENDBRANCH   1  15
TORSDOF 3
ENDMDL
MODEL 3
REMARK VINA RESULT: -7.325901763      4.473      6.971
REMARK  3 active torsions:
REMARK  status: ('A' for Active; 'I' for Inactive)
REMARK    1  A    between atoms: C2_2  and  O1_3 
REMARK    2  A    between atoms: O1_3  and  C3_4 
REMARK       I    between atoms: C3_4  and  N1_6 
REMARK       I    between atoms: N1_6  and  C4_8 
REMARK       I    between atoms: C4_8  and  N2_10 
REMARK    3  A    between atoms: N2_10  and  C5_12 
ROOT
HETATM    1  C5  UNL     1     -19.552  -1.053  11.386  1.00  0.00     0.153 A 
HETATM    2  N3  UNL     1     -19.948  -1.944  12.270  1.00  0.00    -0.335 N 
ATOM      3  H3  UNL     1     -20.056  -2.923  12.004  1.00  0.00     0.168 HD
HETATM    4  C6  UNL     1     -20.207  -1.552  13.517  1.00  0.00     0.063 A 
HETATM    5  C7  UNL     1     -20.034  -0.224  13.773  1.00  0.00     0.043 A 
HETATM    6  S1  UNL     1     -19.517   0.405  12.248  1.00  0.00    -0.053 SA
HETATM    7  C8  UNL     1     -20.253   0.477  15.063  1.00  0.00     0.167 A 
HETATM    8  C9  UNL     1     -18.895   1.050  15.477  1.00  0.00     0.046 C 
HETATM    9  O4  UNL     1     -20.665  -0.418  16.009  1.00  0.00    -0.340 OA
HETATM   10  C10 UNL     1     -20.876  -1.804  15.859  1.00  0.00     0.089 A 
HETATM   11  C11 UNL     1     -21.303  -2.612  16.912  1.00  0.00     0.087 A 
HETATM   12  S2  UNL     1     -21.396  -4.147  16.219  1.00  0.00    -0.110 SA
HETATM   13  C12 UNL     1     -20.905  -3.765  14.636  1.00  0.00     0.066 A 
HETATM   14  C13 UNL     1     -20.673  -2.403  14.687  1.00  0.00     0.032 A 
ENDROOT
BRANCH   1  15
HETATM   15  N2  UNL     1     -19.254  -1.259  10.117  1.00  0.00    -0.288 N 
HETATM   16  C4  UNL     1     -18.765  -0.201   9.321  1.00  0.00     0.330 C 
HETATM   17  N1  UNL     1     -19.609   0.881   8.979  1.00  0.00    -0.254 N 
HETATM   18  O3  UNL     1     -17.585  -0.224   8.922  1.00  0.00    -0.246 OA
HETATM   19  C3  UNL     1     -19.109   1.952   8.171  1.00  0.00     0.368 C 
ATOM     20  H1  UNL     1     -20.574   0.898   9.308  1.00  0.00     0.175 HD
HETATM   21  O2  UNL     1     -19.814   2.926   7.843  1.00  0.00    -0.238 OA
ATOM     22  H2  UNL     1     -19.378  -2.186   9.710  1.00  0.00     0.172 HD
BRANCH  19  23
HETATM   23  O1  UNL     1     -17.792   1.922   7.727  1.00  0.00    -0.304 OA
BRANCH  23  24
HETATM   24  C2  UNL     1     -16.972   3.047   7.606  1.00  0.00     0.176 C 
HETATM   25  C1  UNL     1     -15.519   2.706   7.353  1.00  0.00     0.034 C 
ENDBRANCH  23  24
ENDBRANCH  19  23
ENDBRANCH   1  15
TORSDOF 3
ENDMDL
MODEL 4
REMARK VINA RESULT: -7.314337159      2.690      4.858
REMARK  3 active torsions:
REMARK  status: ('A' for Active; 'I' for Inactive)
REMARK    1  A    between atoms: C2_2  and  O1_3 
REMARK    2  A    between atoms: O1_3  and  C3_4 
REMARK       I    between atoms: C3_4  and  N1_6 
REMARK       I    between atoms: N1_6  and  C4_8 
REMARK       I    between atoms: C4_8  and  N2_10 
REMARK    3  A    between atoms: N2_10  and  C5_12 
ROOT
HETATM    1  C5  UNL     1     -20.247  -1.959  14.209  1.00  0.00     0.153 A 
HETATM    2  N3  UNL     1     -19.704  -1.328  13.188  1.00  0.00    -0.335 N 
ATOM      3  H3  UNL     1     -19.458  -0.342  13.263  1.00  0.00     0.168 HD
HETATM    4  C6  UNL     1     -19.482  -1.995  12.056  1.00  0.00     0.063 A 
HETATM    5  C7  UNL     1     -19.848  -3.309  12.055  1.00  0.00     0.043 A 
HETATM    6  S1  UNL     1     -20.486  -3.539  13.646  1.00  0.00    -0.053 SA
HETATM    7  C8  UNL     1     -19.719  -4.276  10.937  1.00  0.00     0.167 A 
HETATM    8  C9  UNL     1     -18.775  -5.378  11.427  1.00  0.00     0.046 C 
HETATM    9  O4  UNL     1     -19.158  -3.657   9.856  1.00  0.00    -0.340 OA
HETATM   10  C10 UNL     1     -18.742  -2.314   9.744  1.00  0.00     0.089 A 
HETATM   11  C11 UNL     1     -18.180  -1.802   8.575  1.00  0.00     0.087 A 
HETATM   12  S2  UNL     1     -17.868  -0.190   8.961  1.00  0.00    -0.110 SA
HETATM   13  C12 UNL     1     -18.438  -0.174  10.563  1.00  0.00     0.066 A 
HETATM   14  C13 UNL     1     -18.874  -1.471  10.766  1.00  0.00     0.032 A 
ENDROOT
BRANCH   1  15
HETATM   15  N2  UNL     1     -20.537  -1.462  15.396  1.00  0.00    -0.288 N 
HETATM   16  C4  UNL     1     -20.929  -0.112  15.525  1.00  0.00     0.330 C 
HETATM   17  N1  UNL     1     -19.999   0.925  15.285  1.00  0.00    -0.254 N 
HETATM   18  O3  UNL     1     -22.100   0.161  15.851  1.00  0.00    -0.246 OA
HETATM   19  C3  UNL     1     -20.400   2.294  15.417  1.00  0.00     0.368 C 
ATOM     20  H1  UNL     1     -19.041   0.698  15.017  1.00  0.00     0.175 HD
HETATM   21  O2  UNL     1     -19.617   3.242  15.217  1.00  0.00    -0.238 OA
ATOM     22  H2  UNL     1     -20.478  -2.056  16.223  1.00  0.00     0.172 HD
BRANCH  19  23
HETATM   23  O1  UNL     1     -21.708   2.594  15.782  1.00  0.00    -0.304 OA
BRANCH  23  24
HETATM   24  C2  UNL     1     -22.088   3.731  16.500  1.00  0.00     0.176 C 
HETATM   25  C1  UNL     1     -23.484   4.212  16.166  1.00  0.00     0.034 C 
ENDBRANCH  23  24
ENDBRANCH  19  23
ENDBRANCH   1  15
TORSDOF 3
ENDMDL
MODEL 5
REMARK VINA RESULT: -7.227825202      2.996      4.236
REMARK  3 active torsions:
REMARK  status: ('A' for Active; 'I' for Inactive)
REMARK    1  A    between atoms: C2_2  and  O1_3 
REMARK    2  A    between atoms: O1_3  and  C3_4 
REMARK       I    between atoms: C3_4  and  N1_6 
REMARK       I    between atoms: N1_6  and  C4_8 
REMARK       I    between atoms: C4_8  and  N2_10 
REMARK    3  A    between atoms: N2_10  and  C5_12 
ROOT
HETATM    1  C5  UNL     1     -19.943  -1.854  14.310  1.00  0.00     0.153 A 
HETATM    2  N3  UNL     1     -20.250  -3.033  13.812  1.00  0.00    -0.335 N 
ATOM      3  H3  UNL     1     -20.859  -3.668  14.328  1.00  0.00     0.168 HD
HETATM    4  C6  UNL     1     -19.756  -3.387  12.627  1.00  0.00     0.063 A 
HETATM    5  C7  UNL     1     -18.951  -2.470  12.018  1.00  0.00     0.043 A 
HETATM    6  S1  UNL     1     -18.932  -1.157  13.142  1.00  0.00    -0.053 SA
HETATM    7  C8  UNL     1     -18.271  -2.605  10.706  1.00  0.00     0.167 A 
HETATM    8  C9  UNL     1     -18.839  -1.500   9.810  1.00  0.00     0.046 C 
HETATM    9  O4  UNL     1     -18.567  -3.819  10.156  1.00  0.00    -0.340 OA
HETATM   10  C10 UNL     1     -19.381  -4.839  10.691  1.00  0.00     0.089 A 
HETATM   11  C11 UNL     1     -19.603  -6.043  10.024  1.00  0.00     0.087 A 
HETATM   12  S2  UNL     1     -20.621  -6.890  11.069  1.00  0.00    -0.110 SA
HETATM   13  C12 UNL     1     -20.755  -5.741  12.316  1.00  0.00     0.066 A 
HETATM   14  C13 UNL     1     -19.976  -4.688  11.872  1.00  0.00     0.032 A 
ENDROOT
BRANCH   1  15
HETATM   15  N2  UNL     1     -20.337  -1.341  15.460  1.00  0.00    -0.288 N 
HETATM   16  C4  UNL     1     -20.772   0.000  15.528  1.00  0.00     0.330 C 
HETATM   17  N1  UNL     1     -19.851   1.057  15.337  1.00  0.00    -0.254 N 
HETATM   18  O3  UNL     1     -21.971   0.250  15.756  1.00  0.00    -0.246 OA
HETATM   19  C3  UNL     1     -20.296   2.417  15.407  1.00  0.00     0.368 C 
ATOM     20  H1  UNL     1     -18.870   0.850  15.149  1.00  0.00     0.175 HD
HETATM   21  O2  UNL     1     -19.522   3.381  15.247  1.00  0.00    -0.238 OA
ATOM     22  H2  UNL     1     -20.328  -1.916  16.302  1.00  0.00     0.172 HD
BRANCH  19  23
HETATM   23  O1  UNL     1     -21.635   2.690  15.662  1.00  0.00    -0.304 OA
BRANCH  23  24
HETATM   24  C2  UNL     1     -22.089   3.734  16.472  1.00  0.00     0.176 C 
HETATM   25  C1  UNL     1     -23.508   4.161  16.162  1.00  0.00     0.034 C 
ENDBRANCH  23  24
ENDBRANCH  19  23
ENDBRANCH   1  15
TORSDOF 3
ENDMDL
