MODEL 1
REMARK VINA RESULT: -7.633183079      0.000      0.000
REMARK  6 active torsions:
REMARK  status: ('A' for Active; 'I' for Inactive)
REMARK    1  A    between atoms: C2_2  and  C3_4 
REMARK    2  A    between atoms: C4_5  and  N1_6 
REMARK    3  A    between atoms: N1_6  and  N2_8 
REMARK    4  A    between atoms: N2_8  and  C5_10 
REMARK    5  A    between atoms: C10_15  and  C11_16 
REMARK    6  A    between atoms: C14_25  and  O4_26 
ROOT
HETATM    1  C3  UNL     1      13.044 -31.312  12.581  1.00  0.00     0.105 C 
HETATM    2  C4  UNL     1      13.481 -32.567  12.702  1.00  0.00     0.138 C 
HETATM    3  N3  UNL     1      13.745 -33.473  11.645  1.00  0.00    -0.331 N 
ATOM      4  H3  UNL     1      13.765 -34.455  11.918  1.00  0.00     0.168 HD
HETATM    5  C12 UNL     1      13.964 -33.255  10.397  1.00  0.00     0.076 C 
HETATM    6  C13 UNL     1      14.214 -34.427   9.516  1.00  0.00     0.089 C 
HETATM    7  N4  UNL     1      13.990 -31.987   9.762  1.00  0.00    -0.347 N 
ATOM      8  H4  UNL     1      14.606 -31.963   8.948  1.00  0.00     0.163 HD
HETATM    9  C14 UNL     1      13.341 -30.726  10.011  1.00  0.00     0.295 C 
HETATM   10  C15 UNL     1      12.733 -30.609  11.335  1.00  0.00     0.215 C 
HETATM   11  O5  UNL     1      11.805 -29.784  11.423  1.00  0.00    -0.287 OA
ENDROOT
BRANCH   2  12
HETATM   12  N1  UNL     1      13.710 -33.043  14.000  1.00  0.00    -0.289 N 
ATOM     13  H1  UNL     1      14.178 -32.433  14.670  1.00  0.00     0.188 HD
BRANCH  12  14
HETATM   14  N2  UNL     1      13.353 -34.221  14.380  1.00  0.00    -0.329 N 
ATOM     15  H2  UNL     1      14.019 -34.992  14.421  1.00  0.00     0.180 HD
BRANCH  14  16
HETATM   16  C5  UNL     1      11.965 -34.401  14.746  1.00  0.00     0.113 C 
HETATM   17  C6  UNL     1      11.685 -33.836  16.106  1.00  0.00     0.028 C 
HETATM   18  C7  UNL     1      10.834 -34.673  16.984  1.00  0.00     0.002 C 
HETATM   19  C8  UNL     1       9.763 -35.464  16.316  1.00  0.00     0.001 C 
HETATM   20  C9  UNL     1      10.059 -35.872  14.915  1.00  0.00     0.017 C 
HETATM   21  C10 UNL     1      11.560 -35.857  14.730  1.00  0.00     0.111 C 
BRANCH  21  22
HETATM   22  C11 UNL     1      11.900 -36.539  13.489  1.00  0.00     0.179 C 
HETATM   23  O2  UNL     1      12.045 -37.786  13.483  1.00  0.00    -0.648 OA
HETATM   24  O3  UNL     1      12.081 -35.900  12.267  1.00  0.00    -0.648 OA
ENDBRANCH  21  22
ENDBRANCH  14  16
ENDBRANCH  12  14
ENDBRANCH   2  12
BRANCH   1  25
HETATM   25  C2  UNL     1      12.864 -30.602  13.815  1.00  0.00     0.163 C 
HETATM   26  C1  UNL     1      13.796 -29.562  14.270  1.00  0.00     0.097 C 
HETATM   27  O1  UNL     1      11.858 -30.884  14.548  1.00  0.00    -0.293 OA
ENDBRANCH   1  25
BRANCH   9  28
HETATM   28  O4  UNL     1      14.304 -29.716   9.876  1.00  0.00    -0.369 OA
ATOM     29  H4  UNL     1      14.452 -29.580   8.947  1.00  0.00     0.212 HD
ENDBRANCH   9  28
TORSDOF 6
ENDMDL
MODEL 2
REMARK VINA RESULT: -7.210621489      1.165      1.307
REMARK  6 active torsions:
REMARK  status: ('A' for Active; 'I' for Inactive)
REMARK    1  A    between atoms: C2_2  and  C3_4 
REMARK    2  A    between atoms: C4_5  and  N1_6 
REMARK    3  A    between atoms: N1_6  and  N2_8 
REMARK    4  A    between atoms: N2_8  and  C5_10 
REMARK    5  A    between atoms: C10_15  and  C11_16 
REMARK    6  A    between atoms: C14_25  and  O4_26 
ROOT
HETATM    1  C3  UNL     1      13.751 -31.628  11.441  1.00  0.00     0.105 C 
HETATM    2  C4  UNL     1      14.020 -32.920  11.638  1.00  0.00     0.138 C 
HETATM    3  N3  UNL     1      14.558 -33.823  10.688  1.00  0.00    -0.331 N 
ATOM      4  H3  UNL     1      14.406 -34.809  10.899  1.00  0.00     0.168 HD
HETATM    5  C12 UNL     1      15.209 -33.598   9.601  1.00  0.00     0.076 C 
HETATM    6  C13 UNL     1      15.654 -34.768   8.798  1.00  0.00     0.089 C 
HETATM    7  N4  UNL     1      15.551 -32.324   9.081  1.00  0.00    -0.347 N 
ATOM      8  H4  UNL     1      16.408 -32.338   8.527  1.00  0.00     0.163 HD
HETATM    9  C14 UNL     1      14.957 -31.015   9.160  1.00  0.00     0.295 C 
HETATM   10  C15 UNL     1      13.942 -30.872  10.203  1.00  0.00     0.215 C 
HETATM   11  O5  UNL     1      13.108 -29.967  10.014  1.00  0.00    -0.287 OA
ENDROOT
BRANCH   2  12
HETATM   12  N1  UNL     1      13.752 -33.445  12.910  1.00  0.00    -0.289 N 
ATOM     13  H1  UNL     1      14.018 -32.900  13.731  1.00  0.00     0.188 HD
BRANCH  12  14
HETATM   14  N2  UNL     1      13.182 -34.587  13.084  1.00  0.00    -0.329 N 
ATOM     15  H2  UNL     1      13.571 -35.442  12.685  1.00  0.00     0.180 HD
BRANCH  14  16
HETATM   16  C5  UNL     1      11.968 -34.604  13.869  1.00  0.00     0.113 C 
HETATM   17  C6  UNL     1      12.066 -33.673  15.041  1.00  0.00     0.028 C 
HETATM   18  C7  UNL     1      11.541 -34.201  16.322  1.00  0.00     0.002 C 
HETATM   19  C8  UNL     1      10.358 -35.102  16.236  1.00  0.00     0.001 C 
HETATM   20  C9  UNL     1      10.256 -35.893  14.979  1.00  0.00     0.017 C 
HETATM   21  C10 UNL     1      11.639 -35.989  14.373  1.00  0.00     0.111 C 
BRANCH  21  22
HETATM   22  C11 UNL     1      11.636 -37.001  13.326  1.00  0.00     0.179 C 
HETATM   23  O2  UNL     1      11.857 -38.202  13.618  1.00  0.00    -0.648 OA
HETATM   24  O3  UNL     1      11.397 -36.738  11.980  1.00  0.00    -0.648 OA
ENDBRANCH  21  22
ENDBRANCH  14  16
ENDBRANCH  12  14
ENDBRANCH   2  12
BRANCH   1  25
HETATM   25  C2  UNL     1      13.214 -30.932  12.577  1.00  0.00     0.163 C 
HETATM   26  C1  UNL     1      14.047 -30.109  13.463  1.00  0.00     0.097 C 
HETATM   27  O1  UNL     1      11.967 -31.033  12.829  1.00  0.00    -0.293 OA
ENDBRANCH   1  25
BRANCH   9  28
HETATM   28  O4  UNL     1      15.984 -30.094   9.413  1.00  0.00    -0.369 OA
ATOM     29  H4  UNL     1      15.580 -29.250   9.580  1.00  0.00     0.212 HD
ENDBRANCH   9  28
TORSDOF 6
ENDMDL
MODEL 3
REMARK VINA RESULT: -7.020209085      2.158      6.602
REMARK  6 active torsions:
REMARK  status: ('A' for Active; 'I' for Inactive)
REMARK    1  A    between atoms: C2_2  and  C3_4 
REMARK    2  A    between atoms: C4_5  and  N1_6 
REMARK    3  A    between atoms: N1_6  and  N2_8 
REMARK    4  A    between atoms: N2_8  and  C5_10 
REMARK    5  A    between atoms: C10_15  and  C11_16 
REMARK    6  A    between atoms: C14_25  and  O4_26 
ROOT
HETATM    1  C3  UNL     1      11.655 -36.429  14.162  1.00  0.00     0.105 C 
HETATM    2  C4  UNL     1      12.716 -35.629  14.047  1.00  0.00     0.138 C 
HETATM    3  N3  UNL     1      12.799 -34.276  14.458  1.00  0.00    -0.331 N 
ATOM      4  H3  UNL     1      13.548 -33.740  14.020  1.00  0.00     0.168 HD
HETATM    5  C12 UNL     1      12.081 -33.614  15.296  1.00  0.00     0.076 C 
HETATM    6  C13 UNL     1      12.415 -32.183  15.526  1.00  0.00     0.089 C 
HETATM    7  N4  UNL     1      10.983 -34.120  16.037  1.00  0.00    -0.347 N 
ATOM      8  H4  UNL     1      10.854 -33.645  16.931  1.00  0.00     0.163 HD
HETATM    9  C14 UNL     1      10.009 -35.156  15.807  1.00  0.00     0.295 C 
HETATM   10  C15 UNL     1      10.350 -36.079  14.726  1.00  0.00     0.215 C 
HETATM   11  O5  UNL     1       9.385 -36.662  14.200  1.00  0.00    -0.287 OA
ENDROOT
BRANCH   2  12
HETATM   12  N1  UNL     1      13.870 -36.173  13.466  1.00  0.00    -0.289 N 
ATOM     13  H1  UNL     1      14.148 -37.119  13.725  1.00  0.00     0.188 HD
BRANCH  12  14
HETATM   14  N2  UNL     1      14.592 -35.525  12.619  1.00  0.00    -0.329 N 
ATOM     15  H2  UNL     1      15.596 -35.407  12.755  1.00  0.00     0.180 HD
BRANCH  14  16
HETATM   16  C5  UNL     1      13.916 -34.973  11.465  1.00  0.00     0.113 C 
HETATM   17  C6  UNL     1      13.864 -35.963  10.340  1.00  0.00     0.028 C 
HETATM   18  C7  UNL     1      14.160 -35.418   8.995  1.00  0.00     0.002 C 
HETATM   19  C8  UNL     1      13.709 -34.024   8.727  1.00  0.00     0.001 C 
HETATM   20  C9  UNL     1      13.655 -33.137   9.921  1.00  0.00     0.017 C 
HETATM   21  C10 UNL     1      14.581 -33.709  10.972  1.00  0.00     0.111 C 
BRANCH  21  22
HETATM   22  C11 UNL     1      14.791 -32.719  12.018  1.00  0.00     0.179 C 
HETATM   23  O2  UNL     1      14.297 -31.570  11.899  1.00  0.00    -0.648 OA
HETATM   24  O3  UNL     1      15.519 -32.949  13.182  1.00  0.00    -0.648 OA
ENDBRANCH  21  22
ENDBRANCH  14  16
ENDBRANCH  12  14
ENDBRANCH   2  12
BRANCH   1  25
HETATM   25  C2  UNL     1      11.837 -37.766  13.670  1.00  0.00     0.163 C 
HETATM   26  C1  UNL     1      11.986 -38.922  14.564  1.00  0.00     0.097 C 
HETATM   27  O1  UNL     1      11.873 -37.959  12.410  1.00  0.00    -0.293 OA
ENDBRANCH   1  25
BRANCH   9  28
HETATM   28  O4  UNL     1       9.880 -35.892  16.994  1.00  0.00    -0.369 OA
ATOM     29  H4  UNL     1      10.753 -36.038  17.340  1.00  0.00     0.212 HD
ENDBRANCH   9  28
TORSDOF 6
ENDMDL
MODEL 4
REMARK VINA RESULT: -6.969352325      1.670      3.334
REMARK  6 active torsions:
REMARK  status: ('A' for Active; 'I' for Inactive)
REMARK    1  A    between atoms: C2_2  and  C3_4 
REMARK    2  A    between atoms: C4_5  and  N1_6 
REMARK    3  A    between atoms: N1_6  and  N2_8 
REMARK    4  A    between atoms: N2_8  and  C5_10 
REMARK    5  A    between atoms: C10_15  and  C11_16 
REMARK    6  A    between atoms: C14_25  and  O4_26 
ROOT
HETATM    1  C3  UNL     1      14.245 -33.031  10.372  1.00  0.00     0.105 C 
HETATM    2  C4  UNL     1      13.850 -33.185  11.637  1.00  0.00     0.138 C 
HETATM    3  N3  UNL     1      13.817 -32.181  12.636  1.00  0.00    -0.331 N 
ATOM      4  H3  UNL     1      13.794 -32.531  13.594  1.00  0.00     0.168 HD
HETATM    5  C12 UNL     1      13.810 -30.899  12.530  1.00  0.00     0.076 C 
HETATM    6  C13 UNL     1      13.771 -30.094  13.780  1.00  0.00     0.089 C 
HETATM    7  N4  UNL     1      13.837 -30.161  11.319  1.00  0.00    -0.347 N 
ATOM      8  H4  UNL     1      13.372 -29.256  11.395  1.00  0.00     0.163 HD
HETATM    9  C14 UNL     1      14.374 -30.407  10.006  1.00  0.00     0.295 C 
HETATM   10  C15 UNL     1      14.736 -31.800   9.750  1.00  0.00     0.215 C 
HETATM   11  O5  UNL     1      15.595 -31.973   8.866  1.00  0.00    -0.287 OA
ENDROOT
BRANCH   2  12
HETATM   12  N1  UNL     1      13.420 -34.461  12.024  1.00  0.00    -0.289 N 
ATOM     13  H1  UNL     1      13.147 -35.126  11.300  1.00  0.00     0.188 HD
BRANCH  12  14
HETATM   14  N2  UNL     1      13.356 -34.828  13.257  1.00  0.00    -0.329 N 
ATOM     15  H2  UNL     1      14.189 -35.111  13.772  1.00  0.00     0.180 HD
BRANCH  14  16
HETATM   16  C5  UNL     1      12.050 -34.819  13.879  1.00  0.00     0.113 C 
HETATM   17  C6  UNL     1      12.031 -33.937  15.091  1.00  0.00     0.028 C 
HETATM   18  C7  UNL     1      11.323 -34.486  16.271  1.00  0.00     0.002 C 
HETATM   19  C8  UNL     1      10.128 -35.331  15.997  1.00  0.00     0.001 C 
HETATM   20  C9  UNL     1      10.159 -36.071  14.705  1.00  0.00     0.017 C 
HETATM   21  C10 UNL     1      11.604 -36.206  14.278  1.00  0.00     0.111 C 
BRANCH  21  22
HETATM   22  C11 UNL     1      11.699 -37.179  13.198  1.00  0.00     0.179 C 
HETATM   23  O2  UNL     1      11.458 -36.825  12.018  1.00  0.00    -0.648 OA
HETATM   24  O3  UNL     1      12.049 -38.514  13.373  1.00  0.00    -0.648 OA
ENDBRANCH  21  22
ENDBRANCH  14  16
ENDBRANCH  12  14
ENDBRANCH   2  12
BRANCH   1  25
HETATM   25  C2  UNL     1      14.174 -34.212   9.558  1.00  0.00     0.163 C 
HETATM   26  C1  UNL     1      13.219 -34.350   8.451  1.00  0.00     0.097 C 
HETATM   27  O1  UNL     1      14.968 -35.179   9.806  1.00  0.00    -0.293 OA
ENDBRANCH   1  25
BRANCH   9  28
HETATM   28  O4  UNL     1      13.405 -30.022   9.068  1.00  0.00    -0.369 OA
ATOM     29  H4  UNL     1      13.852 -29.834   8.251  1.00  0.00     0.212 HD
ENDBRANCH   9  28
TORSDOF 6
ENDMDL
MODEL 5
REMARK VINA RESULT: -6.901647656      1.977      3.923
REMARK  6 active torsions:
REMARK  status: ('A' for Active; 'I' for Inactive)
REMARK    1  A    between atoms: C2_2  and  C3_4 
REMARK    2  A    between atoms: C4_5  and  N1_6 
REMARK    3  A    between atoms: N1_6  and  N2_8 
REMARK    4  A    between atoms: N2_8  and  C5_10 
REMARK    5  A    between atoms: C10_15  and  C11_16 
REMARK    6  A    between atoms: C14_25  and  O4_26 
ROOT
HETATM    1  C3  UNL     1      14.772 -33.034  10.970  1.00  0.00     0.105 C 
HETATM    2  C4  UNL     1      14.690 -33.062  12.302  1.00  0.00     0.138 C 
HETATM    3  N3  UNL     1      14.643 -31.941  13.167  1.00  0.00    -0.331 N 
ATOM      4  H3  UNL     1      14.896 -32.136  14.135  1.00  0.00     0.168 HD
HETATM    5  C12 UNL     1      14.332 -30.717  12.927  1.00  0.00     0.076 C 
HETATM    6  C13 UNL     1      14.375 -29.750  14.056  1.00  0.00     0.089 C 
HETATM    7  N4  UNL     1      13.945 -30.183  11.670  1.00  0.00    -0.347 N 
ATOM      8  H4  UNL     1      13.319 -29.382  11.754  1.00  0.00     0.163 HD
HETATM    9  C14 UNL     1      14.242 -30.522  10.303  1.00  0.00     0.295 C 
HETATM   10  C15 UNL     1      14.841 -31.843  10.121  1.00  0.00     0.215 C 
HETATM   11  O5  UNL     1      15.516 -31.984   9.085  1.00  0.00    -0.287 OA
ENDROOT
BRANCH   2  12
HETATM   12  N1  UNL     1      14.641 -34.322  12.914  1.00  0.00    -0.289 N 
ATOM     13  H1  UNL     1      14.930 -35.139  12.377  1.00  0.00     0.188 HD
BRANCH  12  14
HETATM   14  N2  UNL     1      14.245 -34.488  14.129  1.00  0.00    -0.329 N 
ATOM     15  H2  UNL     1      14.695 -34.006  14.907  1.00  0.00     0.180 HD
BRANCH  14  16
HETATM   16  C5  UNL     1      13.133 -35.389  14.340  1.00  0.00     0.113 C 
HETATM   17  C6  UNL     1      12.980 -36.341  13.192  1.00  0.00     0.028 C 
HETATM   18  C7  UNL     1      11.591 -36.569  12.730  1.00  0.00     0.002 C 
HETATM   19  C8  UNL     1      10.530 -36.552  13.776  1.00  0.00     0.001 C 
HETATM   20  C9  UNL     1      10.818 -35.687  14.954  1.00  0.00     0.017 C 
HETATM   21  C10 UNL     1      11.832 -34.646  14.534  1.00  0.00     0.111 C 
BRANCH  21  22
HETATM   22  C11 UNL     1      11.904 -33.606  15.551  1.00  0.00     0.179 C 
HETATM   23  O2  UNL     1      12.398 -32.487  15.265  1.00  0.00    -0.648 OA
HETATM   24  O3  UNL     1      11.454 -33.755  16.859  1.00  0.00    -0.648 OA
ENDBRANCH  21  22
ENDBRANCH  14  16
ENDBRANCH  12  14
ENDBRANCH   2  12
BRANCH   1  25
HETATM   25  C2  UNL     1      14.796 -34.318  10.328  1.00  0.00     0.163 C 
HETATM   26  C1  UNL     1      13.651 -34.846   9.576  1.00  0.00     0.097 C 
HETATM   27  O1  UNL     1      15.852 -35.030  10.415  1.00  0.00    -0.293 OA
ENDBRANCH   1  25
BRANCH   9  28
HETATM   28  O4  UNL     1      13.039 -30.479   9.582  1.00  0.00    -0.369 OA
ATOM     29  H4  UNL     1      13.230 -30.120   8.723  1.00  0.00     0.212 HD
ENDBRANCH   9  28
TORSDOF 6
ENDMDL
