MODEL 1
REMARK VINA RESULT: -6.134390306      0.000      0.000
REMARK  5 active torsions:
REMARK  status: ('A' for Active; 'I' for Inactive)
REMARK    1  A    between atoms: S1_2  and  C2_3 
REMARK    2  A    between atoms: C3_4  and  C4_5 
REMARK    3  A    between atoms: C6_9  and  O1_10 
REMARK    4  A    between atoms: C7_12  and  C8_13 
REMARK    5  A    between atoms: C8_13  and  O2_14 
ROOT
HETATM    1  C4  UNL     1      14.229 -30.771   9.562  1.00  0.00     0.157 C 
HETATM    2  N1  UNL     1      13.407 -29.809   9.654  1.00  0.00    -0.367 N 
ATOM      3  H1  UNL     1      12.778 -29.785  10.456  1.00  0.00     0.161 HD
HETATM    4  C5  UNL     1      13.319 -28.757   8.690  1.00  0.00     0.156 C 
HETATM    5  C6  UNL     1      14.598 -28.463   7.983  1.00  0.00     0.167 C 
HETATM    6  C7  UNL     1      15.574 -29.587   7.937  1.00  0.00     0.184 C 
HETATM    7  O3  UNL     1      15.085 -30.802   8.472  1.00  0.00    -0.325 OA
ENDROOT
BRANCH   1   8
HETATM    8  C3  UNL     1      14.313 -31.852  10.562  1.00  0.00     0.073 A 
HETATM    9  C2  UNL     1      14.203 -33.203  10.358  1.00  0.00     0.029 A 
HETATM   10  C10 UNL     1      14.319 -33.994  11.454  1.00  0.00    -0.018 A 
HETATM   11  C9  UNL     1      14.531 -33.382  12.656  1.00  0.00    -0.007 A 
HETATM   12  C11 UNL     1      14.236 -35.516  11.496  1.00  0.00     0.115 C 
HETATM   13  S2  UNL     1      14.567 -31.740  12.240  1.00  0.00    -0.088 SA
HETATM   14  C13 UNL     1      14.684 -34.063  13.950  1.00  0.00     0.057 C 
HETATM   15  C12 UNL     1      13.557 -35.022  14.264  1.00  0.00     0.079 C 
HETATM   16  S3  UNL     1      12.954 -35.851  12.766  1.00  0.00    -0.164 SA
BRANCH   9  17
HETATM   17  S1  UNL     1      13.915 -33.831   8.652  1.00  0.00    -0.132 SA
HETATM   18  C1  UNL     1      15.518 -34.468   8.094  1.00  0.00     0.095 C 
ENDBRANCH   9  17
ENDBRANCH   1   8
BRANCH   6  19
HETATM   19  C8  UNL     1      16.862 -29.285   8.683  1.00  0.00     0.199 C 
BRANCH  19  20
HETATM   20  O2  UNL     1      17.883 -30.157   8.399  1.00  0.00    -0.398 OA
ATOM     21  H2  UNL     1      18.559 -30.184   9.066  1.00  0.00     0.209 HD
ENDBRANCH  19  20
ENDBRANCH   6  19
BRANCH   5  22
HETATM   22  O1  UNL     1      15.249 -27.334   8.507  1.00  0.00    -0.391 OA
ATOM     23  H1  UNL     1      15.253 -26.605   7.899  1.00  0.00     0.210 HD
ENDBRANCH   5  22
TORSDOF 5
ENDMDL
MODEL 2
REMARK VINA RESULT: -5.885276875      4.762      7.244
REMARK  5 active torsions:
REMARK  status: ('A' for Active; 'I' for Inactive)
REMARK    1  A    between atoms: S1_2  and  C2_3 
REMARK    2  A    between atoms: C3_4  and  C4_5 
REMARK    3  A    between atoms: C6_9  and  O1_10 
REMARK    4  A    between atoms: C7_12  and  C8_13 
REMARK    5  A    between atoms: C8_13  and  O2_14 
ROOT
HETATM    1  C4  UNL     1      12.419 -33.350  14.377  1.00  0.00     0.157 C 
HETATM    2  N1  UNL     1      12.124 -32.164  14.721  1.00  0.00    -0.367 N 
ATOM      3  H1  UNL     1      12.101 -31.442  14.001  1.00  0.00     0.161 HD
HETATM    4  C5  UNL     1      11.823 -31.790  16.068  1.00  0.00     0.156 C 
HETATM    5  C6  UNL     1      11.224 -32.881  16.889  1.00  0.00     0.167 C 
HETATM    6  C7  UNL     1      11.534 -34.265  16.434  1.00  0.00     0.184 C 
HETATM    7  O3  UNL     1      12.449 -34.330  15.357  1.00  0.00    -0.325 OA
ENDROOT
BRANCH   1   8
HETATM    8  C3  UNL     1      12.728 -33.726  12.985  1.00  0.00     0.073 A 
HETATM    9  C2  UNL     1      13.043 -34.967  12.495  1.00  0.00     0.029 A 
HETATM   10  C10 UNL     1      13.286 -35.050  11.163  1.00  0.00    -0.018 A 
HETATM   11  C9  UNL     1      13.198 -33.901  10.431  1.00  0.00    -0.007 A 
HETATM   12  C11 UNL     1      13.654 -36.303  10.377  1.00  0.00     0.115 C 
HETATM   13  S2  UNL     1      12.783 -32.743  11.597  1.00  0.00    -0.088 SA
HETATM   14  C13 UNL     1      13.423 -33.786   8.982  1.00  0.00     0.057 C 
HETATM   15  C12 UNL     1      14.745 -34.363   8.530  1.00  0.00     0.079 C 
HETATM   16  S3  UNL     1      15.194 -35.833   9.495  1.00  0.00    -0.164 SA
BRANCH   9  17
HETATM   17  S1  UNL     1      13.111 -36.396  13.652  1.00  0.00    -0.132 SA
HETATM   18  C1  UNL     1      11.579 -37.323  13.366  1.00  0.00     0.095 C 
ENDBRANCH   9  17
ENDBRANCH   1   8
BRANCH   6  19
HETATM   19  C8  UNL     1      10.302 -35.032  15.989  1.00  0.00     0.199 C 
BRANCH  19  20
HETATM   20  O2  UNL     1       9.643 -35.662  17.015  1.00  0.00    -0.398 OA
ATOM     21  H2  UNL     1       9.885 -35.345  17.877  1.00  0.00     0.209 HD
ENDBRANCH  19  20
ENDBRANCH   6  19
BRANCH   5  22
HETATM   22  O1  UNL     1       9.830 -32.756  17.006  1.00  0.00    -0.391 OA
ATOM     23  H1  UNL     1       9.488 -33.232  17.753  1.00  0.00     0.210 HD
ENDBRANCH   5  22
TORSDOF 5
ENDMDL
MODEL 3
REMARK VINA RESULT: -5.803191413      2.448      3.775
REMARK  5 active torsions:
REMARK  status: ('A' for Active; 'I' for Inactive)
REMARK    1  A    between atoms: S1_2  and  C2_3 
REMARK    2  A    between atoms: C3_4  and  C4_5 
REMARK    3  A    between atoms: C6_9  and  O1_10 
REMARK    4  A    between atoms: C7_12  and  C8_13 
REMARK    5  A    between atoms: C8_13  and  O2_14 
ROOT
HETATM    1  C4  UNL     1      13.045 -32.359  11.583  1.00  0.00     0.157 C 
HETATM    2  N1  UNL     1      13.321 -31.124  11.474  1.00  0.00    -0.367 N 
ATOM      3  H1  UNL     1      13.260 -30.540  12.307  1.00  0.00     0.161 HD
HETATM    4  C5  UNL     1      13.712 -30.514  10.242  1.00  0.00     0.156 C 
HETATM    5  C6  UNL     1      14.414 -31.429   9.298  1.00  0.00     0.167 C 
HETATM    6  C7  UNL     1      14.122 -32.879   9.480  1.00  0.00     0.184 C 
HETATM    7  O3  UNL     1      13.128 -33.153  10.450  1.00  0.00    -0.325 OA
ENDROOT
BRANCH   1   8
HETATM    8  C3  UNL     1      12.642 -32.980  12.858  1.00  0.00     0.073 A 
HETATM    9  C2  UNL     1      12.376 -34.301  13.108  1.00  0.00     0.029 A 
HETATM   10  C10 UNL     1      12.023 -34.620  14.378  1.00  0.00    -0.018 A 
HETATM   11  C9  UNL     1      11.963 -33.606  15.291  1.00  0.00    -0.007 A 
HETATM   12  C11 UNL     1      11.679 -36.006  14.911  1.00  0.00     0.115 C 
HETATM   13  S2  UNL     1      12.395 -32.248  14.374  1.00  0.00    -0.088 SA
HETATM   14  C13 UNL     1      11.603 -33.749  16.710  1.00  0.00     0.057 C 
HETATM   15  C12 UNL     1      10.291 -34.468  16.930  1.00  0.00     0.079 C 
HETATM   16  S3  UNL     1      10.037 -35.779  15.700  1.00  0.00    -0.164 SA
BRANCH   9  17
HETATM   17  S1  UNL     1      12.514 -35.518  11.734  1.00  0.00    -0.132 SA
HETATM   18  C1  UNL     1      14.078 -36.390  12.015  1.00  0.00     0.095 C 
ENDBRANCH   9  17
ENDBRANCH   1   8
BRANCH   6  19
HETATM   19  C8  UNL     1      15.344 -33.683   9.888  1.00  0.00     0.199 C 
BRANCH  19  20
HETATM   20  O2  UNL     1      15.779 -33.420  11.162  1.00  0.00    -0.398 OA
ATOM     21  H2  UNL     1      15.087 -33.437  11.814  1.00  0.00     0.209 HD
ENDBRANCH  19  20
ENDBRANCH   6  19
BRANCH   5  22
HETATM   22  O1  UNL     1      15.807 -31.253   9.321  1.00  0.00    -0.391 OA
ATOM     23  H1  UNL     1      16.250 -31.797   8.680  1.00  0.00     0.210 HD
ENDBRANCH   5  22
TORSDOF 5
ENDMDL
MODEL 4
REMARK VINA RESULT: -5.735828051      2.970      4.544
REMARK  5 active torsions:
REMARK  status: ('A' for Active; 'I' for Inactive)
REMARK    1  A    between atoms: S1_2  and  C2_3 
REMARK    2  A    between atoms: C3_4  and  C4_5 
REMARK    3  A    between atoms: C6_9  and  O1_10 
REMARK    4  A    between atoms: C7_12  and  C8_13 
REMARK    5  A    between atoms: C8_13  and  O2_14 
ROOT
HETATM    1  C4  UNL     1      12.793 -33.392  12.472  1.00  0.00     0.157 C 
HETATM    2  N1  UNL     1      13.214 -33.063  13.623  1.00  0.00    -0.367 N 
ATOM      3  H1  UNL     1      13.680 -33.772  14.189  1.00  0.00     0.161 HD
HETATM    4  C5  UNL     1      13.070 -31.748  14.165  1.00  0.00     0.156 C 
HETATM    5  C6  UNL     1      13.034 -30.663  13.144  1.00  0.00     0.167 C 
HETATM    6  C7  UNL     1      12.592 -31.082  11.784  1.00  0.00     0.184 C 
HETATM    7  O3  UNL     1      12.161 -32.427  11.703  1.00  0.00    -0.325 OA
ENDROOT
BRANCH   1   8
HETATM    8  C3  UNL     1      12.947 -34.751  11.921  1.00  0.00     0.073 A 
HETATM    9  C2  UNL     1      13.948 -35.228  11.115  1.00  0.00     0.029 A 
HETATM   10  C10 UNL     1      13.860 -36.529  10.742  1.00  0.00    -0.018 A 
HETATM   11  C9  UNL     1      12.790 -37.246  11.196  1.00  0.00    -0.007 A 
HETATM   12  C11 UNL     1      14.836 -37.294   9.856  1.00  0.00     0.115 C 
HETATM   13  S2  UNL     1      11.942 -36.109  12.123  1.00  0.00    -0.088 SA
HETATM   14  C13 UNL     1      12.520 -38.662  10.905  1.00  0.00     0.057 C 
HETATM   15  C12 UNL     1      12.529 -38.986   9.428  1.00  0.00     0.079 C 
HETATM   16  S3  UNL     1      13.772 -38.005   8.540  1.00  0.00    -0.164 SA
BRANCH   9  17
HETATM   17  S1  UNL     1      15.308 -34.095  10.610  1.00  0.00    -0.132 SA
HETATM   18  C1  UNL     1      15.025 -33.753   8.852  1.00  0.00     0.095 C 
ENDBRANCH   9  17
ENDBRANCH   1   8
BRANCH   6  19
HETATM   19  C8  UNL     1      13.676 -30.921  10.734  1.00  0.00     0.199 C 
BRANCH  19  20
HETATM   20  O2  UNL     1      13.567 -29.767   9.998  1.00  0.00    -0.398 OA
ATOM     21  H2  UNL     1      14.403 -29.402   9.732  1.00  0.00     0.209 HD
ENDBRANCH  19  20
ENDBRANCH   6  19
BRANCH   5  22
HETATM   22  O1  UNL     1      14.268 -30.003  13.024  1.00  0.00    -0.391 OA
ATOM     23  H1  UNL     1      14.748 -29.985  13.843  1.00  0.00     0.210 HD
ENDBRANCH   5  22
TORSDOF 5
ENDMDL
MODEL 5
REMARK VINA RESULT: -5.697982789      4.539      7.338
REMARK  5 active torsions:
REMARK  status: ('A' for Active; 'I' for Inactive)
REMARK    1  A    between atoms: S1_2  and  C2_3 
REMARK    2  A    between atoms: C3_4  and  C4_5 
REMARK    3  A    between atoms: C6_9  and  O1_10 
REMARK    4  A    between atoms: C7_12  and  C8_13 
REMARK    5  A    between atoms: C8_13  and  O2_14 
ROOT
HETATM    1  C4  UNL     1      12.196 -33.083  14.702  1.00  0.00     0.157 C 
HETATM    2  N1  UNL     1      11.667 -32.320  15.568  1.00  0.00    -0.367 N 
ATOM      3  H1  UNL     1      11.505 -31.344  15.319  1.00  0.00     0.161 HD
HETATM    4  C5  UNL     1      11.286 -32.760  16.873  1.00  0.00     0.156 C 
HETATM    5  C6  UNL     1      10.912 -34.202  16.951  1.00  0.00     0.167 C 
HETATM    6  C7  UNL     1      11.497 -35.070  15.891  1.00  0.00     0.184 C 
HETATM    7  O3  UNL     1      12.415 -34.409  15.041  1.00  0.00    -0.325 OA
ENDROOT
BRANCH   1   8
HETATM    8  C3  UNL     1      12.585 -32.619  13.357  1.00  0.00     0.073 A 
HETATM    9  C2  UNL     1      12.797 -33.373  12.232  1.00  0.00     0.029 A 
HETATM   10  C10 UNL     1      13.150 -32.700  11.108  1.00  0.00    -0.018 A 
HETATM   11  C9  UNL     1      13.264 -31.342  11.193  1.00  0.00    -0.007 A 
HETATM   12  C11 UNL     1      13.440 -33.299   9.737  1.00  0.00     0.115 C 
HETATM   13  S2  UNL     1      12.881 -31.034  12.815  1.00  0.00    -0.088 SA
HETATM   14  C13 UNL     1      13.632 -30.440  10.092  1.00  0.00     0.057 C 
HETATM   15  C12 UNL     1      14.914 -30.834   9.393  1.00  0.00     0.079 C 
HETATM   16  S3  UNL     1      15.098 -32.638   9.309  1.00  0.00    -0.164 SA
BRANCH   9  17
HETATM   17  S1  UNL     1      12.593 -35.199  12.325  1.00  0.00    -0.132 SA
HETATM   18  C1  UNL     1      14.271 -35.879  12.240  1.00  0.00     0.095 C 
ENDBRANCH   9  17
ENDBRANCH   1   8
BRANCH   6  19
HETATM   19  C8  UNL     1      10.448 -35.685  14.983  1.00  0.00     0.199 C 
BRANCH  19  20
HETATM   20  O2  UNL     1      10.029 -36.929  15.385  1.00  0.00    -0.398 OA
ATOM     21  H2  UNL     1      10.729 -37.479  15.719  1.00  0.00     0.209 HD
ENDBRANCH  19  20
ENDBRANCH   6  19
BRANCH   5  22
HETATM   22  O1  UNL     1       9.521 -34.392  16.959  1.00  0.00    -0.391 OA
ATOM     23  H1  UNL     1       9.165 -34.414  17.840  1.00  0.00     0.210 HD
ENDBRANCH   5  22
TORSDOF 5
ENDMDL
