MODEL 1
REMARK VINA RESULT: -7.115694419      0.000      0.000
REMARK  5 active torsions:
REMARK  status: ('A' for Active; 'I' for Inactive)
REMARK    1  A    between atoms: C1_2  and  C2_4 
REMARK    2  A    between atoms: N2_9  and  C5_10 
REMARK    3  A    between atoms: C11_18  and  O3_19 
REMARK    4  A    between atoms: C13_23  and  C14_24 
REMARK    5  A    between atoms: C14_24  and  N4_25 
ROOT
HETATM    1  C2  UNL     1      12.306 -32.549  15.027  1.00  0.00     0.144 A 
HETATM    2  C3  UNL     1      13.103 -32.951  13.991  1.00  0.00     0.079 A 
HETATM    3  C4  UNL     1      13.232 -34.330  14.125  1.00  0.00     0.134 A 
HETATM    4  N1  UNL     1      12.536 -34.683  15.186  1.00  0.00    -0.282 N 
ATOM      5  H1  UNL     1      12.455 -35.644  15.519  1.00  0.00     0.189 HD
HETATM    6  N2  UNL     1      11.961 -33.661  15.766  1.00  0.00    -0.279 N 
HETATM    7  N3  UNL     1      14.009 -35.053  13.193  1.00  0.00    -0.342 N 
ATOM      8  H3  UNL     1      14.404 -35.960  13.441  1.00  0.00     0.164 HD
HETATM    9  C8  UNL     1      14.235 -34.491  11.896  1.00  0.00     0.144 C 
HETATM   10  C9  UNL     1      13.060 -34.758  10.978  1.00  0.00     0.064 C 
HETATM   11  C10 UNL     1      13.183 -36.277  10.803  1.00  0.00     0.036 C 
HETATM   12  C11 UNL     1      14.656 -36.508  10.715  1.00  0.00     0.122 C 
HETATM   13  C12 UNL     1      15.342 -35.259  11.206  1.00  0.00     0.093 C 
HETATM   14  O4  UNL     1      14.536 -33.111  11.980  1.00  0.00    -0.317 OA
HETATM   15  C13 UNL     1      13.774 -32.328  12.881  1.00  0.00     0.110 C 
ENDROOT
BRANCH  12  16
HETATM   16  O3  UNL     1      14.989 -36.787   9.392  1.00  0.00    -0.395 OA
ATOM     17  H3  UNL     1      15.929 -36.913   9.332  1.00  0.00     0.210 HD
ENDBRANCH  12  16
BRANCH  15  18
HETATM   18  C14 UNL     1      13.703 -31.045  12.666  1.00  0.00     0.205 C 
BRANCH  18  19
HETATM   19  N4  UNL     1      12.853 -30.589  11.585  1.00  0.00    -0.124 N 
HETATM   20  O5  UNL     1      11.635 -30.526  11.810  1.00  0.00    -0.532 OA
HETATM   21  O6  UNL     1      13.344 -30.244  10.373  1.00  0.00    -0.532 OA
ENDBRANCH  18  19
ENDBRANCH  15  18
BRANCH   1  22
HETATM   22  C1  UNL     1      11.895 -31.263  15.439  1.00  0.00     0.229 C 
HETATM   23  O1  UNL     1      10.796 -30.769  15.630  1.00  0.00    -0.643 OA
HETATM   24  O2  UNL     1      12.907 -30.271  15.716  1.00  0.00    -0.643 OA
ENDBRANCH   1  22
BRANCH   6  25
HETATM   25  C5  UNL     1      11.153 -33.768  16.926  1.00  0.00     0.109 A 
HETATM   26  C6  UNL     1       9.670 -34.091  16.650  1.00  0.00     0.029 A 
HETATM   27  C7  UNL     1      10.556 -35.004  17.425  1.00  0.00     0.029 A 
ENDBRANCH   6  25
TORSDOF 5
ENDMDL
MODEL 2
REMARK VINA RESULT: -6.890968633      2.494      3.868
REMARK  5 active torsions:
REMARK  status: ('A' for Active; 'I' for Inactive)
REMARK    1  A    between atoms: C1_2  and  C2_4 
REMARK    2  A    between atoms: N2_9  and  C5_10 
REMARK    3  A    between atoms: C11_18  and  O3_19 
REMARK    4  A    between atoms: C13_23  and  C14_24 
REMARK    5  A    between atoms: C14_24  and  N4_25 
ROOT
HETATM    1  C2  UNL     1      11.172 -35.115  15.295  1.00  0.00     0.144 A 
HETATM    2  C3  UNL     1      12.025 -34.167  14.800  1.00  0.00     0.079 A 
HETATM    3  C4  UNL     1      12.671 -34.763  13.721  1.00  0.00     0.134 A 
HETATM    4  N1  UNL     1      12.200 -35.989  13.616  1.00  0.00    -0.282 N 
ATOM      5  H1  UNL     1      12.501 -36.655  12.905  1.00  0.00     0.189 HD
HETATM    6  N2  UNL     1      11.301 -36.255  14.529  1.00  0.00    -0.279 N 
HETATM    7  N3  UNL     1      13.631 -34.030  12.990  1.00  0.00    -0.342 N 
ATOM      8  H3  UNL     1      14.348 -34.511  12.448  1.00  0.00     0.164 HD
HETATM    9  C8  UNL     1      13.579 -32.599  13.020  1.00  0.00     0.144 C 
HETATM   10  C9  UNL     1      12.561 -32.072  12.030  1.00  0.00     0.064 C 
HETATM   11  C10 UNL     1      13.244 -32.437  10.707  1.00  0.00     0.036 C 
HETATM   12  C11 UNL     1      14.691 -32.170  10.965  1.00  0.00     0.122 C 
HETATM   13  C12 UNL     1      14.870 -32.042  12.456  1.00  0.00     0.093 C 
HETATM   14  O4  UNL     1      13.338 -32.122  14.330  1.00  0.00    -0.317 OA
HETATM   15  C13 UNL     1      12.369 -32.804  15.107  1.00  0.00     0.110 C 
ENDROOT
BRANCH  12  16
HETATM   16  O3  UNL     1      15.057 -31.000  10.306  1.00  0.00    -0.395 OA
ATOM     17  H3  UNL     1      15.311 -31.216   9.416  1.00  0.00     0.210 HD
ENDBRANCH  12  16
BRANCH  15  18
HETATM   18  C14 UNL     1      11.810 -32.157  16.089  1.00  0.00     0.205 C 
BRANCH  18  19
HETATM   19  N4  UNL     1      11.243 -30.855  15.803  1.00  0.00    -0.124 N 
HETATM   20  O5  UNL     1      10.023 -30.716  15.984  1.00  0.00    -0.532 OA
HETATM   21  O6  UNL     1      11.990 -29.821  15.356  1.00  0.00    -0.532 OA
ENDBRANCH  18  19
ENDBRANCH  15  18
BRANCH   1  22
HETATM   22  C1  UNL     1      10.320 -35.103  16.419  1.00  0.00     0.229 C 
HETATM   23  O1  UNL     1       9.138 -34.835  16.557  1.00  0.00    -0.643 OA
HETATM   24  O2  UNL     1      10.867 -35.471  17.704  1.00  0.00    -0.643 OA
ENDBRANCH   1  22
BRANCH   6  25
HETATM   25  C5  UNL     1      10.637 -37.503  14.637  1.00  0.00     0.109 A 
HETATM   26  C6  UNL     1      11.469 -38.718  14.175  1.00  0.00     0.029 A 
HETATM   27  C7  UNL     1      10.987 -38.565  15.577  1.00  0.00     0.029 A 
ENDBRANCH   6  25
TORSDOF 5
ENDMDL
MODEL 3
REMARK VINA RESULT: -6.701448028      2.492      4.844
REMARK  5 active torsions:
REMARK  status: ('A' for Active; 'I' for Inactive)
REMARK    1  A    between atoms: C1_2  and  C2_4 
REMARK    2  A    between atoms: N2_9  and  C5_10 
REMARK    3  A    between atoms: C11_18  and  O3_19 
REMARK    4  A    between atoms: C13_23  and  C14_24 
REMARK    5  A    between atoms: C14_24  and  N4_25 
ROOT
HETATM    1  C2  UNL     1      13.394 -31.299  12.942  1.00  0.00     0.144 A 
HETATM    2  C3  UNL     1      12.838 -32.485  13.336  1.00  0.00     0.079 A 
HETATM    3  C4  UNL     1      12.773 -33.273  12.190  1.00  0.00     0.134 A 
HETATM    4  N1  UNL     1      13.272 -32.560  11.201  1.00  0.00    -0.282 N 
ATOM      5  H1  UNL     1      13.348 -32.895  10.241  1.00  0.00     0.189 HD
HETATM    6  N2  UNL     1      13.660 -31.373  11.591  1.00  0.00    -0.279 N 
HETATM    7  N3  UNL     1      12.236 -34.576  12.269  1.00  0.00    -0.342 N 
ATOM      8  H3  UNL     1      11.859 -35.033  11.439  1.00  0.00     0.164 HD
HETATM    9  C8  UNL     1      12.230 -35.248  13.534  1.00  0.00     0.144 C 
HETATM   10  C9  UNL     1      13.574 -35.888  13.814  1.00  0.00     0.064 C 
HETATM   11  C10 UNL     1      13.582 -36.995  12.753  1.00  0.00     0.036 C 
HETATM   12  C11 UNL     1      12.171 -37.484  12.737  1.00  0.00     0.122 C 
HETATM   13  C12 UNL     1      11.326 -36.460  13.449  1.00  0.00     0.093 C 
HETATM   14  O4  UNL     1      11.833 -34.377  14.575  1.00  0.00    -0.317 OA
HETATM   15  C13 UNL     1      12.355 -33.060  14.564  1.00  0.00     0.110 C 
ENDROOT
BRANCH  12  16
HETATM   16  O3  UNL     1      12.117 -38.723  13.372  1.00  0.00    -0.395 OA
ATOM     17  H3  UNL     1      11.675 -39.341  12.802  1.00  0.00     0.210 HD
ENDBRANCH  12  16
BRANCH  15  18
HETATM   18  C14 UNL     1      12.386 -32.406  15.689  1.00  0.00     0.205 C 
BRANCH  18  19
HETATM   19  N4  UNL     1      11.121 -32.024  16.282  1.00  0.00    -0.124 N 
HETATM   20  O5  UNL     1      10.625 -30.948  15.912  1.00  0.00    -0.532 OA
HETATM   21  O6  UNL     1      10.490 -32.789  17.201  1.00  0.00    -0.532 OA
ENDBRANCH  18  19
ENDBRANCH  15  18
BRANCH   1  22
HETATM   22  C1  UNL     1      13.637 -30.105  13.653  1.00  0.00     0.229 C 
HETATM   23  O1  UNL     1      14.660 -29.574  14.051  1.00  0.00    -0.643 OA
HETATM   24  O2  UNL     1      12.510 -29.280  14.022  1.00  0.00    -0.643 OA
ENDBRANCH   1  22
BRANCH   6  25
HETATM   25  C5  UNL     1      14.234 -30.410  10.723  1.00  0.00     0.109 A 
HETATM   26  C6  UNL     1      14.732 -30.974   9.375  1.00  0.00     0.029 A 
HETATM   27  C7  UNL     1      13.648 -29.956   9.464  1.00  0.00     0.029 A 
ENDBRANCH   6  25
TORSDOF 5
ENDMDL
MODEL 4
REMARK VINA RESULT: -6.620645799      2.192      4.799
REMARK  5 active torsions:
REMARK  status: ('A' for Active; 'I' for Inactive)
REMARK    1  A    between atoms: C1_2  and  C2_4 
REMARK    2  A    between atoms: N2_9  and  C5_10 
REMARK    3  A    between atoms: C11_18  and  O3_19 
REMARK    4  A    between atoms: C13_23  and  C14_24 
REMARK    5  A    between atoms: C14_24  and  N4_25 
ROOT
HETATM    1  C2  UNL     1      13.357 -31.526  12.346  1.00  0.00     0.144 A 
HETATM    2  C3  UNL     1      12.994 -32.829  12.547  1.00  0.00     0.079 A 
HETATM    3  C4  UNL     1      12.813 -33.374  11.280  1.00  0.00     0.134 A 
HETATM    4  N1  UNL     1      13.066 -32.419  10.408  1.00  0.00    -0.282 N 
ATOM      5  H1  UNL     1      13.011 -32.543   9.397  1.00  0.00     0.189 HD
HETATM    6  N2  UNL     1      13.396 -31.293  10.987  1.00  0.00    -0.279 N 
HETATM    7  N3  UNL     1      12.427 -34.726  11.149  1.00  0.00    -0.342 N 
ATOM      8  H3  UNL     1      11.961 -35.052  10.303  1.00  0.00     0.164 HD
HETATM    9  C8  UNL     1      12.700 -35.631  12.224  1.00  0.00     0.144 C 
HETATM   10  C9  UNL     1      14.128 -36.132  12.161  1.00  0.00     0.064 C 
HETATM   11  C10 UNL     1      14.066 -36.994  10.895  1.00  0.00     0.036 C 
HETATM   12  C11 UNL     1      12.727 -37.651  10.976  1.00  0.00     0.122 C 
HETATM   13  C12 UNL     1      11.919 -36.910  12.009  1.00  0.00     0.093 C 
HETATM   14  O4  UNL     1      12.401 -35.045  13.476  1.00  0.00    -0.317 OA
HETATM   15  C13 UNL     1      12.784 -33.696  13.677  1.00  0.00     0.110 C 
ENDROOT
BRANCH  12  16
HETATM   16  O3  UNL     1      12.902 -38.988  11.327  1.00  0.00    -0.395 OA
ATOM     17  H3  UNL     1      12.344 -39.185  12.070  1.00  0.00     0.210 HD
ENDBRANCH  12  16
BRANCH  15  18
HETATM   18  C14 UNL     1      12.940 -33.281  14.901  1.00  0.00     0.205 C 
BRANCH  18  19
HETATM   19  N4  UNL     1      11.754 -33.138  15.721  1.00  0.00    -0.124 N 
HETATM   20  O5  UNL     1      11.391 -31.984  15.994  1.00  0.00    -0.532 OA
HETATM   21  O6  UNL     1      11.059 -34.202  16.182  1.00  0.00    -0.532 OA
ENDBRANCH  18  19
ENDBRANCH  15  18
BRANCH   1  22
HETATM   22  C1  UNL     1      13.598 -30.476  13.257  1.00  0.00     0.229 C 
HETATM   23  O1  UNL     1      14.623 -29.983  13.697  1.00  0.00    -0.643 OA
HETATM   24  O2  UNL     1      12.466 -29.787  13.831  1.00  0.00    -0.643 OA
ENDBRANCH   1  22
BRANCH   6  25
HETATM   25  C5  UNL     1      13.719 -30.109  10.276  1.00  0.00     0.109 A 
HETATM   26  C6  UNL     1      15.108 -30.121   9.604  1.00  0.00     0.029 A 
HETATM   27  C7  UNL     1      13.843 -30.007   8.824  1.00  0.00     0.029 A 
ENDBRANCH   6  25
TORSDOF 5
ENDMDL
MODEL 5
REMARK VINA RESULT: -6.553496565      1.901      2.148
REMARK  5 active torsions:
REMARK  status: ('A' for Active; 'I' for Inactive)
REMARK    1  A    between atoms: C1_2  and  C2_4 
REMARK    2  A    between atoms: N2_9  and  C5_10 
REMARK    3  A    between atoms: C11_18  and  O3_19 
REMARK    4  A    between atoms: C13_23  and  C14_24 
REMARK    5  A    between atoms: C14_24  and  N4_25 
ROOT
HETATM    1  C2  UNL     1      12.209 -33.709  14.622  1.00  0.00     0.144 A 
HETATM    2  C3  UNL     1      13.109 -33.435  13.629  1.00  0.00     0.079 A 
HETATM    3  C4  UNL     1      13.244 -34.613  12.902  1.00  0.00     0.134 A 
HETATM    4  N1  UNL     1      12.453 -35.506  13.461  1.00  0.00    -0.282 N 
ATOM      5  H1  UNL     1      12.353 -36.465  13.129  1.00  0.00     0.189 HD
HETATM    6  N2  UNL     1      11.810 -35.023  14.493  1.00  0.00    -0.279 N 
HETATM    7  N3  UNL     1      14.118 -34.655  11.794  1.00  0.00    -0.342 N 
ATOM      8  H3  UNL     1      14.500 -35.542  11.468  1.00  0.00     0.164 HD
HETATM    9  C8  UNL     1      14.461 -33.430  11.136  1.00  0.00     0.144 C 
HETATM   10  C9  UNL     1      13.385 -33.025  10.150  1.00  0.00     0.064 C 
HETATM   11  C10 UNL     1      13.545 -34.126   9.094  1.00  0.00     0.036 C 
HETATM   12  C11 UNL     1      15.023 -34.327   9.010  1.00  0.00     0.122 C 
HETATM   13  C12 UNL     1      15.641 -33.671  10.218  1.00  0.00     0.093 C 
HETATM   14  O4  UNL     1      14.732 -32.404  12.071  1.00  0.00    -0.317 OA
HETATM   15  C13 UNL     1      13.876 -32.297  13.194  1.00  0.00     0.110 C 
ENDROOT
BRANCH  12  16
HETATM   16  O3  UNL     1      15.488 -33.757   7.827  1.00  0.00    -0.395 OA
ATOM     17  H3  UNL     1      15.711 -34.451   7.219  1.00  0.00     0.210 HD
ENDBRANCH  12  16
BRANCH  15  18
HETATM   18  C14 UNL     1      13.808 -31.147  13.802  1.00  0.00     0.205 C 
BRANCH  18  19
HETATM   19  N4  UNL     1      12.791 -30.213  13.366  1.00  0.00    -0.124 N 
HETATM   20  O5  UNL     1      12.537 -29.261  14.119  1.00  0.00    -0.532 OA
HETATM   21  O6  UNL     1      12.133 -30.353  12.194  1.00  0.00    -0.532 OA
ENDBRANCH  18  19
ENDBRANCH  15  18
BRANCH   1  22
HETATM   22  C1  UNL     1      11.742 -32.923  15.696  1.00  0.00     0.229 C 
HETATM   23  O1  UNL     1      11.316 -31.782  15.761  1.00  0.00    -0.643 OA
HETATM   24  O2  UNL     1      11.723 -33.503  17.019  1.00  0.00    -0.643 OA
ENDBRANCH   1  22
BRANCH   6  25
HETATM   25  C5  UNL     1      10.895 -35.775  15.272  1.00  0.00     0.109 A 
HETATM   26  C6  UNL     1       9.588 -36.152  14.543  1.00  0.00     0.029 A 
HETATM   27  C7  UNL     1      10.548 -37.176  15.043  1.00  0.00     0.029 A 
ENDBRANCH   6  25
TORSDOF 5
ENDMDL
