MODEL 1
REMARK VINA RESULT: -6.785864688      0.000      0.000
REMARK  6 active torsions:
REMARK  status: ('A' for Active; 'I' for Inactive)
REMARK    1  A    between atoms: C8_11  and  C9_12 
REMARK    2  A    between atoms: C9_12  and  C10_13 
REMARK    3  A    between atoms: C10_13  and  N1_14 
REMARK    4  A    between atoms: C10_13  and  C11_18 
REMARK    5  A    between atoms: C11_18  and  O4_19 
REMARK    6  A    between atoms: N2_21  and  O5_23 
ROOT
HETATM    1  C1  UNL     1      15.300 -34.742  10.154  1.00  0.00     0.055 C 
HETATM    2  C2  UNL     1      13.995 -33.985  10.264  1.00  0.00     0.127 C 
HETATM    3  C3  UNL     1      13.206 -34.350   8.993  1.00  0.00     0.055 C 
HETATM    4  O1  UNL     1      14.229 -32.610  10.179  1.00  0.00    -0.302 OA
HETATM    5  C4  UNL     1      14.351 -31.577  11.066  1.00  0.00     0.279 C 
HETATM    6  O2  UNL     1      14.765 -30.480  10.649  1.00  0.00    -0.264 OA
HETATM    7  C5  UNL     1      14.028 -31.642  12.501  1.00  0.00     0.138 C 
HETATM    8  C6  UNL     1      14.750 -30.531  13.227  1.00  0.00     0.038 C 
HETATM    9  C7  UNL     1      14.423 -32.979  13.007  1.00  0.00     0.190 C 
HETATM   10  O3  UNL     1      15.497 -33.236  13.477  1.00  0.00    -0.293 OA
HETATM   11  C8  UNL     1      13.252 -33.827  12.795  1.00  0.00     0.188 C 
HETATM   12  O6  UNL     1      12.143 -32.956  12.715  1.00  0.00    -0.352 OA
HETATM   13  C12 UNL     1      12.563 -31.666  12.739  1.00  0.00     0.079 C 
HETATM   14  C13 UNL     1      11.921 -30.820  11.630  1.00  0.00     0.047 C 
HETATM   15  C14 UNL     1      12.159 -31.066  14.071  1.00  0.00     0.047 C 
HETATM   16  C15 UNL     1      13.274 -34.433  11.441  1.00  0.00     0.203 C 
HETATM   17  O7  UNL     1      12.593 -35.424  11.342  1.00  0.00    -0.291 OA
ENDROOT
BRANCH  11  18
HETATM   18  C9  UNL     1      13.004 -34.754  13.923  1.00  0.00     0.096 C 
BRANCH  18  19
HETATM   19  C10 UNL     1      11.723 -34.657  14.650  1.00  0.00     0.262 C 
BRANCH  19  20
HETATM   20  N1  UNL     1      11.800 -34.264  16.022  1.00  0.00    -0.068 N 
ATOM     21  H13 UNL     1      12.775 -34.247  16.321  1.00  0.00     0.275 HD
ATOM     22  H12 UNL     1      11.562 -33.276  16.110  1.00  0.00     0.275 HD
ATOM     23  H11 UNL     1      11.247 -34.810  16.682  1.00  0.00     0.275 HD
ENDBRANCH  19  20
BRANCH  19  24
HETATM   24  C11 UNL     1      11.129 -36.049  14.664  1.00  0.00     0.166 C 
HETATM   25  N2  UNL     1      10.112 -36.345  15.382  1.00  0.00    -0.249 N 
ATOM     26  H2  UNL     1       9.770 -37.305  15.337  1.00  0.00     0.196 HD
BRANCH  24  27
HETATM   27  O4  UNL     1      11.753 -36.982  13.850  1.00  0.00    -0.347 OA
ATOM     28  H4  UNL     1      11.616 -36.875  12.916  1.00  0.00     0.219 HD
ENDBRANCH  24  27
BRANCH  25  29
HETATM   29  O5  UNL     1       9.455 -35.488  16.198  1.00  0.00    -0.288 OA
ATOM     30  H5  UNL     1       9.848 -34.995  16.909  1.00  0.00     0.244 HD
ENDBRANCH  25  29
ENDBRANCH  19  24
ENDBRANCH  18  19
ENDBRANCH  11  18
TORSDOF 6
ENDMDL
MODEL 2
REMARK VINA RESULT: -6.150441396      1.885      2.762
REMARK  6 active torsions:
REMARK  status: ('A' for Active; 'I' for Inactive)
REMARK    1  A    between atoms: C8_11  and  C9_12 
REMARK    2  A    between atoms: C9_12  and  C10_13 
REMARK    3  A    between atoms: C10_13  and  N1_14 
REMARK    4  A    between atoms: C10_13  and  C11_18 
REMARK    5  A    between atoms: C11_18  and  O4_19 
REMARK    6  A    between atoms: N2_21  and  O5_23 
ROOT
HETATM    1  C1  UNL     1      13.618 -37.601  12.919  1.00  0.00     0.055 C 
HETATM    2  C2  UNL     1      12.764 -36.446  12.445  1.00  0.00     0.127 C 
HETATM    3  C3  UNL     1      11.718 -37.074  11.505  1.00  0.00     0.055 C 
HETATM    4  O1  UNL     1      13.520 -35.586  11.644  1.00  0.00    -0.302 OA
HETATM    5  C4  UNL     1      14.179 -34.401  11.823  1.00  0.00     0.279 C 
HETATM    6  O2  UNL     1      14.937 -34.000  10.921  1.00  0.00    -0.264 OA
HETATM    7  C5  UNL     1      14.071 -33.536  13.009  1.00  0.00     0.138 C 
HETATM    8  C6  UNL     1      15.279 -32.631  13.080  1.00  0.00     0.038 C 
HETATM    9  C7  UNL     1      13.959 -34.402  14.209  1.00  0.00     0.190 C 
HETATM   10  O3  UNL     1      14.892 -34.780  14.861  1.00  0.00    -0.293 OA
HETATM   11  C8  UNL     1      12.528 -34.649  14.367  1.00  0.00     0.188 C 
HETATM   12  O6  UNL     1      11.868 -33.595  13.696  1.00  0.00    -0.352 OA
HETATM   13  C12 UNL     1      12.774 -32.815  13.053  1.00  0.00     0.079 C 
HETATM   14  C13 UNL     1      12.375 -32.533  11.597  1.00  0.00     0.047 C 
HETATM   15  C14 UNL     1      12.848 -31.486  13.779  1.00  0.00     0.047 C 
HETATM   16  C15 UNL     1      12.104 -35.835  13.583  1.00  0.00     0.203 C 
HETATM   17  O7  UNL     1      11.073 -36.328  13.969  1.00  0.00    -0.291 OA
ENDROOT
BRANCH  11  18
HETATM   18  C9  UNL     1      12.092 -34.609  15.782  1.00  0.00     0.096 C 
BRANCH  18  19
HETATM   19  C10 UNL     1      11.013 -33.680  16.166  1.00  0.00     0.262 C 
BRANCH  19  20
HETATM   20  N1  UNL     1      11.390 -32.571  16.985  1.00  0.00    -0.068 N 
ATOM     21  H13 UNL     1      12.378 -32.641  17.225  1.00  0.00     0.275 HD
ATOM     22  H12 UNL     1      11.394 -31.717  16.427  1.00  0.00     0.275 HD
ATOM     23  H11 UNL     1      10.840 -32.426  17.832  1.00  0.00     0.275 HD
ENDBRANCH  19  20
BRANCH  19  24
HETATM   24  C11 UNL     1      10.030 -34.478  16.996  1.00  0.00     0.166 C 
HETATM   25  N2  UNL     1       9.166 -33.914  17.751  1.00  0.00    -0.249 N 
ATOM     26  H2  UNL     1       8.539 -34.520  18.280  1.00  0.00     0.196 HD
BRANCH  24  27
HETATM   27  O4  UNL     1      10.126 -35.856  16.886  1.00  0.00    -0.347 OA
ATOM     28  H4  UNL     1      10.358 -36.321  17.683  1.00  0.00     0.219 HD
ENDBRANCH  24  27
BRANCH  25  29
HETATM   29  O5  UNL     1       9.017 -32.578  17.907  1.00  0.00    -0.288 OA
ATOM     30  H5  UNL     1       8.507 -32.012  17.339  1.00  0.00     0.244 HD
ENDBRANCH  25  29
ENDBRANCH  19  24
ENDBRANCH  18  19
ENDBRANCH  11  18
TORSDOF 6
ENDMDL
MODEL 3
REMARK VINA RESULT: -6.120361654      3.355      5.882
REMARK  6 active torsions:
REMARK  status: ('A' for Active; 'I' for Inactive)
REMARK    1  A    between atoms: C8_11  and  C9_12 
REMARK    2  A    between atoms: C9_12  and  C10_13 
REMARK    3  A    between atoms: C10_13  and  N1_14 
REMARK    4  A    between atoms: C10_13  and  C11_18 
REMARK    5  A    between atoms: C11_18  and  O4_19 
REMARK    6  A    between atoms: N2_21  and  O5_23 
ROOT
HETATM    1  C1  UNL     1      14.361 -36.187   9.632  1.00  0.00     0.055 C 
HETATM    2  C2  UNL     1      15.214 -35.283  10.494  1.00  0.00     0.127 C 
HETATM    3  C3  UNL     1      16.630 -35.885  10.435  1.00  0.00     0.055 C 
HETATM    4  O1  UNL     1      14.819 -35.381  11.831  1.00  0.00    -0.302 OA
HETATM    5  C4  UNL     1      14.035 -34.651  12.679  1.00  0.00     0.279 C 
HETATM    6  O2  UNL     1      13.731 -35.144  13.781  1.00  0.00    -0.264 OA
HETATM    7  C5  UNL     1      13.504 -33.305  12.406  1.00  0.00     0.138 C 
HETATM    8  C6  UNL     1      12.310 -33.048  13.296  1.00  0.00     0.038 C 
HETATM    9  C7  UNL     1      13.148 -33.228  10.969  1.00  0.00     0.190 C 
HETATM   10  O3  UNL     1      12.065 -33.488  10.524  1.00  0.00    -0.293 OA
HETATM   11  C8  UNL     1      14.369 -32.787  10.298  1.00  0.00     0.188 C 
HETATM   12  O6  UNL     1      15.150 -32.141  11.282  1.00  0.00    -0.352 OA
HETATM   13  C12 UNL     1      14.559 -32.265  12.498  1.00  0.00     0.079 C 
HETATM   14  C13 UNL     1      15.543 -32.726  13.582  1.00  0.00     0.047 C 
HETATM   15  C14 UNL     1      14.029 -30.903  12.902  1.00  0.00     0.047 C 
HETATM   16  C15 UNL     1      15.220 -33.945   9.931  1.00  0.00     0.203 C 
HETATM   17  O7  UNL     1      16.009 -33.708   9.050  1.00  0.00    -0.291 OA
ENDROOT
BRANCH  11  18
HETATM   18  C9  UNL     1      14.109 -31.800   9.224  1.00  0.00     0.096 C 
BRANCH  18  19
HETATM   19  C10 UNL     1      14.532 -30.401   9.431  1.00  0.00     0.262 C 
BRANCH  19  20
HETATM   20  N1  UNL     1      13.537 -29.398   9.216  1.00  0.00    -0.068 N 
ATOM     21  H13 UNL     1      13.982 -28.531   8.915  1.00  0.00     0.275 HD
ATOM     22  H12 UNL     1      12.993 -29.626   8.384  1.00  0.00     0.275 HD
ATOM     23  H11 UNL     1      12.908 -29.209   9.997  1.00  0.00     0.275 HD
ENDBRANCH  19  20
BRANCH  19  24
HETATM   24  C11 UNL     1      15.612 -30.122   8.407  1.00  0.00     0.166 C 
HETATM   25  N2  UNL     1      16.167 -28.974   8.304  1.00  0.00    -0.249 N 
ATOM     26  H2  UNL     1      16.886 -28.865   7.589  1.00  0.00     0.196 HD
BRANCH  24  27
HETATM   27  O4  UNL     1      15.961 -31.186   7.591  1.00  0.00    -0.347 OA
ATOM     28  H4  UNL     1      15.582 -31.183   6.720  1.00  0.00     0.219 HD
ENDBRANCH  24  27
BRANCH  25  29
HETATM   29  O5  UNL     1      15.876 -27.893   9.064  1.00  0.00    -0.288 OA
ATOM     30  H5  UNL     1      16.514 -27.339   9.498  1.00  0.00     0.244 HD
ENDBRANCH  25  29
ENDBRANCH  19  24
ENDBRANCH  18  19
ENDBRANCH  11  18
TORSDOF 6
ENDMDL
MODEL 4
REMARK VINA RESULT: -6.106852377      1.610      2.006
REMARK  6 active torsions:
REMARK  status: ('A' for Active; 'I' for Inactive)
REMARK    1  A    between atoms: C8_11  and  C9_12 
REMARK    2  A    between atoms: C9_12  and  C10_13 
REMARK    3  A    between atoms: C10_13  and  N1_14 
REMARK    4  A    between atoms: C10_13  and  C11_18 
REMARK    5  A    between atoms: C11_18  and  O4_19 
REMARK    6  A    between atoms: N2_21  and  O5_23 
ROOT
HETATM    1  C1  UNL     1      15.761 -34.346   9.309  1.00  0.00     0.055 C 
HETATM    2  C2  UNL     1      14.335 -33.898   9.540  1.00  0.00     0.127 C 
HETATM    3  C3  UNL     1      13.601 -34.183   8.216  1.00  0.00     0.055 C 
HETATM    4  O1  UNL     1      14.287 -32.512   9.705  1.00  0.00    -0.302 OA
HETATM    5  C4  UNL     1      14.224 -31.650  10.765  1.00  0.00     0.279 C 
HETATM    6  O2  UNL     1      14.400 -30.436  10.555  1.00  0.00    -0.264 OA
HETATM    7  C5  UNL     1      13.959 -32.032  12.161  1.00  0.00     0.138 C 
HETATM    8  C6  UNL     1      14.463 -30.946  13.082  1.00  0.00     0.038 C 
HETATM    9  C7  UNL     1      14.625 -33.331  12.423  1.00  0.00     0.190 C 
HETATM   10  O3  UNL     1      15.740 -33.446  12.850  1.00  0.00    -0.293 OA
HETATM   11  C8  UNL     1      13.642 -34.345  12.050  1.00  0.00     0.188 C 
HETATM   12  O6  UNL     1      12.379 -33.715  12.117  1.00  0.00    -0.352 OA
HETATM   13  C12 UNL     1      12.534 -32.392  12.376  1.00  0.00     0.079 C 
HETATM   14  C13 UNL     1      11.707 -31.509  11.431  1.00  0.00     0.047 C 
HETATM   15  C14 UNL     1      12.054 -32.132  13.790  1.00  0.00     0.047 C 
HETATM   16  C15 UNL     1      13.749 -34.684  10.610  1.00  0.00     0.203 C 
HETATM   17  O7  UNL     1      13.276 -35.757  10.328  1.00  0.00    -0.291 OA
ENDROOT
BRANCH  11  18
HETATM   18  C9  UNL     1      13.613 -35.489  12.992  1.00  0.00     0.096 C 
BRANCH  18  19
HETATM   19  C10 UNL     1      12.352 -36.238  13.157  1.00  0.00     0.262 C 
BRANCH  19  20
HETATM   20  N1  UNL     1      11.678 -36.079  14.407  1.00  0.00    -0.068 N 
ATOM     21  H13 UNL     1      12.333 -36.230  15.173  1.00  0.00     0.275 HD
ATOM     22  H12 UNL     1      11.449 -35.095  14.551  1.00  0.00     0.275 HD
ATOM     23  H11 UNL     1      10.845 -36.650  14.548  1.00  0.00     0.275 HD
ENDBRANCH  19  20
BRANCH  19  24
HETATM   24  C11 UNL     1      12.710 -37.707  13.077  1.00  0.00     0.166 C 
HETATM   25  N2  UNL     1      12.437 -38.416  12.048  1.00  0.00    -0.249 N 
ATOM     26  H2  UNL     1      12.710 -39.398  12.071  1.00  0.00     0.196 HD
BRANCH  24  27
HETATM   27  O4  UNL     1      13.350 -38.235  14.188  1.00  0.00    -0.347 OA
ATOM     28  H4  UNL     1      14.300 -38.210  14.170  1.00  0.00     0.219 HD
ENDBRANCH  24  27
BRANCH  25  29
HETATM   29  O5  UNL     1      11.815 -37.968  10.932  1.00  0.00    -0.288 OA
ATOM     30  H5  UNL     1      12.231 -37.481  10.230  1.00  0.00     0.244 HD
ENDBRANCH  25  29
ENDBRANCH  19  24
ENDBRANCH  18  19
ENDBRANCH  11  18
TORSDOF 6
ENDMDL
MODEL 5
REMARK VINA RESULT: -5.838026745      2.605      5.152
REMARK  6 active torsions:
REMARK  status: ('A' for Active; 'I' for Inactive)
REMARK    1  A    between atoms: C8_11  and  C9_12 
REMARK    2  A    between atoms: C9_12  and  C10_13 
REMARK    3  A    between atoms: C10_13  and  N1_14 
REMARK    4  A    between atoms: C10_13  and  C11_18 
REMARK    5  A    between atoms: C11_18  and  O4_19 
REMARK    6  A    between atoms: N2_21  and  O5_23 
ROOT
HETATM    1  C1  UNL     1      13.557 -35.768  13.657  1.00  0.00     0.055 C 
HETATM    2  C2  UNL     1      13.266 -36.124  12.216  1.00  0.00     0.127 C 
HETATM    3  C3  UNL     1      12.070 -37.093  12.272  1.00  0.00     0.055 C 
HETATM    4  O1  UNL     1      14.324 -36.864  11.680  1.00  0.00    -0.302 OA
HETATM    5  C4  UNL     1      15.410 -36.597  10.894  1.00  0.00     0.279 C 
HETATM    6  O2  UNL     1      16.281 -37.476  10.766  1.00  0.00    -0.264 OA
HETATM    7  C5  UNL     1      15.650 -35.339  10.168  1.00  0.00     0.138 C 
HETATM    8  C6  UNL     1      17.122 -35.216   9.854  1.00  0.00     0.038 C 
HETATM    9  C7  UNL     1      15.169 -34.216  11.010  1.00  0.00     0.190 C 
HETATM   10  O3  UNL     1      15.851 -33.618  11.795  1.00  0.00    -0.293 OA
HETATM   11  C8  UNL     1      13.762 -34.051  10.655  1.00  0.00     0.188 C 
HETATM   12  O6  UNL     1      13.608 -34.616   9.369  1.00  0.00    -0.352 OA
HETATM   13  C12 UNL     1      14.767 -35.207   8.982  1.00  0.00     0.079 C 
HETATM   14  C13 UNL     1      14.545 -36.625   8.435  1.00  0.00     0.047 C 
HETATM   15  C14 UNL     1      15.371 -34.372   7.871  1.00  0.00     0.047 C 
HETATM   16  C15 UNL     1      12.898 -34.924  11.488  1.00  0.00     0.203 C 
HETATM   17  O7  UNL     1      11.749 -34.561  11.541  1.00  0.00    -0.291 OA
ENDROOT
BRANCH  11  18
HETATM   18  C9  UNL     1      13.357 -32.628  10.562  1.00  0.00     0.096 C 
BRANCH  18  19
HETATM   19  C10 UNL     1      12.854 -31.954  11.774  1.00  0.00     0.262 C 
BRANCH  19  20
HETATM   20  N1  UNL     1      11.572 -31.331  11.669  1.00  0.00    -0.068 N 
ATOM     21  H13 UNL     1      11.541 -30.505  12.266  1.00  0.00     0.275 HD
ATOM     22  H12 UNL     1      11.475 -30.899  10.750  1.00  0.00     0.275 HD
ATOM     23  H11 UNL     1      10.763 -31.923  11.857  1.00  0.00     0.275 HD
ENDBRANCH  19  20
BRANCH  19  24
HETATM   24  C11 UNL     1      13.823 -30.832  12.078  1.00  0.00     0.166 C 
HETATM   25  N2  UNL     1      13.660 -30.047  13.075  1.00  0.00    -0.249 N 
ATOM     26  H2  UNL     1      14.357 -29.315  13.213  1.00  0.00     0.196 HD
BRANCH  24  27
HETATM   27  O4  UNL     1      14.897 -30.709  11.210  1.00  0.00    -0.347 OA
ATOM     28  H4  UNL     1      15.470 -29.966  11.362  1.00  0.00     0.219 HD
ENDBRANCH  24  27
BRANCH  25  29
HETATM   29  O5  UNL     1      12.639 -30.109  13.960  1.00  0.00    -0.288 OA
ATOM     30  H5  UNL     1      11.747 -30.365  13.754  1.00  0.00     0.244 HD
ENDBRANCH  25  29
ENDBRANCH  19  24
ENDBRANCH  18  19
ENDBRANCH  11  18
TORSDOF 6
ENDMDL
