MODEL 1
REMARK VINA RESULT: -9.771906763      0.000      0.000
REMARK  5 active torsions:
REMARK  status: ('A' for Active; 'I' for Inactive)
REMARK    1  A    between atoms: C4_5  and  C5_6 
REMARK    2  A    between atoms: C5_6  and  C6_7 
REMARK    3  A    between atoms: C9_10  and  O1_11 
REMARK    4  A    between atoms: O1_11  and  C10_12 
REMARK    5  A    between atoms: C13_15  and  N2_16 
ROOT
HETATM    1  C6  UNL     1      19.356  71.720  46.901  1.00  0.00     0.024 A 
HETATM    2  C7  UNL     1      19.824  71.147  45.753  1.00  0.00     0.029 A 
HETATM    3  C8  UNL     1      19.696  69.757  45.522  1.00  0.00     0.040 A 
HETATM    4  C9  UNL     1      19.090  68.997  46.480  1.00  0.00     0.084 A 
HETATM    5  C20 UNL     1      18.636  69.638  47.633  1.00  0.00     0.124 A 
HETATM    6  N4  UNL     1      18.761  70.947  47.845  1.00  0.00    -0.365 N 
ATOM      7  H4  UNL     1      18.412  71.365  48.708  1.00  0.00     0.165 HD
ENDROOT
BRANCH   4   8
HETATM    8  O1  UNL     1      18.933  67.642  46.296  1.00  0.00    -0.344 OA
BRANCH   8   9
HETATM    9  C10 UNL     1      17.846  66.885  46.722  1.00  0.00     0.130 C 
HETATM   10  C11 UNL     1      18.180  65.402  46.315  1.00  0.00     0.034 C 
HETATM   11  C12 UNL     1      18.030  65.593  44.782  1.00  0.00     0.023 C 
HETATM   12  C13 UNL     1      16.651  66.135  44.776  1.00  0.00     0.073 C 
HETATM   13  C19 UNL     1      16.635  67.181  45.878  1.00  0.00     0.053 C 
BRANCH  12  14
HETATM   14  N2  UNL     1      16.099  66.609  43.582  1.00  0.00    -0.245 NA
HETATM   15  C14 UNL     1      14.745  66.475  43.532  1.00  0.00    -0.095 C 
HETATM   16  C15 UNL     1      13.369  66.319  43.396  1.00  0.00     0.118 C 
HETATM   17  C16 UNL     1      13.165  65.617  41.994  1.00  0.00     0.131 C 
HETATM   18  N3  UNL     1      14.378  65.832  41.193  1.00  0.00    -0.400 N 
HETATM   19  C17 UNL     1      15.590  65.273  41.514  1.00  0.00     0.071 C 
ATOM     20  H3  UNL     1      14.316  66.422  40.363  1.00  0.00     0.158 HD
HETATM   21  C18 UNL     1      16.645  65.992  42.341  1.00  0.00     0.148 C 
ENDBRANCH  12  14
ENDBRANCH   8   9
ENDBRANCH   4   8
BRANCH   1  22
HETATM   22  C5  UNL     1      19.384  73.208  47.149  1.00  0.00     0.046 C 
HETATM   23  C21 UNL     1      18.063  73.920  47.003  1.00  0.00     0.022 C 
HETATM   24  C22 UNL     1      18.555  74.617  45.742  1.00  0.00     0.003 C 
HETATM   25  C23 UNL     1      19.927  74.048  46.058  1.00  0.00     0.022 C 
BRANCH  22  26
HETATM   26  C4  UNL     1      19.932  73.445  48.521  1.00  0.00     0.042 A 
HETATM   27  C3  UNL     1      21.258  73.199  48.819  1.00  0.00     0.046 A 
HETATM   28  C2  UNL     1      21.398  73.495  50.145  1.00  0.00     0.111 A 
HETATM   29  N1  UNL     1      20.191  73.900  50.607  1.00  0.00    -0.308 N 
HETATM   30  C1  UNL     1      19.889  74.297  51.952  1.00  0.00     0.177 C 
HETATM   31  N5  UNL     1      19.306  73.867  49.606  1.00  0.00    -0.302 N 
ATOM     32  H5  UNL     1      18.320  74.122  49.669  1.00  0.00     0.186 HD
ENDBRANCH  22  26
ENDBRANCH   1  22
TORSDOF 5
ENDMDL
MODEL 2
REMARK VINA RESULT: -9.591075656      1.049      1.675
REMARK  5 active torsions:
REMARK  status: ('A' for Active; 'I' for Inactive)
REMARK    1  A    between atoms: C4_5  and  C5_6 
REMARK    2  A    between atoms: C5_6  and  C6_7 
REMARK    3  A    between atoms: C9_10  and  O1_11 
REMARK    4  A    between atoms: O1_11  and  C10_12 
REMARK    5  A    between atoms: C13_15  and  N2_16 
ROOT
HETATM    1  C6  UNL     1      19.119  71.777  46.776  1.00  0.00     0.024 A 
HETATM    2  C7  UNL     1      19.795  71.168  45.758  1.00  0.00     0.029 A 
HETATM    3  C8  UNL     1      19.580  69.804  45.447  1.00  0.00     0.040 A 
HETATM    4  C9  UNL     1      18.676  69.107  46.194  1.00  0.00     0.084 A 
HETATM    5  C20 UNL     1      18.019  69.781  47.223  1.00  0.00     0.124 A 
HETATM    6  N4  UNL     1      18.226  71.066  47.511  1.00  0.00    -0.365 N 
ATOM      7  H4  UNL     1      17.719  71.510  48.277  1.00  0.00     0.165 HD
ENDROOT
BRANCH   4   8
HETATM    8  O1  UNL     1      18.426  67.781  45.923  1.00  0.00    -0.344 OA
BRANCH   8   9
HETATM    9  C10 UNL     1      17.267  67.088  46.258  1.00  0.00     0.130 C 
HETATM   10  C11 UNL     1      17.753  65.691  46.796  1.00  0.00     0.034 C 
HETATM   11  C12 UNL     1      18.242  65.128  45.435  1.00  0.00     0.023 C 
HETATM   12  C13 UNL     1      16.981  65.302  44.676  1.00  0.00     0.073 C 
HETATM   13  C19 UNL     1      16.506  66.703  45.017  1.00  0.00     0.053 C 
BRANCH  12  14
HETATM   14  N2  UNL     1      16.963  65.052  43.300  1.00  0.00    -0.245 NA
HETATM   15  C14 UNL     1      17.795  65.871  42.600  1.00  0.00    -0.095 C 
HETATM   16  C15 UNL     1      18.586  66.710  41.820  1.00  0.00     0.118 C 
HETATM   17  C16 UNL     1      17.630  67.244  40.680  1.00  0.00     0.131 C 
HETATM   18  N3  UNL     1      16.483  66.331  40.578  1.00  0.00    -0.400 N 
HETATM   19  C17 UNL     1      15.545  66.202  41.571  1.00  0.00     0.071 C 
ATOM     20  H3  UNL     1      16.380  65.769  39.733  1.00  0.00     0.158 HD
HETATM   21  C18 UNL     1      15.622  65.139  42.657  1.00  0.00     0.148 C 
ENDBRANCH  12  14
ENDBRANCH   8   9
ENDBRANCH   4   8
BRANCH   1  22
HETATM   22  C5  UNL     1      19.243  73.249  47.082  1.00  0.00     0.046 C 
HETATM   23  C21 UNL     1      17.969  74.048  46.977  1.00  0.00     0.022 C 
HETATM   24  C22 UNL     1      18.496  74.763  45.739  1.00  0.00     0.003 C 
HETATM   25  C23 UNL     1      19.831  74.096  46.020  1.00  0.00     0.022 C 
BRANCH  22  26
HETATM   26  C4  UNL     1      19.814  73.395  48.457  1.00  0.00     0.042 A 
HETATM   27  C3  UNL     1      21.110  73.015  48.743  1.00  0.00     0.046 A 
HETATM   28  C2  UNL     1      21.282  73.261  50.075  1.00  0.00     0.111 A 
HETATM   29  N1  UNL     1      20.120  73.769  50.553  1.00  0.00    -0.308 N 
HETATM   30  C1  UNL     1      19.860  74.157  51.909  1.00  0.00     0.177 C 
HETATM   31  N5  UNL     1      19.233  73.847  49.556  1.00  0.00    -0.302 N 
ATOM     32  H5  UNL     1      18.277  74.195  49.630  1.00  0.00     0.186 HD
ENDBRANCH  22  26
ENDBRANCH   1  22
TORSDOF 5
ENDMDL
MODEL 3
REMARK VINA RESULT: -9.560328978      1.495      1.923
REMARK  5 active torsions:
REMARK  status: ('A' for Active; 'I' for Inactive)
REMARK    1  A    between atoms: C4_5  and  C5_6 
REMARK    2  A    between atoms: C5_6  and  C6_7 
REMARK    3  A    between atoms: C9_10  and  O1_11 
REMARK    4  A    between atoms: O1_11  and  C10_12 
REMARK    5  A    between atoms: C13_15  and  N2_16 
ROOT
HETATM    1  C6  UNL     1      19.277  70.824  46.346  1.00  0.00     0.024 A 
HETATM    2  C7  UNL     1      19.734  70.359  45.145  1.00  0.00     0.029 A 
HETATM    3  C8  UNL     1      19.668  68.983  44.818  1.00  0.00     0.040 A 
HETATM    4  C9  UNL     1      19.134  68.127  45.737  1.00  0.00     0.084 A 
HETATM    5  C20 UNL     1      18.688  68.660  46.946  1.00  0.00     0.124 A 
HETATM    6  N4  UNL     1      18.753  69.956  47.248  1.00  0.00    -0.365 N 
ATOM      7  H4  UNL     1      18.412  70.293  48.149  1.00  0.00     0.165 HD
ENDROOT
BRANCH   4   8
HETATM    8  O1  UNL     1      19.039  66.782  45.460  1.00  0.00    -0.344 OA
BRANCH   8   9
HETATM    9  C10 UNL     1      17.863  66.040  45.432  1.00  0.00     0.130 C 
HETATM   10  C11 UNL     1      18.227  64.701  44.689  1.00  0.00     0.034 C 
HETATM   11  C12 UNL     1      18.410  65.318  43.276  1.00  0.00     0.023 C 
HETATM   12  C13 UNL     1      17.081  65.964  43.160  1.00  0.00     0.073 C 
HETATM   13  C19 UNL     1      16.867  66.665  44.492  1.00  0.00     0.053 C 
BRANCH  12  14
HETATM   14  N2  UNL     1      16.809  66.796  42.070  1.00  0.00    -0.245 NA
HETATM   15  C14 UNL     1      15.946  66.237  41.178  1.00  0.00    -0.095 C 
HETATM   16  C15 UNL     1      15.109  65.704  40.201  1.00  0.00     0.118 C 
HETATM   17  C16 UNL     1      15.878  65.911  38.836  1.00  0.00     0.131 C 
HETATM   18  N3  UNL     1      16.884  66.964  39.030  1.00  0.00    -0.400 N 
HETATM   19  C17 UNL     1      17.978  66.805  39.844  1.00  0.00     0.071 C 
ATOM     20  H3  UNL     1      16.765  67.850  38.540  1.00  0.00     0.158 HD
HETATM   21  C18 UNL     1      18.003  67.244  41.300  1.00  0.00     0.148 C 
ENDBRANCH  12  14
ENDBRANCH   8   9
ENDBRANCH   4   8
BRANCH   1  22
HETATM   22  C5  UNL     1      19.238  72.290  46.699  1.00  0.00     0.046 C 
HETATM   23  C21 UNL     1      17.872  72.856  46.993  1.00  0.00     0.022 C 
HETATM   24  C22 UNL     1      17.910  73.671  45.707  1.00  0.00     0.003 C 
HETATM   25  C23 UNL     1      19.361  73.243  45.573  1.00  0.00     0.022 C 
BRANCH  22  26
HETATM   26  C4  UNL     1      20.136  72.513  47.875  1.00  0.00     0.042 A 
HETATM   27  C3  UNL     1      21.503  72.341  47.779  1.00  0.00     0.046 A 
HETATM   28  C2  UNL     1      21.995  72.599  49.027  1.00  0.00     0.111 A 
HETATM   29  N1  UNL     1      20.946  72.910  49.827  1.00  0.00    -0.308 N 
HETATM   30  C1  UNL     1      21.014  73.239  51.221  1.00  0.00     0.177 C 
HETATM   31  N5  UNL     1      19.819  72.856  49.112  1.00  0.00    -0.302 N 
ATOM     32  H5  UNL     1      18.879  73.045  49.459  1.00  0.00     0.186 HD
ENDBRANCH  22  26
ENDBRANCH   1  22
TORSDOF 5
ENDMDL
MODEL 4
REMARK VINA RESULT: -9.543025693      1.731      2.620
REMARK  5 active torsions:
REMARK  status: ('A' for Active; 'I' for Inactive)
REMARK    1  A    between atoms: C4_5  and  C5_6 
REMARK    2  A    between atoms: C5_6  and  C6_7 
REMARK    3  A    between atoms: C9_10  and  O1_11 
REMARK    4  A    between atoms: O1_11  and  C10_12 
REMARK    5  A    between atoms: C13_15  and  N2_16 
ROOT
HETATM    1  C6  UNL     1      21.262  72.257  47.699  1.00  0.00     0.024 A 
HETATM    2  C7  UNL     1      20.727  72.403  46.451  1.00  0.00     0.029 A 
HETATM    3  C8  UNL     1      19.968  71.368  45.853  1.00  0.00     0.040 A 
HETATM    4  C9  UNL     1      19.785  70.214  46.556  1.00  0.00     0.084 A 
HETATM    5  C20 UNL     1      20.360  70.121  47.823  1.00  0.00     0.124 A 
HETATM    6  N4  UNL     1      21.073  71.099  48.381  1.00  0.00    -0.365 N 
ATOM      7  H4  UNL     1      21.472  70.978  49.313  1.00  0.00     0.165 HD
ENDROOT
BRANCH   4   8
HETATM    8  O1  UNL     1      19.047  69.183  46.019  1.00  0.00    -0.344 OA
BRANCH   8   9
HETATM    9  C10 UNL     1      19.516  67.899  45.757  1.00  0.00     0.130 C 
HETATM   10  C11 UNL     1      19.598  67.793  44.189  1.00  0.00     0.034 C 
HETATM   11  C12 UNL     1      18.069  67.782  43.924  1.00  0.00     0.023 C 
HETATM   12  C13 UNL     1      17.717  66.632  44.789  1.00  0.00     0.073 C 
HETATM   13  C19 UNL     1      18.462  66.876  46.090  1.00  0.00     0.053 C 
BRANCH  12  14
HETATM   14  N2  UNL     1      16.373  66.307  44.996  1.00  0.00    -0.245 NA
HETATM   15  C14 UNL     1      15.762  65.835  43.876  1.00  0.00    -0.095 C 
HETATM   16  C15 UNL     1      15.064  65.393  42.755  1.00  0.00     0.118 C 
HETATM   17  C16 UNL     1      13.759  66.284  42.699  1.00  0.00     0.131 C 
HETATM   18  N3  UNL     1      13.537  66.857  44.034  1.00  0.00    -0.400 N 
HETATM   19  C17 UNL     1      14.379  67.785  44.594  1.00  0.00     0.071 C 
ATOM     20  H3  UNL     1      12.722  66.552  44.566  1.00  0.00     0.158 HD
HETATM   21  C18 UNL     1      15.526  67.414  45.521  1.00  0.00     0.148 C 
ENDBRANCH  12  14
ENDBRANCH   8   9
ENDBRANCH   4   8
BRANCH   1  22
HETATM   22  C5  UNL     1      21.994  73.365  48.415  1.00  0.00     0.046 C 
HETATM   23  C21 UNL     1      21.885  74.731  47.788  1.00  0.00     0.022 C 
HETATM   24  C22 UNL     1      23.354  74.687  47.389  1.00  0.00     0.003 C 
HETATM   25  C23 UNL     1      23.460  73.421  48.221  1.00  0.00     0.022 C 
BRANCH  22  26
HETATM   26  C4  UNL     1      21.495  73.421  49.825  1.00  0.00     0.042 A 
HETATM   27  C3  UNL     1      20.247  73.929  50.128  1.00  0.00     0.046 A 
HETATM   28  C2  UNL     1      20.136  73.850  51.487  1.00  0.00     0.111 A 
HETATM   29  N1  UNL     1      21.286  73.313  51.963  1.00  0.00    -0.308 N 
HETATM   30  C1  UNL     1      21.596  73.064  53.341  1.00  0.00     0.177 C 
HETATM   31  N5  UNL     1      22.105  73.054  50.939  1.00  0.00    -0.302 N 
ATOM     32  H5  UNL     1      23.037  72.646  51.006  1.00  0.00     0.186 HD
ENDBRANCH  22  26
ENDBRANCH   1  22
TORSDOF 5
ENDMDL
MODEL 5
REMARK VINA RESULT: -9.467249045      1.407      1.740
REMARK  5 active torsions:
REMARK  status: ('A' for Active; 'I' for Inactive)
REMARK    1  A    between atoms: C4_5  and  C5_6 
REMARK    2  A    between atoms: C5_6  and  C6_7 
REMARK    3  A    between atoms: C9_10  and  O1_11 
REMARK    4  A    between atoms: O1_11  and  C10_12 
REMARK    5  A    between atoms: C13_15  and  N2_16 
ROOT
HETATM    1  C6  UNL     1      19.735  71.509  46.670  1.00  0.00     0.024 A 
HETATM    2  C7  UNL     1      20.103  70.853  45.530  1.00  0.00     0.029 A 
HETATM    3  C8  UNL     1      19.865  69.466  45.372  1.00  0.00     0.040 A 
HETATM    4  C9  UNL     1      19.255  68.797  46.392  1.00  0.00     0.084 A 
HETATM    5  C20 UNL     1      18.906  69.520  47.533  1.00  0.00     0.124 A 
HETATM    6  N4  UNL     1      19.134  70.825  47.676  1.00  0.00    -0.365 N 
ATOM      7  H4  UNL     1      18.858  71.305  48.533  1.00  0.00     0.165 HD
ENDROOT
BRANCH   4   8
HETATM    8  O1  UNL     1      18.993  67.450  46.281  1.00  0.00    -0.344 OA
BRANCH   8   9
HETATM    9  C10 UNL     1      17.846  66.806  46.735  1.00  0.00     0.130 C 
HETATM   10  C11 UNL     1      18.040  65.289  46.361  1.00  0.00     0.034 C 
HETATM   11  C12 UNL     1      17.890  65.457  44.825  1.00  0.00     0.023 C 
HETATM   12  C13 UNL     1      16.567  66.122  44.818  1.00  0.00     0.073 C 
HETATM   13  C19 UNL     1      16.658  67.191  45.894  1.00  0.00     0.053 C 
BRANCH  12  14
HETATM   14  N2  UNL     1      16.047  66.617  43.618  1.00  0.00    -0.245 NA
HETATM   15  C14 UNL     1      14.695  66.485  43.530  1.00  0.00    -0.095 C 
HETATM   16  C15 UNL     1      13.322  66.334  43.355  1.00  0.00     0.118 C 
HETATM   17  C16 UNL     1      13.155  65.655  41.937  1.00  0.00     0.131 C 
HETATM   18  N3  UNL     1      14.389  65.881  41.172  1.00  0.00    -0.400 N 
HETATM   19  C17 UNL     1      15.592  65.315  41.515  1.00  0.00     0.071 C 
ATOM     20  H3  UNL     1      14.350  66.484  40.350  1.00  0.00     0.158 HD
HETATM   21  C18 UNL     1      16.625  66.019  42.382  1.00  0.00     0.148 C 
ENDBRANCH  12  14
ENDBRANCH   8   9
ENDBRANCH   4   8
BRANCH   1  22
HETATM   22  C5  UNL     1      19.881  73.001  46.844  1.00  0.00     0.046 C 
HETATM   23  C21 UNL     1      18.864  73.657  47.742  1.00  0.00     0.022 C 
HETATM   24  C22 UNL     1      18.228  74.354  46.547  1.00  0.00     0.003 C 
HETATM   25  C23 UNL     1      19.401  73.845  45.727  1.00  0.00     0.022 C 
BRANCH  22  26
HETATM   26  C4  UNL     1      21.258  73.280  47.359  1.00  0.00     0.042 A 
HETATM   27  C3  UNL     1      21.711  72.724  48.539  1.00  0.00     0.046 A 
HETATM   28  C2  UNL     1      22.977  73.206  48.712  1.00  0.00     0.111 A 
HETATM   29  N1  UNL     1      23.254  74.020  47.665  1.00  0.00    -0.308 N 
HETATM   30  C1  UNL     1      24.474  74.744  47.456  1.00  0.00     0.177 C 
HETATM   31  N5  UNL     1      22.198  74.055  46.846  1.00  0.00    -0.302 N 
ATOM     32  H5  UNL     1      22.130  74.586  45.978  1.00  0.00     0.186 HD
ENDBRANCH  22  26
ENDBRANCH   1  22
TORSDOF 5
ENDMDL
