MODEL 1
REMARK VINA RESULT: -9.314569211      0.000      0.000
REMARK  6 active torsions:
REMARK  status: ('A' for Active; 'I' for Inactive)
REMARK    1  A    between atoms: C4_9  and  N4_10 
REMARK    2  A    between atoms: C9_17  and  N6_18 
REMARK    3  A    between atoms: N6_18  and  C10_20 
REMARK    4  A    between atoms: C13_23  and  C14_24 
REMARK    5  A    between atoms: C14_24  and  C15_25 
REMARK    6  A    between atoms: C15_25  and  N7_26 
ROOT
HETATM    1  C1  UNL     1      10.283  72.421  48.389  1.00  0.00     0.157 C 
HETATM    2  N1  UNL     1       9.891  71.822  49.637  1.00  0.00    -0.341 N 
HETATM    3  C2  UNL     1       9.219  72.368  50.665  1.00  0.00     0.184 A 
HETATM    4  N2  UNL     1       9.056  71.468  51.647  1.00  0.00    -0.336 N 
ATOM      5  H2  UNL     1       8.578  71.635  52.534  1.00  0.00     0.168 HD
HETATM    6  C3  UNL     1       9.634  70.294  51.263  1.00  0.00     0.152 A 
HETATM    7  N3  UNL     1       9.751  69.097  51.868  1.00  0.00    -0.174 N 
ATOM      8  H3  UNL     1       9.358  68.956  52.799  1.00  0.00     0.186 HD
HETATM    9  C4  UNL     1      10.384  68.090  51.249  1.00  0.00     0.683 A 
HETATM   10  N5  UNL     1      10.889  68.317  50.023  1.00  0.00    -0.174 N 
ATOM     11  H5  UNL     1      11.370  67.550  49.552  1.00  0.00     0.186 HD
HETATM   12  C9  UNL     1      10.798  69.492  49.382  1.00  0.00     0.152 A 
HETATM   13  C22 UNL     1      10.142  70.557  50.008  1.00  0.00     0.125 A 
ENDROOT
BRANCH  12  14
HETATM   14  N6  UNL     1      11.266  69.711  48.218  1.00  0.00    -0.340 N 
ATOM     15  H6  UNL     1      10.632  69.984  47.467  1.00  0.00     0.167 HD
BRANCH  14  16
HETATM   16  C10 UNL     1      12.653  69.584  47.945  1.00  0.00     0.033 A 
HETATM   17  C11 UNL     1      13.250  70.362  46.945  1.00  0.00     0.030 A 
HETATM   18  C12 UNL     1      14.591  70.248  46.682  1.00  0.00     0.010 A 
HETATM   19  C13 UNL     1      15.364  69.380  47.381  1.00  0.00    -0.053 A 
HETATM   20  C20 UNL     1      14.812  68.610  48.357  1.00  0.00     0.010 A 
HETATM   21  C21 UNL     1      13.456  68.706  48.645  1.00  0.00     0.030 A 
BRANCH  19  22
HETATM   22  C14 UNL     1      16.846  69.245  47.141  1.00  0.00     0.082 C 
BRANCH  22  23
HETATM   23  C15 UNL     1      17.009  67.906  46.458  1.00  0.00     0.062 C 
BRANCH  23  24
HETATM   24  N7  UNL     1      17.733  67.848  45.286  1.00  0.00    -0.393 N 
HETATM   25  C16 UNL     1      19.141  67.708  45.291  1.00  0.00     0.122 C 
HETATM   26  C17 UNL     1      19.573  67.482  43.881  1.00  0.00     0.021 C 
HETATM   27  C18 UNL     1      18.309  67.467  43.071  1.00  0.00     0.021 C 
HETATM   28  C19 UNL     1      17.223  67.215  44.127  1.00  0.00     0.122 C 
ENDBRANCH  23  24
ENDBRANCH  22  23
ENDBRANCH  19  22
ENDBRANCH  14  16
ENDBRANCH  12  14
BRANCH   9  29
HETATM   29  N4  UNL     1      10.515  66.802  51.883  1.00  0.00    -0.217 N 
HETATM   30  C5  UNL     1      11.626  65.879  51.628  1.00  0.00     0.141 C 
HETATM   31  C6  UNL     1      11.735  65.033  52.881  1.00  0.00     0.022 C 
HETATM   32  C7  UNL     1      10.685  65.561  53.816  1.00  0.00     0.022 C 
HETATM   33  C8  UNL     1       9.665  66.165  52.838  1.00  0.00     0.141 C 
ENDBRANCH   9  29
TORSDOF 6
ENDMDL
MODEL 2
REMARK VINA RESULT: -9.247316372      1.483      4.540
REMARK  6 active torsions:
REMARK  status: ('A' for Active; 'I' for Inactive)
REMARK    1  A    between atoms: C4_9  and  N4_10 
REMARK    2  A    between atoms: C9_17  and  N6_18 
REMARK    3  A    between atoms: N6_18  and  C10_20 
REMARK    4  A    between atoms: C13_23  and  C14_24 
REMARK    5  A    between atoms: C14_24  and  C15_25 
REMARK    6  A    between atoms: C15_25  and  N7_26 
ROOT
HETATM    1  C1  UNL     1      11.104  66.863  49.685  1.00  0.00     0.157 C 
HETATM    2  N1  UNL     1      10.664  67.965  50.499  1.00  0.00    -0.341 N 
HETATM    3  C2  UNL     1      10.032  67.944  51.685  1.00  0.00     0.184 A 
HETATM    4  N2  UNL     1       9.796  69.193  52.112  1.00  0.00    -0.336 N 
ATOM      5  H2  UNL     1       9.330  69.447  52.984  1.00  0.00     0.168 HD
HETATM    6  C3  UNL     1      10.281  70.069  51.185  1.00  0.00     0.152 A 
HETATM    7  N3  UNL     1      10.300  71.414  51.127  1.00  0.00    -0.174 N 
ATOM      8  H3  UNL     1       9.892  71.963  51.884  1.00  0.00     0.186 HD
HETATM    9  C4  UNL     1      10.856  72.033  50.075  1.00  0.00     0.683 A 
HETATM   10  N5  UNL     1      11.383  71.274  49.098  1.00  0.00    -0.174 N 
ATOM     11  H5  UNL     1      11.805  71.746  48.299  1.00  0.00     0.186 HD
HETATM   12  C9  UNL     1      11.386  69.933  49.112  1.00  0.00     0.152 A 
HETATM   13  C22 UNL     1      10.813  69.265  50.199  1.00  0.00     0.125 A 
ENDROOT
BRANCH  12  14
HETATM   14  N6  UNL     1      11.890  69.209  48.195  1.00  0.00    -0.340 N 
ATOM     15  H6  UNL     1      11.295  68.546  47.697  1.00  0.00     0.167 HD
BRANCH  14  16
HETATM   16  C10 UNL     1      13.264  69.304  47.851  1.00  0.00     0.033 A 
HETATM   17  C11 UNL     1      14.211  68.495  48.494  1.00  0.00     0.030 A 
HETATM   18  C12 UNL     1      15.538  68.578  48.161  1.00  0.00     0.010 A 
HETATM   19  C13 UNL     1      15.962  69.444  47.206  1.00  0.00    -0.053 A 
HETATM   20  C20 UNL     1      15.066  70.243  46.565  1.00  0.00     0.010 A 
HETATM   21  C21 UNL     1      13.714  70.178  46.883  1.00  0.00     0.030 A 
BRANCH  19  22
HETATM   22  C14 UNL     1      17.407  69.545  46.792  1.00  0.00     0.082 C 
BRANCH  22  23
HETATM   23  C15 UNL     1      17.871  68.114  46.644  1.00  0.00     0.062 C 
BRANCH  23  24
HETATM   24  N7  UNL     1      18.298  67.684  45.406  1.00  0.00    -0.393 N 
HETATM   25  C16 UNL     1      17.407  67.576  44.311  1.00  0.00     0.122 C 
HETATM   26  C17 UNL     1      18.223  67.279  43.098  1.00  0.00     0.021 C 
HETATM   27  C18 UNL     1      19.649  67.261  43.568  1.00  0.00     0.021 C 
HETATM   28  C19 UNL     1      19.583  68.007  44.908  1.00  0.00     0.122 C 
ENDBRANCH  23  24
ENDBRANCH  22  23
ENDBRANCH  19  22
ENDBRANCH  14  16
ENDBRANCH  12  14
BRANCH   9  29
HETATM   29  N4  UNL     1      10.886  73.473  50.001  1.00  0.00    -0.217 N 
HETATM   30  C5  UNL     1      11.512  74.327  51.016  1.00  0.00     0.141 C 
HETATM   31  C6  UNL     1      11.889  75.601  50.285  1.00  0.00     0.022 C 
HETATM   32  C7  UNL     1      11.486  75.379  48.855  1.00  0.00     0.022 C 
HETATM   33  C8  UNL     1      10.358  74.346  49.001  1.00  0.00     0.141 C 
ENDBRANCH   9  29
TORSDOF 6
ENDMDL
MODEL 3
REMARK VINA RESULT: -9.247289492      1.001      1.628
REMARK  6 active torsions:
REMARK  status: ('A' for Active; 'I' for Inactive)
REMARK    1  A    between atoms: C4_9  and  N4_10 
REMARK    2  A    between atoms: C9_17  and  N6_18 
REMARK    3  A    between atoms: N6_18  and  C10_20 
REMARK    4  A    between atoms: C13_23  and  C14_24 
REMARK    5  A    between atoms: C14_24  and  C15_25 
REMARK    6  A    between atoms: C15_25  and  N7_26 
ROOT
HETATM    1  C1  UNL     1      10.181  72.612  48.408  1.00  0.00     0.157 C 
HETATM    2  N1  UNL     1       9.773  71.988  49.639  1.00  0.00    -0.341 N 
HETATM    3  C2  UNL     1       9.077  72.509  50.664  1.00  0.00     0.184 A 
HETATM    4  N2  UNL     1       8.905  71.592  51.628  1.00  0.00    -0.336 N 
ATOM      5  H2  UNL     1       8.411  71.739  52.508  1.00  0.00     0.168 HD
HETATM    6  C3  UNL     1       9.502  70.430  51.234  1.00  0.00     0.152 A 
HETATM    7  N3  UNL     1       9.620  69.225  51.821  1.00  0.00    -0.174 N 
ATOM      8  H3  UNL     1       9.212  69.064  52.743  1.00  0.00     0.186 HD
HETATM    9  C4  UNL     1      10.274  68.234  51.197  1.00  0.00     0.683 A 
HETATM   10  N5  UNL     1      10.799  68.486  49.984  1.00  0.00    -0.174 N 
ATOM     11  H5  UNL     1      11.295  67.732  49.509  1.00  0.00     0.186 HD
HETATM   12  C9  UNL     1      10.707  69.671  49.361  1.00  0.00     0.152 A 
HETATM   13  C22 UNL     1      10.029  70.719  49.993  1.00  0.00     0.125 A 
ENDROOT
BRANCH  12  14
HETATM   14  N6  UNL     1      11.193  69.914  48.210  1.00  0.00    -0.340 N 
ATOM     15  H6  UNL     1      10.581  70.262  47.471  1.00  0.00     0.167 HD
BRANCH  14  16
HETATM   16  C10 UNL     1      12.571  69.712  47.933  1.00  0.00     0.033 A 
HETATM   17  C11 UNL     1      13.305  68.764  48.659  1.00  0.00     0.030 A 
HETATM   18  C12 UNL     1      14.634  68.560  48.391  1.00  0.00     0.010 A 
HETATM   19  C13 UNL     1      15.264  69.271  47.423  1.00  0.00    -0.053 A 
HETATM   20  C20 UNL     1      14.578  70.199  46.703  1.00  0.00     0.010 A 
HETATM   21  C21 UNL     1      13.230  70.425  46.953  1.00  0.00     0.030 A 
BRANCH  19  22
HETATM   22  C14 UNL     1      16.716  69.056  47.079  1.00  0.00     0.082 C 
BRANCH  22  23
HETATM   23  C15 UNL     1      16.699  68.179  45.848  1.00  0.00     0.062 C 
BRANCH  23  24
HETATM   24  N7  UNL     1      17.029  66.847  45.983  1.00  0.00    -0.393 N 
HETATM   25  C16 UNL     1      16.879  65.934  44.912  1.00  0.00     0.122 C 
HETATM   26  C17 UNL     1      17.505  64.646  45.331  1.00  0.00     0.021 C 
HETATM   27  C18 UNL     1      18.057  64.897  46.704  1.00  0.00     0.021 C 
HETATM   28  C19 UNL     1      18.122  66.429  46.779  1.00  0.00     0.122 C 
ENDBRANCH  23  24
ENDBRANCH  22  23
ENDBRANCH  19  22
ENDBRANCH  14  16
ENDBRANCH  12  14
BRANCH   9  29
HETATM   29  N4  UNL     1      10.407  66.937  51.812  1.00  0.00    -0.217 N 
HETATM   30  C5  UNL     1      11.478  65.988  51.488  1.00  0.00     0.141 C 
HETATM   31  C6  UNL     1      11.634  65.127  52.726  1.00  0.00     0.022 C 
HETATM   32  C7  UNL     1      10.651  65.672  53.722  1.00  0.00     0.022 C 
HETATM   33  C8  UNL     1       9.595  66.312  52.807  1.00  0.00     0.141 C 
ENDBRANCH   9  29
TORSDOF 6
ENDMDL
MODEL 4
REMARK VINA RESULT: -9.185252049      1.381      1.949
REMARK  6 active torsions:
REMARK  status: ('A' for Active; 'I' for Inactive)
REMARK    1  A    between atoms: C4_9  and  N4_10 
REMARK    2  A    between atoms: C9_17  and  N6_18 
REMARK    3  A    between atoms: N6_18  and  C10_20 
REMARK    4  A    between atoms: C13_23  and  C14_24 
REMARK    5  A    between atoms: C14_24  and  C15_25 
REMARK    6  A    between atoms: C15_25  and  N7_26 
ROOT
HETATM    1  C1  UNL     1      10.283  72.593  48.449  1.00  0.00     0.157 C 
HETATM    2  N1  UNL     1       9.877  71.963  49.677  1.00  0.00    -0.341 N 
HETATM    3  C2  UNL     1       9.191  72.483  50.709  1.00  0.00     0.184 A 
HETATM    4  N2  UNL     1       9.017  71.561  51.667  1.00  0.00    -0.336 N 
ATOM      5  H2  UNL     1       8.528  71.705  52.551  1.00  0.00     0.168 HD
HETATM    6  C3  UNL     1       9.602  70.397  51.263  1.00  0.00     0.152 A 
HETATM    7  N3  UNL     1       9.714  69.186  51.841  1.00  0.00    -0.174 N 
ATOM      8  H3  UNL     1       9.309  69.022  52.763  1.00  0.00     0.186 HD
HETATM    9  C4  UNL     1      10.357  68.195  51.206  1.00  0.00     0.683 A 
HETATM   10  N5  UNL     1      10.877  68.452  49.992  1.00  0.00    -0.174 N 
ATOM     11  H5  UNL     1      11.364  67.697  49.510  1.00  0.00     0.186 HD
HETATM   12  C9  UNL     1      10.791  69.641  49.378  1.00  0.00     0.152 A 
HETATM   13  C22 UNL     1      10.125  70.690  50.021  1.00  0.00     0.125 A 
ENDROOT
BRANCH  12  14
HETATM   14  N6  UNL     1      11.273  69.889  48.226  1.00  0.00    -0.340 N 
ATOM     15  H6  UNL     1      10.662  70.255  47.496  1.00  0.00     0.167 HD
BRANCH  14  16
HETATM   16  C10 UNL     1      12.645  69.665  47.937  1.00  0.00     0.033 A 
HETATM   17  C11 UNL     1      13.372  68.709  48.659  1.00  0.00     0.030 A 
HETATM   18  C12 UNL     1      14.695  68.485  48.379  1.00  0.00     0.010 A 
HETATM   19  C13 UNL     1      15.327  69.182  47.402  1.00  0.00    -0.053 A 
HETATM   20  C20 UNL     1      14.647  70.118  46.685  1.00  0.00     0.010 A 
HETATM   21  C21 UNL     1      13.305  70.365  46.947  1.00  0.00     0.030 A 
BRANCH  19  22
HETATM   22  C14 UNL     1      16.772  68.945  47.045  1.00  0.00     0.082 C 
BRANCH  22  23
HETATM   23  C15 UNL     1      17.472  70.243  47.379  1.00  0.00     0.062 C 
BRANCH  23  24
HETATM   24  N7  UNL     1      18.595  70.590  46.658  1.00  0.00    -0.393 N 
HETATM   25  C16 UNL     1      19.599  71.424  47.206  1.00  0.00     0.122 C 
HETATM   26  C17 UNL     1      20.743  71.434  46.249  1.00  0.00     0.021 C 
HETATM   27  C18 UNL     1      20.339  70.518  45.130  1.00  0.00     0.021 C 
HETATM   28  C19 UNL     1      19.204  69.691  45.750  1.00  0.00     0.122 C 
ENDBRANCH  23  24
ENDBRANCH  22  23
ENDBRANCH  19  22
ENDBRANCH  14  16
ENDBRANCH  12  14
BRANCH   9  29
HETATM   29  N4  UNL     1      10.482  66.892  51.811  1.00  0.00    -0.217 N 
HETATM   30  C5  UNL     1      11.597  65.976  51.546  1.00  0.00     0.141 C 
HETATM   31  C6  UNL     1      11.693  65.101  52.780  1.00  0.00     0.022 C 
HETATM   32  C7  UNL     1      10.633  65.606  53.716  1.00  0.00     0.022 C 
HETATM   33  C8  UNL     1       9.623  66.232  52.742  1.00  0.00     0.141 C 
ENDBRANCH   9  29
TORSDOF 6
ENDMDL
MODEL 5
REMARK VINA RESULT: -9.018557760      6.765      9.663
REMARK  6 active torsions:
REMARK  status: ('A' for Active; 'I' for Inactive)
REMARK    1  A    between atoms: C4_9  and  N4_10 
REMARK    2  A    between atoms: C9_17  and  N6_18 
REMARK    3  A    between atoms: N6_18  and  C10_20 
REMARK    4  A    between atoms: C13_23  and  C14_24 
REMARK    5  A    between atoms: C14_24  and  C15_25 
REMARK    6  A    between atoms: C15_25  and  N7_26 
ROOT
HETATM    1  C1  UNL     1      16.701  71.327  46.951  1.00  0.00     0.157 C 
HETATM    2  N1  UNL     1      17.439  72.560  47.007  1.00  0.00    -0.341 N 
HETATM    3  C2  UNL     1      17.041  73.802  46.683  1.00  0.00     0.184 A 
HETATM    4  N2  UNL     1      18.037  74.679  46.879  1.00  0.00    -0.336 N 
ATOM      5  H2  UNL     1      17.988  75.684  46.708  1.00  0.00     0.168 HD
HETATM    6  C3  UNL     1      19.127  74.003  47.344  1.00  0.00     0.152 A 
HETATM    7  N3  UNL     1      20.364  74.403  47.692  1.00  0.00    -0.174 N 
ATOM      8  H3  UNL     1      20.620  75.388  47.624  1.00  0.00     0.186 HD
HETATM    9  C4  UNL     1      21.262  73.507  48.128  1.00  0.00     0.683 A 
HETATM   10  N5  UNL     1      20.886  72.217  48.203  1.00  0.00    -0.174 N 
ATOM     11  H5  UNL     1      21.569  71.537  48.535  1.00  0.00     0.186 HD
HETATM   12  C9  UNL     1      19.666  71.774  47.866  1.00  0.00     0.152 A 
HETATM   13  C22 UNL     1      18.713  72.689  47.409  1.00  0.00     0.125 A 
ENDROOT
BRANCH  12  14
HETATM   14  N6  UNL     1      19.301  70.556  47.942  1.00  0.00    -0.340 N 
ATOM     15  H6  UNL     1      18.927  70.200  48.822  1.00  0.00     0.167 HD
BRANCH  14  16
HETATM   16  C10 UNL     1      19.404  69.684  46.827  1.00  0.00     0.033 A 
HETATM   17  C11 UNL     1      18.889  68.383  46.898  1.00  0.00     0.030 A 
HETATM   18  C12 UNL     1      18.980  67.539  45.822  1.00  0.00     0.010 A 
HETATM   19  C13 UNL     1      19.570  67.944  44.669  1.00  0.00    -0.053 A 
HETATM   20  C20 UNL     1      20.080  69.201  44.571  1.00  0.00     0.010 A 
HETATM   21  C21 UNL     1      20.001  70.077  45.647  1.00  0.00     0.030 A 
BRANCH  19  22
HETATM   22  C14 UNL     1      19.664  67.056  43.455  1.00  0.00     0.082 C 
BRANCH  22  23
HETATM   23  C15 UNL     1      18.234  66.863  43.002  1.00  0.00     0.062 C 
BRANCH  23  24
HETATM   24  N7  UNL     1      17.615  65.661  43.270  1.00  0.00    -0.393 N 
HETATM   25  C16 UNL     1      18.359  64.499  43.589  1.00  0.00     0.122 C 
HETATM   26  C17 UNL     1      17.387  63.448  44.009  1.00  0.00     0.021 C 
HETATM   27  C18 UNL     1      16.037  64.100  43.944  1.00  0.00     0.021 C 
HETATM   28  C19 UNL     1      16.374  65.598  43.947  1.00  0.00     0.122 C 
ENDBRANCH  23  24
ENDBRANCH  22  23
ENDBRANCH  19  22
ENDBRANCH  14  16
ENDBRANCH  12  14
BRANCH   9  29
HETATM   29  N4  UNL     1      22.591  73.920  48.507  1.00  0.00    -0.217 N 
HETATM   30  C5  UNL     1      23.730  73.943  47.583  1.00  0.00     0.141 C 
HETATM   31  C6  UNL     1      24.675  74.987  48.143  1.00  0.00     0.022 C 
HETATM   32  C7  UNL     1      23.987  75.544  49.356  1.00  0.00     0.022 C 
HETATM   33  C8  UNL     1      23.079  74.375  49.769  1.00  0.00     0.141 C 
ENDBRANCH   9  29
TORSDOF 6
ENDMDL
