MODEL 1
REMARK VINA RESULT: -8.673598736      0.000      0.000
REMARK  6 active torsions:
REMARK  status: ('A' for Active; 'I' for Inactive)
REMARK    1  A    between atoms: N1_1  and  C1_5 
REMARK    2  A    between atoms: C1_5  and  C2_6 
REMARK    3  A    between atoms: C1_5  and  C7_12 
REMARK    4  A    between atoms: C2_6  and  C3_7 
REMARK       I    between atoms: C7_12  and  N2_14 
REMARK    5  A    between atoms: N3_23  and  C16_24 
REMARK    6  A    between atoms: C19_29  and  C20_30 
ROOT
HETATM    1  C7  UNL     1      16.404  68.967  46.870  1.00  0.00     0.269 C 
HETATM    2  O2  UNL     1      16.425  70.219  46.840  1.00  0.00    -0.269 OA
HETATM    3  N2  UNL     1      17.526  68.237  46.421  1.00  0.00    -0.256 N 
HETATM    4  C8  UNL     1      17.451  66.772  46.370  1.00  0.00     0.153 C 
HETATM    5  C9  UNL     1      17.378  66.291  44.950  1.00  0.00     0.031 C 
HETATM    6  C10 UNL     1      18.372  66.818  44.003  1.00  0.00    -0.037 C 
HETATM    7  C11 UNL     1      18.661  65.792  42.896  1.00  0.00     0.010 C 
HETATM    8  C12 UNL     1      17.452  66.371  42.163  1.00  0.00     0.002 C 
HETATM    9  C13 UNL     1      17.724  67.663  42.925  1.00  0.00     0.010 C 
HETATM   10  C14 UNL     1      19.645  67.348  44.549  1.00  0.00     0.031 C 
HETATM   11  C15 UNL     1      19.559  68.814  44.933  1.00  0.00     0.152 C 
HETATM   12  N3  UNL     1      18.635  68.986  46.062  1.00  0.00    -0.271 N 
ENDROOT
BRANCH   1  13
HETATM   13  C1  UNL     1      15.168  68.347  47.387  1.00  0.00     0.282 C 
BRANCH  13  14
HETATM   14  N1  UNL     1      14.295  68.072  46.230  1.00  0.00    -0.066 N 
ATOM     15  H13 UNL     1      13.317  67.917  46.475  1.00  0.00     0.275 HD
ATOM     16  H12 UNL     1      14.134  68.880  45.628  1.00  0.00     0.275 HD
ATOM     17  H11 UNL     1      14.737  67.283  45.759  1.00  0.00     0.275 HD
ENDBRANCH  13  14
BRANCH  13  18
HETATM   18  C2  UNL     1      14.364  69.293  48.252  1.00  0.00     0.107 C 
BRANCH  18  19
HETATM   19  C3  UNL     1      13.286  68.531  48.935  1.00  0.00     0.055 A 
HETATM   20  C4  UNL     1      13.082  68.449  50.297  1.00  0.00     0.034 A 
HETATM   21  C5  UNL     1      11.976  67.642  50.520  1.00  0.00     0.027 A 
HETATM   22  C6  UNL     1      11.561  67.271  49.244  1.00  0.00     0.142 A 
HETATM   23  O1  UNL     1      12.361  67.818  48.361  1.00  0.00    -0.327 OA
ENDBRANCH  18  19
ENDBRANCH  13  18
ENDBRANCH   1  13
BRANCH  12  24
HETATM   24  C16 UNL     1      18.987  70.074  46.879  1.00  0.00     0.138 A 
HETATM   25  C17 UNL     1      19.575  69.862  48.102  1.00  0.00     0.138 A 
HETATM   26  N4  UNL     1      19.933  70.853  48.925  1.00  0.00    -0.370 N 
HETATM   27  C18 UNL     1      19.709  72.122  48.542  1.00  0.00     0.113 A 
ATOM     28  H4  UNL     1      20.366  70.650  49.825  1.00  0.00     0.164 HD
HETATM   29  C19 UNL     1      19.122  72.392  47.322  1.00  0.00     0.030 A 
HETATM   30  N5  UNL     1      18.780  71.373  46.532  1.00  0.00    -0.342 N 
ATOM     31  H5  UNL     1      18.346  71.576  45.632  1.00  0.00     0.167 HD
BRANCH  29  32
HETATM   32  C20 UNL     1      18.903  73.819  46.960  1.00  0.00     0.037 A 
HETATM   33  C21 UNL     1      18.024  74.118  45.803  1.00  0.00     0.011 A 
HETATM   34  C22 UNL     1      19.485  74.347  45.695  1.00  0.00     0.011 A 
ENDBRANCH  29  32
ENDBRANCH  12  24
TORSDOF 6
ENDMDL
MODEL 2
REMARK VINA RESULT: -7.671336618      3.920      9.745
REMARK  6 active torsions:
REMARK  status: ('A' for Active; 'I' for Inactive)
REMARK    1  A    between atoms: N1_1  and  C1_5 
REMARK    2  A    between atoms: C1_5  and  C2_6 
REMARK    3  A    between atoms: C1_5  and  C7_12 
REMARK    4  A    between atoms: C2_6  and  C3_7 
REMARK       I    between atoms: C7_12  and  N2_14 
REMARK    5  A    between atoms: N3_23  and  C16_24 
REMARK    6  A    between atoms: C19_29  and  C20_30 
ROOT
HETATM    1  C7  UNL     1      12.046  69.034  48.693  1.00  0.00     0.269 C 
HETATM    2  O2  UNL     1      11.595  67.964  48.223  1.00  0.00    -0.269 OA
HETATM    3  N2  UNL     1      11.236  69.822  49.541  1.00  0.00    -0.256 N 
HETATM    4  C8  UNL     1      11.740  71.119  50.006  1.00  0.00     0.153 C 
HETATM    5  C9  UNL     1      11.012  72.246  49.333  1.00  0.00     0.031 C 
HETATM    6  C10 UNL     1       9.542  72.201  49.335  1.00  0.00    -0.037 C 
HETATM    7  C11 UNL     1       8.958  73.623  49.309  1.00  0.00     0.010 C 
HETATM    8  C12 UNL     1       9.096  73.559  47.789  1.00  0.00     0.002 C 
HETATM    9  C13 UNL     1       8.986  72.046  47.934  1.00  0.00     0.010 C 
HETATM   10  C14 UNL     1       8.869  71.394  50.382  1.00  0.00     0.031 C 
HETATM   11  C15 UNL     1       8.692  69.940  49.984  1.00  0.00     0.152 C 
HETATM   12  N3  UNL     1      10.003  69.285  49.875  1.00  0.00    -0.271 N 
ENDROOT
BRANCH   1  13
HETATM   13  C1  UNL     1      13.426  69.388  48.306  1.00  0.00     0.282 C 
BRANCH  13  14
HETATM   14  N1  UNL     1      13.339  70.448  47.284  1.00  0.00    -0.066 N 
ATOM     15  H13 UNL     1      14.235  70.695  46.864  1.00  0.00     0.275 HD
ATOM     16  H12 UNL     1      12.885  70.156  46.418  1.00  0.00     0.275 HD
ATOM     17  H11 UNL     1      12.874  71.222  47.758  1.00  0.00     0.275 HD
ENDBRANCH  13  14
BRANCH  13  18
HETATM   18  C2  UNL     1      14.142  68.250  47.613  1.00  0.00     0.107 C 
BRANCH  18  19
HETATM   19  C3  UNL     1      15.558  68.637  47.378  1.00  0.00     0.055 A 
HETATM   20  C4  UNL     1      16.513  67.883  46.727  1.00  0.00     0.034 A 
HETATM   21  C5  UNL     1      17.700  68.601  46.722  1.00  0.00     0.027 A 
HETATM   22  C6  UNL     1      17.387  69.783  47.388  1.00  0.00     0.142 A 
HETATM   23  O1  UNL     1      16.126  69.748  47.746  1.00  0.00    -0.327 OA
ENDBRANCH  18  19
ENDBRANCH  13  18
ENDBRANCH   1  13
BRANCH  12  24
HETATM   24  C16 UNL     1       9.944  67.916  50.187  1.00  0.00     0.138 A 
HETATM   25  C17 UNL     1       9.071  67.089  49.523  1.00  0.00     0.138 A 
HETATM   26  N4  UNL     1       8.968  65.780  49.773  1.00  0.00    -0.370 N 
HETATM   27  C18 UNL     1       9.755  65.241  50.721  1.00  0.00     0.113 A 
ATOM     28  H4  UNL     1       8.306  65.202  49.256  1.00  0.00     0.164 HD
HETATM   29  C19 UNL     1      10.650  66.026  51.419  1.00  0.00     0.030 A 
HETATM   30  N5  UNL     1      10.720  67.328  51.138  1.00  0.00    -0.342 N 
ATOM     31  H5  UNL     1      11.382  67.906  51.656  1.00  0.00     0.167 HD
BRANCH  29  32
HETATM   32  C20 UNL     1      11.490  65.366  52.455  1.00  0.00     0.037 A 
HETATM   33  C21 UNL     1      11.047  64.051  52.979  1.00  0.00     0.011 A 
HETATM   34  C22 UNL     1      10.974  65.251  53.846  1.00  0.00     0.011 A 
ENDBRANCH  29  32
ENDBRANCH  12  24
TORSDOF 6
ENDMDL
MODEL 3
REMARK VINA RESULT: -7.575899139      3.177      6.928
REMARK  6 active torsions:
REMARK  status: ('A' for Active; 'I' for Inactive)
REMARK    1  A    between atoms: N1_1  and  C1_5 
REMARK    2  A    between atoms: C1_5  and  C2_6 
REMARK    3  A    between atoms: C1_5  and  C7_12 
REMARK    4  A    between atoms: C2_6  and  C3_7 
REMARK       I    between atoms: C7_12  and  N2_14 
REMARK    5  A    between atoms: N3_23  and  C16_24 
REMARK    6  A    between atoms: C19_29  and  C20_30 
ROOT
HETATM    1  C7  UNL     1      16.661  66.626  45.249  1.00  0.00     0.269 C 
HETATM    2  O2  UNL     1      15.937  66.976  44.289  1.00  0.00    -0.269 OA
HETATM    3  N2  UNL     1      17.472  65.476  45.132  1.00  0.00    -0.256 N 
HETATM    4  C8  UNL     1      18.240  65.022  46.297  1.00  0.00     0.153 C 
HETATM    5  C9  UNL     1      17.653  63.762  46.865  1.00  0.00     0.031 C 
HETATM    6  C10 UNL     1      17.380  62.660  45.931  1.00  0.00    -0.037 C 
HETATM    7  C11 UNL     1      17.496  61.304  46.645  1.00  0.00     0.010 C 
HETATM    8  C12 UNL     1      16.040  61.496  47.063  1.00  0.00     0.002 C 
HETATM    9  C13 UNL     1      15.896  62.373  45.824  1.00  0.00     0.010 C 
HETATM   10  C14 UNL     1      18.129  62.626  44.651  1.00  0.00     0.031 C 
HETATM   11  C15 UNL     1      17.458  63.429  43.552  1.00  0.00     0.152 C 
HETATM   12  N3  UNL     1      17.476  64.859  43.890  1.00  0.00    -0.271 N 
ENDROOT
BRANCH   1  13
HETATM   13  C1  UNL     1      16.600  67.474  46.456  1.00  0.00     0.282 C 
BRANCH  13  14
HETATM   14  N1  UNL     1      16.134  68.808  46.034  1.00  0.00    -0.066 N 
ATOM     15  H13 UNL     1      16.308  69.019  45.052  1.00  0.00     0.275 HD
ATOM     16  H12 UNL     1      15.119  68.901  45.992  1.00  0.00     0.275 HD
ATOM     17  H11 UNL     1      16.584  69.453  46.684  1.00  0.00     0.275 HD
ENDBRANCH  13  14
BRANCH  13  18
HETATM   18  C2  UNL     1      17.965  67.723  47.059  1.00  0.00     0.107 C 
BRANCH  18  19
HETATM   19  C3  UNL     1      18.637  68.815  46.309  1.00  0.00     0.055 A 
HETATM   20  C4  UNL     1      19.452  68.665  45.205  1.00  0.00     0.034 A 
HETATM   21  C5  UNL     1      19.876  69.925  44.808  1.00  0.00     0.027 A 
HETATM   22  C6  UNL     1      19.276  70.791  45.719  1.00  0.00     0.142 A 
HETATM   23  O1  UNL     1      18.566  70.088  46.568  1.00  0.00    -0.327 OA
ENDBRANCH  18  19
ENDBRANCH  13  18
ENDBRANCH   1  13
BRANCH  12  24
HETATM   24  C16 UNL     1      17.529  65.678  42.750  1.00  0.00     0.138 A 
HETATM   25  C17 UNL     1      18.667  66.388  42.455  1.00  0.00     0.138 A 
HETATM   26  N4  UNL     1      18.779  67.183  41.386  1.00  0.00    -0.370 N 
HETATM   27  C18 UNL     1      17.729  67.297  40.554  1.00  0.00     0.113 A 
ATOM     28  H4  UNL     1      19.643  67.693  41.206  1.00  0.00     0.164 HD
HETATM   29  C19 UNL     1      16.560  66.605  40.802  1.00  0.00     0.030 A 
HETATM   30  N5  UNL     1      16.491  65.823  41.881  1.00  0.00    -0.342 N 
ATOM     31  H5  UNL     1      15.626  65.314  42.062  1.00  0.00     0.167 HD
BRANCH  29  32
HETATM   32  C20 UNL     1      15.436  66.776  39.841  1.00  0.00     0.037 A 
HETATM   33  C21 UNL     1      14.286  65.845  39.939  1.00  0.00     0.011 A 
HETATM   34  C22 UNL     1      15.216  65.748  38.788  1.00  0.00     0.011 A 
ENDBRANCH  29  32
ENDBRANCH  12  24
TORSDOF 6
ENDMDL
MODEL 4
REMARK VINA RESULT: -7.456409668      4.178      9.293
REMARK  6 active torsions:
REMARK  status: ('A' for Active; 'I' for Inactive)
REMARK    1  A    between atoms: N1_1  and  C1_5 
REMARK    2  A    between atoms: C1_5  and  C2_6 
REMARK    3  A    between atoms: C1_5  and  C7_12 
REMARK    4  A    between atoms: C2_6  and  C3_7 
REMARK       I    between atoms: C7_12  and  N2_14 
REMARK    5  A    between atoms: N3_23  and  C16_24 
REMARK    6  A    between atoms: C19_29  and  C20_30 
ROOT
HETATM    1  C7  UNL     1      11.910  68.560  50.278  1.00  0.00     0.269 C 
HETATM    2  O2  UNL     1      11.946  69.680  50.837  1.00  0.00    -0.269 OA
HETATM    3  N2  UNL     1      10.900  67.636  50.627  1.00  0.00    -0.256 N 
HETATM    4  C8  UNL     1      10.927  66.292  50.037  1.00  0.00     0.153 C 
HETATM    5  C9  UNL     1      11.321  65.268  51.062  1.00  0.00     0.031 C 
HETATM    6  C10 UNL     1      10.606  65.284  52.346  1.00  0.00    -0.037 C 
HETATM    7  C11 UNL     1      10.552  63.872  52.952  1.00  0.00     0.010 C 
HETATM    8  C12 UNL     1      11.923  64.171  53.553  1.00  0.00     0.002 C 
HETATM    9  C13 UNL     1      11.528  65.642  53.494  1.00  0.00     0.010 C 
HETATM   10  C14 UNL     1       9.261  65.907  52.390  1.00  0.00     0.031 C 
HETATM   11  C15 UNL     1       9.310  67.401  52.652  1.00  0.00     0.152 C 
HETATM   12  N3  UNL     1       9.941  68.091  51.518  1.00  0.00    -0.271 N 
ENDROOT
BRANCH   1  13
HETATM   13  C1  UNL     1      12.959  68.297  49.273  1.00  0.00     0.282 C 
BRANCH  13  14
HETATM   14  N1  UNL     1      14.255  68.300  49.978  1.00  0.00    -0.066 N 
ATOM     15  H13 UNL     1      14.911  69.004  49.640  1.00  0.00     0.275 HD
ATOM     16  H12 UNL     1      14.207  68.642  50.938  1.00  0.00     0.275 HD
ATOM     17  H11 UNL     1      14.593  67.341  49.895  1.00  0.00     0.275 HD
ENDBRANCH  13  14
BRANCH  13  18
HETATM   18  C2  UNL     1      13.079  69.409  48.256  1.00  0.00     0.107 C 
BRANCH  18  19
HETATM   19  C3  UNL     1      14.250  69.144  47.380  1.00  0.00     0.055 A 
HETATM   20  C4  UNL     1      14.235  68.451  46.187  1.00  0.00     0.034 A 
HETATM   21  C5  UNL     1      15.529  68.428  45.686  1.00  0.00     0.027 A 
HETATM   22  C6  UNL     1      16.274  69.128  46.631  1.00  0.00     0.142 A 
HETATM   23  O1  UNL     1      15.476  69.522  47.594  1.00  0.00    -0.327 OA
ENDBRANCH  18  19
ENDBRANCH  13  18
ENDBRANCH   1  13
BRANCH  12  24
HETATM   24  C16 UNL     1       9.446  69.394  51.343  1.00  0.00     0.138 A 
HETATM   25  C17 UNL     1       9.191  70.193  52.430  1.00  0.00     0.138 A 
HETATM   26  N4  UNL     1       8.720  71.440  52.329  1.00  0.00    -0.370 N 
HETATM   27  C18 UNL     1       8.482  71.943  51.105  1.00  0.00     0.113 A 
ATOM     28  H4  UNL     1       8.544  71.999  53.163  1.00  0.00     0.164 HD
HETATM   29  C19 UNL     1       8.721  71.183  49.977  1.00  0.00     0.030 A 
HETATM   30  N5  UNL     1       9.191  69.943  50.124  1.00  0.00    -0.342 N 
ATOM     31  H5  UNL     1       9.366  69.384  49.289  1.00  0.00     0.167 HD
BRANCH  29  32
HETATM   32  C20 UNL     1       8.436  71.800  48.653  1.00  0.00     0.037 A 
HETATM   33  C21 UNL     1       9.044  71.181  47.449  1.00  0.00     0.011 A 
HETATM   34  C22 UNL     1       9.530  72.499  47.925  1.00  0.00     0.011 A 
ENDBRANCH  29  32
ENDBRANCH  12  24
TORSDOF 6
ENDMDL
MODEL 5
REMARK VINA RESULT: -7.248748277      1.978      5.389
REMARK  6 active torsions:
REMARK  status: ('A' for Active; 'I' for Inactive)
REMARK    1  A    between atoms: N1_1  and  C1_5 
REMARK    2  A    between atoms: C1_5  and  C2_6 
REMARK    3  A    between atoms: C1_5  and  C7_12 
REMARK    4  A    between atoms: C2_6  and  C3_7 
REMARK       I    between atoms: C7_12  and  N2_14 
REMARK    5  A    between atoms: N3_23  and  C16_24 
REMARK    6  A    between atoms: C19_29  and  C20_30 
ROOT
HETATM    1  C7  UNL     1      16.403  68.556  47.049  1.00  0.00     0.269 C 
HETATM    2  O2  UNL     1      16.531  67.310  47.084  1.00  0.00    -0.269 OA
HETATM    3  N2  UNL     1      17.314  69.333  46.301  1.00  0.00    -0.256 N 
HETATM    4  C8  UNL     1      17.211  70.796  46.348  1.00  0.00     0.153 C 
HETATM    5  C9  UNL     1      18.348  71.385  47.133  1.00  0.00     0.031 C 
HETATM    6  C10 UNL     1      19.708  70.947  46.790  1.00  0.00    -0.037 C 
HETATM    7  C11 UNL     1      20.726  72.059  47.086  1.00  0.00     0.010 C 
HETATM    8  C12 UNL     1      20.765  71.524  48.516  1.00  0.00     0.002 C 
HETATM    9  C13 UNL     1      20.352  70.180  47.928  1.00  0.00     0.010 C 
HETATM   10  C14 UNL     1      19.943  70.391  45.434  1.00  0.00     0.031 C 
HETATM   11  C15 UNL     1      19.679  68.899  45.353  1.00  0.00     0.152 C 
HETATM   12  N3  UNL     1      18.251  68.628  45.562  1.00  0.00    -0.271 N 
ENDROOT
BRANCH   1  13
HETATM   13  C1  UNL     1      15.275  69.118  47.819  1.00  0.00     0.282 C 
BRANCH  13  14
HETATM   14  N1  UNL     1      15.023  68.212  48.956  1.00  0.00    -0.066 N 
ATOM     15  H13 UNL     1      15.720  67.477  49.066  1.00  0.00     0.275 HD
ATOM     16  H12 UNL     1      15.166  68.642  49.870  1.00  0.00     0.275 HD
ATOM     17  H11 UNL     1      14.075  67.868  48.803  1.00  0.00     0.275 HD
ENDBRANCH  13  14
BRANCH  13  18
HETATM   18  C2  UNL     1      13.981  69.113  47.037  1.00  0.00     0.107 C 
BRANCH  18  19
HETATM   19  C3  UNL     1      12.843  68.953  47.979  1.00  0.00     0.055 A 
HETATM   20  C4  UNL     1      12.154  69.971  48.606  1.00  0.00     0.034 A 
HETATM   21  C5  UNL     1      11.170  69.401  49.400  1.00  0.00     0.027 A 
HETATM   22  C6  UNL     1      11.322  68.031  49.203  1.00  0.00     0.142 A 
HETATM   23  O1  UNL     1      12.311  67.831  48.366  1.00  0.00    -0.327 OA
ENDBRANCH  18  19
ENDBRANCH  13  18
ENDBRANCH   1  13
BRANCH  12  24
HETATM   24  C16 UNL     1      17.817  67.484  44.870  1.00  0.00     0.138 A 
HETATM   25  C17 UNL     1      18.603  66.359  44.824  1.00  0.00     0.138 A 
HETATM   26  N4  UNL     1      18.247  65.241  44.183  1.00  0.00    -0.370 N 
HETATM   27  C18 UNL     1      17.062  65.211  43.550  1.00  0.00     0.113 A 
ATOM     28  H4  UNL     1      18.862  64.429  44.175  1.00  0.00     0.164 HD
HETATM   29  C19 UNL     1      16.231  66.314  43.563  1.00  0.00     0.030 A 
HETATM   30  N5  UNL     1      16.626  67.409  44.215  1.00  0.00    -0.342 N 
ATOM     31  H5  UNL     1      16.011  68.223  44.223  1.00  0.00     0.167 HD
BRANCH  29  32
HETATM   32  C20 UNL     1      14.934  66.213  42.842  1.00  0.00     0.037 A 
HETATM   33  C21 UNL     1      13.716  66.718  43.523  1.00  0.00     0.011 A 
HETATM   34  C22 UNL     1      13.901  65.259  43.331  1.00  0.00     0.011 A 
ENDBRANCH  29  32
ENDBRANCH  12  24
TORSDOF 6
ENDMDL
