MODEL 1
REMARK VINA RESULT: -6.186164791      0.000      0.000
REMARK  11 active torsions:
REMARK  status: ('A' for Active; 'I' for Inactive)
REMARK    1  A    between atoms: C2_2  and  N1_3 
REMARK       I    between atoms: N1_3  and  C3_5 
REMARK    2  A    between atoms: C3_5  and  C4_7 
REMARK    3  A    between atoms: C16_20  and  O2_21 
REMARK    4  A    between atoms: C16_20  and  C21_29 
REMARK    5  A    between atoms: O2_21  and  C17_22 
REMARK    6  A    between atoms: C17_22  and  C18_23 
REMARK    7  A    between atoms: C18_23  and  S1_24 
REMARK    8  A    between atoms: S1_24  and  C19_25 
REMARK    9  A    between atoms: C19_25  and  C20_26 
REMARK   10  A    between atoms: C20_26  and  O3_27 
REMARK   11  A    between atoms: C21_29  and  O5_31 
ROOT
HETATM    1  C4  UNL     1      -4.056   8.797  28.582  1.00  0.00     0.121 C 
HETATM    2  C5  UNL     1      -3.144   9.046  29.797  1.00  0.00     0.017 C 
HETATM    3  C6  UNL     1      -2.760   7.790  30.499  1.00  0.00     0.001 C 
HETATM    4  C7  UNL     1      -1.719   6.947  29.831  1.00  0.00     0.000 C 
HETATM    5  C8  UNL     1      -1.808   5.569  30.514  1.00  0.00     0.000 C 
HETATM    6  C9  UNL     1      -3.119   4.940  30.176  1.00  0.00     0.000 C 
HETATM    7  C10 UNL     1      -3.964   4.611  31.413  1.00  0.00     0.002 C 
HETATM    8  C11 UNL     1      -5.366   4.283  31.052  1.00  0.00     0.035 C 
HETATM    9  C12 UNL     1      -6.333   5.442  31.053  1.00  0.00     0.218 C 
HETATM   10  C13 UNL     1      -6.236   6.354  32.210  1.00  0.00     0.043 C 
HETATM   11  N2  UNL     1      -6.349   6.040  29.733  1.00  0.00     0.092 N 
HETATM   12  C14 UNL     1      -7.260   5.217  28.962  1.00  0.00     0.310 C 
HETATM   13  C15 UNL     1      -6.645   7.411  29.810  1.00  0.00     0.324 C 
HETATM   14  C16 UNL     1      -6.572   8.295  28.645  1.00  0.00     0.210 C 
HETATM   15  C23 UNL     1      -5.419   9.345  28.744  1.00  0.00     0.154 C 
HETATM   16  C24 UNL     1      -5.737  10.402  27.674  1.00  0.00     0.057 C 
HETATM   17  F1  UNL     1      -5.649   9.969  29.955  1.00  0.00    -0.239 F 
ENDROOT
BRANCH  14  18
HETATM   18  O2  UNL     1      -7.652   9.172  28.672  1.00  0.00    -0.364 OA
BRANCH  18  19
HETATM   19  C17 UNL     1      -8.671   9.013  29.498  1.00  0.00     0.179 C 
BRANCH  19  20
HETATM   20  C18 UNL     1      -9.929   8.698  28.650  1.00  0.00     0.100 C 
BRANCH  20  21
HETATM   21  S1  UNL     1     -10.620   7.108  29.177  1.00  0.00    -0.165 SA
BRANCH  21  22
HETATM   22  C19 UNL     1     -11.379   6.260  27.781  1.00  0.00     0.100 C 
BRANCH  22  23
HETATM   23  C20 UNL     1     -10.400   5.227  27.260  1.00  0.00     0.174 C 
BRANCH  23  24
HETATM   24  O3  UNL     1      -9.723   5.793  26.173  1.00  0.00    -0.400 OA
ATOM     25  H3  UNL     1      -9.382   5.081  25.642  1.00  0.00     0.209 HD
ENDBRANCH  23  24
ENDBRANCH  22  23
ENDBRANCH  21  22
ENDBRANCH  20  21
ENDBRANCH  19  20
ENDBRANCH  18  19
ENDBRANCH  14  18
BRANCH  14  26
HETATM   26  C21 UNL     1      -6.543   7.688  27.297  1.00  0.00     0.298 C 
HETATM   27  O4  UNL     1      -5.559   7.014  26.865  1.00  0.00    -0.262 OA
BRANCH  26  28
HETATM   28  O5  UNL     1      -7.565   7.779  26.361  1.00  0.00    -0.324 OA
HETATM   29  C22 UNL     1      -7.437   8.406  25.101  1.00  0.00     0.213 C 
ENDBRANCH  26  28
ENDBRANCH  14  26
BRANCH   1  30
HETATM   30  C3  UNL     1      -3.308   9.413  27.455  1.00  0.00     0.225 C 
HETATM   31  N1  UNL     1      -2.591  10.611  27.673  1.00  0.00    -0.361 N 
ATOM     32  H1  UNL     1      -2.594  11.038  28.599  1.00  0.00     0.162 HD
HETATM   33  O1  UNL     1      -3.284   8.914  26.319  1.00  0.00    -0.273 OA
BRANCH  31  34
HETATM   34  C2  UNL     1      -1.845  11.247  26.588  1.00  0.00     0.118 C 
HETATM   35  C1  UNL     1      -0.368  11.053  26.691  1.00  0.00     0.026 C 
ENDBRANCH  31  34
ENDBRANCH   1  30
TORSDOF 11
ENDMDL
MODEL 2
REMARK VINA RESULT: -6.144991172      1.691      2.638
REMARK  11 active torsions:
REMARK  status: ('A' for Active; 'I' for Inactive)
REMARK    1  A    between atoms: C2_2  and  N1_3 
REMARK       I    between atoms: N1_3  and  C3_5 
REMARK    2  A    between atoms: C3_5  and  C4_7 
REMARK    3  A    between atoms: C16_20  and  O2_21 
REMARK    4  A    between atoms: C16_20  and  C21_29 
REMARK    5  A    between atoms: O2_21  and  C17_22 
REMARK    6  A    between atoms: C17_22  and  C18_23 
REMARK    7  A    between atoms: C18_23  and  S1_24 
REMARK    8  A    between atoms: S1_24  and  C19_25 
REMARK    9  A    between atoms: C19_25  and  C20_26 
REMARK   10  A    between atoms: C20_26  and  O3_27 
REMARK   11  A    between atoms: C21_29  and  O5_31 
ROOT
HETATM    1  C4  UNL     1      -4.034   8.815  28.577  1.00  0.00     0.121 C 
HETATM    2  C5  UNL     1      -3.164   9.030  29.829  1.00  0.00     0.017 C 
HETATM    3  C6  UNL     1      -2.844   7.760  30.536  1.00  0.00     0.001 C 
HETATM    4  C7  UNL     1      -1.802   6.892  29.904  1.00  0.00     0.000 C 
HETATM    5  C8  UNL     1      -1.957   5.513  30.572  1.00  0.00     0.000 C 
HETATM    6  C9  UNL     1      -3.271   4.923  30.179  1.00  0.00     0.000 C 
HETATM    7  C10 UNL     1      -4.173   4.611  31.380  1.00  0.00     0.002 C 
HETATM    8  C11 UNL     1      -5.569   4.326  30.961  1.00  0.00     0.035 C 
HETATM    9  C12 UNL     1      -6.501   5.512  30.932  1.00  0.00     0.218 C 
HETATM   10  C13 UNL     1      -6.424   6.414  32.098  1.00  0.00     0.043 C 
HETATM   11  N2  UNL     1      -6.447   6.118  29.617  1.00  0.00     0.092 N 
HETATM   12  C14 UNL     1      -7.350   5.327  28.804  1.00  0.00     0.310 C 
HETATM   13  C15 UNL     1      -6.708   7.497  29.692  1.00  0.00     0.324 C 
HETATM   14  C16 UNL     1      -6.563   8.386  28.537  1.00  0.00     0.210 C 
HETATM   15  C23 UNL     1      -5.386   9.401  28.688  1.00  0.00     0.154 C 
HETATM   16  C24 UNL     1      -5.632  10.473  27.615  1.00  0.00     0.057 C 
HETATM   17  F1  UNL     1      -5.646  10.024  29.894  1.00  0.00    -0.239 F 
ENDROOT
BRANCH  14  18
HETATM   18  O2  UNL     1      -7.619   9.293  28.527  1.00  0.00    -0.364 OA
BRANCH  18  19
HETATM   19  C17 UNL     1      -8.699   9.127  29.270  1.00  0.00     0.179 C 
BRANCH  19  20
HETATM   20  C18 UNL     1      -9.686  10.276  28.940  1.00  0.00     0.100 C 
BRANCH  20  21
HETATM   21  S1  UNL     1      -9.504  11.590  30.174  1.00  0.00    -0.165 SA
BRANCH  21  22
HETATM   22  C19 UNL     1     -10.949  11.647  31.247  1.00  0.00     0.100 C 
BRANCH  22  23
HETATM   23  C20 UNL     1     -10.475  11.692  32.686  1.00  0.00     0.174 C 
BRANCH  23  24
HETATM   24  O3  UNL     1      -9.502  12.694  32.782  1.00  0.00    -0.400 OA
ATOM     25  H3  UNL     1      -9.818  13.451  32.303  1.00  0.00     0.209 HD
ENDBRANCH  23  24
ENDBRANCH  22  23
ENDBRANCH  21  22
ENDBRANCH  20  21
ENDBRANCH  19  20
ENDBRANCH  18  19
ENDBRANCH  14  18
BRANCH  14  26
HETATM   26  C21 UNL     1      -6.499   7.786  27.187  1.00  0.00     0.298 C 
HETATM   27  O4  UNL     1      -5.520   7.082  26.791  1.00  0.00    -0.262 OA
BRANCH  26  28
HETATM   28  O5  UNL     1      -7.477   7.917  26.210  1.00  0.00    -0.324 OA
HETATM   29  C22 UNL     1      -7.280   8.562  24.968  1.00  0.00     0.213 C 
ENDBRANCH  26  28
ENDBRANCH  14  26
BRANCH   1  30
HETATM   30  C3  UNL     1      -3.224   9.417  27.485  1.00  0.00     0.225 C 
HETATM   31  N1  UNL     1      -2.465  10.580  27.745  1.00  0.00    -0.361 N 
ATOM     32  H1  UNL     1      -2.481  10.991  28.678  1.00  0.00     0.162 HD
HETATM   33  O1  UNL     1      -3.185   8.934  26.342  1.00  0.00    -0.273 OA
BRANCH  31  34
HETATM   34  C2  UNL     1      -1.658  11.200  26.696  1.00  0.00     0.118 C 
HETATM   35  C1  UNL     1      -0.209  10.851  26.778  1.00  0.00     0.026 C 
ENDBRANCH  31  34
ENDBRANCH   1  30
TORSDOF 11
ENDMDL
MODEL 3
REMARK VINA RESULT: -6.072300567      2.620      5.543
REMARK  11 active torsions:
REMARK  status: ('A' for Active; 'I' for Inactive)
REMARK    1  A    between atoms: C2_2  and  N1_3 
REMARK       I    between atoms: N1_3  and  C3_5 
REMARK    2  A    between atoms: C3_5  and  C4_7 
REMARK    3  A    between atoms: C16_20  and  O2_21 
REMARK    4  A    between atoms: C16_20  and  C21_29 
REMARK    5  A    between atoms: O2_21  and  C17_22 
REMARK    6  A    between atoms: C17_22  and  C18_23 
REMARK    7  A    between atoms: C18_23  and  S1_24 
REMARK    8  A    between atoms: S1_24  and  C19_25 
REMARK    9  A    between atoms: C19_25  and  C20_26 
REMARK   10  A    between atoms: C20_26  and  O3_27 
REMARK   11  A    between atoms: C21_29  and  O5_31 
ROOT
HETATM    1  C4  UNL     1      -7.861   6.712  29.091  1.00  0.00     0.121 C 
HETATM    2  C5  UNL     1      -7.702   5.185  29.208  1.00  0.00     0.017 C 
HETATM    3  C6  UNL     1      -6.565   4.787  30.085  1.00  0.00     0.001 C 
HETATM    4  C7  UNL     1      -6.783   4.924  31.558  1.00  0.00     0.000 C 
HETATM    5  C8  UNL     1      -5.380   4.853  32.189  1.00  0.00     0.000 C 
HETATM    6  C9  UNL     1      -4.599   6.058  31.780  1.00  0.00     0.000 C 
HETATM    7  C10 UNL     1      -3.304   5.710  31.035  1.00  0.00     0.002 C 
HETATM    8  C11 UNL     1      -2.711   6.899  30.373  1.00  0.00     0.035 C 
HETATM    9  C12 UNL     1      -3.134   7.133  28.943  1.00  0.00     0.218 C 
HETATM   10  C13 UNL     1      -3.143   5.939  28.076  1.00  0.00     0.043 C 
HETATM   11  N2  UNL     1      -4.315   7.972  28.936  1.00  0.00     0.092 N 
HETATM   12  C14 UNL     1      -3.813   9.326  29.061  1.00  0.00     0.310 C 
HETATM   13  C15 UNL     1      -5.116   7.696  27.814  1.00  0.00     0.324 C 
HETATM   14  C16 UNL     1      -6.446   8.283  27.637  1.00  0.00     0.210 C 
HETATM   15  C23 UNL     1      -7.598   7.232  27.733  1.00  0.00     0.154 C 
HETATM   16  C24 UNL     1      -8.834   7.927  27.141  1.00  0.00     0.057 C 
HETATM   17  F1  UNL     1      -7.240   6.271  26.808  1.00  0.00    -0.239 F 
ENDROOT
BRANCH  14  18
HETATM   18  O2  UNL     1      -6.608   8.646  26.303  1.00  0.00    -0.364 OA
BRANCH  18  19
HETATM   19  C17 UNL     1      -5.586   8.765  25.475  1.00  0.00     0.179 C 
BRANCH  19  20
HETATM   20  C18 UNL     1      -5.805  10.044  24.627  1.00  0.00     0.100 C 
BRANCH  20  21
HETATM   21  S1  UNL     1      -7.579  10.265  24.331  1.00  0.00    -0.165 SA
BRANCH  21  22
HETATM   22  C19 UNL     1      -8.163   9.078  23.108  1.00  0.00     0.100 C 
BRANCH  22  23
HETATM   23  C20 UNL     1      -8.144   9.745  21.747  1.00  0.00     0.174 C 
BRANCH  23  24
HETATM   24  O3  UNL     1      -7.092   9.185  21.013  1.00  0.00    -0.400 OA
ATOM     25  H3  UNL     1      -7.459   8.523  20.440  1.00  0.00     0.209 HD
ENDBRANCH  23  24
ENDBRANCH  22  23
ENDBRANCH  21  22
ENDBRANCH  20  21
ENDBRANCH  19  20
ENDBRANCH  18  19
ENDBRANCH  14  18
BRANCH  14  26
HETATM   26  C21 UNL     1      -6.813   9.461  28.451  1.00  0.00     0.298 C 
HETATM   27  O4  UNL     1      -6.994   9.404  29.706  1.00  0.00    -0.262 OA
BRANCH  26  28
HETATM   28  O5  UNL     1      -6.999  10.745  27.955  1.00  0.00    -0.324 OA
HETATM   29  C22 UNL     1      -8.184  11.498  28.122  1.00  0.00     0.213 C 
ENDBRANCH  26  28
ENDBRANCH  14  26
BRANCH   1  30
HETATM   30  C3  UNL     1      -9.255   6.951  29.549  1.00  0.00     0.225 C 
HETATM   31  N1  UNL     1      -9.621   8.235  30.012  1.00  0.00    -0.361 N 
ATOM     32  H1  UNL     1      -8.926   8.982  30.025  1.00  0.00     0.162 HD
HETATM   33  O1  UNL     1     -10.120   6.062  29.541  1.00  0.00    -0.273 OA
BRANCH  31  34
HETATM   34  C2  UNL     1     -10.981   8.507  30.473  1.00  0.00     0.118 C 
HETATM   35  C1  UNL     1     -11.032   9.288  31.745  1.00  0.00     0.026 C 
ENDBRANCH  31  34
ENDBRANCH   1  30
TORSDOF 11
ENDMDL
MODEL 4
REMARK VINA RESULT: -5.943272085      2.532      5.238
REMARK  11 active torsions:
REMARK  status: ('A' for Active; 'I' for Inactive)
REMARK    1  A    between atoms: C2_2  and  N1_3 
REMARK       I    between atoms: N1_3  and  C3_5 
REMARK    2  A    between atoms: C3_5  and  C4_7 
REMARK    3  A    between atoms: C16_20  and  O2_21 
REMARK    4  A    between atoms: C16_20  and  C21_29 
REMARK    5  A    between atoms: O2_21  and  C17_22 
REMARK    6  A    between atoms: C17_22  and  C18_23 
REMARK    7  A    between atoms: C18_23  and  S1_24 
REMARK    8  A    between atoms: S1_24  and  C19_25 
REMARK    9  A    between atoms: C19_25  and  C20_26 
REMARK   10  A    between atoms: C20_26  and  O3_27 
REMARK   11  A    between atoms: C21_29  and  O5_31 
ROOT
HETATM    1  C4  UNL     1      -5.220   7.392  28.983  1.00  0.00     0.121 C 
HETATM    2  C5  UNL     1      -6.001   7.014  30.255  1.00  0.00     0.017 C 
HETATM    3  C6  UNL     1      -7.262   6.278  29.963  1.00  0.00     0.001 C 
HETATM    4  C7  UNL     1      -7.117   4.842  29.569  1.00  0.00     0.000 C 
HETATM    5  C8  UNL     1      -8.468   4.451  28.942  1.00  0.00     0.000 C 
HETATM    6  C9  UNL     1      -8.653   5.205  27.667  1.00  0.00     0.000 C 
HETATM    7  C10 UNL     1      -9.917   6.074  27.660  1.00  0.00     0.002 C 
HETATM    8  C11 UNL     1      -9.917   7.039  26.533  1.00  0.00     0.035 C 
HETATM    9  C12 UNL     1      -9.331   8.397  26.830  1.00  0.00     0.218 C 
HETATM   10  C13 UNL     1      -9.748   9.007  28.108  1.00  0.00     0.043 C 
HETATM   11  N2  UNL     1      -7.912   8.369  26.538  1.00  0.00     0.092 N 
HETATM   12  C14 UNL     1      -7.821   8.589  25.108  1.00  0.00     0.310 C 
HETATM   13  C15 UNL     1      -7.215   9.269  27.361  1.00  0.00     0.324 C 
HETATM   14  C16 UNL     1      -5.752   9.332  27.391  1.00  0.00     0.210 C 
HETATM   15  C23 UNL     1      -5.144   8.849  28.746  1.00  0.00     0.154 C 
HETATM   16  C24 UNL     1      -3.691   9.349  28.744  1.00  0.00     0.057 C 
HETATM   17  F1  UNL     1      -5.796   9.620  29.690  1.00  0.00    -0.239 F 
ENDROOT
BRANCH  14  18
HETATM   18  O2  UNL     1      -5.356  10.665  27.452  1.00  0.00    -0.364 OA
BRANCH  18  19
HETATM   19  C17 UNL     1      -6.204  11.662  27.270  1.00  0.00     0.179 C 
BRANCH  19  20
HETATM   20  C18 UNL     1      -5.769  12.434  25.998  1.00  0.00     0.100 C 
BRANCH  20  21
HETATM   21  S1  UNL     1      -7.086  12.330  24.758  1.00  0.00    -0.165 SA
BRANCH  21  22
HETATM   22  C19 UNL     1      -6.395  11.943  23.141  1.00  0.00     0.100 C 
BRANCH  22  23
HETATM   23  C20 UNL     1      -7.380  11.060  22.399  1.00  0.00     0.174 C 
BRANCH  23  24
HETATM   24  O3  UNL     1      -6.712   9.881  22.048  1.00  0.00    -0.400 OA
ATOM     25  H3  UNL     1      -6.025   9.736  22.688  1.00  0.00     0.209 HD
ENDBRANCH  23  24
ENDBRANCH  22  23
ENDBRANCH  21  22
ENDBRANCH  20  21
ENDBRANCH  19  20
ENDBRANCH  18  19
ENDBRANCH  14  18
BRANCH  14  26
HETATM   26  C21 UNL     1      -4.994   8.709  26.285  1.00  0.00     0.298 C 
HETATM   27  O4  UNL     1      -4.963   7.455  26.092  1.00  0.00    -0.262 OA
BRANCH  26  28
HETATM   28  O5  UNL     1      -4.244   9.401  25.344  1.00  0.00    -0.324 OA
HETATM   29  C22 UNL     1      -2.836   9.522  25.383  1.00  0.00     0.213 C 
ENDBRANCH  26  28
ENDBRANCH  14  26
BRANCH   1  30
HETATM   30  C3  UNL     1      -3.890   6.763  29.194  1.00  0.00     0.225 C 
HETATM   31  N1  UNL     1      -3.439   6.523  30.512  1.00  0.00    -0.361 N 
ATOM     32  H1  UNL     1      -4.031   6.781  31.301  1.00  0.00     0.162 HD
HETATM   33  O1  UNL     1      -3.151   6.436  28.253  1.00  0.00    -0.273 OA
BRANCH  31  34
HETATM   34  C2  UNL     1      -2.135   5.909  30.759  1.00  0.00     0.118 C 
HETATM   35  C1  UNL     1      -2.171   4.416  30.745  1.00  0.00     0.026 C 
ENDBRANCH  31  34
ENDBRANCH   1  30
TORSDOF 11
ENDMDL
MODEL 5
REMARK VINA RESULT: -5.940716329      2.624      6.168
REMARK  11 active torsions:
REMARK  status: ('A' for Active; 'I' for Inactive)
REMARK    1  A    between atoms: C2_2  and  N1_3 
REMARK       I    between atoms: N1_3  and  C3_5 
REMARK    2  A    between atoms: C3_5  and  C4_7 
REMARK    3  A    between atoms: C16_20  and  O2_21 
REMARK    4  A    between atoms: C16_20  and  C21_29 
REMARK    5  A    between atoms: O2_21  and  C17_22 
REMARK    6  A    between atoms: C17_22  and  C18_23 
REMARK    7  A    between atoms: C18_23  and  S1_24 
REMARK    8  A    between atoms: S1_24  and  C19_25 
REMARK    9  A    between atoms: C19_25  and  C20_26 
REMARK   10  A    between atoms: C20_26  and  O3_27 
REMARK   11  A    between atoms: C21_29  and  O5_31 
ROOT
HETATM    1  C4  UNL     1      -7.562   7.282  27.994  1.00  0.00     0.121 C 
HETATM    2  C5  UNL     1      -7.753   5.756  27.913  1.00  0.00     0.017 C 
HETATM    3  C6  UNL     1      -7.184   5.038  29.086  1.00  0.00     0.001 C 
HETATM    4  C7  UNL     1      -7.969   5.115  30.358  1.00  0.00     0.000 C 
HETATM    5  C8  UNL     1      -6.998   4.668  31.466  1.00  0.00     0.000 C 
HETATM    6  C9  UNL     1      -5.908   5.679  31.599  1.00  0.00     0.000 C 
HETATM    7  C10 UNL     1      -4.510   5.089  31.375  1.00  0.00     0.002 C 
HETATM    8  C11 UNL     1      -3.485   6.149  31.202  1.00  0.00     0.035 C 
HETATM    9  C12 UNL     1      -3.219   6.580  29.781  1.00  0.00     0.218 C 
HETATM   10  C13 UNL     1      -3.087   5.488  28.797  1.00  0.00     0.043 C 
HETATM   11  N2  UNL     1      -4.110   7.673  29.448  1.00  0.00     0.092 N 
HETATM   12  C14 UNL     1      -3.463   8.857  29.980  1.00  0.00     0.310 C 
HETATM   13  C15 UNL     1      -4.404   7.677  28.075  1.00  0.00     0.324 C 
HETATM   14  C16 UNL     1      -5.403   8.574  27.489  1.00  0.00     0.210 C 
HETATM   15  C23 UNL     1      -6.663   7.822  26.953  1.00  0.00     0.154 C 
HETATM   16  C24 UNL     1      -7.385   8.831  26.047  1.00  0.00     0.057 C 
HETATM   17  F1  UNL     1      -6.137   6.872  26.098  1.00  0.00    -0.239 F 
ENDROOT
BRANCH  14  18
HETATM   18  O2  UNL     1      -4.922   9.060  26.277  1.00  0.00    -0.364 OA
BRANCH  18  19
HETATM   19  C17 UNL     1      -3.663   8.908  25.905  1.00  0.00     0.179 C 
BRANCH  19  20
HETATM   20  C18 UNL     1      -3.017  10.314  25.820  1.00  0.00     0.100 C 
BRANCH  20  21
HETATM   21  S1  UNL     1      -1.800  10.492  27.151  1.00  0.00    -0.165 SA
BRANCH  21  22
HETATM   22  C19 UNL     1      -0.416   9.368  26.890  1.00  0.00     0.100 C 
BRANCH  22  23
HETATM   23  C20 UNL     1      -0.353   8.408  28.061  1.00  0.00     0.174 C 
BRANCH  23  24
HETATM   24  O3  UNL     1       0.631   7.453  27.775  1.00  0.00    -0.400 OA
ATOM     25  H3  UNL     1       0.919   7.080  28.599  1.00  0.00     0.209 HD
ENDBRANCH  23  24
ENDBRANCH  22  23
ENDBRANCH  21  22
ENDBRANCH  20  21
ENDBRANCH  19  20
ENDBRANCH  18  19
ENDBRANCH  14  18
BRANCH  14  26
HETATM   26  C21 UNL     1      -5.850   9.743  28.275  1.00  0.00     0.298 C 
HETATM   27  O4  UNL     1      -6.532   9.638  29.340  1.00  0.00    -0.262 OA
BRANCH  26  28
HETATM   28  O5  UNL     1      -5.585  11.067  27.954  1.00  0.00    -0.324 OA
HETATM   29  C22 UNL     1      -6.546  11.971  27.447  1.00  0.00     0.213 C 
ENDBRANCH  26  28
ENDBRANCH  14  26
BRANCH   1  30
HETATM   30  C3  UNL     1      -8.948   7.810  27.903  1.00  0.00     0.225 C 
HETATM   31  N1  UNL     1      -9.316   8.928  28.685  1.00  0.00    -0.361 N 
ATOM     32  H1  UNL     1      -8.627   9.359  29.302  1.00  0.00     0.162 HD
HETATM   33  O1  UNL     1      -9.804   7.308  27.158  1.00  0.00    -0.273 OA
BRANCH  31  34
HETATM   34  C2  UNL     1     -10.671   9.474  28.623  1.00  0.00     0.118 C 
HETATM   35  C1  UNL     1     -11.456   9.256  29.875  1.00  0.00     0.026 C 
ENDBRANCH  31  34
ENDBRANCH   1  30
TORSDOF 11
ENDMDL
