MODEL 1
REMARK VINA RESULT: -7.734962369      0.000      0.000
REMARK  12 active torsions:
REMARK  status: ('A' for Active; 'I' for Inactive)
REMARK    1  A    between atoms: C2_2  and  C3_3 
REMARK    2  A    between atoms: C3_3  and  C4_4 
REMARK    3  A    between atoms: C4_4  and  C5_5 
REMARK    4  A    between atoms: C5_5  and  O2_7 
REMARK    5  A    between atoms: O2_7  and  C6_8 
REMARK    6  A    between atoms: C6_8  and  C7_9 
REMARK    7  A    between atoms: C7_9  and  C8_10 
REMARK    8  A    between atoms: C7_9  and  C13_17 
REMARK    9  A    between atoms: C8_10  and  C9_11 
REMARK   10  A    between atoms: C13_17  and  C14_19 
REMARK   11  A    between atoms: C17_23  and  O6_24 
REMARK   12  A    between atoms: C22_30  and  O7_31 
ROOT
HETATM    1  C14 UNL     1      -7.439   5.812  29.052  1.00  0.00     0.083 C 
HETATM    2  C15 UNL     1      -8.879   5.423  28.841  1.00  0.00     0.135 C 
HETATM    3  O5  UNL     1      -9.662   5.219  29.735  1.00  0.00    -0.297 OA
HETATM    4  C16 UNL     1      -9.378   5.281  27.450  1.00  0.00     0.111 C 
HETATM    5  C17 UNL     1      -8.711   6.400  26.667  1.00  0.00     0.130 C 
HETATM    6  C18 UNL     1      -8.238   7.524  27.509  1.00  0.00     0.034 C 
HETATM    7  C19 UNL     1      -8.002   8.729  26.679  1.00  0.00    -0.015 C 
HETATM    8  C20 UNL     1      -8.374  10.027  27.412  1.00  0.00     0.018 C 
HETATM    9  C21 UNL     1      -8.939   8.754  25.455  1.00  0.00     0.018 C 
HETATM   10  C22 UNL     1      -6.623   8.834  26.074  1.00  0.00     0.126 C 
HETATM   11  C23 UNL     1      -5.528   8.288  26.880  1.00  0.00     0.033 C 
HETATM   12  C24 UNL     1      -5.806   7.090  27.689  1.00  0.00     0.013 C 
HETATM   13  C25 UNL     1      -7.133   7.147  28.470  1.00  0.00    -0.025 C 
HETATM   14  C26 UNL     1      -6.869   8.182  29.501  1.00  0.00     0.016 C 
ENDROOT
BRANCH   1  15
HETATM   15  C13 UNL     1      -7.131   5.551  30.470  1.00  0.00     0.100 C 
HETATM   16 CL1  UNL     1      -7.247   3.796  30.702  1.00  0.00    -0.124 Cl
BRANCH  15  17
HETATM   17  C7  UNL     1      -5.812   6.019  30.969  1.00  0.00     0.030 C 
BRANCH  17  18
HETATM   18  C6  UNL     1      -5.831   6.273  32.485  1.00  0.00     0.184 C 
BRANCH  18  19
HETATM   19  O2  UNL     1      -5.524   5.115  33.217  1.00  0.00    -0.321 OA
BRANCH  19  20
HETATM   20  C5  UNL     1      -5.937   4.784  34.475  1.00  0.00     0.258 C 
HETATM   21  O1  UNL     1      -5.509   5.460  35.453  1.00  0.00    -0.265 OA
BRANCH  20  22
HETATM   22  C4  UNL     1      -6.864   3.677  34.802  1.00  0.00     0.111 C 
BRANCH  22  23
HETATM   23  C3  UNL     1      -7.396   3.947  36.210  1.00  0.00     0.009 C 
BRANCH  23  24
HETATM   24  C2  UNL     1      -8.881   3.635  36.227  1.00  0.00    -0.004 C 
HETATM   25  C1  UNL     1      -9.115   2.568  35.158  1.00  0.00     0.005 C 
ENDBRANCH  23  24
ENDBRANCH  22  23
ENDBRANCH  20  22
ENDBRANCH  19  20
ENDBRANCH  18  19
ENDBRANCH  17  18
BRANCH  17  26
HETATM   26  C8  UNL     1      -4.754   4.951  30.870  1.00  0.00     0.023 C 
BRANCH  26  27
HETATM   27  C9  UNL     1      -3.578   5.165  30.003  1.00  0.00     0.088 C 
HETATM   28  C10 UNL     1      -3.067   6.565  29.999  1.00  0.00     0.041 C 
HETATM   29  C11 UNL     1      -1.798   6.523  30.865  1.00  0.00     0.179 C 
HETATM   30  O3  UNL     1      -1.354   5.179  30.698  1.00  0.00    -0.321 OA
HETATM   31  C12 UNL     1      -2.463   4.392  30.672  1.00  0.00     0.263 C 
HETATM   32  O4  UNL     1      -2.522   3.213  31.137  1.00  0.00    -0.265 OA
ENDBRANCH  26  27
ENDBRANCH  17  26
ENDBRANCH  15  17
ENDBRANCH   1  15
BRANCH   5  33
HETATM   33  O6  UNL     1      -7.760   5.809  25.868  1.00  0.00    -0.395 OA
ATOM     34  H6  UNL     1      -8.212   5.497  25.094  1.00  0.00     0.210 HD
ENDBRANCH   5  33
BRANCH  10  35
HETATM   35  O7  UNL     1      -6.395  10.215  25.866  1.00  0.00    -0.395 OA
ATOM     36  H7  UNL     1      -5.533  10.280  25.474  1.00  0.00     0.210 HD
ENDBRANCH  10  35
TORSDOF 12
ENDMDL
MODEL 2
REMARK VINA RESULT: -7.674483863      1.010      1.192
REMARK  12 active torsions:
REMARK  status: ('A' for Active; 'I' for Inactive)
REMARK    1  A    between atoms: C2_2  and  C3_3 
REMARK    2  A    between atoms: C3_3  and  C4_4 
REMARK    3  A    between atoms: C4_4  and  C5_5 
REMARK    4  A    between atoms: C5_5  and  O2_7 
REMARK    5  A    between atoms: O2_7  and  C6_8 
REMARK    6  A    between atoms: C6_8  and  C7_9 
REMARK    7  A    between atoms: C7_9  and  C8_10 
REMARK    8  A    between atoms: C7_9  and  C13_17 
REMARK    9  A    between atoms: C8_10  and  C9_11 
REMARK   10  A    between atoms: C13_17  and  C14_19 
REMARK   11  A    between atoms: C17_23  and  O6_24 
REMARK   12  A    between atoms: C22_30  and  O7_31 
ROOT
HETATM    1  C14 UNL     1      -7.350   6.443  28.586  1.00  0.00     0.083 C 
HETATM    2  C15 UNL     1      -8.795   6.252  28.205  1.00  0.00     0.135 C 
HETATM    3  O5  UNL     1      -9.669   5.972  28.987  1.00  0.00    -0.297 OA
HETATM    4  C16 UNL     1      -9.180   6.418  26.780  1.00  0.00     0.111 C 
HETATM    5  C17 UNL     1      -8.349   7.584  26.273  1.00  0.00     0.130 C 
HETATM    6  C18 UNL     1      -7.853   8.480  27.342  1.00  0.00     0.034 C 
HETATM    7  C19 UNL     1      -7.437   9.785  26.774  1.00  0.00    -0.015 C 
HETATM    8  C20 UNL     1      -7.753  10.960  27.712  1.00  0.00     0.018 C 
HETATM    9  C21 UNL     1      -8.256  10.129  25.515  1.00  0.00     0.018 C 
HETATM   10  C22 UNL     1      -6.006   9.852  26.298  1.00  0.00     0.126 C 
HETATM   11  C23 UNL     1      -5.040   9.058  27.061  1.00  0.00     0.033 C 
HETATM   12  C24 UNL     1      -5.495   7.768  27.607  1.00  0.00     0.013 C 
HETATM   13  C25 UNL     1      -6.875   7.822  28.290  1.00  0.00    -0.025 C 
HETATM   14  C26 UNL     1      -6.611   8.619  29.514  1.00  0.00     0.016 C 
ENDROOT
BRANCH   1  15
HETATM   15  C13 UNL     1      -7.193   5.897  29.947  1.00  0.00     0.100 C 
HETATM   16 CL1  UNL     1      -7.393   4.140  29.818  1.00  0.00    -0.124 Cl
BRANCH  15  17
HETATM   17  C7  UNL     1      -5.914   6.190  30.644  1.00  0.00     0.030 C 
BRANCH  17  18
HETATM   18  C6  UNL     1      -6.031   5.983  32.164  1.00  0.00     0.184 C 
BRANCH  18  19
HETATM   19  O2  UNL     1      -5.420   4.791  32.582  1.00  0.00    -0.321 OA
BRANCH  19  20
HETATM   20  C5  UNL     1      -6.025   3.641  33.000  1.00  0.00     0.258 C 
HETATM   21  O1  UNL     1      -5.548   2.532  32.628  1.00  0.00    -0.265 OA
BRANCH  20  22
HETATM   22  C4  UNL     1      -7.220   3.578  33.873  1.00  0.00     0.111 C 
BRANCH  22  23
HETATM   23  C3  UNL     1      -6.796   4.110  35.242  1.00  0.00     0.009 C 
BRANCH  23  24
HETATM   24  C2  UNL     1      -7.889   3.780  36.242  1.00  0.00    -0.004 C 
HETATM   25  C1  UNL     1      -8.978   3.037  35.468  1.00  0.00     0.005 C 
ENDBRANCH  23  24
ENDBRANCH  22  23
ENDBRANCH  20  22
ENDBRANCH  19  20
ENDBRANCH  18  19
ENDBRANCH  17  18
BRANCH  17  26
HETATM   26  C8  UNL     1      -4.838   5.193  30.301  1.00  0.00     0.023 C 
BRANCH  26  27
HETATM   27  C9  UNL     1      -3.542   5.668  29.779  1.00  0.00     0.088 C 
HETATM   28  C10 UNL     1      -3.219   7.080  30.130  1.00  0.00     0.041 C 
HETATM   29  C11 UNL     1      -2.167   6.977  31.246  1.00  0.00     0.179 C 
HETATM   30  O3  UNL     1      -1.533   5.733  30.960  1.00  0.00    -0.321 OA
HETATM   31  C12 UNL     1      -2.506   4.876  30.545  1.00  0.00     0.263 C 
HETATM   32  O4  UNL     1      -2.514   3.628  30.778  1.00  0.00    -0.265 OA
ENDBRANCH  26  27
ENDBRANCH  17  26
ENDBRANCH  15  17
ENDBRANCH   1  15
BRANCH   5  33
HETATM   33  O6  UNL     1      -7.388   7.051  25.444  1.00  0.00    -0.395 OA
ATOM     34  H6  UNL     1      -6.784   6.575  26.001  1.00  0.00     0.210 HD
ENDBRANCH   5  33
BRANCH  10  35
HETATM   35  O7  UNL     1      -5.637  11.217  26.372  1.00  0.00    -0.395 OA
ATOM     36  H7  UNL     1      -5.588  11.522  25.474  1.00  0.00     0.210 HD
ENDBRANCH  10  35
TORSDOF 12
ENDMDL
MODEL 3
REMARK VINA RESULT: -7.441780526      1.810      4.799
REMARK  12 active torsions:
REMARK  status: ('A' for Active; 'I' for Inactive)
REMARK    1  A    between atoms: C2_2  and  C3_3 
REMARK    2  A    between atoms: C3_3  and  C4_4 
REMARK    3  A    between atoms: C4_4  and  C5_5 
REMARK    4  A    between atoms: C5_5  and  O2_7 
REMARK    5  A    between atoms: O2_7  and  C6_8 
REMARK    6  A    between atoms: C6_8  and  C7_9 
REMARK    7  A    between atoms: C7_9  and  C8_10 
REMARK    8  A    between atoms: C7_9  and  C13_17 
REMARK    9  A    between atoms: C8_10  and  C9_11 
REMARK   10  A    between atoms: C13_17  and  C14_19 
REMARK   11  A    between atoms: C17_23  and  O6_24 
REMARK   12  A    between atoms: C22_30  and  O7_31 
ROOT
HETATM    1  C14 UNL     1      -6.494   6.599  28.626  1.00  0.00     0.083 C 
HETATM    2  C15 UNL     1      -7.975   6.341  28.530  1.00  0.00     0.135 C 
HETATM    3  O5  UNL     1      -8.728   6.369  29.470  1.00  0.00    -0.297 OA
HETATM    4  C16 UNL     1      -8.555   6.035  27.198  1.00  0.00     0.111 C 
HETATM    5  C17 UNL     1      -7.818   6.935  26.221  1.00  0.00     0.130 C 
HETATM    6  C18 UNL     1      -7.191   8.120  26.850  1.00  0.00     0.034 C 
HETATM    7  C19 UNL     1      -6.875   9.144  25.826  1.00  0.00    -0.015 C 
HETATM    8  C20 UNL     1      -7.074  10.575  26.348  1.00  0.00     0.018 C 
HETATM    9  C21 UNL     1      -7.865   9.075  24.647  1.00  0.00     0.018 C 
HETATM   10  C22 UNL     1      -5.525   9.000  25.167  1.00  0.00     0.126 C 
HETATM   11  C23 UNL     1      -4.452   8.473  26.015  1.00  0.00     0.033 C 
HETATM   12  C24 UNL     1      -4.810   7.457  27.018  1.00  0.00     0.013 C 
HETATM   13  C25 UNL     1      -6.083   7.783  27.823  1.00  0.00    -0.025 C 
HETATM   14  C26 UNL     1      -5.662   8.934  28.661  1.00  0.00     0.016 C 
ENDROOT
BRANCH   1  15
HETATM   15  C13 UNL     1      -6.143   6.536  30.057  1.00  0.00     0.100 C 
HETATM   16 CL1  UNL     1      -7.498   7.255  30.946  1.00  0.00    -0.124 Cl
BRANCH  15  17
HETATM   17  C7  UNL     1      -5.853   5.191  30.619  1.00  0.00     0.030 C 
BRANCH  17  18
HETATM   18  C6  UNL     1      -4.483   5.147  31.317  1.00  0.00     0.184 C 
BRANCH  18  19
HETATM   19  O2  UNL     1      -3.422   5.243  30.403  1.00  0.00    -0.321 OA
BRANCH  19  20
HETATM   20  C5  UNL     1      -2.143   5.653  30.644  1.00  0.00     0.258 C 
HETATM   21  O1  UNL     1      -1.214   4.798  30.615  1.00  0.00    -0.265 OA
BRANCH  20  22
HETATM   22  C4  UNL     1      -1.739   7.047  30.942  1.00  0.00     0.111 C 
BRANCH  22  23
HETATM   23  C3  UNL     1      -2.359   7.928  29.857  1.00  0.00     0.009 C 
BRANCH  23  24
HETATM   24  C2  UNL     1      -1.463   7.878  28.632  1.00  0.00    -0.004 C 
HETATM   25  C1  UNL     1      -1.455   9.287  28.039  1.00  0.00     0.005 C 
ENDBRANCH  23  24
ENDBRANCH  22  23
ENDBRANCH  20  22
ENDBRANCH  19  20
ENDBRANCH  18  19
ENDBRANCH  17  18
BRANCH  17  26
HETATM   26  C8  UNL     1      -6.769   4.843  31.763  1.00  0.00     0.023 C 
BRANCH  26  27
HETATM   27  C9  UNL     1      -6.334   3.861  32.775  1.00  0.00     0.088 C 
HETATM   28  C10 UNL     1      -6.787   4.166  34.161  1.00  0.00     0.041 C 
HETATM   29  C11 UNL     1      -7.938   3.182  34.425  1.00  0.00     0.179 C 
HETATM   30  O3  UNL     1      -7.601   2.081  33.585  1.00  0.00    -0.321 OA
HETATM   31  C12 UNL     1      -7.093   2.597  32.433  1.00  0.00     0.263 C 
HETATM   32  O4  UNL     1      -7.246   2.083  31.283  1.00  0.00    -0.265 OA
ENDBRANCH  26  27
ENDBRANCH  17  26
ENDBRANCH  15  17
ENDBRANCH   1  15
BRANCH   5  33
HETATM   33  O6  UNL     1      -6.974   6.123  25.498  1.00  0.00    -0.395 OA
ATOM     34  H6  UNL     1      -6.109   6.512  25.555  1.00  0.00     0.210 HD
ENDBRANCH   5  33
BRANCH  10  35
HETATM   35  O7  UNL     1      -5.167  10.297  24.728  1.00  0.00    -0.395 OA
ATOM     36  H7  UNL     1      -4.665  10.173  23.931  1.00  0.00     0.210 HD
ENDBRANCH  10  35
TORSDOF 12
ENDMDL
MODEL 4
REMARK VINA RESULT: -7.354318008      2.145      5.223
REMARK  12 active torsions:
REMARK  status: ('A' for Active; 'I' for Inactive)
REMARK    1  A    between atoms: C2_2  and  C3_3 
REMARK    2  A    between atoms: C3_3  and  C4_4 
REMARK    3  A    between atoms: C4_4  and  C5_5 
REMARK    4  A    between atoms: C5_5  and  O2_7 
REMARK    5  A    between atoms: O2_7  and  C6_8 
REMARK    6  A    between atoms: C6_8  and  C7_9 
REMARK    7  A    between atoms: C7_9  and  C8_10 
REMARK    8  A    between atoms: C7_9  and  C13_17 
REMARK    9  A    between atoms: C8_10  and  C9_11 
REMARK   10  A    between atoms: C13_17  and  C14_19 
REMARK   11  A    between atoms: C17_23  and  O6_24 
REMARK   12  A    between atoms: C22_30  and  O7_31 
ROOT
HETATM    1  C14 UNL     1      -5.909   7.484  28.740  1.00  0.00     0.083 C 
HETATM    2  C15 UNL     1      -7.045   6.946  27.910  1.00  0.00     0.135 C 
HETATM    3  O5  UNL     1      -8.112   6.613  28.360  1.00  0.00    -0.297 OA
HETATM    4  C16 UNL     1      -6.850   6.815  26.443  1.00  0.00     0.111 C 
HETATM    5  C17 UNL     1      -6.047   8.038  26.034  1.00  0.00     0.130 C 
HETATM    6  C18 UNL     1      -6.140   9.167  26.989  1.00  0.00     0.034 C 
HETATM    7  C19 UNL     1      -5.708  10.429  26.342  1.00  0.00    -0.015 C 
HETATM    8  C20 UNL     1      -6.522  11.641  26.821  1.00  0.00     0.018 C 
HETATM    9  C21 UNL     1      -5.996  10.406  24.828  1.00  0.00     0.018 C 
HETATM   10  C22 UNL     1      -4.228  10.717  26.419  1.00  0.00     0.126 C 
HETATM   11  C23 UNL     1      -3.549  10.261  27.634  1.00  0.00     0.033 C 
HETATM   12  C24 UNL     1      -4.010   9.002  28.243  1.00  0.00     0.013 C 
HETATM   13  C25 UNL     1      -5.542   8.872  28.346  1.00  0.00    -0.025 C 
HETATM   14  C26 UNL     1      -5.893   9.880  29.378  1.00  0.00     0.016 C 
ENDROOT
BRANCH   1  15
HETATM   15  C13 UNL     1      -6.235   7.193  30.149  1.00  0.00     0.100 C 
HETATM   16 CL1  UNL     1      -7.995   7.350  30.306  1.00  0.00    -0.124 Cl
BRANCH  15  17
HETATM   17  C7  UNL     1      -5.818   5.868  30.675  1.00  0.00     0.030 C 
BRANCH  17  18
HETATM   18  C6  UNL     1      -4.332   5.852  31.070  1.00  0.00     0.184 C 
BRANCH  18  19
HETATM   19  O2  UNL     1      -3.555   5.104  30.171  1.00  0.00    -0.321 OA
BRANCH  19  20
HETATM   20  C5  UNL     1      -2.248   5.298  29.831  1.00  0.00     0.258 C 
HETATM   21  O1  UNL     1      -1.350   4.735  30.518  1.00  0.00    -0.265 OA
BRANCH  20  22
HETATM   22  C4  UNL     1      -1.779   6.130  28.699  1.00  0.00     0.111 C 
BRANCH  22  23
HETATM   23  C3  UNL     1      -1.005   7.302  29.303  1.00  0.00     0.009 C 
BRANCH  23  24
HETATM   24  C2  UNL     1       0.172   7.615  28.397  1.00  0.00    -0.004 C 
HETATM   25  C1  UNL     1      -0.075   9.011  27.826  1.00  0.00     0.005 C 
ENDBRANCH  23  24
ENDBRANCH  22  23
ENDBRANCH  20  22
ENDBRANCH  19  20
ENDBRANCH  18  19
ENDBRANCH  17  18
BRANCH  17  26
HETATM   26  C8  UNL     1      -6.470   5.549  31.995  1.00  0.00     0.023 C 
BRANCH  26  27
HETATM   27  C9  UNL     1      -5.751   4.720  32.983  1.00  0.00     0.088 C 
HETATM   28  C10 UNL     1      -5.969   5.128  34.400  1.00  0.00     0.041 C 
HETATM   29  C11 UNL     1      -6.938   4.078  34.967  1.00  0.00     0.179 C 
HETATM   30  O3  UNL     1      -6.647   2.930  34.175  1.00  0.00    -0.321 OA
HETATM   31  C12 UNL     1      -6.420   3.366  32.907  1.00  0.00     0.263 C 
HETATM   32  O4  UNL     1      -6.728   2.722  31.857  1.00  0.00    -0.265 OA
ENDBRANCH  26  27
ENDBRANCH  17  26
ENDBRANCH  15  17
ENDBRANCH   1  15
BRANCH   5  33
HETATM   33  O6  UNL     1      -4.775   7.596  25.750  1.00  0.00    -0.395 OA
ATOM     34  H6  UNL     1      -4.463   8.119  25.021  1.00  0.00     0.210 HD
ENDBRANCH   5  33
BRANCH  10  35
HETATM   35  O7  UNL     1      -4.102  12.124  26.324  1.00  0.00    -0.395 OA
ATOM     36  H7  UNL     1      -3.173  12.296  26.226  1.00  0.00     0.210 HD
ENDBRANCH  10  35
TORSDOF 12
ENDMDL
MODEL 5
REMARK VINA RESULT: -7.242690158      2.181      3.468
REMARK  12 active torsions:
REMARK  status: ('A' for Active; 'I' for Inactive)
REMARK    1  A    between atoms: C2_2  and  C3_3 
REMARK    2  A    between atoms: C3_3  and  C4_4 
REMARK    3  A    between atoms: C4_4  and  C5_5 
REMARK    4  A    between atoms: C5_5  and  O2_7 
REMARK    5  A    between atoms: O2_7  and  C6_8 
REMARK    6  A    between atoms: C6_8  and  C7_9 
REMARK    7  A    between atoms: C7_9  and  C8_10 
REMARK    8  A    between atoms: C7_9  and  C13_17 
REMARK    9  A    between atoms: C8_10  and  C9_11 
REMARK   10  A    between atoms: C13_17  and  C14_19 
REMARK   11  A    between atoms: C17_23  and  O6_24 
REMARK   12  A    between atoms: C22_30  and  O7_31 
ROOT
HETATM    1  C14 UNL     1      -8.044   7.130  29.277  1.00  0.00     0.083 C 
HETATM    2  C15 UNL     1      -7.890   8.621  29.425  1.00  0.00     0.135 C 
HETATM    3  O5  UNL     1      -6.907   9.235  29.093  1.00  0.00    -0.297 OA
HETATM    4  C16 UNL     1      -9.013   9.395  30.012  1.00  0.00     0.111 C 
HETATM    5  C17 UNL     1     -10.275   8.755  29.459  1.00  0.00     0.130 C 
HETATM    6  C18 UNL     1     -10.063   7.988  28.209  1.00  0.00     0.034 C 
HETATM    7  C19 UNL     1     -11.352   7.765  27.513  1.00  0.00    -0.015 C 
HETATM    8  C20 UNL     1     -11.208   7.818  25.984  1.00  0.00     0.018 C 
HETATM    9  C21 UNL     1     -12.343   8.911  27.797  1.00  0.00     0.018 C 
HETATM   10  C22 UNL     1     -12.107   6.528  27.935  1.00  0.00     0.126 C 
HETATM   11  C23 UNL     1     -11.285   5.376  28.315  1.00  0.00     0.033 C 
HETATM   12  C24 UNL     1     -10.012   5.643  29.006  1.00  0.00     0.013 C 
HETATM   13  C25 UNL     1      -9.176   6.774  28.378  1.00  0.00    -0.025 C 
HETATM   14  C26 UNL     1      -8.730   6.185  27.091  1.00  0.00     0.016 C 
ENDROOT
BRANCH   1  15
HETATM   15  C13 UNL     1      -6.701   6.588  29.001  1.00  0.00     0.100 C 
HETATM   16 CL1  UNL     1      -5.994   7.603  27.731  1.00  0.00    -0.124 Cl
BRANCH  15  17
HETATM   17  C7  UNL     1      -5.757   6.516  30.146  1.00  0.00     0.030 C 
BRANCH  17  18
HETATM   18  C6  UNL     1      -6.393   5.835  31.370  1.00  0.00     0.184 C 
BRANCH  18  19
HETATM   19  O2  UNL     1      -5.458   5.085  32.101  1.00  0.00    -0.321 OA
BRANCH  19  20
HETATM   20  C5  UNL     1      -5.655   3.897  32.742  1.00  0.00     0.258 C 
HETATM   21  O1  UNL     1      -4.812   2.970  32.578  1.00  0.00    -0.265 OA
BRANCH  20  22
HETATM   22  C4  UNL     1      -6.796   3.591  33.635  1.00  0.00     0.111 C 
BRANCH  22  23
HETATM   23  C3  UNL     1      -6.529   4.312  34.957  1.00  0.00     0.009 C 
BRANCH  23  24
HETATM   24  C2  UNL     1      -7.569   3.859  35.966  1.00  0.00    -0.004 C 
HETATM   25  C1  UNL     1      -8.674   3.163  35.171  1.00  0.00     0.005 C 
ENDBRANCH  23  24
ENDBRANCH  22  23
ENDBRANCH  20  22
ENDBRANCH  19  20
ENDBRANCH  18  19
ENDBRANCH  17  18
BRANCH  17  26
HETATM   26  C8  UNL     1      -4.600   5.590  29.873  1.00  0.00     0.023 C 
BRANCH  26  27
HETATM   27  C9  UNL     1      -3.261   6.152  29.611  1.00  0.00     0.088 C 
HETATM   28  C10 UNL     1      -3.066   7.537  30.125  1.00  0.00     0.041 C 
HETATM   29  C11 UNL     1      -2.203   7.372  31.386  1.00  0.00     0.179 C 
HETATM   30  O3  UNL     1      -1.474   6.179  31.107  1.00  0.00    -0.321 OA
HETATM   31  C12 UNL     1      -2.325   5.330  30.470  1.00  0.00     0.263 C 
HETATM   32  O4  UNL     1      -2.312   4.067  30.595  1.00  0.00    -0.265 OA
ENDBRANCH  26  27
ENDBRANCH  17  26
ENDBRANCH  15  17
ENDBRANCH   1  15
BRANCH   5  33
HETATM   33  O6  UNL     1     -10.852   8.061  30.497  1.00  0.00    -0.395 OA
ATOM     34  H6  UNL     1     -10.618   7.148  30.377  1.00  0.00     0.210 HD
ENDBRANCH   5  33
BRANCH  10  35
HETATM   35  O7  UNL     1     -12.914   6.170  26.828  1.00  0.00    -0.395 OA
ATOM     36  H7  UNL     1     -13.812   6.233  27.130  1.00  0.00     0.210 HD
ENDBRANCH  10  35
TORSDOF 12
ENDMDL
