MODEL 1
REMARK VINA RESULT: -7.755972579      0.000      0.000
REMARK  12 active torsions:
REMARK  status: ('A' for Active; 'I' for Inactive)
REMARK    1  A    between atoms: C2_2  and  C3_3 
REMARK    2  A    between atoms: C3_3  and  N1_4 
REMARK    3  A    between atoms: C3_3  and  C5_7 
REMARK    4  A    between atoms: C5_7  and  O1_8 
REMARK    5  A    between atoms: N2_10  and  C6_12 
REMARK    6  A    between atoms: C7_15  and  C8_16 
REMARK       I    between atoms: N4_19  and  C11_20 
REMARK    7  A    between atoms: C11_20  and  O3_22 
REMARK    8  A    between atoms: O3_22  and  C12_23 
REMARK    9  A    between atoms: C12_23  and  C13_24 
REMARK   10  A    between atoms: C18_30  and  C19_31 
REMARK   11  A    between atoms: C19_31  and  C20_33 
REMARK   12  A    between atoms: C20_33  and  C21_34 
ROOT
HETATM    1  C6  UNL     1      -3.925   5.508  30.843  1.00  0.00     0.151 A 
HETATM    2  N3  UNL     1      -5.122   5.951  30.364  1.00  0.00    -0.338 N 
ATOM      3  H3  UNL     1      -5.157   6.745  29.726  1.00  0.00     0.168 HD
HETATM    4  C7  UNL     1      -6.215   5.356  30.726  1.00  0.00     0.036 A 
HETATM    5  C18 UNL     1      -6.089   4.287  31.583  1.00  0.00     0.077 A 
HETATM    6  S1  UNL     1      -4.394   4.199  31.827  1.00  0.00    -0.048 SA
ENDROOT
BRANCH   4   7
HETATM    7  C8  UNL     1      -7.617   5.859  30.422  1.00  0.00     0.047 C 
HETATM    8  C9  UNL     1      -8.158   5.349  29.119  1.00  0.00     0.032 C 
HETATM    9  C10 UNL     1      -9.697   5.411  29.299  1.00  0.00     0.138 C 
HETATM   10  N4  UNL     1      -9.963   6.845  29.478  1.00  0.00    -0.264 N 
HETATM   11  C11 UNL     1     -11.311   7.258  29.635  1.00  0.00     0.369 C 
HETATM   12  C16 UNL     1      -8.919   7.769  29.584  1.00  0.00     0.228 C 
HETATM   13  O2  UNL     1     -12.268   6.445  29.835  1.00  0.00    -0.238 OA
HETATM   14  O4  UNL     1      -9.049   8.979  29.202  1.00  0.00    -0.273 OA
HETATM   15  C17 UNL     1      -7.591   7.393  30.148  1.00  0.00     0.114 C 
BRANCH  11  16
HETATM   16  O3  UNL     1     -11.630   8.611  29.561  1.00  0.00    -0.303 OA
BRANCH  16  17
HETATM   17  C12 UNL     1     -12.299   9.327  30.559  1.00  0.00     0.184 C 
BRANCH  17  18
HETATM   18  C13 UNL     1     -11.450   9.514  31.765  1.00  0.00     0.002 C 
HETATM   19  C14 UNL     1     -12.147   9.383  33.066  1.00  0.00     0.011 C 
HETATM   20  C15 UNL     1     -10.791  10.895  31.703  1.00  0.00     0.011 C 
ENDBRANCH  17  18
ENDBRANCH  16  17
ENDBRANCH  11  16
ENDBRANCH   4   7
BRANCH   5  21
HETATM   21  C19 UNL     1      -7.077   3.432  32.281  1.00  0.00     0.168 C 
HETATM   22  O5  UNL     1      -7.255   2.301  31.847  1.00  0.00    -0.292 OA
BRANCH  21  23
HETATM   23  C20 UNL     1      -7.753   4.028  33.448  1.00  0.00     0.088 C 
BRANCH  23  24
HETATM   24  C21 UNL     1      -7.118   3.672  34.735  1.00  0.00    -0.015 C 
HETATM   25  C22 UNL     1      -8.186   3.510  35.832  1.00  0.00     0.010 C 
HETATM   26  C23 UNL     1      -6.139   4.711  35.200  1.00  0.00     0.010 C 
ENDBRANCH  23  24
ENDBRANCH  21  23
ENDBRANCH   5  21
BRANCH   1  27
HETATM   27  N2  UNL     1      -2.796   6.024  30.635  1.00  0.00    -0.319 N 
HETATM   28  C5  UNL     1      -1.710   6.121  29.901  1.00  0.00     0.140 C 
ATOM     29  H2  UNL     1      -2.657   6.681  31.403  1.00  0.00     0.169 HD
BRANCH  28  30
HETATM   30  C3  UNL     1      -1.378   7.184  28.916  1.00  0.00     0.151 C 
BRANCH  30  31
HETATM   31  C2  UNL     1      -2.079   8.444  29.096  1.00  0.00     0.028 C 
HETATM   32  C1  UNL     1      -3.275   8.579  28.102  1.00  0.00     0.007 C 
ENDBRANCH  30  31
BRANCH  30  33
HETATM   33  N1  UNL     1       0.035   7.144  28.774  1.00  0.00    -0.414 N 
HETATM   34  C4  UNL     1       0.662   8.038  27.907  1.00  0.00     0.140 C 
ATOM     35  H1  UNL     1       0.585   6.468  29.301  1.00  0.00     0.153 HD
ENDBRANCH  30  33
ENDBRANCH  28  30
BRANCH  28  36
HETATM   36  O1  UNL     1      -0.757   5.194  30.027  1.00  0.00    -0.348 OA
ATOM     37  H1  UNL     1      -1.032   4.326  29.755  1.00  0.00     0.219 HD
ENDBRANCH  28  36
ENDBRANCH   1  27
TORSDOF 12
ENDMDL
MODEL 2
REMARK VINA RESULT: -7.566699611      0.561      1.136
REMARK  12 active torsions:
REMARK  status: ('A' for Active; 'I' for Inactive)
REMARK    1  A    between atoms: C2_2  and  C3_3 
REMARK    2  A    between atoms: C3_3  and  N1_4 
REMARK    3  A    between atoms: C3_3  and  C5_7 
REMARK    4  A    between atoms: C5_7  and  O1_8 
REMARK    5  A    between atoms: N2_10  and  C6_12 
REMARK    6  A    between atoms: C7_15  and  C8_16 
REMARK       I    between atoms: N4_19  and  C11_20 
REMARK    7  A    between atoms: C11_20  and  O3_22 
REMARK    8  A    between atoms: O3_22  and  C12_23 
REMARK    9  A    between atoms: C12_23  and  C13_24 
REMARK   10  A    between atoms: C18_30  and  C19_31 
REMARK   11  A    between atoms: C19_31  and  C20_33 
REMARK   12  A    between atoms: C20_33  and  C21_34 
ROOT
HETATM    1  C6  UNL     1      -3.858   5.658  30.857  1.00  0.00     0.151 A 
HETATM    2  N3  UNL     1      -5.057   6.099  30.381  1.00  0.00    -0.338 N 
ATOM      3  H3  UNL     1      -5.098   6.917  29.773  1.00  0.00     0.168 HD
HETATM    4  C7  UNL     1      -6.144   5.472  30.705  1.00  0.00     0.036 A 
HETATM    5  C18 UNL     1      -6.011   4.373  31.521  1.00  0.00     0.077 A 
HETATM    6  S1  UNL     1      -4.317   4.303  31.783  1.00  0.00    -0.048 SA
ENDROOT
BRANCH   4   7
HETATM    7  C8  UNL     1      -7.551   5.965  30.404  1.00  0.00     0.047 C 
HETATM    8  C9  UNL     1      -8.106   5.416  29.123  1.00  0.00     0.032 C 
HETATM    9  C10 UNL     1      -9.644   5.480  29.319  1.00  0.00     0.138 C 
HETATM   10  N4  UNL     1      -9.911   6.918  29.460  1.00  0.00    -0.264 N 
HETATM   11  C11 UNL     1     -11.257   7.333  29.622  1.00  0.00     0.369 C 
HETATM   12  C16 UNL     1      -8.867   7.847  29.527  1.00  0.00     0.228 C 
HETATM   13  O2  UNL     1     -12.210   6.525  29.857  1.00  0.00    -0.238 OA
HETATM   14  O4  UNL     1      -9.004   9.045  29.112  1.00  0.00    -0.273 OA
HETATM   15  C17 UNL     1      -7.531   7.489  30.085  1.00  0.00     0.114 C 
BRANCH  11  16
HETATM   16  O3  UNL     1     -11.580   8.683  29.512  1.00  0.00    -0.303 OA
BRANCH  16  17
HETATM   17  C12 UNL     1     -12.244   9.425  30.494  1.00  0.00     0.184 C 
BRANCH  17  18
HETATM   18  C13 UNL     1     -11.393   9.633  31.695  1.00  0.00     0.002 C 
HETATM   19  C14 UNL     1     -12.072   9.449  33.000  1.00  0.00     0.011 C 
HETATM   20  C15 UNL     1     -10.802  11.045  31.651  1.00  0.00     0.011 C 
ENDBRANCH  17  18
ENDBRANCH  16  17
ENDBRANCH  11  16
ENDBRANCH   4   7
BRANCH   5  21
HETATM   21  C19 UNL     1      -6.992   3.475  32.173  1.00  0.00     0.168 C 
HETATM   22  O5  UNL     1      -7.129   2.351  31.708  1.00  0.00    -0.292 OA
BRANCH  21  23
HETATM   23  C20 UNL     1      -7.713   4.024  33.337  1.00  0.00     0.088 C 
BRANCH  23  24
HETATM   24  C21 UNL     1      -7.125   3.619  34.631  1.00  0.00    -0.015 C 
HETATM   25  C22 UNL     1      -8.230   3.441  35.689  1.00  0.00     0.010 C 
HETATM   26  C23 UNL     1      -6.145   4.628  35.159  1.00  0.00     0.010 C 
ENDBRANCH  23  24
ENDBRANCH  21  23
ENDBRANCH   5  21
BRANCH   1  27
HETATM   27  N2  UNL     1      -2.736   6.200  30.683  1.00  0.00    -0.319 N 
HETATM   28  C5  UNL     1      -1.669   6.387  29.938  1.00  0.00     0.140 C 
ATOM     29  H2  UNL     1      -2.578   6.762  31.519  1.00  0.00     0.169 HD
BRANCH  28  30
HETATM   30  C3  UNL     1      -1.365   7.561  29.077  1.00  0.00     0.151 C 
BRANCH  30  31
HETATM   31  C2  UNL     1      -0.028   7.589  28.508  1.00  0.00     0.028 C 
HETATM   32  C1  UNL     1       0.245   8.930  27.760  1.00  0.00     0.007 C 
ENDBRANCH  30  31
BRANCH  30  33
HETATM   33  N1  UNL     1      -2.514   7.744  28.262  1.00  0.00    -0.414 N 
HETATM   34  C4  UNL     1      -3.314   8.870  28.448  1.00  0.00     0.140 C 
ATOM     35  H1  UNL     1      -2.751   7.057  27.547  1.00  0.00     0.153 HD
ENDBRANCH  30  33
ENDBRANCH  28  30
BRANCH  28  36
HETATM   36  O1  UNL     1      -0.712   5.456  29.930  1.00  0.00    -0.348 OA
ATOM     37  H1  UNL     1      -0.784   4.830  30.641  1.00  0.00     0.219 HD
ENDBRANCH  28  36
ENDBRANCH   1  27
TORSDOF 12
ENDMDL
MODEL 3
REMARK VINA RESULT: -7.554705551      1.694      2.307
REMARK  12 active torsions:
REMARK  status: ('A' for Active; 'I' for Inactive)
REMARK    1  A    between atoms: C2_2  and  C3_3 
REMARK    2  A    between atoms: C3_3  and  N1_4 
REMARK    3  A    between atoms: C3_3  and  C5_7 
REMARK    4  A    between atoms: C5_7  and  O1_8 
REMARK    5  A    between atoms: N2_10  and  C6_12 
REMARK    6  A    between atoms: C7_15  and  C8_16 
REMARK       I    between atoms: N4_19  and  C11_20 
REMARK    7  A    between atoms: C11_20  and  O3_22 
REMARK    8  A    between atoms: O3_22  and  C12_23 
REMARK    9  A    between atoms: C12_23  and  C13_24 
REMARK   10  A    between atoms: C18_30  and  C19_31 
REMARK   11  A    between atoms: C19_31  and  C20_33 
REMARK   12  A    between atoms: C20_33  and  C21_34 
ROOT
HETATM    1  C6  UNL     1      -3.026   6.585  30.163  1.00  0.00     0.151 A 
HETATM    2  N3  UNL     1      -4.306   6.522  29.696  1.00  0.00    -0.338 N 
ATOM      3  H3  UNL     1      -4.589   7.088  28.896  1.00  0.00     0.168 HD
HETATM    4  C7  UNL     1      -5.160   5.738  30.276  1.00  0.00     0.036 A 
HETATM    5  C18 UNL     1      -4.705   5.000  31.343  1.00  0.00     0.077 A 
HETATM    6  S1  UNL     1      -3.062   5.480  31.459  1.00  0.00    -0.048 SA
ENDROOT
BRANCH   4   7
HETATM    7  C8  UNL     1      -6.652   5.714  29.982  1.00  0.00     0.047 C 
HETATM    8  C9  UNL     1      -6.968   5.871  28.524  1.00  0.00     0.032 C 
HETATM    9  C10 UNL     1      -8.358   5.199  28.365  1.00  0.00     0.138 C 
HETATM   10  N4  UNL     1      -9.235   6.023  29.208  1.00  0.00    -0.264 N 
HETATM   11  C11 UNL     1     -10.613   5.693  29.257  1.00  0.00     0.369 C 
HETATM   12  C16 UNL     1      -8.718   7.045  30.011  1.00  0.00     0.228 C 
HETATM   13  O2  UNL     1     -11.086   4.613  28.782  1.00  0.00    -0.238 OA
HETATM   14  O4  UNL     1      -9.402   8.081  30.305  1.00  0.00    -0.273 OA
HETATM   15  C17 UNL     1      -7.337   6.984  30.569  1.00  0.00     0.114 C 
BRANCH  11  16
HETATM   16  O3  UNL     1     -11.514   6.582  29.837  1.00  0.00    -0.303 OA
BRANCH  16  17
HETATM   17  C12 UNL     1     -12.688   7.037  29.227  1.00  0.00     0.184 C 
BRANCH  17  18
HETATM   18  C13 UNL     1     -13.686   7.496  30.229  1.00  0.00     0.002 C 
HETATM   19  C14 UNL     1     -14.847   8.237  29.682  1.00  0.00     0.011 C 
HETATM   20  C15 UNL     1     -12.986   8.383  31.262  1.00  0.00     0.011 C 
ENDBRANCH  17  18
ENDBRANCH  16  17
ENDBRANCH  11  16
ENDBRANCH   4   7
BRANCH   5  21
HETATM   21  C19 UNL     1      -5.376   4.090  32.301  1.00  0.00     0.168 C 
HETATM   22  O5  UNL     1      -5.200   2.887  32.158  1.00  0.00    -0.292 OA
BRANCH  21  23
HETATM   23  C20 UNL     1      -6.193   4.726  33.350  1.00  0.00     0.088 C 
BRANCH  23  24
HETATM   24  C21 UNL     1      -6.535   3.811  34.459  1.00  0.00    -0.015 C 
HETATM   25  C22 UNL     1      -8.013   3.389  34.369  1.00  0.00     0.010 C 
HETATM   26  C23 UNL     1      -6.320   4.437  35.808  1.00  0.00     0.010 C 
ENDBRANCH  23  24
ENDBRANCH  21  23
ENDBRANCH   5  21
BRANCH   1  27
HETATM   27  N2  UNL     1      -2.112   7.344  29.747  1.00  0.00    -0.319 N 
HETATM   28  C5  UNL     1      -1.361   7.782  28.762  1.00  0.00     0.140 C 
ATOM     29  H2  UNL     1      -1.810   7.872  30.567  1.00  0.00     0.169 HD
BRANCH  28  30
HETATM   30  C3  UNL     1      -1.525   9.046  27.995  1.00  0.00     0.151 C 
BRANCH  30  31
HETATM   31  C2  UNL     1      -0.327   9.538  27.337  1.00  0.00     0.028 C 
HETATM   32  C1  UNL     1      -0.492  11.022  26.888  1.00  0.00     0.007 C 
ENDBRANCH  30  31
BRANCH  30  33
HETATM   33  N1  UNL     1      -2.747   8.903  27.284  1.00  0.00    -0.414 N 
HETATM   34  C4  UNL     1      -3.850   9.669  27.658  1.00  0.00     0.140 C 
ATOM     35  H1  UNL     1      -2.816   8.247  26.507  1.00  0.00     0.153 HD
ENDBRANCH  30  33
ENDBRANCH  28  30
BRANCH  28  36
HETATM   36  O1  UNL     1      -0.308   7.056  28.377  1.00  0.00    -0.348 OA
ATOM     37  H1  UNL     1      -0.044   6.402  29.013  1.00  0.00     0.219 HD
ENDBRANCH  28  36
ENDBRANCH   1  27
TORSDOF 12
ENDMDL
MODEL 4
REMARK VINA RESULT: -7.495733224      1.601      2.041
REMARK  12 active torsions:
REMARK  status: ('A' for Active; 'I' for Inactive)
REMARK    1  A    between atoms: C2_2  and  C3_3 
REMARK    2  A    between atoms: C3_3  and  N1_4 
REMARK    3  A    between atoms: C3_3  and  C5_7 
REMARK    4  A    between atoms: C5_7  and  O1_8 
REMARK    5  A    between atoms: N2_10  and  C6_12 
REMARK    6  A    between atoms: C7_15  and  C8_16 
REMARK       I    between atoms: N4_19  and  C11_20 
REMARK    7  A    between atoms: C11_20  and  O3_22 
REMARK    8  A    between atoms: O3_22  and  C12_23 
REMARK    9  A    between atoms: C12_23  and  C13_24 
REMARK   10  A    between atoms: C18_30  and  C19_31 
REMARK   11  A    between atoms: C19_31  and  C20_33 
REMARK   12  A    between atoms: C20_33  and  C21_34 
ROOT
HETATM    1  C6  UNL     1      -3.018   6.641  30.054  1.00  0.00     0.151 A 
HETATM    2  N3  UNL     1      -4.304   6.575  29.606  1.00  0.00    -0.338 N 
ATOM      3  H3  UNL     1      -4.600   7.141  28.810  1.00  0.00     0.168 HD
HETATM    4  C7  UNL     1      -5.149   5.789  30.198  1.00  0.00     0.036 A 
HETATM    5  C18 UNL     1      -4.677   5.052  31.258  1.00  0.00     0.077 A 
HETATM    6  S1  UNL     1      -3.034   5.535  31.350  1.00  0.00    -0.048 SA
ENDROOT
BRANCH   4   7
HETATM    7  C8  UNL     1      -6.645   5.763  29.926  1.00  0.00     0.047 C 
HETATM    8  C9  UNL     1      -6.982   5.904  28.471  1.00  0.00     0.032 C 
HETATM    9  C10 UNL     1      -8.373   5.231  28.339  1.00  0.00     0.138 C 
HETATM   10  N4  UNL     1      -9.238   6.065  29.184  1.00  0.00    -0.264 N 
HETATM   11  C11 UNL     1     -10.616   5.736  29.257  1.00  0.00     0.369 C 
HETATM   12  C16 UNL     1      -8.710   7.095  29.969  1.00  0.00     0.228 C 
HETATM   13  O2  UNL     1     -11.096   4.651  28.801  1.00  0.00    -0.238 OA
HETATM   14  O4  UNL     1      -9.389   8.135  30.261  1.00  0.00    -0.273 OA
HETATM   15  C17 UNL     1      -7.321   7.040  30.508  1.00  0.00     0.114 C 
BRANCH  11  16
HETATM   16  O3  UNL     1     -11.508   6.632  29.840  1.00  0.00    -0.303 OA
BRANCH  16  17
HETATM   17  C12 UNL     1     -12.711   7.048  29.260  1.00  0.00     0.184 C 
BRANCH  17  18
HETATM   18  C13 UNL     1     -13.697   7.477  30.286  1.00  0.00     0.002 C 
HETATM   19  C14 UNL     1     -14.855   8.250  29.778  1.00  0.00     0.011 C 
HETATM   20  C15 UNL     1     -12.980   8.317  31.347  1.00  0.00     0.011 C 
ENDBRANCH  17  18
ENDBRANCH  16  17
ENDBRANCH  11  16
ENDBRANCH   4   7
BRANCH   5  21
HETATM   21  C19 UNL     1      -5.332   4.141  32.225  1.00  0.00     0.168 C 
HETATM   22  O5  UNL     1      -5.122   2.941  32.106  1.00  0.00    -0.292 OA
BRANCH  21  23
HETATM   23  C20 UNL     1      -6.178   4.773  33.254  1.00  0.00     0.088 C 
BRANCH  23  24
HETATM   24  C21 UNL     1      -6.533   3.859  34.360  1.00  0.00    -0.015 C 
HETATM   25  C22 UNL     1      -8.036   3.530  34.322  1.00  0.00     0.010 C 
HETATM   26  C23 UNL     1      -6.228   4.444  35.710  1.00  0.00     0.010 C 
ENDBRANCH  23  24
ENDBRANCH  21  23
ENDBRANCH   5  21
BRANCH   1  27
HETATM   27  N2  UNL     1      -2.112   7.401  29.625  1.00  0.00    -0.319 N 
HETATM   28  C5  UNL     1      -1.265   7.736  28.677  1.00  0.00     0.140 C 
ATOM     29  H2  UNL     1      -1.962   8.084  30.368  1.00  0.00     0.169 HD
BRANCH  28  30
HETATM   30  C3  UNL     1      -1.411   8.833  27.683  1.00  0.00     0.151 C 
BRANCH  30  31
HETATM   31  C2  UNL     1      -2.647   9.592  27.767  1.00  0.00     0.028 C 
HETATM   32  C1  UNL     1      -3.709   9.067  26.752  1.00  0.00     0.007 C 
ENDBRANCH  30  31
BRANCH  30  33
HETATM   33  N1  UNL     1      -0.149   9.485  27.648  1.00  0.00    -0.414 N 
HETATM   34  C4  UNL     1       0.121  10.400  26.633  1.00  0.00     0.140 C 
ATOM     35  H1  UNL     1       0.552   9.284  28.360  1.00  0.00     0.153 HD
ENDBRANCH  30  33
ENDBRANCH  28  30
BRANCH  28  36
HETATM   36  O1  UNL     1      -0.121   7.057  28.559  1.00  0.00    -0.348 OA
ATOM     37  H1  UNL     1       0.654   7.595  28.672  1.00  0.00     0.219 HD
ENDBRANCH  28  36
ENDBRANCH   1  27
TORSDOF 12
ENDMDL
MODEL 5
REMARK VINA RESULT: -7.464379056      1.227      1.623
REMARK  12 active torsions:
REMARK  status: ('A' for Active; 'I' for Inactive)
REMARK    1  A    between atoms: C2_2  and  C3_3 
REMARK    2  A    between atoms: C3_3  and  N1_4 
REMARK    3  A    between atoms: C3_3  and  C5_7 
REMARK    4  A    between atoms: C5_7  and  O1_8 
REMARK    5  A    between atoms: N2_10  and  C6_12 
REMARK    6  A    between atoms: C7_15  and  C8_16 
REMARK       I    between atoms: N4_19  and  C11_20 
REMARK    7  A    between atoms: C11_20  and  O3_22 
REMARK    8  A    between atoms: O3_22  and  C12_23 
REMARK    9  A    between atoms: C12_23  and  C13_24 
REMARK   10  A    between atoms: C18_30  and  C19_31 
REMARK   11  A    between atoms: C19_31  and  C20_33 
REMARK   12  A    between atoms: C20_33  and  C21_34 
ROOT
HETATM    1  C6  UNL     1      -3.387   6.568  30.229  1.00  0.00     0.151 A 
HETATM    2  N3  UNL     1      -4.669   6.788  29.820  1.00  0.00    -0.338 N 
ATOM      3  H3  UNL     1      -4.867   7.490  29.107  1.00  0.00     0.168 HD
HETATM    4  C7  UNL     1      -5.635   6.100  30.344  1.00  0.00     0.036 A 
HETATM    5  C18 UNL     1      -5.292   5.167  31.294  1.00  0.00     0.077 A 
HETATM    6  S1  UNL     1      -3.587   5.333  31.386  1.00  0.00    -0.048 SA
ENDROOT
BRANCH   4   7
HETATM    7  C8  UNL     1      -7.114   6.374  30.122  1.00  0.00     0.047 C 
HETATM    8  C9  UNL     1      -7.670   5.670  28.920  1.00  0.00     0.032 C 
HETATM    9  C10 UNL     1      -9.185   5.536  29.227  1.00  0.00     0.138 C 
HETATM   10  N4  UNL     1      -9.642   6.930  29.305  1.00  0.00    -0.264 N 
HETATM   11  C11 UNL     1     -11.020   7.167  29.543  1.00  0.00     0.369 C 
HETATM   12  C16 UNL     1      -8.737   7.995  29.240  1.00  0.00     0.228 C 
HETATM   13  O2  UNL     1     -11.831   6.254  29.895  1.00  0.00    -0.238 OA
HETATM   14  O4  UNL     1      -9.070   9.133  28.769  1.00  0.00    -0.273 OA
HETATM   15  C17 UNL     1      -7.331   7.862  29.716  1.00  0.00     0.114 C 
BRANCH  11  16
HETATM   16  O3  UNL     1     -11.536   8.450  29.381  1.00  0.00    -0.303 OA
BRANCH  16  17
HETATM   17  C12 UNL     1     -12.249   9.151  30.360  1.00  0.00     0.184 C 
BRANCH  17  18
HETATM   18  C13 UNL     1     -11.419   9.409  31.566  1.00  0.00     0.002 C 
HETATM   19  C14 UNL     1     -12.126   9.306  32.864  1.00  0.00     0.011 C 
HETATM   20  C15 UNL     1     -10.801  10.806  31.458  1.00  0.00     0.011 C 
ENDBRANCH  17  18
ENDBRANCH  16  17
ENDBRANCH  11  16
ENDBRANCH   4   7
BRANCH   5  21
HETATM   21  C19 UNL     1      -6.090   4.277  32.169  1.00  0.00     0.168 C 
HETATM   22  O5  UNL     1      -6.304   3.138  31.775  1.00  0.00    -0.292 OA
BRANCH  21  23
HETATM   23  C20 UNL     1      -6.548   4.851  33.448  1.00  0.00     0.088 C 
BRANCH  23  24
HETATM   24  C21 UNL     1      -6.633   3.855  34.537  1.00  0.00    -0.015 C 
HETATM   25  C22 UNL     1      -8.101   3.471  34.798  1.00  0.00     0.010 C 
HETATM   26  C23 UNL     1      -6.058   4.364  35.828  1.00  0.00     0.010 C 
ENDBRANCH  23  24
ENDBRANCH  21  23
ENDBRANCH   5  21
BRANCH   1  27
HETATM   27  N2  UNL     1      -2.363   7.200  29.861  1.00  0.00    -0.319 N 
HETATM   28  C5  UNL     1      -1.539   7.571  28.907  1.00  0.00     0.140 C 
ATOM     29  H2  UNL     1      -1.998   7.632  30.710  1.00  0.00     0.169 HD
BRANCH  28  30
HETATM   30  C3  UNL     1      -1.499   8.883  28.208  1.00  0.00     0.151 C 
BRANCH  30  31
HETATM   31  C2  UNL     1      -0.221   9.236  27.615  1.00  0.00     0.028 C 
HETATM   32  C1  UNL     1      -0.293  10.613  26.885  1.00  0.00     0.007 C 
ENDBRANCH  30  31
BRANCH  30  33
HETATM   33  N1  UNL     1      -2.702   8.949  27.454  1.00  0.00    -0.414 N 
HETATM   34  C4  UNL     1      -3.731   9.787  27.879  1.00  0.00     0.140 C 
ATOM     35  H1  UNL     1      -2.811   8.389  26.610  1.00  0.00     0.153 HD
ENDBRANCH  30  33
ENDBRANCH  28  30
BRANCH  28  36
HETATM   36  O1  UNL     1      -0.602   6.715  28.491  1.00  0.00    -0.348 OA
ATOM     37  H1  UNL     1      -0.456   5.991  29.088  1.00  0.00     0.219 HD
ENDBRANCH  28  36
ENDBRANCH   1  27
TORSDOF 12
ENDMDL
