MODEL 1
REMARK VINA RESULT: -7.151139013      0.000      0.000
REMARK  11 active torsions:
REMARK  status: ('A' for Active; 'I' for Inactive)
REMARK    1  A    between atoms: C2_2  and  C3_3 
REMARK    2  A    between atoms: C3_3  and  C4_4 
REMARK    3  A    between atoms: C4_4  and  O1_5 
REMARK    4  A    between atoms: O1_5  and  C5_6 
REMARK    5  A    between atoms: C8_9  and  S1_10 
REMARK    6  A    between atoms: S1_10  and  N1_13 
REMARK    7  A    between atoms: N1_13  and  C9_15 
REMARK    8  A    between atoms: C13_23  and  N3_24 
REMARK       I    between atoms: N3_24  and  C14_26 
REMARK    9  A    between atoms: C14_26  and  O6_28 
REMARK   10  A    between atoms: C16_30  and  O7_31 
REMARK   11  A    between atoms: O7_31  and  C17_32 
ROOT
HETATM    1  C5  UNL     1      -5.850   4.968  31.033  1.00  0.00     0.104 A 
HETATM    2  C6  UNL     1      -4.555   5.207  31.471  1.00  0.00     0.041 A 
HETATM    3  C7  UNL     1      -3.770   6.125  30.807  1.00  0.00     0.030 A 
HETATM    4  C8  UNL     1      -4.303   6.781  29.718  1.00  0.00     0.109 A 
HETATM    5  C13 UNL     1      -5.599   6.549  29.268  1.00  0.00     0.096 A 
HETATM    6  C16 UNL     1      -6.376   5.632  29.938  1.00  0.00     0.130 A 
ENDROOT
BRANCH   4   7
HETATM    7  S1  UNL     1      -3.300   7.982  28.870  1.00  0.00     0.267 S 
HETATM    8  O2  UNL     1      -3.924   9.338  29.088  1.00  0.00    -0.200 OA
HETATM    9  O3  UNL     1      -3.416   7.623  27.417  1.00  0.00    -0.200 OA
BRANCH   7  10
HETATM   10  N1  UNL     1      -1.690   7.863  29.330  1.00  0.00    -0.257 N 
ATOM     11  H1  UNL     1      -1.540   7.661  30.319  1.00  0.00     0.181 HD
BRANCH  10  12
HETATM   12  C9  UNL     1      -0.638   7.982  28.647  1.00  0.00     0.199 A 
HETATM   13  O4  UNL     1       0.347   7.094  28.727  1.00  0.00    -0.217 OA
HETATM   14  N2  UNL     1       1.317   7.404  27.954  1.00  0.00    -0.262 N 
HETATM   15  C10 UNL     1       1.065   8.537  27.282  1.00  0.00     0.050 A 
ATOM     16  H2  UNL     1       2.174   6.859  27.861  1.00  0.00     0.194 HD
HETATM   17  C11 UNL     1       1.899   9.263  26.288  1.00  0.00     0.072 C 
HETATM   18  C12 UNL     1      -0.212   8.911  27.737  1.00  0.00     0.088 A 
HETATM   19 BR1  UNL     1      -1.127  10.460  27.141  1.00  0.00    -0.044 Br
ENDBRANCH  10  12
ENDBRANCH   7  10
ENDBRANCH   4   7
BRANCH   5  20
HETATM   20  N3  UNL     1      -6.112   7.210  28.124  1.00  0.00    -0.299 N 
HETATM   21  C14 UNL     1      -6.970   8.316  28.228  1.00  0.00     0.364 C 
HETATM   22  O5  UNL     1      -7.339   8.798  29.305  1.00  0.00    -0.238 OA
ATOM     23  H3  UNL     1      -5.850   6.872  27.199  1.00  0.00     0.171 HD
BRANCH  21  24
HETATM   24  O6  UNL     1      -7.457   8.933  27.065  1.00  0.00    -0.309 OA
HETATM   25  C15 UNL     1      -7.431   8.258  25.821  1.00  0.00     0.215 C 
ENDBRANCH  21  24
ENDBRANCH   5  20
BRANCH   6  26
HETATM   26  O7  UNL     1      -7.640   5.355  29.557  1.00  0.00    -0.346 OA
BRANCH  26  27
HETATM   27  C17 UNL     1      -8.147   4.417  28.680  1.00  0.00     0.171 C 
HETATM   28  C18 UNL     1      -8.679   4.905  27.381  1.00  0.00     0.034 C 
ENDBRANCH  26  27
ENDBRANCH   6  26
BRANCH   1  29
HETATM   29  O1  UNL     1      -6.646   4.055  31.685  1.00  0.00    -0.348 OA
BRANCH  29  30
HETATM   30  C4  UNL     1      -6.217   2.822  32.180  1.00  0.00     0.176 C 
BRANCH  30  31
HETATM   31  C3  UNL     1      -7.276   2.333  33.158  1.00  0.00     0.026 C 
BRANCH  31  32
HETATM   32  C2  UNL     1      -7.579   3.383  34.200  1.00  0.00    -0.002 C 
HETATM   33  C1  UNL     1      -8.662   2.959  35.139  1.00  0.00     0.005 C 
ENDBRANCH  31  32
ENDBRANCH  30  31
ENDBRANCH  29  30
ENDBRANCH   1  29
TORSDOF 11
ENDMDL
MODEL 2
REMARK VINA RESULT: -7.131981562      1.659      2.214
REMARK  11 active torsions:
REMARK  status: ('A' for Active; 'I' for Inactive)
REMARK    1  A    between atoms: C2_2  and  C3_3 
REMARK    2  A    between atoms: C3_3  and  C4_4 
REMARK    3  A    between atoms: C4_4  and  O1_5 
REMARK    4  A    between atoms: O1_5  and  C5_6 
REMARK    5  A    between atoms: C8_9  and  S1_10 
REMARK    6  A    between atoms: S1_10  and  N1_13 
REMARK    7  A    between atoms: N1_13  and  C9_15 
REMARK    8  A    between atoms: C13_23  and  N3_24 
REMARK       I    between atoms: N3_24  and  C14_26 
REMARK    9  A    between atoms: C14_26  and  O6_28 
REMARK   10  A    between atoms: C16_30  and  O7_31 
REMARK   11  A    between atoms: O7_31  and  C17_32 
ROOT
HETATM    1  C5  UNL     1      -6.248   4.481  31.655  1.00  0.00     0.104 A 
HETATM    2  C6  UNL     1      -4.954   4.295  32.124  1.00  0.00     0.041 A 
HETATM    3  C7  UNL     1      -3.896   4.852  31.438  1.00  0.00     0.030 A 
HETATM    4  C8  UNL     1      -4.160   5.582  30.298  1.00  0.00     0.109 A 
HETATM    5  C13 UNL     1      -5.453   5.774  29.819  1.00  0.00     0.096 A 
HETATM    6  C16 UNL     1      -6.503   5.215  30.510  1.00  0.00     0.130 A 
ENDROOT
BRANCH   4   7
HETATM    7  S1  UNL     1      -2.799   6.320  29.421  1.00  0.00     0.267 S 
HETATM    8  O2  UNL     1      -2.847   5.827  27.997  1.00  0.00    -0.200 OA
HETATM    9  O3  UNL     1      -1.570   5.768  30.084  1.00  0.00    -0.200 OA
BRANCH   7  10
HETATM   10  N1  UNL     1      -2.802   7.990  29.592  1.00  0.00    -0.257 N 
ATOM     11  H1  UNL     1      -3.145   8.330  30.490  1.00  0.00     0.181 HD
BRANCH  10  12
HETATM   12  C9  UNL     1      -2.447   8.891  28.785  1.00  0.00     0.199 A 
HETATM   13  O4  UNL     1      -3.268   9.878  28.440  1.00  0.00    -0.217 OA
HETATM   14  N2  UNL     1      -2.711  10.679  27.615  1.00  0.00    -0.262 N 
HETATM   15  C10 UNL     1      -1.458  10.296  27.330  1.00  0.00     0.050 A 
ATOM     16  H2  UNL     1      -3.163  11.505  27.221  1.00  0.00     0.194 HD
HETATM   17  C11 UNL     1      -0.450  10.919  26.431  1.00  0.00     0.072 C 
HETATM   18  C12 UNL     1      -1.289   9.129  28.095  1.00  0.00     0.088 A 
HETATM   19 BR1  UNL     1       0.308   8.108  28.118  1.00  0.00    -0.044 Br
ENDBRANCH  10  12
ENDBRANCH   7  10
ENDBRANCH   4   7
BRANCH   5  20
HETATM   20  N3  UNL     1      -5.696   6.498  28.625  1.00  0.00    -0.299 N 
HETATM   21  C14 UNL     1      -6.016   7.864  28.638  1.00  0.00     0.364 C 
HETATM   22  O5  UNL     1      -6.105   8.538  29.671  1.00  0.00    -0.238 OA
ATOM     23  H3  UNL     1      -5.637   6.011  27.731  1.00  0.00     0.171 HD
BRANCH  21  24
HETATM   24  O6  UNL     1      -6.255   8.536  27.429  1.00  0.00    -0.309 OA
HETATM   25  C15 UNL     1      -6.383   7.820  26.214  1.00  0.00     0.215 C 
ENDBRANCH  21  24
ENDBRANCH   5  20
BRANCH   6  26
HETATM   26  O7  UNL     1      -7.781   5.359  30.103  1.00  0.00    -0.346 OA
BRANCH  26  27
HETATM   27  C17 UNL     1      -8.565   4.592  29.264  1.00  0.00     0.171 C 
HETATM   28  C18 UNL     1      -8.693   5.029  27.850  1.00  0.00     0.034 C 
ENDBRANCH  26  27
ENDBRANCH   6  26
BRANCH   1  29
HETATM   29  O1  UNL     1      -7.314   3.932  32.329  1.00  0.00    -0.348 OA
BRANCH  29  30
HETATM   30  C4  UNL     1      -7.217   3.031  33.391  1.00  0.00     0.176 C 
BRANCH  30  31
HETATM   31  C3  UNL     1      -8.206   3.482  34.458  1.00  0.00     0.026 C 
BRANCH  31  32
HETATM   32  C2  UNL     1      -7.506   3.745  35.771  1.00  0.00    -0.002 C 
HETATM   33  C1  UNL     1      -6.222   4.489  35.593  1.00  0.00     0.005 C 
ENDBRANCH  31  32
ENDBRANCH  30  31
ENDBRANCH  29  30
ENDBRANCH   1  29
TORSDOF 11
ENDMDL
MODEL 3
REMARK VINA RESULT: -6.958627114      3.012      5.831
REMARK  11 active torsions:
REMARK  status: ('A' for Active; 'I' for Inactive)
REMARK    1  A    between atoms: C2_2  and  C3_3 
REMARK    2  A    between atoms: C3_3  and  C4_4 
REMARK    3  A    between atoms: C4_4  and  O1_5 
REMARK    4  A    between atoms: O1_5  and  C5_6 
REMARK    5  A    between atoms: C8_9  and  S1_10 
REMARK    6  A    between atoms: S1_10  and  N1_13 
REMARK    7  A    between atoms: N1_13  and  C9_15 
REMARK    8  A    between atoms: C13_23  and  N3_24 
REMARK       I    between atoms: N3_24  and  C14_26 
REMARK    9  A    between atoms: C14_26  and  O6_28 
REMARK   10  A    between atoms: C16_30  and  O7_31 
REMARK   11  A    between atoms: O7_31  and  C17_32 
ROOT
HETATM    1  C5  UNL     1      -6.436   6.162  30.532  1.00  0.00     0.104 A 
HETATM    2  C6  UNL     1      -7.503   6.568  29.743  1.00  0.00     0.041 A 
HETATM    3  C7  UNL     1      -7.260   7.191  28.537  1.00  0.00     0.030 A 
HETATM    4  C8  UNL     1      -5.951   7.391  28.152  1.00  0.00     0.109 A 
HETATM    5  C13 UNL     1      -4.873   6.990  28.936  1.00  0.00     0.096 A 
HETATM    6  C16 UNL     1      -5.126   6.369  30.137  1.00  0.00     0.130 A 
ENDROOT
BRANCH   4   7
HETATM    7  S1  UNL     1      -5.631   8.175  26.587  1.00  0.00     0.267 S 
HETATM    8  O2  UNL     1      -4.590   7.357  25.867  1.00  0.00    -0.200 OA
HETATM    9  O3  UNL     1      -5.041   9.510  26.938  1.00  0.00    -0.200 OA
BRANCH   7  10
HETATM   10  N1  UNL     1      -7.054   8.421  25.730  1.00  0.00    -0.257 N 
ATOM     11  H1  UNL     1      -7.904   8.139  26.218  1.00  0.00     0.181 HD
BRANCH  10  12
HETATM   12  C9  UNL     1      -7.237   8.900  24.579  1.00  0.00     0.199 A 
HETATM   13  O4  UNL     1      -6.221   9.301  23.822  1.00  0.00    -0.217 OA
HETATM   14  N2  UNL     1      -6.627   9.752  22.697  1.00  0.00    -0.262 N 
HETATM   15  C10 UNL     1      -7.963   9.692  22.599  1.00  0.00     0.050 A 
ATOM     16  H2  UNL     1      -6.013  10.112  21.966  1.00  0.00     0.194 HD
HETATM   17  C11 UNL     1      -8.858  10.100  21.485  1.00  0.00     0.072 C 
HETATM   18  C12 UNL     1      -8.358   9.135  23.829  1.00  0.00     0.088 A 
HETATM   19 BR1  UNL     1     -10.162   8.795  24.298  1.00  0.00    -0.044 Br
ENDBRANCH  10  12
ENDBRANCH   7  10
ENDBRANCH   4   7
BRANCH   5  20
HETATM   20  N3  UNL     1      -3.537   7.239  28.535  1.00  0.00    -0.299 N 
HETATM   21  C14 UNL     1      -2.807   8.333  29.024  1.00  0.00     0.364 C 
HETATM   22  O5  UNL     1      -3.259   9.152  29.834  1.00  0.00    -0.238 OA
ATOM     23  H3  UNL     1      -3.093   6.605  27.872  1.00  0.00     0.171 HD
BRANCH  21  24
HETATM   24  O6  UNL     1      -1.488   8.541  28.592  1.00  0.00    -0.309 OA
HETATM   25  C15 UNL     1      -0.519   7.514  28.697  1.00  0.00     0.215 C 
ENDBRANCH  21  24
ENDBRANCH   5  20
BRANCH   6  26
HETATM   26  O7  UNL     1      -4.131   5.954  30.949  1.00  0.00    -0.346 OA
BRANCH  26  27
HETATM   27  C17 UNL     1      -3.440   4.761  31.013  1.00  0.00     0.171 C 
HETATM   28  C18 UNL     1      -2.008   4.771  30.619  1.00  0.00     0.034 C 
ENDBRANCH  26  27
ENDBRANCH   6  26
BRANCH   1  29
HETATM   29  O1  UNL     1      -6.663   5.540  31.738  1.00  0.00    -0.348 OA
BRANCH  29  30
HETATM   30  C4  UNL     1      -7.017   4.199  31.897  1.00  0.00     0.176 C 
BRANCH  30  31
HETATM   31  C3  UNL     1      -6.331   3.696  33.160  1.00  0.00     0.026 C 
BRANCH  31  32
HETATM   32  C2  UNL     1      -5.877   4.847  34.026  1.00  0.00    -0.002 C 
HETATM   33  C1  UNL     1      -6.056   4.569  35.484  1.00  0.00     0.005 C 
ENDBRANCH  31  32
ENDBRANCH  30  31
ENDBRANCH  29  30
ENDBRANCH   1  29
TORSDOF 11
ENDMDL
MODEL 4
REMARK VINA RESULT: -6.957111501      3.179      7.057
REMARK  11 active torsions:
REMARK  status: ('A' for Active; 'I' for Inactive)
REMARK    1  A    between atoms: C2_2  and  C3_3 
REMARK    2  A    between atoms: C3_3  and  C4_4 
REMARK    3  A    between atoms: C4_4  and  O1_5 
REMARK    4  A    between atoms: O1_5  and  C5_6 
REMARK    5  A    between atoms: C8_9  and  S1_10 
REMARK    6  A    between atoms: S1_10  and  N1_13 
REMARK    7  A    between atoms: N1_13  and  C9_15 
REMARK    8  A    between atoms: C13_23  and  N3_24 
REMARK       I    between atoms: N3_24  and  C14_26 
REMARK    9  A    between atoms: C14_26  and  O6_28 
REMARK   10  A    between atoms: C16_30  and  O7_31 
REMARK   11  A    between atoms: O7_31  and  C17_32 
ROOT
HETATM    1  C5  UNL     1      -7.599   6.399  28.428  1.00  0.00     0.104 A 
HETATM    2  C6  UNL     1      -7.790   5.211  29.119  1.00  0.00     0.041 A 
HETATM    3  C7  UNL     1      -6.819   4.767  29.992  1.00  0.00     0.030 A 
HETATM    4  C8  UNL     1      -5.680   5.527  30.149  1.00  0.00     0.109 A 
HETATM    5  C13 UNL     1      -5.477   6.719  29.461  1.00  0.00     0.096 A 
HETATM    6  C16 UNL     1      -6.452   7.154  28.593  1.00  0.00     0.130 A 
ENDROOT
BRANCH   4   7
HETATM    7  S1  UNL     1      -4.433   4.970  31.291  1.00  0.00     0.267 S 
HETATM    8  O2  UNL     1      -4.135   6.106  32.237  1.00  0.00    -0.200 OA
HETATM    9  O3  UNL     1      -3.221   4.715  30.442  1.00  0.00    -0.200 OA
BRANCH   7  10
HETATM   10  N1  UNL     1      -4.886   3.533  32.032  1.00  0.00    -0.257 N 
ATOM     11  H1  UNL     1      -4.189   2.790  31.990  1.00  0.00     0.181 HD
BRANCH  10  12
HETATM   12  C9  UNL     1      -5.951   3.228  32.632  1.00  0.00     0.199 A 
HETATM   13  O4  UNL     1      -6.773   2.296  32.160  1.00  0.00    -0.217 OA
HETATM   14  N2  UNL     1      -7.789   2.144  32.919  1.00  0.00    -0.262 N 
HETATM   15  C10 UNL     1      -7.740   2.968  33.976  1.00  0.00     0.050 A 
ATOM     16  H2  UNL     1      -8.544   1.480  32.743  1.00  0.00     0.194 HD
HETATM   17  C11 UNL     1      -8.695   3.134  35.103  1.00  0.00     0.072 C 
HETATM   18  C12 UNL     1      -6.539   3.674  33.785  1.00  0.00     0.088 A 
HETATM   19 BR1  UNL     1      -5.903   5.007  34.973  1.00  0.00    -0.044 Br
ENDBRANCH  10  12
ENDBRANCH   7  10
ENDBRANCH   4   7
BRANCH   5  20
HETATM   20  N3  UNL     1      -4.281   7.464  29.613  1.00  0.00    -0.299 N 
HETATM   21  C14 UNL     1      -3.240   7.397  28.675  1.00  0.00     0.364 C 
HETATM   22  O5  UNL     1      -3.280   6.700  27.655  1.00  0.00    -0.238 OA
ATOM     23  H3  UNL     1      -4.174   8.067  30.429  1.00  0.00     0.171 HD
BRANCH  21  24
HETATM   24  O6  UNL     1      -2.072   8.150  28.874  1.00  0.00    -0.309 OA
HETATM   25  C15 UNL     1      -0.795   7.542  28.793  1.00  0.00     0.215 C 
ENDBRANCH  21  24
ENDBRANCH   5  20
BRANCH   6  26
HETATM   26  O7  UNL     1      -6.322   8.299  27.891  1.00  0.00    -0.346 OA
BRANCH  26  27
HETATM   27  C17 UNL     1      -6.797   9.574  28.125  1.00  0.00     0.171 C 
HETATM   28  C18 UNL     1      -6.055  10.420  29.095  1.00  0.00     0.034 C 
ENDBRANCH  26  27
ENDBRANCH   6  26
BRANCH   1  29
HETATM   29  O1  UNL     1      -8.559   6.854  27.554  1.00  0.00    -0.348 OA
BRANCH  29  30
HETATM   30  C4  UNL     1      -9.452   6.046  26.847  1.00  0.00     0.176 C 
BRANCH  30  31
HETATM   31  C3  UNL     1     -10.850   6.354  27.366  1.00  0.00     0.026 C 
BRANCH  31  32
HETATM   32  C2  UNL     1     -11.379   5.216  28.207  1.00  0.00    -0.002 C 
HETATM   33  C1  UNL     1     -11.051   3.878  27.628  1.00  0.00     0.005 C 
ENDBRANCH  31  32
ENDBRANCH  30  31
ENDBRANCH  29  30
ENDBRANCH   1  29
TORSDOF 11
ENDMDL
MODEL 5
REMARK VINA RESULT: -6.930097962      3.014      6.461
REMARK  11 active torsions:
REMARK  status: ('A' for Active; 'I' for Inactive)
REMARK    1  A    between atoms: C2_2  and  C3_3 
REMARK    2  A    between atoms: C3_3  and  C4_4 
REMARK    3  A    between atoms: C4_4  and  O1_5 
REMARK    4  A    between atoms: O1_5  and  C5_6 
REMARK    5  A    between atoms: C8_9  and  S1_10 
REMARK    6  A    between atoms: S1_10  and  N1_13 
REMARK    7  A    between atoms: N1_13  and  C9_15 
REMARK    8  A    between atoms: C13_23  and  N3_24 
REMARK       I    between atoms: N3_24  and  C14_26 
REMARK    9  A    between atoms: C14_26  and  O6_28 
REMARK   10  A    between atoms: C16_30  and  O7_31 
REMARK   11  A    between atoms: O7_31  and  C17_32 
ROOT
HETATM    1  C5  UNL     1      -5.340   5.806  30.931  1.00  0.00     0.104 A 
HETATM    2  C6  UNL     1      -6.556   5.533  30.320  1.00  0.00     0.041 A 
HETATM    3  C7  UNL     1      -6.820   6.047  29.068  1.00  0.00     0.030 A 
HETATM    4  C8  UNL     1      -5.857   6.824  28.460  1.00  0.00     0.109 A 
HETATM    5  C13 UNL     1      -4.635   7.105  29.062  1.00  0.00     0.096 A 
HETATM    6  C16 UNL     1      -4.380   6.587  30.311  1.00  0.00     0.130 A 
ENDROOT
BRANCH   4   7
HETATM    7  S1  UNL     1      -6.184   7.472  26.835  1.00  0.00     0.267 S 
HETATM    8  O2  UNL     1      -4.953   7.247  25.993  1.00  0.00    -0.200 OA
HETATM    9  O3  UNL     1      -6.368   8.948  27.039  1.00  0.00    -0.200 OA
BRANCH   7  10
HETATM   10  N1  UNL     1      -7.601   6.833  26.200  1.00  0.00    -0.257 N 
ATOM     11  H1  UNL     1      -7.467   6.111  25.492  1.00  0.00     0.181 HD
BRANCH  10  12
HETATM   12  C9  UNL     1      -8.804   7.105  26.460  1.00  0.00     0.199 A 
HETATM   13  O4  UNL     1      -9.294   8.327  26.283  1.00  0.00    -0.217 OA
HETATM   14  N2  UNL     1     -10.529   8.384  26.606  1.00  0.00    -0.262 N 
HETATM   15  C10 UNL     1     -10.980   7.195  27.032  1.00  0.00     0.050 A 
ATOM     16  H2  UNL     1     -11.101   9.228  26.548  1.00  0.00     0.194 HD
HETATM   17  C11 UNL     1     -12.334   6.799  27.502  1.00  0.00     0.072 C 
HETATM   18  C12 UNL     1      -9.851   6.362  26.935  1.00  0.00     0.088 A 
HETATM   19 BR1  UNL     1      -9.856   4.526  27.402  1.00  0.00    -0.044 Br
ENDBRANCH  10  12
ENDBRANCH   7  10
ENDBRANCH   4   7
BRANCH   5  20
HETATM   20  N3  UNL     1      -3.675   7.936  28.431  1.00  0.00    -0.299 N 
HETATM   21  C14 UNL     1      -3.553   9.298  28.744  1.00  0.00     0.364 C 
HETATM   22  O5  UNL     1      -4.255   9.875  29.582  1.00  0.00    -0.238 OA
ATOM     23  H3  UNL     1      -3.056   7.531  27.730  1.00  0.00     0.171 HD
BRANCH  21  24
HETATM   24  O6  UNL     1      -2.591  10.081  28.086  1.00  0.00    -0.309 OA
HETATM   25  C15 UNL     1      -1.331   9.540  27.736  1.00  0.00     0.215 C 
ENDBRANCH  21  24
ENDBRANCH   5  20
BRANCH   6  26
HETATM   26  O7  UNL     1      -3.218   6.821  30.956  1.00  0.00    -0.346 OA
BRANCH  26  27
HETATM   27  C17 UNL     1      -1.973   6.234  30.840  1.00  0.00     0.171 C 
HETATM   28  C18 UNL     1      -1.906   4.872  30.251  1.00  0.00     0.034 C 
ENDBRANCH  26  27
ENDBRANCH   6  26
BRANCH   1  29
HETATM   29  O1  UNL     1      -5.062   5.300  32.180  1.00  0.00    -0.348 OA
BRANCH  29  30
HETATM   30  C4  UNL     1      -6.004   4.755  33.054  1.00  0.00     0.176 C 
BRANCH  30  31
HETATM   31  C3  UNL     1      -5.867   5.487  34.382  1.00  0.00     0.026 C 
BRANCH  31  32
HETATM   32  C2  UNL     1      -5.850   4.516  35.539  1.00  0.00    -0.002 C 
HETATM   33  C1  UNL     1      -7.216   4.014  35.881  1.00  0.00     0.005 C 
ENDBRANCH  31  32
ENDBRANCH  30  31
ENDBRANCH  29  30
ENDBRANCH   1  29
TORSDOF 11
ENDMDL
