MODEL 1
REMARK VINA RESULT: -7.036904286      0.000      0.000
REMARK  6 active torsions:
REMARK  status: ('A' for Active; 'I' for Inactive)
REMARK    1  A    between atoms: C2_2  and  O2_4 
REMARK    2  A    between atoms: O2_4  and  C3_5 
REMARK    3  A    between atoms: C6_8  and  C7_9 
REMARK    4  A    between atoms: C7_9  and  O3_10 
REMARK    5  A    between atoms: C10_16  and  C11_17 
REMARK    6  A    between atoms: C11_17  and  C13_19 
ROOT
HETATM    1  C13 UNL     1      12.448  13.245  19.916  1.00  0.00     0.096 C 
HETATM    2  C14 UNL     1      12.179  14.084  21.199  1.00  0.00     0.026 C 
HETATM    3  C15 UNL     1      11.307  12.334  19.908  1.00  0.00     0.064 C 
HETATM    4  N1  UNL     1      10.365  11.633  19.922  1.00  0.00    -0.197 NA
ENDROOT
BRANCH   1   5
HETATM    5  C11 UNL     1      13.801  12.668  19.976  1.00  0.00     0.031 C 
HETATM    6  C12 UNL     1      14.347  13.470  21.248  1.00  0.00     0.016 C 
BRANCH   5   7
HETATM    7  C10 UNL     1      14.038  11.279  20.347  1.00  0.00    -0.031 C 
HETATM    8  C9  UNL     1      14.615  10.528  19.382  1.00  0.00     0.029 C 
HETATM    9  C4  UNL     1      14.965   9.080  19.512  1.00  0.00     0.060 C 
HETATM   10  C8  UNL     1      14.942  11.107  18.054  1.00  0.00     0.290 C 
HETATM   11  C3  UNL     1      14.700   8.493  20.863  1.00  0.00     0.172 C 
HETATM   12  C5  UNL     1      16.338   8.789  19.008  1.00  0.00     0.047 C 
HETATM   13  C20 UNL     1      13.421   9.143  21.350  1.00  0.00     0.188 C 
HETATM   14  C16 UNL     1      13.832  10.577  21.611  1.00  0.00     0.187 C 
HETATM   15  O7  UNL     1      13.043   8.716  22.597  1.00  0.00    -0.345 OA
HETATM   16  O6  UNL     1      12.964  10.943  22.535  1.00  0.00    -0.344 OA
HETATM   17  C17 UNL     1      12.910   9.852  23.404  1.00  0.00     0.158 C 
HETATM   18  C18 UNL     1      11.661   9.818  24.229  1.00  0.00     0.078 C 
HETATM   19  C19 UNL     1      14.099   9.928  24.371  1.00  0.00     0.078 C 
HETATM   20  C6  UNL     1      16.993   9.912  18.266  1.00  0.00     0.156 C 
HETATM   21  O4  UNL     1      16.128  10.656  17.427  1.00  0.00    -0.310 OA
HETATM   22  O5  UNL     1      14.163  11.944  17.573  1.00  0.00    -0.260 OA
BRANCH  11  23
HETATM   23  O2  UNL     1      14.643   7.114  20.813  1.00  0.00    -0.313 OA
BRANCH  23  24
HETATM   24  C2  UNL     1      15.413   6.225  21.525  1.00  0.00     0.255 C 
HETATM   25  C1  UNL     1      16.740   5.732  21.021  1.00  0.00     0.126 C 
HETATM   26  O1  UNL     1      14.963   5.830  22.634  1.00  0.00    -0.266 OA
ENDBRANCH  23  24
ENDBRANCH  11  23
BRANCH  20  27
HETATM   27  C7  UNL     1      18.071   9.334  17.358  1.00  0.00     0.196 C 
BRANCH  27  28
HETATM   28  O3  UNL     1      17.793   9.710  16.041  1.00  0.00    -0.398 OA
ATOM     29  H3  UNL     1      18.049   9.002  15.462  1.00  0.00     0.209 HD
ENDBRANCH  27  28
ENDBRANCH  20  27
ENDBRANCH   5   7
ENDBRANCH   1   5
TORSDOF 6
ENDMDL
MODEL 2
REMARK VINA RESULT: -6.381866771      2.187      5.167
REMARK  6 active torsions:
REMARK  status: ('A' for Active; 'I' for Inactive)
REMARK    1  A    between atoms: C2_2  and  O2_4 
REMARK    2  A    between atoms: O2_4  and  C3_5 
REMARK    3  A    between atoms: C6_8  and  C7_9 
REMARK    4  A    between atoms: C7_9  and  O3_10 
REMARK    5  A    between atoms: C10_16  and  C11_17 
REMARK    6  A    between atoms: C11_17  and  C13_19 
ROOT
HETATM    1  C13 UNL     1      15.465   6.144  21.360  1.00  0.00     0.096 C 
HETATM    2  C14 UNL     1      16.654   5.167  21.131  1.00  0.00     0.026 C 
HETATM    3  C15 UNL     1      14.370   5.221  21.647  1.00  0.00     0.064 C 
HETATM    4  N1  UNL     1      13.520   4.451  21.896  1.00  0.00    -0.197 NA
ENDROOT
BRANCH   1   5
HETATM    5  C11 UNL     1      15.333   7.044  20.203  1.00  0.00     0.031 C 
HETATM    6  C12 UNL     1      14.057   6.367  19.517  1.00  0.00     0.016 C 
BRANCH   5   7
HETATM    7  C10 UNL     1      14.921   8.436  20.344  1.00  0.00    -0.031 C 
HETATM    8  C9  UNL     1      15.744   9.330  19.752  1.00  0.00     0.029 C 
HETATM    9  C4  UNL     1      15.543  10.811  19.747  1.00  0.00     0.060 C 
HETATM   10  C8  UNL     1      16.974   8.889  19.045  1.00  0.00     0.290 C 
HETATM   11  C3  UNL     1      14.278  11.272  20.400  1.00  0.00     0.172 C 
HETATM   12  C5  UNL     1      15.750  11.399  18.391  1.00  0.00     0.047 C 
HETATM   13  C20 UNL     1      14.069  10.353  21.587  1.00  0.00     0.188 C 
HETATM   14  C16 UNL     1      13.728   9.024  20.946  1.00  0.00     0.187 C 
HETATM   15  O7  UNL     1      12.930  10.639  22.292  1.00  0.00    -0.345 OA
HETATM   16  O6  UNL     1      13.006   8.448  21.888  1.00  0.00    -0.344 OA
HETATM   17  C17 UNL     1      12.168   9.465  22.346  1.00  0.00     0.158 C 
HETATM   18  C18 UNL     1      11.623   9.207  23.716  1.00  0.00     0.078 C 
HETATM   19  C19 UNL     1      10.974   9.593  21.392  1.00  0.00     0.078 C 
HETATM   20  C6  UNL     1      16.338  10.468  17.378  1.00  0.00     0.156 C 
HETATM   21  O4  UNL     1      17.339   9.600  17.878  1.00  0.00    -0.310 OA
HETATM   22  O5  UNL     1      17.607   7.932  19.516  1.00  0.00    -0.260 OA
BRANCH  11  23
HETATM   23  O2  UNL     1      14.340  12.612  20.733  1.00  0.00    -0.313 OA
BRANCH  23  24
HETATM   24  C2  UNL     1      13.422  13.587  20.421  1.00  0.00     0.255 C 
HETATM   25  C1  UNL     1      13.213  14.071  19.014  1.00  0.00     0.126 C 
HETATM   26  O1  UNL     1      12.749  14.071  21.371  1.00  0.00    -0.266 OA
ENDBRANCH  23  24
ENDBRANCH  11  23
BRANCH  20  27
HETATM   27  C7  UNL     1      17.001  11.294  16.283  1.00  0.00     0.196 C 
BRANCH  27  28
HETATM   28  O3  UNL     1      17.714  10.433  15.446  1.00  0.00    -0.398 OA
ATOM     29  H3  UNL     1      18.170  10.952  14.794  1.00  0.00     0.209 HD
ENDBRANCH  27  28
ENDBRANCH  20  27
ENDBRANCH   5   7
ENDBRANCH   1   5
TORSDOF 6
ENDMDL
MODEL 3
REMARK VINA RESULT: -6.329708951      2.431      5.337
REMARK  6 active torsions:
REMARK  status: ('A' for Active; 'I' for Inactive)
REMARK    1  A    between atoms: C2_2  and  O2_4 
REMARK    2  A    between atoms: O2_4  and  C3_5 
REMARK    3  A    between atoms: C6_8  and  C7_9 
REMARK    4  A    between atoms: C7_9  and  O3_10 
REMARK    5  A    between atoms: C10_16  and  C11_17 
REMARK    6  A    between atoms: C11_17  and  C13_19 
ROOT
HETATM    1  C13 UNL     1      16.418   6.228  20.641  1.00  0.00     0.096 C 
HETATM    2  C14 UNL     1      17.685   5.920  19.792  1.00  0.00     0.026 C 
HETATM    3  C15 UNL     1      15.831   4.900  20.796  1.00  0.00     0.064 C 
HETATM    4  N1  UNL     1      15.399   3.816  20.919  1.00  0.00    -0.197 NA
ENDROOT
BRANCH   1   5
HETATM    5  C11 UNL     1      15.619   7.272  19.980  1.00  0.00     0.031 C 
HETATM    6  C12 UNL     1      14.383   6.370  19.517  1.00  0.00     0.016 C 
BRANCH   5   7
HETATM    7  C10 UNL     1      14.972   8.345  20.725  1.00  0.00    -0.031 C 
HETATM    8  C9  UNL     1      15.260   9.591  20.285  1.00  0.00     0.029 C 
HETATM    9  C4  UNL     1      14.723  10.856  20.872  1.00  0.00     0.060 C 
HETATM   10  C8  UNL     1      16.188   9.805  19.144  1.00  0.00     0.290 C 
HETATM   11  C3  UNL     1      13.739  10.660  21.983  1.00  0.00     0.172 C 
HETATM   12  C5  UNL     1      14.240  11.799  19.822  1.00  0.00     0.047 C 
HETATM   13  C20 UNL     1      14.233   9.460  22.764  1.00  0.00     0.188 C 
HETATM   14  C16 UNL     1      14.002   8.302  21.815  1.00  0.00     0.187 C 
HETATM   15  O7  UNL     1      13.423   9.137  23.821  1.00  0.00    -0.345 OA
HETATM   16  O6  UNL     1      13.863   7.292  22.651  1.00  0.00    -0.344 OA
HETATM   17  C17 UNL     1      13.049   7.797  23.666  1.00  0.00     0.158 C 
HETATM   18  C18 UNL     1      13.156   7.028  24.946  1.00  0.00     0.078 C 
HETATM   19  C19 UNL     1      11.586   7.730  23.209  1.00  0.00     0.078 C 
HETATM   20  C6  UNL     1      14.596  11.422  18.418  1.00  0.00     0.156 C 
HETATM   21  O4  UNL     1      15.890  10.868  18.260  1.00  0.00    -0.310 OA
HETATM   22  O5  UNL     1      17.164   9.047  19.035  1.00  0.00    -0.260 OA
BRANCH  11  23
HETATM   23  O2  UNL     1      13.600  11.805  22.743  1.00  0.00    -0.313 OA
BRANCH  23  24
HETATM   24  C2  UNL     1      12.467  12.571  22.890  1.00  0.00     0.255 C 
HETATM   25  C1  UNL     1      11.356  12.188  23.826  1.00  0.00     0.126 C 
HETATM   26  O1  UNL     1      12.389  13.623  22.201  1.00  0.00    -0.266 OA
ENDBRANCH  23  24
ENDBRANCH  11  23
BRANCH  20  27
HETATM   27  C7  UNL     1      14.563  12.676  17.554  1.00  0.00     0.196 C 
BRANCH  27  28
HETATM   28  O3  UNL     1      15.789  12.793  16.892  1.00  0.00    -0.398 OA
ATOM     29  H3  UNL     1      16.379  12.129  17.227  1.00  0.00     0.209 HD
ENDBRANCH  27  28
ENDBRANCH  20  27
ENDBRANCH   5   7
ENDBRANCH   1   5
TORSDOF 6
ENDMDL
MODEL 4
REMARK VINA RESULT: -6.286787694      2.602      5.302
REMARK  6 active torsions:
REMARK  status: ('A' for Active; 'I' for Inactive)
REMARK    1  A    between atoms: C2_2  and  O2_4 
REMARK    2  A    between atoms: O2_4  and  C3_5 
REMARK    3  A    between atoms: C6_8  and  C7_9 
REMARK    4  A    between atoms: C7_9  and  O3_10 
REMARK    5  A    between atoms: C10_16  and  C11_17 
REMARK    6  A    between atoms: C11_17  and  C13_19 
ROOT
HETATM    1  C13 UNL     1      14.695   5.270  20.863  1.00  0.00     0.096 C 
HETATM    2  C14 UNL     1      15.423   5.641  22.187  1.00  0.00     0.026 C 
HETATM    3  C15 UNL     1      15.489   4.137  20.393  1.00  0.00     0.064 C 
HETATM    4  N1  UNL     1      16.135   3.217  20.057  1.00  0.00    -0.197 NA
ENDROOT
BRANCH   1   5
HETATM    5  C11 UNL     1      14.596   6.458  20.001  1.00  0.00     0.031 C 
HETATM    6  C12 UNL     1      13.263   6.069  19.208  1.00  0.00     0.016 C 
BRANCH   5   7
HETATM    7  C10 UNL     1      14.280   7.779  20.531  1.00  0.00    -0.031 C 
HETATM    8  C9  UNL     1      15.174   8.743  20.212  1.00  0.00     0.029 C 
HETATM    9  C4  UNL     1      15.078  10.175  20.627  1.00  0.00     0.060 C 
HETATM   10  C8  UNL     1      16.381   8.431  19.404  1.00  0.00     0.290 C 
HETATM   11  C3  UNL     1      13.837  10.523  21.390  1.00  0.00     0.172 C 
HETATM   12  C5  UNL     1      15.346  11.106  19.492  1.00  0.00     0.047 C 
HETATM   13  C20 UNL     1      13.546   9.323  22.269  1.00  0.00     0.188 C 
HETATM   14  C16 UNL     1      13.123   8.257  21.280  1.00  0.00     0.187 C 
HETATM   15  O7  UNL     1      12.418   9.479  23.031  1.00  0.00    -0.345 OA
HETATM   16  O6  UNL     1      12.347   7.492  22.024  1.00  0.00    -0.344 OA
HETATM   17  C17 UNL     1      11.575   8.396  22.755  1.00  0.00     0.158 C 
HETATM   18  C18 UNL     1      10.991   7.802  23.999  1.00  0.00     0.078 C 
HETATM   19  C19 UNL     1      10.408   8.873  21.881  1.00  0.00     0.078 C 
HETATM   20  C6  UNL     1      15.883  10.458  18.254  1.00  0.00     0.156 C 
HETATM   21  O4  UNL     1      16.813   9.415  18.484  1.00  0.00    -0.310 OA
HETATM   22  O5  UNL     1      16.938   7.337  19.583  1.00  0.00    -0.260 OA
BRANCH  11  23
HETATM   23  O2  UNL     1      13.987  11.705  22.087  1.00  0.00    -0.313 OA
BRANCH  23  24
HETATM   24  C2  UNL     1      13.155  12.800  22.052  1.00  0.00     0.255 C 
HETATM   25  C1  UNL     1      13.298  13.883  21.020  1.00  0.00     0.126 C 
HETATM   26  O1  UNL     1      12.254  12.868  22.930  1.00  0.00    -0.266 OA
ENDBRANCH  23  24
ENDBRANCH  11  23
BRANCH  20  27
HETATM   27  C7  UNL     1      16.620  11.510  17.434  1.00  0.00     0.196 C 
BRANCH  27  28
HETATM   28  O3  UNL     1      17.881  11.011  17.099  1.00  0.00    -0.398 OA
ATOM     29  H3  UNL     1      17.773  10.325  16.450  1.00  0.00     0.209 HD
ENDBRANCH  27  28
ENDBRANCH  20  27
ENDBRANCH   5   7
ENDBRANCH   1   5
TORSDOF 6
ENDMDL
MODEL 5
REMARK VINA RESULT: -6.089579554      2.002      2.420
REMARK  6 active torsions:
REMARK  status: ('A' for Active; 'I' for Inactive)
REMARK    1  A    between atoms: C2_2  and  O2_4 
REMARK    2  A    between atoms: O2_4  and  C3_5 
REMARK    3  A    between atoms: C6_8  and  C7_9 
REMARK    4  A    between atoms: C7_9  and  O3_10 
REMARK    5  A    between atoms: C10_16  and  C11_17 
REMARK    6  A    between atoms: C11_17  and  C13_19 
ROOT
HETATM    1  C13 UNL     1      13.337  12.495  20.728  1.00  0.00     0.096 C 
HETATM    2  C14 UNL     1      12.980  13.273  22.028  1.00  0.00     0.026 C 
HETATM    3  C15 UNL     1      12.015  12.134  20.223  1.00  0.00     0.064 C 
HETATM    4  N1  UNL     1      10.936  11.881  19.835  1.00  0.00    -0.197 NA
ENDROOT
BRANCH   1   5
HETATM    5  C11 UNL     1      14.283  11.413  21.042  1.00  0.00     0.031 C 
HETATM    6  C12 UNL     1      14.648  11.841  22.539  1.00  0.00     0.016 C 
BRANCH   5   7
HETATM    7  C10 UNL     1      13.856  10.028  21.199  1.00  0.00    -0.031 C 
HETATM    8  C9  UNL     1      14.427   9.160  20.334  1.00  0.00     0.029 C 
HETATM    9  C4  UNL     1      14.163   7.689  20.291  1.00  0.00     0.060 C 
HETATM   10  C8  UNL     1      15.391   9.627  19.304  1.00  0.00     0.290 C 
HETATM   11  C3  UNL     1      13.242   7.189  21.359  1.00  0.00     0.172 C 
HETATM   12  C5  UNL     1      15.423   6.897  20.186  1.00  0.00     0.047 C 
HETATM   13  C20 UNL     1      12.199   8.272  21.544  1.00  0.00     0.188 C 
HETATM   14  C16 UNL     1      12.977   9.404  22.183  1.00  0.00     0.187 C 
HETATM   15  O7  UNL     1      11.276   7.969  22.511  1.00  0.00    -0.345 OA
HETATM   16  O6  UNL     1      12.031  10.039  22.848  1.00  0.00    -0.344 OA
HETATM   17  C17 UNL     1      11.283   9.018  23.437  1.00  0.00     0.158 C 
HETATM   18  C18 UNL     1       9.900   9.446  23.818  1.00  0.00     0.078 C 
HETATM   19  C19 UNL     1      11.992   8.559  24.718  1.00  0.00     0.078 C 
HETATM   20  C6  UNL     1      16.655   7.699  19.906  1.00  0.00     0.156 C 
HETATM   21  O4  UNL     1      16.474   8.771  18.998  1.00  0.00    -0.310 OA
HETATM   22  O5  UNL     1      15.191  10.731  18.774  1.00  0.00    -0.260 OA
BRANCH  11  23
HETATM   23  O2  UNL     1      12.715   5.954  21.035  1.00  0.00    -0.313 OA
BRANCH  23  24
HETATM   24  C2  UNL     1      12.009   5.624  19.902  1.00  0.00     0.255 C 
HETATM   25  C1  UNL     1      12.609   4.806  18.793  1.00  0.00     0.126 C 
HETATM   26  O1  UNL     1      10.822   6.039  19.821  1.00  0.00    -0.266 OA
ENDBRANCH  23  24
ENDBRANCH  11  23
BRANCH  20  27
HETATM   27  C7  UNL     1      17.700   6.785  19.279  1.00  0.00     0.196 C 
BRANCH  27  28
HETATM   28  O3  UNL     1      18.376   7.496  18.284  1.00  0.00    -0.398 OA
ATOM     29  H3  UNL     1      17.890   7.417  17.472  1.00  0.00     0.209 HD
ENDBRANCH  27  28
ENDBRANCH  20  27
ENDBRANCH   5   7
ENDBRANCH   1   5
TORSDOF 6
ENDMDL
