MODEL 1
REMARK VINA RESULT: -6.375181119      0.000      0.000
REMARK  7 active torsions:
REMARK  status: ('A' for Active; 'I' for Inactive)
REMARK    1  A    between atoms: C2_2  and  C3_3 
REMARK    2  A    between atoms: C3_3  and  O1_5 
REMARK    3  A    between atoms: O1_5  and  C5_6 
REMARK    4  A    between atoms: C8_12  and  C9_13 
REMARK    5  A    between atoms: C9_13  and  O5_16 
REMARK    6  A    between atoms: C14_20  and  O6_21 
REMARK    7  A    between atoms: O6_21  and  C15_22 
ROOT
HETATM    1  C5  UNL     1      13.881  12.020  19.858  1.00  0.00     0.291 C 
HETATM    2  C6  UNL     1      12.877  13.015  20.316  1.00  0.00     0.298 C 
HETATM    3  O2  UNL     1      12.417  13.901  19.521  1.00  0.00    -0.262 OA
HETATM    4  O3  UNL     1      12.386  13.045  21.614  1.00  0.00    -0.277 OA
HETATM    5  C7  UNL     1      12.324  11.883  22.336  1.00  0.00     0.215 C 
HETATM    6  O4  UNL     1      12.355  11.990  23.724  1.00  0.00    -0.343 OA
HETATM    7  C8  UNL     1      12.377  10.652  24.119  1.00  0.00     0.164 C 
HETATM    8  C12 UNL     1      13.031   9.884  22.966  1.00  0.00     0.041 C 
HETATM    9  C13 UNL     1      11.825   9.512  22.103  1.00  0.00     0.047 C 
HETATM   10  C14 UNL     1      11.270  10.901  21.845  1.00  0.00     0.196 C 
HETATM   11  C17 UNL     1      13.587  11.015  22.183  1.00  0.00     0.086 C 
HETATM   12  C18 UNL     1      14.776  11.686  22.822  1.00  0.00     0.030 C 
HETATM   13  C19 UNL     1      13.862  10.847  20.774  1.00  0.00     0.179 C 
HETATM   14  O8  UNL     1      14.083   9.742  20.326  1.00  0.00    -0.293 OA
ENDROOT
BRANCH   1  15
HETATM   15  O1  UNL     1      13.595  11.705  18.550  1.00  0.00    -0.363 OA
BRANCH  15  16
HETATM   16  C3  UNL     1      14.583  11.826  17.642  1.00  0.00     0.118 C 
HETATM   17  C4  UNL     1      15.645  10.778  17.645  1.00  0.00     0.039 C 
BRANCH  16  18
HETATM   18  C2  UNL     1      15.270  13.187  17.646  1.00  0.00     0.027 C 
HETATM   19  C1  UNL     1      16.597  13.154  16.943  1.00  0.00     0.007 C 
ENDBRANCH  16  18
ENDBRANCH  15  16
ENDBRANCH   1  15
BRANCH  10  20
HETATM   20  O6  UNL     1      10.913  11.117  20.519  1.00  0.00    -0.311 OA
BRANCH  20  21
HETATM   21  C15 UNL     1       9.586  11.194  20.129  1.00  0.00     0.255 C 
HETATM   22  C16 UNL     1       8.577  10.156  20.467  1.00  0.00     0.126 C 
HETATM   23  O7  UNL     1       9.208  12.193  19.450  1.00  0.00    -0.266 OA
ENDBRANCH  20  21
ENDBRANCH  10  20
BRANCH   7  24
HETATM   24  C9  UNL     1      12.912  10.373  25.458  1.00  0.00     0.077 C 
HETATM   25  C10 UNL     1      13.821   9.165  25.396  1.00  0.00     0.048 C 
HETATM   26  C11 UNL     1      11.722   9.930  26.326  1.00  0.00     0.048 C 
BRANCH  24  27
HETATM   27  O5  UNL     1      13.551  11.353  26.144  1.00  0.00    -0.388 OA
ATOM     28  H5  UNL     1      14.110  11.126  26.877  1.00  0.00     0.210 HD
ENDBRANCH  24  27
ENDBRANCH   7  24
TORSDOF 7
ENDMDL
MODEL 2
REMARK VINA RESULT: -6.287658830      0.905      1.128
REMARK  7 active torsions:
REMARK  status: ('A' for Active; 'I' for Inactive)
REMARK    1  A    between atoms: C2_2  and  C3_3 
REMARK    2  A    between atoms: C3_3  and  O1_5 
REMARK    3  A    between atoms: O1_5  and  C5_6 
REMARK    4  A    between atoms: C8_12  and  C9_13 
REMARK    5  A    between atoms: C9_13  and  O5_16 
REMARK    6  A    between atoms: C14_20  and  O6_21 
REMARK    7  A    between atoms: O6_21  and  C15_22 
ROOT
HETATM    1  C5  UNL     1      14.075  12.346  20.694  1.00  0.00     0.291 C 
HETATM    2  C6  UNL     1      12.967  13.106  21.329  1.00  0.00     0.298 C 
HETATM    3  O2  UNL     1      12.429  14.103  20.741  1.00  0.00    -0.262 OA
HETATM    4  O3  UNL     1      12.457  12.788  22.580  1.00  0.00    -0.277 OA
HETATM    5  C7  UNL     1      12.504  11.490  23.015  1.00  0.00     0.215 C 
HETATM    6  O4  UNL     1      12.504  11.276  24.391  1.00  0.00    -0.343 OA
HETATM    7  C8  UNL     1      12.658   9.891  24.469  1.00  0.00     0.164 C 
HETATM    8  C12 UNL     1      13.404   9.477  23.197  1.00  0.00     0.041 C 
HETATM    9  C13 UNL     1      12.255   9.200  22.227  1.00  0.00     0.047 C 
HETATM   10  C14 UNL     1      11.564  10.550  22.273  1.00  0.00     0.196 C 
HETATM   11  C17 UNL     1      13.852  10.807  22.715  1.00  0.00     0.086 C 
HETATM   12  C18 UNL     1      14.956  11.424  23.535  1.00  0.00     0.030 C 
HETATM   13  C19 UNL     1      14.163  10.997  21.316  1.00  0.00     0.179 C 
HETATM   14  O8  UNL     1      14.503  10.052  20.636  1.00  0.00    -0.293 OA
ENDROOT
BRANCH   1  15
HETATM   15  O1  UNL     1      13.841  12.316  19.339  1.00  0.00    -0.363 OA
BRANCH  15  16
HETATM   16  C3  UNL     1      14.702  12.972  18.536  1.00  0.00     0.118 C 
HETATM   17  C4  UNL     1      14.123  13.940  17.560  1.00  0.00     0.039 C 
BRANCH  16  18
HETATM   18  C2  UNL     1      15.664  12.064  17.780  1.00  0.00     0.027 C 
HETATM   19  C1  UNL     1      16.782  12.833  17.137  1.00  0.00     0.007 C 
ENDBRANCH  16  18
ENDBRANCH  15  16
ENDBRANCH   1  15
BRANCH  10  20
HETATM   20  O6  UNL     1      11.206  11.031  21.019  1.00  0.00    -0.311 OA
BRANCH  20  21
HETATM   21  C15 UNL     1       9.882  11.086  20.614  1.00  0.00     0.255 C 
HETATM   22  C16 UNL     1       8.763  10.521  21.413  1.00  0.00     0.126 C 
HETATM   23  O7  UNL     1       9.604  11.643  19.513  1.00  0.00    -0.266 OA
ENDBRANCH  20  21
ENDBRANCH  10  20
BRANCH   7  24
HETATM   24  C9  UNL     1      13.200   9.363  25.729  1.00  0.00     0.077 C 
HETATM   25  C10 UNL     1      14.156   8.229  25.430  1.00  0.00     0.048 C 
HETATM   26  C11 UNL     1      12.025   8.707  26.475  1.00  0.00     0.048 C 
BRANCH  24  27
HETATM   27  O5  UNL     1      13.798  10.204  26.608  1.00  0.00    -0.388 OA
ATOM     28  H5  UNL     1      13.281  10.866  27.051  1.00  0.00     0.210 HD
ENDBRANCH  24  27
ENDBRANCH   7  24
TORSDOF 7
ENDMDL
MODEL 3
REMARK VINA RESULT: -5.584762890      1.997      6.283
REMARK  7 active torsions:
REMARK  status: ('A' for Active; 'I' for Inactive)
REMARK    1  A    between atoms: C2_2  and  C3_3 
REMARK    2  A    between atoms: C3_3  and  O1_5 
REMARK    3  A    between atoms: O1_5  and  C5_6 
REMARK    4  A    between atoms: C8_12  and  C9_13 
REMARK    5  A    between atoms: C9_13  and  O5_16 
REMARK    6  A    between atoms: C14_20  and  O6_21 
REMARK    7  A    between atoms: O6_21  and  C15_22 
ROOT
HETATM    1  C5  UNL     1      10.961  10.781  23.059  1.00  0.00     0.291 C 
HETATM    2  C6  UNL     1      11.322  12.125  23.581  1.00  0.00     0.298 C 
HETATM    3  O2  UNL     1      10.892  12.530  24.712  1.00  0.00    -0.262 OA
HETATM    4  O3  UNL     1      12.134  13.009  22.884  1.00  0.00    -0.277 OA
HETATM    5  C7  UNL     1      13.084  12.518  22.030  1.00  0.00     0.215 C 
HETATM    6  O4  UNL     1      13.493  13.344  20.985  1.00  0.00    -0.343 OA
HETATM    7  C8  UNL     1      14.363  12.511  20.280  1.00  0.00     0.164 C 
HETATM    8  C12 UNL     1      13.892  11.080  20.556  1.00  0.00     0.041 C 
HETATM    9  C13 UNL     1      14.699  10.711  21.801  1.00  0.00     0.047 C 
HETATM   10  C14 UNL     1      14.249  11.828  22.724  1.00  0.00     0.196 C 
HETATM   11  C17 UNL     1      12.566  11.355  21.163  1.00  0.00     0.086 C 
HETATM   12  C18 UNL     1      11.526  11.840  20.185  1.00  0.00     0.030 C 
HETATM   13  C19 UNL     1      11.954  10.373  22.028  1.00  0.00     0.179 C 
HETATM   14  O8  UNL     1      12.247   9.201  21.919  1.00  0.00    -0.293 OA
ENDROOT
BRANCH   1  15
HETATM   15  O1  UNL     1      10.888   9.920  24.129  1.00  0.00    -0.363 OA
BRANCH  15  16
HETATM   16  C3  UNL     1       9.757   9.204  24.286  1.00  0.00     0.118 C 
HETATM   17  C4  UNL     1       9.878   7.718  24.244  1.00  0.00     0.039 C 
BRANCH  16  18
HETATM   18  C2  UNL     1       8.629   9.609  23.344  1.00  0.00     0.027 C 
HETATM   19  C1  UNL     1       8.189   8.472  22.466  1.00  0.00     0.007 C 
ENDBRANCH  16  18
ENDBRANCH  15  16
ENDBRANCH   1  15
BRANCH  10  20
HETATM   20  O6  UNL     1      13.927  11.392  24.004  1.00  0.00    -0.311 OA
BRANCH  20  21
HETATM   21  C15 UNL     1      14.863  10.772  24.816  1.00  0.00     0.255 C 
HETATM   22  C16 UNL     1      16.106  11.442  25.283  1.00  0.00     0.126 C 
HETATM   23  O7  UNL     1      14.658   9.579  25.182  1.00  0.00    -0.266 OA
ENDBRANCH  20  21
ENDBRANCH  10  20
BRANCH   7  24
HETATM   24  C9  UNL     1      14.591  12.848  18.868  1.00  0.00     0.077 C 
HETATM   25  C10 UNL     1      13.528  13.818  18.403  1.00  0.00     0.048 C 
HETATM   26  C11 UNL     1      14.339  11.562  18.061  1.00  0.00     0.048 C 
BRANCH  24  27
HETATM   27  O5  UNL     1      15.800  13.321  18.478  1.00  0.00    -0.388 OA
ATOM     28  H5  UNL     1      16.593  12.945  18.843  1.00  0.00     0.210 HD
ENDBRANCH  24  27
ENDBRANCH   7  24
TORSDOF 7
ENDMDL
MODEL 4
REMARK VINA RESULT: -5.489829546      1.881      5.847
REMARK  7 active torsions:
REMARK  status: ('A' for Active; 'I' for Inactive)
REMARK    1  A    between atoms: C2_2  and  C3_3 
REMARK    2  A    between atoms: C3_3  and  O1_5 
REMARK    3  A    between atoms: O1_5  and  C5_6 
REMARK    4  A    between atoms: C8_12  and  C9_13 
REMARK    5  A    between atoms: C9_13  and  O5_16 
REMARK    6  A    between atoms: C14_20  and  O6_21 
REMARK    7  A    between atoms: O6_21  and  C15_22 
ROOT
HETATM    1  C5  UNL     1      13.873   9.318  23.372  1.00  0.00     0.291 C 
HETATM    2  C6  UNL     1      12.756   8.851  22.509  1.00  0.00     0.298 C 
HETATM    3  O2  UNL     1      11.977   7.915  22.889  1.00  0.00    -0.262 OA
HETATM    4  O3  UNL     1      12.496   9.392  21.258  1.00  0.00    -0.277 OA
HETATM    5  C7  UNL     1      12.826  10.697  21.008  1.00  0.00     0.215 C 
HETATM    6  O4  UNL     1      13.063  11.055  19.683  1.00  0.00    -0.343 OA
HETATM    7  C8  UNL     1      13.461  12.387  19.808  1.00  0.00     0.164 C 
HETATM    8  C12 UNL     1      14.073  12.514  21.206  1.00  0.00     0.041 C 
HETATM    9  C13 UNL     1      12.859  12.895  22.055  1.00  0.00     0.047 C 
HETATM   10  C14 UNL     1      11.962  11.711  21.745  1.00  0.00     0.196 C 
HETATM   11  C17 UNL     1      14.213  11.080  21.560  1.00  0.00     0.086 C 
HETATM   12  C18 UNL     1      15.303  10.360  20.809  1.00  0.00     0.030 C 
HETATM   13  C19 UNL     1      14.280  10.686  22.949  1.00  0.00     0.179 C 
HETATM   14  O8  UNL     1      14.673  11.472  23.785  1.00  0.00    -0.293 OA
ENDROOT
BRANCH   1  15
HETATM   15  O1  UNL     1      13.453   9.244  24.680  1.00  0.00    -0.363 OA
BRANCH  15  16
HETATM   16  C3  UNL     1      14.215   8.551  25.548  1.00  0.00     0.118 C 
HETATM   17  C4  UNL     1      13.787   7.159  25.870  1.00  0.00     0.039 C 
BRANCH  16  18
HETATM   18  C2  UNL     1      14.478   9.276  26.862  1.00  0.00     0.027 C 
HETATM   19  C1  UNL     1      15.701  10.145  26.795  1.00  0.00     0.007 C 
ENDBRANCH  16  18
ENDBRANCH  15  16
ENDBRANCH   1  15
BRANCH  10  20
HETATM   20  O6  UNL     1      11.349  11.173  22.870  1.00  0.00    -0.311 OA
BRANCH  20  21
HETATM   21  C15 UNL     1       9.973  11.028  22.947  1.00  0.00     0.255 C 
HETATM   22  C16 UNL     1       9.148  10.491  21.832  1.00  0.00     0.126 C 
HETATM   23  O7  UNL     1       9.383  11.367  24.013  1.00  0.00    -0.266 OA
ENDBRANCH  20  21
ENDBRANCH  10  20
BRANCH   7  24
HETATM   24  C9  UNL     1      14.262  12.937  18.706  1.00  0.00     0.077 C 
HETATM   25  C10 UNL     1      13.499  14.061  18.041  1.00  0.00     0.048 C 
HETATM   26  C11 UNL     1      14.361  11.835  17.638  1.00  0.00     0.048 C 
BRANCH  24  27
HETATM   27  O5  UNL     1      15.528  13.363  18.944  1.00  0.00    -0.388 OA
ATOM     28  H5  UNL     1      15.843  14.157  18.529  1.00  0.00     0.210 HD
ENDBRANCH  24  27
ENDBRANCH   7  24
TORSDOF 7
ENDMDL
MODEL 5
REMARK VINA RESULT: -5.462483852      1.923      6.437
REMARK  7 active torsions:
REMARK  status: ('A' for Active; 'I' for Inactive)
REMARK    1  A    between atoms: C2_2  and  C3_3 
REMARK    2  A    between atoms: C3_3  and  O1_5 
REMARK    3  A    between atoms: O1_5  and  C5_6 
REMARK    4  A    between atoms: C8_12  and  C9_13 
REMARK    5  A    between atoms: C9_13  and  O5_16 
REMARK    6  A    between atoms: C14_20  and  O6_21 
REMARK    7  A    between atoms: O6_21  and  C15_22 
ROOT
HETATM    1  C5  UNL     1      10.848  10.451  23.048  1.00  0.00     0.291 C 
HETATM    2  C6  UNL     1      11.274  11.708  23.717  1.00  0.00     0.298 C 
HETATM    3  O2  UNL     1      10.889  11.987  24.901  1.00  0.00    -0.262 OA
HETATM    4  O3  UNL     1      12.100  12.641  23.108  1.00  0.00    -0.277 OA
HETATM    5  C7  UNL     1      13.009  12.225  22.172  1.00  0.00     0.215 C 
HETATM    6  O4  UNL     1      13.422  13.157  21.223  1.00  0.00    -0.343 OA
HETATM    7  C8  UNL     1      14.240  12.387  20.396  1.00  0.00     0.164 C 
HETATM    8  C12 UNL     1      13.722  10.950  20.511  1.00  0.00     0.041 C 
HETATM    9  C13 UNL     1      14.546  10.404  21.677  1.00  0.00     0.047 C 
HETATM   10  C14 UNL     1      14.164  11.415  22.742  1.00  0.00     0.196 C 
HETATM   11  C17 UNL     1      12.424  11.195  21.187  1.00  0.00     0.086 C 
HETATM   12  C18 UNL     1      11.379  11.832  20.307  1.00  0.00     0.030 C 
HETATM   13  C19 UNL     1      11.798  10.137  21.945  1.00  0.00     0.179 C 
HETATM   14  O8  UNL     1      12.042   8.977  21.686  1.00  0.00    -0.293 OA
ENDROOT
BRANCH   1  15
HETATM   15  O1  UNL     1      10.770   9.468  24.008  1.00  0.00    -0.363 OA
BRANCH  15  16
HETATM   16  C3  UNL     1       9.588   8.844  24.174  1.00  0.00     0.118 C 
HETATM   17  C4  UNL     1       8.440   9.323  23.351  1.00  0.00     0.039 C 
BRANCH  16  18
HETATM   18  C2  UNL     1       9.123   8.766  25.624  1.00  0.00     0.027 C 
HETATM   19  C1  UNL     1      10.260   8.928  26.592  1.00  0.00     0.007 C 
ENDBRANCH  16  18
ENDBRANCH  15  16
ENDBRANCH   1  15
BRANCH  10  20
HETATM   20  O6  UNL     1      13.859  10.838  23.969  1.00  0.00    -0.311 OA
BRANCH  20  21
HETATM   21  C15 UNL     1      14.579  11.141  25.113  1.00  0.00     0.255 C 
HETATM   22  C16 UNL     1      16.053  11.338  25.117  1.00  0.00     0.126 C 
HETATM   23  O7  UNL     1      13.961  11.257  26.210  1.00  0.00    -0.266 OA
ENDBRANCH  20  21
ENDBRANCH  10  20
BRANCH   7  24
HETATM   24  C9  UNL     1      14.445  12.885  19.029  1.00  0.00     0.077 C 
HETATM   25  C10 UNL     1      13.351  13.871  18.683  1.00  0.00     0.048 C 
HETATM   26  C11 UNL     1      14.218  11.691  18.085  1.00  0.00     0.048 C 
BRANCH  24  27
HETATM   27  O5  UNL     1      15.637  13.432  18.685  1.00  0.00    -0.388 OA
ATOM     28  H5  UNL     1      15.819  13.628  17.773  1.00  0.00     0.210 HD
ENDBRANCH  24  27
ENDBRANCH   7  24
TORSDOF 7
ENDMDL
