MODEL 1
REMARK VINA RESULT: -8.809999035      0.000      0.000
REMARK  4 active torsions:
REMARK  status: ('A' for Active; 'I' for Inactive)
REMARK    1  A    between atoms: N1_5  and  C4_6 
REMARK    2  A    between atoms: N2_14  and  N3_15 
REMARK    3  A    between atoms: C11_17  and  C12_18 
REMARK    4  A    between atoms: C15_21  and  N4_22 
ROOT
HETATM    1  O1  UNL     1      15.974  10.946  17.286  1.00  0.00    -0.263 OA
HETATM    2  C1  UNL     1      15.179  11.042  18.255  1.00  0.00     0.301 A 
HETATM    3  C2  UNL     1      14.415  12.161  18.469  1.00  0.00     0.146 A 
HETATM    4  C3  UNL     1      13.536  12.245  19.557  1.00  0.00     0.079 A 
HETATM    5  N1  UNL     1      13.434  11.212  20.411  1.00  0.00    -0.260 N 
HETATM    6  C10 UNL     1      14.194  10.123  20.180  1.00  0.00     0.356 A 
HETATM    7  O2  UNL     1      14.059   9.176  21.017  1.00  0.00    -0.244 OA
HETATM    8  N2  UNL     1      15.044  10.026  19.141  1.00  0.00    -0.166 N 
HETATM    9  C18 UNL     1      12.737  13.450  19.757  1.00  0.00     0.051 A 
HETATM   10  C19 UNL     1      12.826  14.466  18.932  1.00  0.00     0.109 A 
HETATM   11  N5  UNL     1      13.710  14.388  17.834  1.00  0.00    -0.311 N 
ATOM     12  H5  UNL     1      13.771  15.184  17.199  1.00  0.00     0.186 HD
HETATM   13  N6  UNL     1      14.502  13.274  17.579  1.00  0.00    -0.294 N 
ATOM     14  H6  UNL     1      15.131  13.253  16.777  1.00  0.00     0.187 HD
ENDROOT
BRANCH   8  15
HETATM   15  N3  UNL     1      15.786   8.852  18.992  1.00  0.00    -0.297 N 
HETATM   16  C11 UNL     1      17.008   8.726  19.276  1.00  0.00     0.119 C 
ATOM     17  H3  UNL     1      15.301   8.033  18.626  1.00  0.00     0.186 HD
BRANCH  16  18
HETATM   18  C12 UNL     1      17.676   7.455  19.080  1.00  0.00    -0.019 A 
HETATM   19  C13 UNL     1      17.450   6.374  19.916  1.00  0.00     0.015 A 
HETATM   20  C14 UNL     1      18.044   5.160  19.784  1.00  0.00     0.037 A 
HETATM   21  C15 UNL     1      18.937   4.971  18.757  1.00  0.00     0.102 A 
HETATM   22  C16 UNL     1      19.194   6.041  17.890  1.00  0.00     0.037 A 
HETATM   23  C17 UNL     1      18.582   7.261  18.040  1.00  0.00     0.015 A 
BRANCH  21  24
HETATM   24  N4  UNL     1      19.566   3.728  18.597  1.00  0.00    -0.116 N 
HETATM   25  O3  UNL     1      20.742   3.582  18.994  1.00  0.00    -0.532 OA
HETATM   26  O4  UNL     1      18.895   2.698  18.014  1.00  0.00    -0.532 OA
ENDBRANCH  21  24
ENDBRANCH  16  18
ENDBRANCH   8  15
BRANCH   5  27
HETATM   27  C4  UNL     1      12.541  11.298  21.516  1.00  0.00     0.044 A 
HETATM   28  C5  UNL     1      12.892  11.852  22.725  1.00  0.00     0.030 A 
HETATM   29  C6  UNL     1      11.969  11.908  23.773  1.00  0.00     0.002 A 
HETATM   30  C7  UNL     1      10.707  11.405  23.587  1.00  0.00     0.000 A 
HETATM   31  C8  UNL     1      10.329  10.847  22.389  1.00  0.00     0.002 A 
HETATM   32  C9  UNL     1      11.258  10.807  21.380  1.00  0.00     0.030 A 
ENDBRANCH   5  27
TORSDOF 4
ENDMDL
MODEL 2
REMARK VINA RESULT: -8.696658624      0.116      1.252
REMARK  4 active torsions:
REMARK  status: ('A' for Active; 'I' for Inactive)
REMARK    1  A    between atoms: N1_5  and  C4_6 
REMARK    2  A    between atoms: N2_14  and  N3_15 
REMARK    3  A    between atoms: C11_17  and  C12_18 
REMARK    4  A    between atoms: C15_21  and  N4_22 
ROOT
HETATM    1  O1  UNL     1      15.993  10.859  17.398  1.00  0.00    -0.263 OA
HETATM    2  C1  UNL     1      15.160  10.963  18.332  1.00  0.00     0.301 A 
HETATM    3  C2  UNL     1      14.398  12.090  18.513  1.00  0.00     0.146 A 
HETATM    4  C3  UNL     1      13.475  12.184  19.562  1.00  0.00     0.079 A 
HETATM    5  N1  UNL     1      13.327  11.153  20.412  1.00  0.00    -0.260 N 
HETATM    6  C10 UNL     1      14.086  10.057  20.215  1.00  0.00     0.356 A 
HETATM    7  O2  UNL     1      13.907   9.111  21.046  1.00  0.00    -0.244 OA
HETATM    8  N2  UNL     1      14.978   9.951  19.212  1.00  0.00    -0.166 N 
HETATM    9  C18 UNL     1      12.679  13.396  19.728  1.00  0.00     0.051 A 
HETATM   10  C19 UNL     1      12.812  14.410  18.906  1.00  0.00     0.109 A 
HETATM   11  N5  UNL     1      13.741  14.322  17.847  1.00  0.00    -0.311 N 
ATOM     12  H5  UNL     1      13.836  15.117  17.214  1.00  0.00     0.186 HD
HETATM   13  N6  UNL     1      14.533  13.201  17.627  1.00  0.00    -0.294 N 
ATOM     14  H6  UNL     1      15.194  13.173  16.851  1.00  0.00     0.187 HD
ENDROOT
BRANCH   8  15
HETATM   15  N3  UNL     1      15.714   8.769  19.096  1.00  0.00    -0.297 N 
HETATM   16  C11 UNL     1      16.957   8.667  19.291  1.00  0.00     0.119 C 
ATOM     17  H3  UNL     1      15.208   7.923  18.834  1.00  0.00     0.186 HD
BRANCH  16  18
HETATM   18  C12 UNL     1      17.617   7.386  19.141  1.00  0.00    -0.019 A 
HETATM   19  C13 UNL     1      18.574   7.167  18.164  1.00  0.00     0.015 A 
HETATM   20  C14 UNL     1      19.227   5.991  17.974  1.00  0.00     0.037 A 
HETATM   21  C15 UNL     1      18.929   4.932  18.796  1.00  0.00     0.102 A 
HETATM   22  C16 UNL     1      17.966   5.112  19.797  1.00  0.00     0.037 A 
HETATM   23  C17 UNL     1      17.317   6.310  19.973  1.00  0.00     0.015 A 
BRANCH  21  24
HETATM   24  N4  UNL     1      19.587   3.705  18.623  1.00  0.00    -0.116 N 
HETATM   25  O3  UNL     1      20.736   3.557  19.090  1.00  0.00    -0.532 OA
HETATM   26  O4  UNL     1      18.972   2.694  17.951  1.00  0.00    -0.532 OA
ENDBRANCH  21  24
ENDBRANCH  16  18
ENDBRANCH   8  15
BRANCH   5  27
HETATM   27  C4  UNL     1      12.389  11.248  21.479  1.00  0.00     0.044 A 
HETATM   28  C5  UNL     1      11.088  10.814  21.377  1.00  0.00     0.030 A 
HETATM   29  C6  UNL     1      10.213  10.935  22.461  1.00  0.00     0.002 A 
HETATM   30  C7  UNL     1      10.664  11.490  23.630  1.00  0.00     0.000 A 
HETATM   31  C8  UNL     1      11.959  11.932  23.760  1.00  0.00     0.002 A 
HETATM   32  C9  UNL     1      12.792  11.799  22.678  1.00  0.00     0.030 A 
ENDBRANCH   5  27
TORSDOF 4
ENDMDL
MODEL 3
REMARK VINA RESULT: -8.511133016      0.738      1.283
REMARK  4 active torsions:
REMARK  status: ('A' for Active; 'I' for Inactive)
REMARK    1  A    between atoms: N1_5  and  C4_6 
REMARK    2  A    between atoms: N2_14  and  N3_15 
REMARK    3  A    between atoms: C11_17  and  C12_18 
REMARK    4  A    between atoms: C15_21  and  N4_22 
ROOT
HETATM    1  O1  UNL     1      16.508  11.104  17.745  1.00  0.00    -0.263 OA
HETATM    2  C1  UNL     1      15.614  11.191  18.623  1.00  0.00     0.301 A 
HETATM    3  C2  UNL     1      14.713  12.226  18.654  1.00  0.00     0.146 A 
HETATM    4  C3  UNL     1      13.726  12.302  19.644  1.00  0.00     0.079 A 
HETATM    5  N1  UNL     1      13.651  11.344  20.585  1.00  0.00    -0.260 N 
HETATM    6  C10 UNL     1      14.545  10.337  20.534  1.00  0.00     0.356 A 
HETATM    7  O2  UNL     1      14.432   9.459  21.447  1.00  0.00    -0.244 OA
HETATM    8  N2  UNL     1      15.502  10.250  19.590  1.00  0.00    -0.166 N 
HETATM    9  C18 UNL     1      12.783  13.416  19.650  1.00  0.00     0.051 A 
HETATM   10  C19 UNL     1      12.843  14.358  18.739  1.00  0.00     0.109 A 
HETATM   11  N5  UNL     1      13.837  14.288  17.739  1.00  0.00    -0.311 N 
ATOM     12  H5  UNL     1      13.874  15.026  17.035  1.00  0.00     0.186 HD
HETATM   13  N6  UNL     1      14.768  13.258  17.669  1.00  0.00    -0.294 N 
ATOM     14  H6  UNL     1      15.473  13.240  16.933  1.00  0.00     0.187 HD
ENDROOT
BRANCH   8  15
HETATM   15  N3  UNL     1      16.379   9.163  19.628  1.00  0.00    -0.297 N 
HETATM   16  C11 UNL     1      16.031   7.953  19.704  1.00  0.00     0.119 C 
ATOM     17  H3  UNL     1      17.378   9.364  19.592  1.00  0.00     0.186 HD
BRANCH  16  18
HETATM   18  C12 UNL     1      17.033   6.906  19.737  1.00  0.00    -0.019 A 
HETATM   19  C13 UNL     1      18.075   6.863  18.825  1.00  0.00     0.015 A 
HETATM   20  C14 UNL     1      19.042   5.910  18.805  1.00  0.00     0.037 A 
HETATM   21  C15 UNL     1      19.001   4.909  19.745  1.00  0.00     0.102 A 
HETATM   22  C16 UNL     1      17.963   4.917  20.685  1.00  0.00     0.037 A 
HETATM   23  C17 UNL     1      16.994   5.890  20.689  1.00  0.00     0.015 A 
BRANCH  21  24
HETATM   24  N4  UNL     1      19.987   3.911  19.748  1.00  0.00    -0.116 N 
HETATM   25  O3  UNL     1      20.300   3.359  18.672  1.00  0.00    -0.532 OA
HETATM   26  O4  UNL     1      20.589   3.555  20.915  1.00  0.00    -0.532 OA
ENDBRANCH  21  24
ENDBRANCH  16  18
ENDBRANCH   8  15
BRANCH   5  27
HETATM   27  C4  UNL     1      12.647  11.422  21.591  1.00  0.00     0.044 A 
HETATM   28  C5  UNL     1      12.810  12.122  22.763  1.00  0.00     0.030 A 
HETATM   29  C6  UNL     1      11.785  12.161  23.714  1.00  0.00     0.002 A 
HETATM   30  C7  UNL     1      10.613  11.494  23.467  1.00  0.00     0.000 A 
HETATM   31  C8  UNL     1      10.423  10.787  22.303  1.00  0.00     0.002 A 
HETATM   32  C9  UNL     1      11.448  10.768  21.391  1.00  0.00     0.030 A 
ENDBRANCH   5  27
TORSDOF 4
ENDMDL
MODEL 4
REMARK VINA RESULT: -8.031284916      2.512      3.497
REMARK  4 active torsions:
REMARK  status: ('A' for Active; 'I' for Inactive)
REMARK    1  A    between atoms: N1_5  and  C4_6 
REMARK    2  A    between atoms: N2_14  and  N3_15 
REMARK    3  A    between atoms: C11_17  and  C12_18 
REMARK    4  A    between atoms: C15_21  and  N4_22 
ROOT
HETATM    1  O1  UNL     1      18.109   8.716  17.579  1.00  0.00    -0.263 OA
HETATM    2  C1  UNL     1      17.243   9.508  18.028  1.00  0.00     0.301 A 
HETATM    3  C2  UNL     1      17.082  10.777  17.530  1.00  0.00     0.146 A 
HETATM    4  C3  UNL     1      16.110  11.643  18.047  1.00  0.00     0.079 A 
HETATM    5  N1  UNL     1      15.316  11.229  19.050  1.00  0.00    -0.260 N 
HETATM    6  C10 UNL     1      15.493   9.979  19.522  1.00  0.00     0.356 A 
HETATM    7  O2  UNL     1      14.716   9.638  20.470  1.00  0.00    -0.244 OA
HETATM    8  N2  UNL     1      16.422   9.134  19.037  1.00  0.00    -0.166 N 
HETATM    9  C18 UNL     1      15.963  12.986  17.497  1.00  0.00     0.051 A 
HETATM   10  C19 UNL     1      16.730  13.404  16.518  1.00  0.00     0.109 A 
HETATM   11  N5  UNL     1      17.712  12.536  15.993  1.00  0.00    -0.311 N 
ATOM     12  H5  UNL     1      18.303  12.872  15.232  1.00  0.00     0.186 HD
HETATM   13  N6  UNL     1      17.910  11.244  16.466  1.00  0.00    -0.294 N 
ATOM     14  H6  UNL     1      18.630  10.645  16.063  1.00  0.00     0.187 HD
ENDROOT
BRANCH   8  15
HETATM   15  N3  UNL     1      16.522   7.859  19.599  1.00  0.00    -0.297 N 
HETATM   16  C11 UNL     1      17.583   7.180  19.672  1.00  0.00     0.119 C 
ATOM     17  H3  UNL     1      15.671   7.444  19.978  1.00  0.00     0.186 HD
BRANCH  16  18
HETATM   18  C12 UNL     1      17.567   5.864  20.277  1.00  0.00    -0.019 A 
HETATM   19  C13 UNL     1      18.577   4.943  20.051  1.00  0.00     0.015 A 
HETATM   20  C14 UNL     1      18.619   3.697  20.588  1.00  0.00     0.037 A 
HETATM   21  C15 UNL     1      17.596   3.301  21.415  1.00  0.00     0.102 A 
HETATM   22  C16 UNL     1      16.555   4.203  21.670  1.00  0.00     0.037 A 
HETATM   23  C17 UNL     1      16.531   5.460  21.116  1.00  0.00     0.015 A 
BRANCH  21  24
HETATM   24  N4  UNL     1      17.612   2.019  21.984  1.00  0.00    -0.116 N 
HETATM   25  O3  UNL     1      16.948   1.801  23.019  1.00  0.00    -0.532 OA
HETATM   26  O4  UNL     1      18.347   1.030  21.406  1.00  0.00    -0.532 OA
ENDBRANCH  21  24
ENDBRANCH  16  18
ENDBRANCH   8  15
BRANCH   5  27
HETATM   27  C4  UNL     1      14.328  12.109  19.575  1.00  0.00     0.044 A 
HETATM   28  C5  UNL     1      13.086  12.271  19.006  1.00  0.00     0.030 A 
HETATM   29  C6  UNL     1      12.158  13.152  19.570  1.00  0.00     0.002 A 
HETATM   30  C7  UNL     1      12.496  13.854  20.698  1.00  0.00     0.000 A 
HETATM   31  C8  UNL     1      13.729  13.711  21.288  1.00  0.00     0.002 A 
HETATM   32  C9  UNL     1      14.617  12.839  20.710  1.00  0.00     0.030 A 
ENDBRANCH   5  27
TORSDOF 4
ENDMDL
MODEL 5
REMARK VINA RESULT: -8.018380417      2.520      3.411
REMARK  4 active torsions:
REMARK  status: ('A' for Active; 'I' for Inactive)
REMARK    1  A    between atoms: N1_5  and  C4_6 
REMARK    2  A    between atoms: N2_14  and  N3_15 
REMARK    3  A    between atoms: C11_17  and  C12_18 
REMARK    4  A    between atoms: C15_21  and  N4_22 
ROOT
HETATM    1  O1  UNL     1      18.113   8.764  17.487  1.00  0.00    -0.263 OA
HETATM    2  C1  UNL     1      17.251   9.552  17.949  1.00  0.00     0.301 A 
HETATM    3  C2  UNL     1      17.080  10.822  17.459  1.00  0.00     0.146 A 
HETATM    4  C3  UNL     1      16.112  11.684  17.991  1.00  0.00     0.079 A 
HETATM    5  N1  UNL     1      15.331  11.264  19.002  1.00  0.00    -0.260 N 
HETATM    6  C10 UNL     1      15.516  10.012  19.466  1.00  0.00     0.356 A 
HETATM    7  O2  UNL     1      14.752   9.665  20.422  1.00  0.00    -0.244 OA
HETATM    8  N2  UNL     1      16.442   9.172  18.967  1.00  0.00    -0.166 N 
HETATM    9  C18 UNL     1      15.956  13.029  17.448  1.00  0.00     0.051 A 
HETATM   10  C19 UNL     1      16.710  13.453  16.462  1.00  0.00     0.109 A 
HETATM   11  N5  UNL     1      17.688  12.590  15.922  1.00  0.00    -0.311 N 
ATOM     12  H5  UNL     1      18.270  12.931  15.156  1.00  0.00     0.186 HD
HETATM   13  N6  UNL     1      17.895  11.296  16.387  1.00  0.00    -0.294 N 
ATOM     14  H6  UNL     1      18.612  10.701  15.974  1.00  0.00     0.187 HD
ENDROOT
BRANCH   8  15
HETATM   15  N3  UNL     1      16.552   7.894  19.521  1.00  0.00    -0.297 N 
HETATM   16  C11 UNL     1      17.612   7.213  19.568  1.00  0.00     0.119 C 
ATOM     17  H3  UNL     1      15.709   7.480  19.919  1.00  0.00     0.186 HD
BRANCH  16  18
HETATM   18  C12 UNL     1      17.607   5.894  20.169  1.00  0.00    -0.019 A 
HETATM   19  C13 UNL     1      16.610   5.493  21.043  1.00  0.00     0.015 A 
HETATM   20  C14 UNL     1      16.550   4.274  21.636  1.00  0.00     0.037 A 
HETATM   21  C15 UNL     1      17.540   3.359  21.366  1.00  0.00     0.102 A 
HETATM   22  C16 UNL     1      18.567   3.726  20.487  1.00  0.00     0.037 A 
HETATM   23  C17 UNL     1      18.609   4.966  19.896  1.00  0.00     0.015 A 
BRANCH  21  24
HETATM   24  N4  UNL     1      17.504   2.092  21.966  1.00  0.00    -0.116 N 
HETATM   25  O3  UNL     1      18.434   1.286  21.748  1.00  0.00    -0.532 OA
HETATM   26  O4  UNL     1      16.463   1.753  22.774  1.00  0.00    -0.532 OA
ENDBRANCH  21  24
ENDBRANCH  16  18
ENDBRANCH   8  15
BRANCH   5  27
HETATM   27  C4  UNL     1      14.347  12.139  19.542  1.00  0.00     0.044 A 
HETATM   28  C5  UNL     1      13.093  12.288  18.998  1.00  0.00     0.030 A 
HETATM   29  C6  UNL     1      12.169  13.164  19.576  1.00  0.00     0.002 A 
HETATM   30  C7  UNL     1      12.525  13.876  20.692  1.00  0.00     0.000 A 
HETATM   31  C8  UNL     1      13.771  13.747  21.257  1.00  0.00     0.002 A 
HETATM   32  C9  UNL     1      14.655  12.878  20.666  1.00  0.00     0.030 A 
ENDBRANCH   5  27
TORSDOF 4
ENDMDL
