MODEL 1
REMARK VINA RESULT: -5.627268134      0.000      0.000
REMARK  7 active torsions:
REMARK  status: ('A' for Active; 'I' for Inactive)
REMARK    1  A    between atoms: C2_2  and  C3_3 
REMARK       I    between atoms: C3_3  and  N1_5 
REMARK    2  A    between atoms: N1_5  and  C4_7 
REMARK    3  A    between atoms: C10_15  and  N2_16 
REMARK    4  A    between atoms: C13_19  and  O4_20 
REMARK    5  A    between atoms: O4_20  and  C14_21 
REMARK    6  A    between atoms: C14_21  and  O6_23 
REMARK    7  A    between atoms: O6_23  and  C15_24 
ROOT
HETATM    1  C15 UNL     1     -18.240  -4.787 -26.697  1.00  0.00     0.153 C 
HETATM    2  C16 UNL     1     -17.815  -3.568 -27.489  1.00  0.00     0.063 C 
HETATM    3  C17 UNL     1     -19.601  -4.583 -26.107  1.00  0.00     0.063 C 
HETATM    4  C18 UNL     1     -18.337  -5.973 -27.586  1.00  0.00     0.097 C 
HETATM    5  N3  UNL     1     -18.396  -6.895 -28.280  1.00  0.00    -0.194 NA
ENDROOT
BRANCH   1   6
HETATM    6  O6  UNL     1     -17.250  -5.071 -25.758  1.00  0.00    -0.272 OA
BRANCH   6   7
HETATM    7  C14 UNL     1     -15.886  -4.987 -25.980  1.00  0.00     0.408 C 
HETATM    8  O5  UNL     1     -15.324  -3.902 -25.764  1.00  0.00    -0.229 OA
BRANCH   7   9
HETATM    9  O4  UNL     1     -15.121  -6.046 -26.428  1.00  0.00    -0.288 OA
BRANCH   9  10
HETATM   10  C13 UNL     1     -14.759  -7.137 -25.630  1.00  0.00     0.184 C 
HETATM   11  C4  UNL     1     -14.744  -8.378 -26.535  1.00  0.00     0.147 C 
HETATM   12  C5  UNL     1     -14.015  -9.360 -25.676  1.00  0.00     0.181 C 
HETATM   13  O2  UNL     1     -14.910  -9.827 -24.708  1.00  0.00    -0.346 OA
HETATM   14  C9  UNL     1     -12.993  -8.517 -24.922  1.00  0.00     0.181 C 
HETATM   15  C6  UNL     1     -14.096  -9.950 -23.604  1.00  0.00     0.158 C 
HETATM   16  C7  UNL     1     -14.933  -9.845 -22.335  1.00  0.00     0.078 C 
HETATM   17  C8  UNL     1     -13.270 -11.196 -23.580  1.00  0.00     0.078 C 
HETATM   18  O3  UNL     1     -13.241  -8.856 -23.613  1.00  0.00    -0.346 OA
HETATM   19  C10 UNL     1     -13.268  -7.112 -25.284  1.00  0.00     0.141 C 
BRANCH  11  20
HETATM   20  N1  UNL     1     -16.060  -8.790 -26.911  1.00  0.00    -0.351 N 
HETATM   21  C3  UNL     1     -16.201  -9.789 -27.910  1.00  0.00     0.217 C 
HETATM   22  O1  UNL     1     -15.207 -10.323 -28.477  1.00  0.00    -0.274 OA
ATOM     23  H1  UNL     1     -16.881  -8.375 -26.469  1.00  0.00     0.163 HD
BRANCH  21  24
HETATM   24  C2  UNL     1     -17.552 -10.242 -28.324  1.00  0.00     0.098 C 
HETATM   25  C1  UNL     1     -17.522 -11.535 -29.071  1.00  0.00     0.014 C 
ENDBRANCH  21  24
ENDBRANCH  11  20
BRANCH  19  26
HETATM   26  N2  UNL     1     -12.895  -6.104 -24.403  1.00  0.00    -0.412 N 
HETATM   27  C11 UNL     1     -12.140  -5.012 -24.875  1.00  0.00     0.143 C 
HETATM   28  C12 UNL     1     -13.740  -5.820 -23.294  1.00  0.00     0.143 C 
ENDBRANCH  19  26
ENDBRANCH   9  10
ENDBRANCH   7   9
ENDBRANCH   6   7
ENDBRANCH   1   6
TORSDOF 7
ENDMDL
MODEL 2
REMARK VINA RESULT: -5.527885819      2.109      5.796
REMARK  7 active torsions:
REMARK  status: ('A' for Active; 'I' for Inactive)
REMARK    1  A    between atoms: C2_2  and  C3_3 
REMARK       I    between atoms: C3_3  and  N1_5 
REMARK    2  A    between atoms: N1_5  and  C4_7 
REMARK    3  A    between atoms: C10_15  and  N2_16 
REMARK    4  A    between atoms: C13_19  and  O4_20 
REMARK    5  A    between atoms: O4_20  and  C14_21 
REMARK    6  A    between atoms: C14_21  and  O6_23 
REMARK    7  A    between atoms: O6_23  and  C15_24 
ROOT
HETATM    1  C15 UNL     1     -13.768 -11.704 -26.194  1.00  0.00     0.153 C 
HETATM    2  C16 UNL     1     -13.687 -12.625 -24.994  1.00  0.00     0.063 C 
HETATM    3  C17 UNL     1     -12.438 -11.070 -26.462  1.00  0.00     0.063 C 
HETATM    4  C18 UNL     1     -14.124 -12.473 -27.413  1.00  0.00     0.097 C 
HETATM    5  N3  UNL     1     -14.417 -13.074 -28.356  1.00  0.00    -0.194 NA
ENDROOT
BRANCH   1   6
HETATM    6  O6  UNL     1     -14.799 -10.791 -25.981  1.00  0.00    -0.272 OA
BRANCH   6   7
HETATM    7  C14 UNL     1     -14.723  -9.427 -26.212  1.00  0.00     0.408 C 
HETATM    8  O5  UNL     1     -14.836  -9.024 -27.379  1.00  0.00    -0.229 OA
BRANCH   7   9
HETATM    9  O4  UNL     1     -14.529  -8.496 -25.210  1.00  0.00    -0.288 OA
BRANCH   9  10
HETATM   10  C13 UNL     1     -13.991  -7.222 -25.425  1.00  0.00     0.184 C 
HETATM   11  C4  UNL     1     -15.147  -6.216 -25.316  1.00  0.00     0.147 C 
HETATM   12  C5  UNL     1     -14.403  -4.925 -25.202  1.00  0.00     0.181 C 
HETATM   13  O2  UNL     1     -13.953  -4.578 -26.481  1.00  0.00    -0.346 OA
HETATM   14  C9  UNL     1     -13.153  -5.277 -24.405  1.00  0.00     0.181 C 
HETATM   15  C6  UNL     1     -12.723  -4.023 -26.208  1.00  0.00     0.158 C 
HETATM   16  C7  UNL     1     -11.822  -4.142 -27.432  1.00  0.00     0.078 C 
HETATM   17  C8  UNL     1     -12.774  -2.605 -25.737  1.00  0.00     0.078 C 
HETATM   18  O3  UNL     1     -12.146  -4.798 -25.209  1.00  0.00    -0.346 OA
HETATM   19  C10 UNL     1     -13.181  -6.742 -24.217  1.00  0.00     0.141 C 
BRANCH  11  20
HETATM   20  N1  UNL     1     -16.033  -6.287 -26.435  1.00  0.00    -0.351 N 
HETATM   21  C3  UNL     1     -17.267  -5.589 -26.371  1.00  0.00     0.217 C 
HETATM   22  O1  UNL     1     -17.610  -4.912 -25.362  1.00  0.00    -0.274 OA
ATOM     23  H1  UNL     1     -15.782  -6.828 -27.264  1.00  0.00     0.163 HD
BRANCH  21  24
HETATM   24  C2  UNL     1     -18.212  -5.640 -27.515  1.00  0.00     0.098 C 
HETATM   25  C1  UNL     1     -18.250  -6.981 -28.170  1.00  0.00     0.014 C 
ENDBRANCH  21  24
ENDBRANCH  11  20
BRANCH  19  26
HETATM   26  N2  UNL     1     -11.984  -7.419 -24.016  1.00  0.00    -0.412 N 
HETATM   27  C11 UNL     1     -11.816  -8.207 -22.861  1.00  0.00     0.143 C 
HETATM   28  C12 UNL     1     -11.245  -7.848 -25.153  1.00  0.00     0.143 C 
ENDBRANCH  19  26
ENDBRANCH   9  10
ENDBRANCH   7   9
ENDBRANCH   6   7
ENDBRANCH   1   6
TORSDOF 7
ENDMDL
MODEL 3
REMARK VINA RESULT: -5.462742968      1.363      2.077
REMARK  7 active torsions:
REMARK  status: ('A' for Active; 'I' for Inactive)
REMARK    1  A    between atoms: C2_2  and  C3_3 
REMARK       I    between atoms: C3_3  and  N1_5 
REMARK    2  A    between atoms: N1_5  and  C4_7 
REMARK    3  A    between atoms: C10_15  and  N2_16 
REMARK    4  A    between atoms: C13_19  and  O4_20 
REMARK    5  A    between atoms: O4_20  and  C14_21 
REMARK    6  A    between atoms: C14_21  and  O6_23 
REMARK    7  A    between atoms: O6_23  and  C15_24 
ROOT
HETATM    1  C15 UNL     1     -17.650  -3.610 -25.383  1.00  0.00     0.153 C 
HETATM    2  C16 UNL     1     -19.133  -3.300 -25.367  1.00  0.00     0.063 C 
HETATM    3  C17 UNL     1     -16.981  -2.924 -26.534  1.00  0.00     0.063 C 
HETATM    4  C18 UNL     1     -17.003  -3.096 -24.149  1.00  0.00     0.097 C 
HETATM    5  N3  UNL     1     -16.507  -2.708 -23.180  1.00  0.00    -0.194 NA
ENDROOT
BRANCH   1   6
HETATM    6  O6  UNL     1     -17.488  -4.994 -25.374  1.00  0.00    -0.272 OA
BRANCH   6   7
HETATM    7  C14 UNL     1     -16.967  -5.747 -26.413  1.00  0.00     0.408 C 
HETATM    8  O5  UNL     1     -17.728  -6.078 -27.335  1.00  0.00    -0.229 OA
BRANCH   7   9
HETATM    9  O4  UNL     1     -15.646  -6.146 -26.475  1.00  0.00    -0.288 OA
BRANCH   9  10
HETATM   10  C13 UNL     1     -15.107  -7.174 -25.694  1.00  0.00     0.184 C 
HETATM   11  C4  UNL     1     -14.970  -8.409 -26.597  1.00  0.00     0.147 C 
HETATM   12  C5  UNL     1     -14.078  -9.280 -25.773  1.00  0.00     0.181 C 
HETATM   13  O2  UNL     1     -14.858  -9.854 -24.763  1.00  0.00    -0.346 OA
HETATM   14  C9  UNL     1     -13.143  -8.305 -25.068  1.00  0.00     0.181 C 
HETATM   15  C6  UNL     1     -13.985  -9.861 -23.699  1.00  0.00     0.158 C 
HETATM   16  C7  UNL     1     -14.769  -9.858 -22.391  1.00  0.00     0.078 C 
HETATM   17  C8  UNL     1     -13.002 -10.988 -23.712  1.00  0.00     0.078 C 
HETATM   18  O3  UNL     1     -13.283  -8.663 -23.748  1.00  0.00    -0.346 OA
HETATM   19  C10 UNL     1     -13.617  -6.950 -25.418  1.00  0.00     0.141 C 
BRANCH  11  20
HETATM   20  N1  UNL     1     -16.236  -8.993 -26.910  1.00  0.00    -0.351 N 
HETATM   21  C3  UNL     1     -16.314  -9.907 -27.994  1.00  0.00     0.217 C 
HETATM   22  O1  UNL     1     -15.307 -10.220 -28.690  1.00  0.00    -0.274 OA
ATOM     23  H1  UNL     1     -17.066  -8.759 -26.366  1.00  0.00     0.163 HD
BRANCH  21  24
HETATM   24  C2  UNL     1     -17.612 -10.534 -28.347  1.00  0.00     0.098 C 
HETATM   25  C1  UNL     1     -17.448 -11.799 -29.124  1.00  0.00     0.014 C 
ENDBRANCH  21  24
ENDBRANCH  11  20
BRANCH  19  26
HETATM   26  N2  UNL     1     -13.340  -5.896 -24.557  1.00  0.00    -0.412 N 
HETATM   27  C11 UNL     1     -14.120  -5.721 -23.397  1.00  0.00     0.143 C 
HETATM   28  C12 UNL     1     -11.999  -5.429 -24.459  1.00  0.00     0.143 C 
ENDBRANCH  19  26
ENDBRANCH   9  10
ENDBRANCH   7   9
ENDBRANCH   6   7
ENDBRANCH   1   6
TORSDOF 7
ENDMDL
MODEL 4
REMARK VINA RESULT: -5.433797651      2.130      3.080
REMARK  7 active torsions:
REMARK  status: ('A' for Active; 'I' for Inactive)
REMARK    1  A    between atoms: C2_2  and  C3_3 
REMARK       I    between atoms: C3_3  and  N1_5 
REMARK    2  A    between atoms: N1_5  and  C4_7 
REMARK    3  A    between atoms: C10_15  and  N2_16 
REMARK    4  A    between atoms: C13_19  and  O4_20 
REMARK    5  A    between atoms: O4_20  and  C14_21 
REMARK    6  A    between atoms: C14_21  and  O6_23 
REMARK    7  A    between atoms: O6_23  and  C15_24 
ROOT
HETATM    1  C15 UNL     1     -16.957  -9.036 -28.155  1.00  0.00     0.153 C 
HETATM    2  C16 UNL     1     -17.532 -10.426 -27.971  1.00  0.00     0.063 C 
HETATM    3  C17 UNL     1     -15.613  -9.105 -28.812  1.00  0.00     0.063 C 
HETATM    4  C18 UNL     1     -17.826  -8.232 -29.051  1.00  0.00     0.097 C 
HETATM    5  N3  UNL     1     -18.514  -7.606 -29.736  1.00  0.00    -0.194 NA
ENDROOT
BRANCH   1   6
HETATM    6  O6  UNL     1     -16.952  -8.393 -26.918  1.00  0.00    -0.272 OA
BRANCH   6   7
HETATM    7  C14 UNL     1     -16.325  -7.189 -26.643  1.00  0.00     0.408 C 
HETATM    8  O5  UNL     1     -17.025  -6.168 -26.572  1.00  0.00    -0.229 OA
BRANCH   7   9
HETATM    9  O4  UNL     1     -14.963  -7.070 -26.444  1.00  0.00    -0.288 OA
BRANCH   9  10
HETATM   10  C13 UNL     1     -14.322  -7.385 -25.241  1.00  0.00     0.184 C 
HETATM   11  C4  UNL     1     -13.452  -8.624 -25.500  1.00  0.00     0.147 C 
HETATM   12  C5  UNL     1     -12.578  -8.629 -24.288  1.00  0.00     0.181 C 
HETATM   13  O2  UNL     1     -13.331  -9.130 -23.221  1.00  0.00    -0.346 OA
HETATM   14  C9  UNL     1     -12.352  -7.154 -23.979  1.00  0.00     0.181 C 
HETATM   15  C6  UNL     1     -12.882  -8.361 -22.171  1.00  0.00     0.158 C 
HETATM   16  C7  UNL     1     -13.952  -8.295 -21.087  1.00  0.00     0.078 C 
HETATM   17  C8  UNL     1     -11.580  -8.810 -21.587  1.00  0.00     0.078 C 
HETATM   18  O3  UNL     1     -12.724  -7.070 -22.657  1.00  0.00    -0.346 OA
HETATM   19  C10 UNL     1     -13.192  -6.398 -24.930  1.00  0.00     0.141 C 
BRANCH  11  20
HETATM   20  N1  UNL     1     -14.234  -9.809 -25.664  1.00  0.00    -0.351 N 
HETATM   21  C3  UNL     1     -13.668 -10.907 -26.364  1.00  0.00     0.217 C 
HETATM   22  O1  UNL     1     -12.501 -10.872 -26.847  1.00  0.00    -0.274 OA
ATOM     23  H1  UNL     1     -15.180  -9.865 -25.286  1.00  0.00     0.163 HD
BRANCH  21  24
HETATM   24  C2  UNL     1     -14.451 -12.154 -26.553  1.00  0.00     0.098 C 
HETATM   25  C1  UNL     1     -14.451 -12.623 -27.970  1.00  0.00     0.014 C 
ENDBRANCH  21  24
ENDBRANCH  11  20
BRANCH  19  26
HETATM   26  N2  UNL     1     -13.618  -5.121 -24.586  1.00  0.00    -0.412 N 
HETATM   27  C11 UNL     1     -13.298  -4.032 -25.421  1.00  0.00     0.143 C 
HETATM   28  C12 UNL     1     -14.826  -4.981 -23.847  1.00  0.00     0.143 C 
ENDBRANCH  19  26
ENDBRANCH   9  10
ENDBRANCH   7   9
ENDBRANCH   6   7
ENDBRANCH   1   6
TORSDOF 7
ENDMDL
MODEL 5
REMARK VINA RESULT: -5.338581775      1.754      4.912
REMARK  7 active torsions:
REMARK  status: ('A' for Active; 'I' for Inactive)
REMARK    1  A    between atoms: C2_2  and  C3_3 
REMARK       I    between atoms: C3_3  and  N1_5 
REMARK    2  A    between atoms: N1_5  and  C4_7 
REMARK    3  A    between atoms: C10_15  and  N2_16 
REMARK    4  A    between atoms: C13_19  and  O4_20 
REMARK    5  A    between atoms: O4_20  and  C14_21 
REMARK    6  A    between atoms: C14_21  and  O6_23 
REMARK    7  A    between atoms: O6_23  and  C15_24 
ROOT
HETATM    1  C15 UNL     1     -17.149  -9.407 -28.405  1.00  0.00     0.153 C 
HETATM    2  C16 UNL     1     -17.473  -8.427 -29.513  1.00  0.00     0.063 C 
HETATM    3  C17 UNL     1     -18.088  -9.230 -27.252  1.00  0.00     0.063 C 
HETATM    4  C18 UNL     1     -17.324 -10.802 -28.882  1.00  0.00     0.097 C 
HETATM    5  N3  UNL     1     -17.446 -11.887 -29.265  1.00  0.00    -0.194 NA
ENDROOT
BRANCH   1   6
HETATM    6  O6  UNL     1     -15.804  -9.265 -28.068  1.00  0.00    -0.272 OA
BRANCH   6   7
HETATM    7  C14 UNL     1     -15.244  -9.594 -26.845  1.00  0.00     0.408 C 
HETATM    8  O5  UNL     1     -14.721 -10.712 -26.722  1.00  0.00    -0.229 OA
BRANCH   7   9
HETATM    9  O4  UNL     1     -15.239  -8.742 -25.758  1.00  0.00    -0.288 OA
BRANCH   9  10
HETATM   10  C13 UNL     1     -14.520  -7.543 -25.712  1.00  0.00     0.184 C 
HETATM   11  C4  UNL     1     -15.540  -6.406 -25.548  1.00  0.00     0.147 C 
HETATM   12  C5  UNL     1     -14.652  -5.268 -25.158  1.00  0.00     0.181 C 
HETATM   13  O2  UNL     1     -14.019  -4.805 -26.316  1.00  0.00    -0.346 OA
HETATM   14  C9  UNL     1     -13.557  -5.914 -24.318  1.00  0.00     0.181 C 
HETATM   15  C6  UNL     1     -12.766  -4.482 -25.846  1.00  0.00     0.158 C 
HETATM   16  C7  UNL     1     -11.756  -4.548 -26.986  1.00  0.00     0.078 C 
HETATM   17  C8  UNL     1     -12.686  -3.158 -25.157  1.00  0.00     0.078 C 
HETATM   18  O3  UNL     1     -12.411  -5.473 -24.939  1.00  0.00    -0.346 OA
HETATM   19  C10 UNL     1     -13.795  -7.370 -24.374  1.00  0.00     0.141 C 
BRANCH  11  20
HETATM   20  N1  UNL     1     -16.295  -6.180 -26.739  1.00  0.00    -0.351 N 
HETATM   21  C3  UNL     1     -17.482  -5.405 -26.656  1.00  0.00     0.217 C 
HETATM   22  O1  UNL     1     -17.893  -4.911 -25.568  1.00  0.00    -0.274 OA
ATOM     23  H1  UNL     1     -15.988  -6.567 -27.632  1.00  0.00     0.163 HD
BRANCH  21  24
HETATM   24  C2  UNL     1     -18.291  -5.149 -27.873  1.00  0.00     0.098 C 
HETATM   25  C1  UNL     1     -19.595  -5.877 -27.861  1.00  0.00     0.014 C 
ENDBRANCH  21  24
ENDBRANCH  11  20
BRANCH  19  26
HETATM   26  N2  UNL     1     -12.727  -8.237 -24.178  1.00  0.00    -0.412 N 
HETATM   27  C11 UNL     1     -12.767  -9.161 -23.116  1.00  0.00     0.143 C 
HETATM   28  C12 UNL     1     -11.966  -8.647 -25.308  1.00  0.00     0.143 C 
ENDBRANCH  19  26
ENDBRANCH   9  10
ENDBRANCH   7   9
ENDBRANCH   6   7
ENDBRANCH   1   6
TORSDOF 7
ENDMDL
