MODEL 1
REMARK VINA RESULT: -6.768122947      0.000      0.000
REMARK  4 active torsions:
REMARK  status: ('A' for Active; 'I' for Inactive)
REMARK    1  A    between atoms: S1_2  and  C2_5 
REMARK    2  A    between atoms: C5_8  and  C6_9 
REMARK    3  A    between atoms: N1_11  and  C8_12 
REMARK    4  A    between atoms: C13_17  and  S2_18 
ROOT
HETATM    1  C6  UNL     1     -12.724 -11.953 -25.261  1.00  0.00     0.093 A 
HETATM    2  C7  UNL     1     -14.068 -12.025 -25.633  1.00  0.00     0.151 A 
HETATM    3  N1  UNL     1     -14.223 -11.463 -26.838  1.00  0.00    -0.249 N 
HETATM    4  N2  UNL     1     -13.032 -11.053 -27.214  1.00  0.00    -0.235 N 
ATOM      5  H2  UNL     1     -12.834 -10.583 -28.097  1.00  0.00     0.209 HD
HETATM    6  N3  UNL     1     -12.112 -11.337 -26.281  1.00  0.00    -0.282 N 
ATOM      7  H3  UNL     1     -11.117 -11.120 -26.338  1.00  0.00     0.188 HD
ENDROOT
BRANCH   1   8
HETATM    8  C5  UNL     1     -12.154 -12.459 -24.009  1.00  0.00     0.061 A 
HETATM    9  C4  UNL     1     -11.743 -11.613 -23.001  1.00  0.00     0.033 A 
HETATM   10  C3  UNL     1     -11.204 -12.042 -21.813  1.00  0.00     0.027 A 
HETATM   11  C2  UNL     1     -11.063 -13.406 -21.615  1.00  0.00     0.074 A 
HETATM   12  C14 UNL     1     -11.474 -14.233 -22.623  1.00  0.00     0.111 A 
HETATM   13  N4  UNL     1     -12.002 -13.776 -23.781  1.00  0.00    -0.363 N 
ATOM     14  H4  UNL     1     -12.292 -14.443 -24.496  1.00  0.00     0.165 HD
BRANCH  11  15
HETATM   15  S1  UNL     1     -10.378 -13.968 -20.109  1.00  0.00     0.173 S 
HETATM   16  C1  UNL     1      -8.628 -13.767 -20.057  1.00  0.00     0.167 C 
HETATM   17  O1  UNL     1     -10.994 -13.240 -18.969  1.00  0.00    -0.223 OA
HETATM   18  O2  UNL     1     -10.755 -15.432 -19.983  1.00  0.00    -0.223 OA
ENDBRANCH  11  15
ENDBRANCH   1   8
BRANCH   3  19
HETATM   19  C8  UNL     1     -15.410 -11.323 -27.585  1.00  0.00     0.081 A 
HETATM   20  C9  UNL     1     -15.926 -12.378 -28.350  1.00  0.00     0.033 A 
HETATM   21  C10 UNL     1     -17.088 -12.235 -29.078  1.00  0.00     0.002 A 
HETATM   22  C11 UNL     1     -17.724 -11.009 -29.026  1.00  0.00     0.002 A 
HETATM   23  C12 UNL     1     -17.244  -9.945 -28.282  1.00  0.00     0.029 A 
HETATM   24  C13 UNL     1     -16.079 -10.117 -27.563  1.00  0.00     0.109 A 
BRANCH  24  25
HETATM   25  S2  UNL     1     -15.455  -8.807 -26.625  1.00  0.00     0.140 S 
HETATM   26  O3  UNL     1     -15.482  -9.100 -25.134  1.00  0.00    -0.591 OA
HETATM   27  O4  UNL     1     -14.057  -8.423 -26.987  1.00  0.00    -0.591 OA
HETATM   28  O5  UNL     1     -16.403  -7.415 -26.825  1.00  0.00    -0.591 OA
ENDBRANCH  24  25
ENDBRANCH   3  19
TORSDOF 4
ENDMDL
MODEL 2
REMARK VINA RESULT: -6.468380525      5.007      9.441
REMARK  4 active torsions:
REMARK  status: ('A' for Active; 'I' for Inactive)
REMARK    1  A    between atoms: S1_2  and  C2_5 
REMARK    2  A    between atoms: C5_8  and  C6_9 
REMARK    3  A    between atoms: N1_11  and  C8_12 
REMARK    4  A    between atoms: C13_17  and  S2_18 
ROOT
HETATM    1  C6  UNL     1     -16.195  -6.482 -26.393  1.00  0.00     0.093 A 
HETATM    2  C7  UNL     1     -16.363  -7.849 -26.624  1.00  0.00     0.151 A 
HETATM    3  N1  UNL     1     -15.166  -8.449 -26.613  1.00  0.00    -0.249 N 
HETATM    4  N2  UNL     1     -14.279  -7.506 -26.386  1.00  0.00    -0.235 N 
ATOM      5  H2  UNL     1     -13.273  -7.662 -26.322  1.00  0.00     0.209 HD
HETATM    6  N3  UNL     1     -14.874  -6.312 -26.250  1.00  0.00    -0.282 N 
ATOM      7  H3  UNL     1     -14.402  -5.427 -26.069  1.00  0.00     0.188 HD
ENDROOT
BRANCH   1   8
HETATM    8  C5  UNL     1     -17.268  -5.486 -26.330  1.00  0.00     0.061 A 
HETATM    9  C4  UNL     1     -17.364  -4.580 -25.295  1.00  0.00     0.033 A 
HETATM   10  C3  UNL     1     -18.350  -3.631 -25.196  1.00  0.00     0.027 A 
HETATM   11  C2  UNL     1     -19.309  -3.579 -26.195  1.00  0.00     0.074 A 
HETATM   12  C14 UNL     1     -19.202  -4.483 -27.215  1.00  0.00     0.111 A 
HETATM   13  N4  UNL     1     -18.216  -5.405 -27.282  1.00  0.00    -0.363 N 
ATOM     14  H4  UNL     1     -18.189  -6.053 -28.069  1.00  0.00     0.165 HD
BRANCH  11  15
HETATM   15  S1  UNL     1     -20.571  -2.376 -26.083  1.00  0.00     0.173 S 
HETATM   16  C1  UNL     1     -19.945  -0.737 -26.248  1.00  0.00     0.167 C 
HETATM   17  O1  UNL     1     -21.599  -2.621 -27.129  1.00  0.00    -0.223 OA
HETATM   18  O2  UNL     1     -21.231  -2.566 -24.731  1.00  0.00    -0.223 OA
ENDBRANCH  11  15
ENDBRANCH   1   8
BRANCH   3  19
HETATM   19  C8  UNL     1     -14.878  -9.815 -26.803  1.00  0.00     0.081 A 
HETATM   20  C9  UNL     1     -15.360 -10.521 -27.914  1.00  0.00     0.033 A 
HETATM   21  C10 UNL     1     -15.074 -11.858 -28.094  1.00  0.00     0.002 A 
HETATM   22  C11 UNL     1     -14.293 -12.476 -27.135  1.00  0.00     0.002 A 
HETATM   23  C12 UNL     1     -13.800 -11.812 -26.026  1.00  0.00     0.029 A 
HETATM   24  C13 UNL     1     -14.102 -10.474 -25.872  1.00  0.00     0.109 A 
BRANCH  24  25
HETATM   25  S2  UNL     1     -13.500  -9.617 -24.497  1.00  0.00     0.140 S 
HETATM   26  O3  UNL     1     -12.289  -8.764 -24.833  1.00  0.00    -0.591 OA
HETATM   27  O4  UNL     1     -14.515  -8.730 -23.852  1.00  0.00    -0.591 OA
HETATM   28  O5  UNL     1     -12.971 -10.694 -23.298  1.00  0.00    -0.591 OA
ENDBRANCH  24  25
ENDBRANCH   3  19
TORSDOF 4
ENDMDL
MODEL 3
REMARK VINA RESULT: -6.380543767      6.682      9.569
REMARK  4 active torsions:
REMARK  status: ('A' for Active; 'I' for Inactive)
REMARK    1  A    between atoms: S1_2  and  C2_5 
REMARK    2  A    between atoms: C5_8  and  C6_9 
REMARK    3  A    between atoms: N1_11  and  C8_12 
REMARK    4  A    between atoms: C13_17  and  S2_18 
ROOT
HETATM    1  C6  UNL     1     -18.723  -5.654 -27.480  1.00  0.00     0.093 A 
HETATM    2  C7  UNL     1     -18.669  -4.698 -26.464  1.00  0.00     0.151 A 
HETATM    3  N1  UNL     1     -19.550  -3.725 -26.727  1.00  0.00    -0.249 N 
HETATM    4  N2  UNL     1     -20.136  -4.048 -27.857  1.00  0.00    -0.235 N 
ATOM      5  H2  UNL     1     -20.861  -3.492 -28.313  1.00  0.00     0.209 HD
HETATM    6  N3  UNL     1     -19.655  -5.206 -28.332  1.00  0.00    -0.282 N 
ATOM      7  H3  UNL     1     -19.949  -5.666 -29.193  1.00  0.00     0.188 HD
ENDROOT
BRANCH   1   8
HETATM    8  C5  UNL     1     -17.910  -6.871 -27.555  1.00  0.00     0.061 A 
HETATM    9  C4  UNL     1     -16.870  -7.110 -26.682  1.00  0.00     0.033 A 
HETATM   10  C3  UNL     1     -16.084  -8.235 -26.715  1.00  0.00     0.027 A 
HETATM   11  C2  UNL     1     -16.351  -9.188 -27.684  1.00  0.00     0.074 A 
HETATM   12  C14 UNL     1     -17.385  -8.940 -28.543  1.00  0.00     0.111 A 
HETATM   13  N4  UNL     1     -18.140  -7.819 -28.482  1.00  0.00    -0.363 N 
ATOM     14  H4  UNL     1     -18.899  -7.691 -29.150  1.00  0.00     0.165 HD
BRANCH  11  15
HETATM   15  S1  UNL     1     -15.359 -10.626 -27.739  1.00  0.00     0.173 S 
HETATM   16  C1  UNL     1     -16.238 -12.016 -28.374  1.00  0.00     0.167 C 
HETATM   17  O1  UNL     1     -14.154 -10.380 -28.573  1.00  0.00    -0.223 OA
HETATM   18  O2  UNL     1     -14.896 -10.887 -26.319  1.00  0.00    -0.223 OA
ENDBRANCH  11  15
ENDBRANCH   1   8
BRANCH   3  19
HETATM   19  C8  UNL     1     -19.822  -2.571 -25.965  1.00  0.00     0.081 A 
HETATM   20  C9  UNL     1     -20.797  -2.568 -24.957  1.00  0.00     0.033 A 
HETATM   21  C10 UNL     1     -21.058  -1.436 -24.214  1.00  0.00     0.002 A 
HETATM   22  C11 UNL     1     -20.321  -0.302 -24.503  1.00  0.00     0.002 A 
HETATM   23  C12 UNL     1     -19.352  -0.268 -25.489  1.00  0.00     0.029 A 
HETATM   24  C13 UNL     1     -19.112  -1.416 -26.216  1.00  0.00     0.109 A 
BRANCH  24  25
HETATM   25  S2  UNL     1     -17.907  -1.404 -27.455  1.00  0.00     0.140 S 
HETATM   26  O3  UNL     1     -16.612  -2.061 -27.008  1.00  0.00    -0.591 OA
HETATM   27  O4  UNL     1     -18.341  -2.070 -28.720  1.00  0.00    -0.591 OA
HETATM   28  O5  UNL     1     -17.482   0.185 -27.870  1.00  0.00    -0.591 OA
ENDBRANCH  24  25
ENDBRANCH   3  19
TORSDOF 4
ENDMDL
MODEL 4
REMARK VINA RESULT: -6.287556272      4.721      9.187
REMARK  4 active torsions:
REMARK  status: ('A' for Active; 'I' for Inactive)
REMARK    1  A    between atoms: S1_2  and  C2_5 
REMARK    2  A    between atoms: C5_8  and  C6_9 
REMARK    3  A    between atoms: N1_11  and  C8_12 
REMARK    4  A    between atoms: C13_17  and  S2_18 
ROOT
HETATM    1  C6  UNL     1     -15.576  -6.826 -26.050  1.00  0.00     0.093 A 
HETATM    2  C7  UNL     1     -15.705  -8.129 -25.566  1.00  0.00     0.151 A 
HETATM    3  N1  UNL     1     -14.532  -8.762 -25.685  1.00  0.00    -0.249 N 
HETATM    4  N2  UNL     1     -13.696  -7.901 -26.220  1.00  0.00    -0.235 N 
ATOM      5  H2  UNL     1     -12.718  -8.099 -26.432  1.00  0.00     0.209 HD
HETATM    6  N3  UNL     1     -14.301  -6.726 -26.449  1.00  0.00    -0.282 N 
ATOM      7  H3  UNL     1     -13.865  -5.900 -26.857  1.00  0.00     0.188 HD
ENDROOT
BRANCH   1   8
HETATM    8  C5  UNL     1     -16.639  -5.818 -26.091  1.00  0.00     0.061 A 
HETATM    9  C4  UNL     1     -16.610  -4.693 -25.294  1.00  0.00     0.033 A 
HETATM   10  C3  UNL     1     -17.582  -3.723 -25.300  1.00  0.00     0.027 A 
HETATM   11  C2  UNL     1     -18.659  -3.885 -26.156  1.00  0.00     0.074 A 
HETATM   12  C14 UNL     1     -18.676  -5.005 -26.941  1.00  0.00     0.111 A 
HETATM   13  N4  UNL     1     -17.699  -5.940 -26.910  1.00  0.00    -0.363 N 
ATOM     14  H4  UNL     1     -17.767  -6.754 -27.520  1.00  0.00     0.165 HD
BRANCH  11  15
HETATM   15  S1  UNL     1     -19.905  -2.660 -26.176  1.00  0.00     0.173 S 
HETATM   16  C1  UNL     1     -19.298  -1.101 -26.730  1.00  0.00     0.167 C 
HETATM   17  O1  UNL     1     -21.028  -3.093 -27.049  1.00  0.00    -0.223 OA
HETATM   18  O2  UNL     1     -20.433  -2.558 -24.757  1.00  0.00    -0.223 OA
ENDBRANCH  11  15
ENDBRANCH   1   8
BRANCH   3  19
HETATM   19  C8  UNL     1     -14.219 -10.087 -25.320  1.00  0.00     0.081 A 
HETATM   20  C9  UNL     1     -13.683 -10.396 -24.061  1.00  0.00     0.033 A 
HETATM   21  C10 UNL     1     -13.380 -11.694 -23.710  1.00  0.00     0.002 A 
HETATM   22  C11 UNL     1     -13.624 -12.680 -24.647  1.00  0.00     0.002 A 
HETATM   23  C12 UNL     1     -14.151 -12.413 -25.898  1.00  0.00     0.029 A 
HETATM   24  C13 UNL     1     -14.445 -11.105 -26.223  1.00  0.00     0.109 A 
BRANCH  24  25
HETATM   25  S2  UNL     1     -15.105 -10.740 -27.778  1.00  0.00     0.140 S 
HETATM   26  O3  UNL     1     -16.553 -10.286 -27.699  1.00  0.00    -0.591 OA
HETATM   27  O4  UNL     1     -14.341  -9.694 -28.523  1.00  0.00    -0.591 OA
HETATM   28  O5  UNL     1     -15.122 -12.119 -28.766  1.00  0.00    -0.591 OA
ENDBRANCH  24  25
ENDBRANCH   3  19
TORSDOF 4
ENDMDL
MODEL 5
REMARK VINA RESULT: -6.227571502      5.759      9.278
REMARK  4 active torsions:
REMARK  status: ('A' for Active; 'I' for Inactive)
REMARK    1  A    between atoms: S1_2  and  C2_5 
REMARK    2  A    between atoms: C5_8  and  C6_9 
REMARK    3  A    between atoms: N1_11  and  C8_12 
REMARK    4  A    between atoms: C13_17  and  S2_18 
ROOT
HETATM    1  C6  UNL     1     -17.365  -6.975 -27.324  1.00  0.00     0.093 A 
HETATM    2  C7  UNL     1     -16.443  -7.884 -26.804  1.00  0.00     0.151 A 
HETATM    3  N1  UNL     1     -16.200  -8.836 -27.713  1.00  0.00    -0.249 N 
HETATM    4  N2  UNL     1     -16.935  -8.544 -28.763  1.00  0.00    -0.235 N 
ATOM      5  H2  UNL     1     -16.960  -9.094 -29.622  1.00  0.00     0.209 HD
HETATM    6  N3  UNL     1     -17.646  -7.427 -28.554  1.00  0.00    -0.282 N 
ATOM      7  H3  UNL     1     -18.290  -6.996 -29.217  1.00  0.00     0.188 HD
ENDROOT
BRANCH   1   8
HETATM    8  C5  UNL     1     -17.886  -5.792 -26.633  1.00  0.00     0.061 A 
HETATM    9  C4  UNL     1     -17.131  -5.092 -25.715  1.00  0.00     0.033 A 
HETATM   10  C3  UNL     1     -17.576  -3.980 -25.045  1.00  0.00     0.027 A 
HETATM   11  C2  UNL     1     -18.862  -3.533 -25.305  1.00  0.00     0.074 A 
HETATM   12  C14 UNL     1     -19.599  -4.236 -26.217  1.00  0.00     0.111 A 
HETATM   13  N4  UNL     1     -19.128  -5.329 -26.860  1.00  0.00    -0.363 N 
ATOM     14  H4  UNL     1     -19.726  -5.811 -27.531  1.00  0.00     0.165 HD
BRANCH  11  15
HETATM   15  S1  UNL     1     -19.445  -2.119 -24.460  1.00  0.00     0.173 S 
HETATM   16  C1  UNL     1     -21.193  -1.937 -24.594  1.00  0.00     0.167 C 
HETATM   17  O1  UNL     1     -19.064  -2.192 -23.025  1.00  0.00    -0.223 OA
HETATM   18  O2  UNL     1     -18.732  -0.927 -25.070  1.00  0.00    -0.223 OA
ENDBRANCH  11  15
ENDBRANCH   1   8
BRANCH   3  19
HETATM   19  C8  UNL     1     -15.335  -9.943 -27.602  1.00  0.00     0.081 A 
HETATM   20  C9  UNL     1     -14.084  -9.839 -26.979  1.00  0.00     0.033 A 
HETATM   21  C10 UNL     1     -13.242 -10.927 -26.873  1.00  0.00     0.002 A 
HETATM   22  C11 UNL     1     -13.681 -12.124 -27.406  1.00  0.00     0.002 A 
HETATM   23  C12 UNL     1     -14.908 -12.264 -28.028  1.00  0.00     0.029 A 
HETATM   24  C13 UNL     1     -15.730 -11.159 -28.119  1.00  0.00     0.109 A 
BRANCH  24  25
HETATM   25  S2  UNL     1     -17.270 -11.304 -28.891  1.00  0.00     0.140 S 
HETATM   26  O3  UNL     1     -18.414 -10.906 -27.973  1.00  0.00    -0.591 OA
HETATM   27  O4  UNL     1     -17.391 -10.498 -30.143  1.00  0.00    -0.591 OA
HETATM   28  O5  UNL     1     -17.581 -12.914 -29.323  1.00  0.00    -0.591 OA
ENDBRANCH  24  25
ENDBRANCH   3  19
TORSDOF 4
ENDMDL
