MODEL 1
REMARK VINA RESULT: -7.254877309      0.000      0.000
REMARK  6 active torsions:
REMARK  status: ('A' for Active; 'I' for Inactive)
REMARK    1  A    between atoms: C2_2  and  O2_4 
REMARK    2  A    between atoms: O2_4  and  C3_5 
REMARK    3  A    between atoms: C9_15  and  C10_16 
REMARK    4  A    between atoms: C10_16  and  C11_17 
REMARK    5  A    between atoms: C12_18  and  C14_20 
REMARK    6  A    between atoms: C14_20  and  O7_21 
ROOT
HETATM    1  C3  UNL     1     -11.241 -10.060 -24.536  1.00  0.00     0.186 C 
HETATM    2  C4  UNL     1     -11.498 -10.738 -23.179  1.00  0.00     0.125 C 
HETATM    3  C5  UNL     1     -11.967 -12.069 -23.691  1.00  0.00     0.267 C 
HETATM    4  O3  UNL     1     -11.820 -13.157 -23.100  1.00  0.00    -0.265 OA
HETATM    5  O4  UNL     1     -12.588 -11.827 -24.941  1.00  0.00    -0.301 OA
HETATM    6  C6  UNL     1     -12.620 -10.463 -25.080  1.00  0.00     0.158 C 
HETATM    7  C7  UNL     1     -13.011  -9.834 -26.333  1.00  0.00     0.205 C 
HETATM    8  O5  UNL     1     -13.815 -10.689 -27.074  1.00  0.00    -0.306 OA
HETATM    9  C8  UNL     1     -15.064 -10.382 -27.567  1.00  0.00     0.290 C 
HETATM   10  O6  UNL     1     -15.685 -11.191 -28.319  1.00  0.00    -0.260 OA
HETATM   11  C9  UNL     1     -15.644  -9.102 -27.192  1.00  0.00     0.019 C 
HETATM   12  C15 UNL     1     -14.986  -8.289 -26.417  1.00  0.00     0.021 C 
HETATM   13  C16 UNL     1     -13.664  -8.563 -25.869  1.00  0.00     0.179 C 
HETATM   14  O8  UNL     1     -13.659  -8.574 -24.457  1.00  0.00    -0.365 OA
HETATM   15  C17 UNL     1     -13.516  -9.863 -24.033  1.00  0.00     0.099 C 
HETATM   16  C18 UNL     1     -14.799 -10.644 -23.943  1.00  0.00     0.050 C 
HETATM   17  C19 UNL     1     -12.708  -9.983 -22.741  1.00  0.00     0.035 C 
HETATM   18  C20 UNL     1     -12.391  -8.630 -22.167  1.00  0.00     0.014 C 
ENDROOT
BRANCH  11  19
HETATM   19  C10 UNL     1     -16.998  -8.755 -27.718  1.00  0.00     0.072 C 
BRANCH  19  20
HETATM   20  C11 UNL     1     -17.391  -7.386 -27.301  1.00  0.00    -0.018 C 
HETATM   21  C12 UNL     1     -18.299  -6.700 -27.971  1.00  0.00    -0.064 C 
HETATM   22  C13 UNL     1     -18.959  -7.268 -29.160  1.00  0.00     0.045 C 
BRANCH  21  23
HETATM   23  C14 UNL     1     -18.660  -5.338 -27.519  1.00  0.00     0.197 C 
BRANCH  23  24
HETATM   24  O7  UNL     1     -19.338  -4.639 -28.534  1.00  0.00    -0.397 OA
ATOM     25  H7  UNL     1     -20.100  -4.190 -28.185  1.00  0.00     0.209 HD
ENDBRANCH  23  24
ENDBRANCH  21  23
ENDBRANCH  19  20
ENDBRANCH  11  19
BRANCH   1  26
HETATM   26  O2  UNL     1     -10.294 -10.733 -25.289  1.00  0.00    -0.312 OA
BRANCH  26  27
HETATM   27  C2  UNL     1      -9.207 -10.188 -25.925  1.00  0.00     0.255 C 
HETATM   28  C1  UNL     1      -8.170  -9.493 -25.129  1.00  0.00     0.126 C 
HETATM   29  O1  UNL     1      -9.152 -10.313 -27.175  1.00  0.00    -0.266 OA
ENDBRANCH  26  27
ENDBRANCH   1  26
TORSDOF 6
ENDMDL
MODEL 2
REMARK VINA RESULT: -6.624651312      1.248      1.386
REMARK  6 active torsions:
REMARK  status: ('A' for Active; 'I' for Inactive)
REMARK    1  A    between atoms: C2_2  and  O2_4 
REMARK    2  A    between atoms: O2_4  and  C3_5 
REMARK    3  A    between atoms: C9_15  and  C10_16 
REMARK    4  A    between atoms: C10_16  and  C11_17 
REMARK    5  A    between atoms: C12_18  and  C14_20 
REMARK    6  A    between atoms: C14_20  and  O7_21 
ROOT
HETATM    1  C3  UNL     1     -11.408  -8.923 -23.390  1.00  0.00     0.186 C 
HETATM    2  C4  UNL     1     -11.701  -9.692 -22.090  1.00  0.00     0.125 C 
HETATM    3  C5  UNL     1     -11.868 -11.061 -22.686  1.00  0.00     0.267 C 
HETATM    4  O3  UNL     1     -11.605 -12.132 -22.105  1.00  0.00    -0.265 OA
HETATM    5  O4  UNL     1     -12.370 -10.874 -23.997  1.00  0.00    -0.301 OA
HETATM    6  C6  UNL     1     -12.623  -9.530 -24.109  1.00  0.00     0.158 C 
HETATM    7  C7  UNL     1     -12.967  -8.923 -25.386  1.00  0.00     0.205 C 
HETATM    8  O5  UNL     1     -13.517  -9.871 -26.240  1.00  0.00    -0.306 OA
HETATM    9  C8  UNL     1     -14.734  -9.759 -26.875  1.00  0.00     0.290 C 
HETATM   10  O6  UNL     1     -15.112 -10.628 -27.716  1.00  0.00    -0.260 OA
HETATM   11  C9  UNL     1     -15.567  -8.614 -26.547  1.00  0.00     0.019 C 
HETATM   12  C15 UNL     1     -15.156  -7.735 -25.679  1.00  0.00     0.021 C 
HETATM   13  C16 UNL     1     -13.880  -7.803 -24.979  1.00  0.00     0.179 C 
HETATM   14  O8  UNL     1     -14.039  -7.873 -23.578  1.00  0.00    -0.365 OA
HETATM   15  C17 UNL     1     -13.726  -9.136 -23.168  1.00  0.00     0.099 C 
HETATM   16  C18 UNL     1     -14.855 -10.127 -23.254  1.00  0.00     0.050 C 
HETATM   17  C19 UNL     1     -13.066  -9.173 -21.788  1.00  0.00     0.035 C 
HETATM   18  C20 UNL     1     -13.059  -7.811 -21.151  1.00  0.00     0.014 C 
ENDROOT
BRANCH  11  19
HETATM   19  C10 UNL     1     -16.890  -8.479 -27.228  1.00  0.00     0.072 C 
BRANCH  19  20
HETATM   20  C11 UNL     1     -17.427  -7.104 -27.072  1.00  0.00    -0.018 C 
HETATM   21  C12 UNL     1     -18.252  -6.586 -27.962  1.00  0.00    -0.064 C 
HETATM   22  C13 UNL     1     -18.673  -7.353 -29.148  1.00  0.00     0.045 C 
BRANCH  21  23
HETATM   23  C14 UNL     1     -18.763  -5.211 -27.766  1.00  0.00     0.197 C 
BRANCH  23  24
HETATM   24  O7  UNL     1     -19.950  -5.010 -28.493  1.00  0.00    -0.397 OA
ATOM     25  H7  UNL     1     -20.283  -4.130 -28.359  1.00  0.00     0.209 HD
ENDBRANCH  23  24
ENDBRANCH  21  23
ENDBRANCH  19  20
ENDBRANCH  11  19
BRANCH   1  26
HETATM   26  O2  UNL     1     -10.277  -9.393 -24.036  1.00  0.00    -0.312 OA
BRANCH  26  27
HETATM   27  C2  UNL     1      -9.390  -8.660 -24.785  1.00  0.00     0.255 C 
HETATM   28  C1  UNL     1      -8.928  -9.187 -26.089  1.00  0.00     0.126 C 
HETATM   29  O1  UNL     1      -9.013  -7.558 -24.311  1.00  0.00    -0.266 OA
ENDBRANCH  26  27
ENDBRANCH   1  26
TORSDOF 6
ENDMDL
MODEL 3
REMARK VINA RESULT: -6.554749896      1.807      3.118
REMARK  6 active torsions:
REMARK  status: ('A' for Active; 'I' for Inactive)
REMARK    1  A    between atoms: C2_2  and  O2_4 
REMARK    2  A    between atoms: O2_4  and  C3_5 
REMARK    3  A    between atoms: C9_15  and  C10_16 
REMARK    4  A    between atoms: C10_16  and  C11_17 
REMARK    5  A    between atoms: C12_18  and  C14_20 
REMARK    6  A    between atoms: C14_20  and  O7_21 
ROOT
HETATM    1  C3  UNL     1     -11.726 -10.881 -23.806  1.00  0.00     0.186 C 
HETATM    2  C4  UNL     1     -11.297 -11.967 -24.808  1.00  0.00     0.125 C 
HETATM    3  C5  UNL     1     -10.545 -11.088 -25.766  1.00  0.00     0.267 C 
HETATM    4  O3  UNL     1      -9.573 -11.448 -26.457  1.00  0.00    -0.265 OA
HETATM    5  O4  UNL     1     -11.159  -9.813 -25.714  1.00  0.00    -0.301 OA
HETATM    6  C6  UNL     1     -12.265  -9.967 -24.917  1.00  0.00     0.158 C 
HETATM    7  C7  UNL     1     -13.047  -8.824 -24.468  1.00  0.00     0.205 C 
HETATM    8  O5  UNL     1     -12.884  -7.754 -25.339  1.00  0.00    -0.306 OA
HETATM    9  C8  UNL     1     -13.906  -7.072 -25.961  1.00  0.00     0.290 C 
HETATM   10  O6  UNL     1     -13.669  -6.043 -26.663  1.00  0.00    -0.260 OA
HETATM   11  C9  UNL     1     -15.260  -7.572 -25.788  1.00  0.00     0.019 C 
HETATM   12  C15 UNL     1     -15.476  -8.632 -25.063  1.00  0.00     0.021 C 
HETATM   13  C16 UNL     1     -14.435  -9.391 -24.383  1.00  0.00     0.179 C 
HETATM   14  O8  UNL     1     -14.373 -10.731 -24.822  1.00  0.00    -0.365 OA
HETATM   15  C17 UNL     1     -13.250 -10.889 -25.580  1.00  0.00     0.099 C 
HETATM   16  C18 UNL     1     -13.409 -10.518 -27.029  1.00  0.00     0.050 C 
HETATM   17  C19 UNL     1     -12.616 -12.274 -25.433  1.00  0.00     0.035 C 
HETATM   18  C20 UNL     1     -13.476 -13.181 -24.597  1.00  0.00     0.014 C 
ENDROOT
BRANCH  11  19
HETATM   19  C10 UNL     1     -16.378  -6.844 -26.458  1.00  0.00     0.072 C 
BRANCH  19  20
HETATM   20  C11 UNL     1     -16.878  -7.604 -27.630  1.00  0.00    -0.018 C 
HETATM   21  C12 UNL     1     -17.971  -7.234 -28.271  1.00  0.00    -0.064 C 
HETATM   22  C13 UNL     1     -18.739  -6.049 -27.847  1.00  0.00     0.045 C 
BRANCH  21  23
HETATM   23  C14 UNL     1     -18.433  -8.022 -29.434  1.00  0.00     0.197 C 
BRANCH  23  24
HETATM   24  O7  UNL     1     -19.704  -7.593 -29.856  1.00  0.00    -0.397 OA
ATOM     25  H7  UNL     1     -20.019  -8.126 -30.577  1.00  0.00     0.209 HD
ENDBRANCH  23  24
ENDBRANCH  21  23
ENDBRANCH  19  20
ENDBRANCH  11  19
BRANCH   1  26
HETATM   26  O2  UNL     1     -10.643 -10.233 -23.237  1.00  0.00    -0.312 OA
BRANCH  26  27
HETATM   27  C2  UNL     1      -9.843 -10.698 -22.223  1.00  0.00     0.255 C 
HETATM   28  C1  UNL     1      -8.372 -10.604 -22.354  1.00  0.00     0.126 C 
HETATM   29  O1  UNL     1     -10.419 -11.189 -21.218  1.00  0.00    -0.266 OA
ENDBRANCH  26  27
ENDBRANCH   1  26
TORSDOF 6
ENDMDL
MODEL 4
REMARK VINA RESULT: -6.352509171      1.713      3.477
REMARK  6 active torsions:
REMARK  status: ('A' for Active; 'I' for Inactive)
REMARK    1  A    between atoms: C2_2  and  O2_4 
REMARK    2  A    between atoms: O2_4  and  C3_5 
REMARK    3  A    between atoms: C9_15  and  C10_16 
REMARK    4  A    between atoms: C10_16  and  C11_17 
REMARK    5  A    between atoms: C12_18  and  C14_20 
REMARK    6  A    between atoms: C14_20  and  O7_21 
ROOT
HETATM    1  C3  UNL     1     -12.479 -10.681 -22.734  1.00  0.00     0.186 C 
HETATM    2  C4  UNL     1     -11.363 -11.538 -23.358  1.00  0.00     0.125 C 
HETATM    3  C5  UNL     1     -10.529 -10.424 -23.921  1.00  0.00     0.267 C 
HETATM    4  O3  UNL     1      -9.291 -10.459 -24.068  1.00  0.00    -0.265 OA
HETATM    5  O4  UNL     1     -11.419  -9.369 -24.237  1.00  0.00    -0.301 OA
HETATM    6  C6  UNL     1     -12.678  -9.872 -24.025  1.00  0.00     0.158 C 
HETATM    7  C7  UNL     1     -13.856  -9.017 -24.057  1.00  0.00     0.205 C 
HETATM    8  O5  UNL     1     -13.612  -7.885 -24.824  1.00  0.00    -0.306 OA
HETATM    9  C8  UNL     1     -14.380  -7.462 -25.887  1.00  0.00     0.290 C 
HETATM   10  O6  UNL     1     -14.139  -6.361 -26.467  1.00  0.00    -0.260 OA
HETATM   11  C9  UNL     1     -15.470  -8.321 -26.319  1.00  0.00     0.019 C 
HETATM   12  C15 UNL     1     -15.695  -9.448 -25.707  1.00  0.00     0.021 C 
HETATM   13  C16 UNL     1     -14.916  -9.942 -24.579  1.00  0.00     0.179 C 
HETATM   14  O8  UNL     1     -14.300 -11.182 -24.854  1.00  0.00    -0.365 OA
HETATM   15  C17 UNL     1     -12.960 -10.977 -25.004  1.00  0.00     0.099 C 
HETATM   16  C18 UNL     1     -12.534 -10.563 -26.387  1.00  0.00     0.050 C 
HETATM   17  C19 UNL     1     -12.113 -12.145 -24.496  1.00  0.00     0.035 C 
HETATM   18  C20 UNL     1     -12.976 -13.307 -24.088  1.00  0.00     0.014 C 
ENDROOT
BRANCH  11  19
HETATM   19  C10 UNL     1     -16.311  -7.877 -27.470  1.00  0.00     0.072 C 
BRANCH  19  20
HETATM   20  C11 UNL     1     -17.269  -6.824 -27.051  1.00  0.00    -0.018 C 
HETATM   21  C12 UNL     1     -18.357  -6.569 -27.752  1.00  0.00    -0.064 C 
HETATM   22  C13 UNL     1     -18.664  -7.320 -28.982  1.00  0.00     0.045 C 
BRANCH  21  23
HETATM   23  C14 UNL     1     -19.284  -5.510 -27.296  1.00  0.00     0.197 C 
BRANCH  23  24
HETATM   24  O7  UNL     1     -19.668  -4.686 -28.369  1.00  0.00    -0.397 OA
ATOM     25  H7  UNL     1     -19.923  -3.824 -28.059  1.00  0.00     0.209 HD
ENDBRANCH  23  24
ENDBRANCH  21  23
ENDBRANCH  19  20
ENDBRANCH  11  19
BRANCH   1  26
HETATM   26  O2  UNL     1     -11.996  -9.806 -21.777  1.00  0.00    -0.312 OA
BRANCH  26  27
HETATM   27  C2  UNL     1     -12.510  -9.592 -20.522  1.00  0.00     0.255 C 
HETATM   28  C1  UNL     1     -13.858  -8.997 -20.378  1.00  0.00     0.126 C 
HETATM   29  O1  UNL     1     -11.790  -9.920 -19.544  1.00  0.00    -0.266 OA
ENDBRANCH  26  27
ENDBRANCH   1  26
TORSDOF 6
ENDMDL
MODEL 5
REMARK VINA RESULT: -6.292469464      4.013      9.751
REMARK  6 active torsions:
REMARK  status: ('A' for Active; 'I' for Inactive)
REMARK    1  A    between atoms: C2_2  and  O2_4 
REMARK    2  A    between atoms: O2_4  and  C3_5 
REMARK    3  A    between atoms: C9_15  and  C10_16 
REMARK    4  A    between atoms: C10_16  and  C11_17 
REMARK    5  A    between atoms: C12_18  and  C14_20 
REMARK    6  A    between atoms: C14_20  and  O7_21 
ROOT
HETATM    1  C3  UNL     1     -19.190  -2.231 -25.009  1.00  0.00     0.186 C 
HETATM    2  C4  UNL     1     -18.831  -0.942 -25.769  1.00  0.00     0.125 C 
HETATM    3  C5  UNL     1     -19.904  -1.007 -26.818  1.00  0.00     0.267 C 
HETATM    4  O3  UNL     1     -20.429  -0.020 -27.368  1.00  0.00    -0.265 OA
HETATM    5  O4  UNL     1     -20.175  -2.380 -27.036  1.00  0.00    -0.301 OA
HETATM    6  C6  UNL     1     -19.241  -3.064 -26.299  1.00  0.00     0.158 C 
HETATM    7  C7  UNL     1     -19.323  -4.506 -26.115  1.00  0.00     0.205 C 
HETATM    8  O5  UNL     1     -20.042  -5.086 -27.151  1.00  0.00    -0.306 OA
HETATM    9  C8  UNL     1     -19.596  -6.114 -27.952  1.00  0.00     0.290 C 
HETATM   10  O6  UNL     1     -20.360  -6.650 -28.810  1.00  0.00    -0.260 OA
HETATM   11  C9  UNL     1     -18.223  -6.560 -27.781  1.00  0.00     0.019 C 
HETATM   12  C15 UNL     1     -17.458  -5.992 -26.893  1.00  0.00     0.021 C 
HETATM   13  C16 UNL     1     -17.877  -4.903 -26.021  1.00  0.00     0.179 C 
HETATM   14  O8  UNL     1     -17.103  -3.737 -26.207  1.00  0.00    -0.365 OA
HETATM   15  C17 UNL     1     -17.867  -2.807 -26.849  1.00  0.00     0.099 C 
HETATM   16  C18 UNL     1     -17.880  -2.926 -28.349  1.00  0.00     0.050 C 
HETATM   17  C19 UNL     1     -17.556  -1.374 -26.414  1.00  0.00     0.035 C 
HETATM   18  C20 UNL     1     -16.374  -1.328 -25.487  1.00  0.00     0.014 C 
ENDROOT
BRANCH  11  19
HETATM   19  C10 UNL     1     -17.725  -7.674 -28.643  1.00  0.00     0.072 C 
BRANCH  19  20
HETATM   20  C11 UNL     1     -16.549  -8.335 -28.025  1.00  0.00    -0.018 C 
HETATM   21  C12 UNL     1     -16.397  -9.646 -28.071  1.00  0.00    -0.064 C 
HETATM   22  C13 UNL     1     -17.391 -10.504 -28.739  1.00  0.00     0.045 C 
BRANCH  21  23
HETATM   23  C14 UNL     1     -15.210 -10.262 -27.440  1.00  0.00     0.197 C 
BRANCH  23  24
HETATM   24  O7  UNL     1     -14.398 -10.885 -28.406  1.00  0.00    -0.397 OA
ATOM     25  H7  UNL     1     -14.293 -11.809 -28.213  1.00  0.00     0.209 HD
ENDBRANCH  23  24
ENDBRANCH  21  23
ENDBRANCH  19  20
ENDBRANCH  11  19
BRANCH   1  26
HETATM   26  O2  UNL     1     -20.476  -2.197 -24.496  1.00  0.00    -0.312 OA
BRANCH  26  27
HETATM   27  C2  UNL     1     -20.878  -1.618 -23.318  1.00  0.00     0.255 C 
HETATM   28  C1  UNL     1     -19.961  -1.615 -22.157  1.00  0.00     0.126 C 
HETATM   29  O1  UNL     1     -22.029  -1.111 -23.293  1.00  0.00    -0.266 OA
ENDBRANCH  26  27
ENDBRANCH   1  26
TORSDOF 6
ENDMDL
