MODEL 1
REMARK VINA RESULT: -6.013875255      0.000      0.000
REMARK  6 active torsions:
REMARK  status: ('A' for Active; 'I' for Inactive)
REMARK    1  A    between atoms: C3_3  and  C4_4 
REMARK    2  A    between atoms: N1_5  and  N2_7 
REMARK       I    between atoms: N2_7  and  C5_9 
REMARK    3  A    between atoms: C5_9  and  C6_11 
REMARK    4  A    between atoms: C6_11  and  S1_12 
REMARK    5  A    between atoms: C8_17  and  C9_18 
REMARK    6  A    between atoms: C9_18  and  C10_20 
ROOT
HETATM    1  C1  UNL     1     -19.104  -6.492 -28.485  1.00  0.00     0.054 C 
HETATM    2  C2  UNL     1     -18.343  -5.600 -27.590  1.00  0.00     0.002 C 
HETATM    3  C3  UNL     1     -17.393  -6.117 -26.813  1.00  0.00     0.027 C 
HETATM    4  S2  UNL     1     -16.530  -4.925 -25.797  1.00  0.00    -0.115 SA
HETATM    5  C8  UNL     1     -17.740  -3.724 -25.176  1.00  0.00     0.134 C 
HETATM    6  C14 UNL     1     -18.673  -3.376 -26.268  1.00  0.00     0.077 C 
HETATM    7  C15 UNL     1     -20.146  -3.508 -25.822  1.00  0.00     0.020 C 
HETATM    8  C16 UNL     1     -18.586  -4.168 -27.502  1.00  0.00     0.162 C 
HETATM    9  O5  UNL     1     -18.738  -3.556 -28.600  1.00  0.00    -0.292 OA
ENDROOT
BRANCH   3  10
HETATM   10  C4  UNL     1     -17.044  -7.493 -26.770  1.00  0.00     0.126 C 
HETATM   11  N1  UNL     1     -16.315  -8.145 -27.580  1.00  0.00    -0.308 N 
ATOM     12  H1  UNL     1     -15.922  -7.633 -28.370  1.00  0.00     0.186 HD
BRANCH  11  13
HETATM   13  N2  UNL     1     -16.006  -9.501 -27.485  1.00  0.00    -0.270 N 
HETATM   14  C5  UNL     1     -16.654 -10.471 -28.267  1.00  0.00     0.249 C 
HETATM   15  O1  UNL     1     -17.544 -10.051 -29.075  1.00  0.00    -0.271 OA
ATOM     16  H2  UNL     1     -15.287  -9.798 -26.826  1.00  0.00     0.190 HD
BRANCH  14  17
HETATM   17  C6  UNL     1     -16.350 -11.899 -28.189  1.00  0.00     0.244 C 
BRANCH  17  18
HETATM   18  S1  UNL     1     -14.652 -12.196 -27.863  1.00  0.00     0.149 S 
HETATM   19  C7  UNL     1     -14.410 -12.337 -26.092  1.00  0.00     0.161 C 
HETATM   20  O2  UNL     1     -13.741 -11.122 -28.331  1.00  0.00    -0.228 OA
HETATM   21  O3  UNL     1     -14.226 -13.512 -28.470  1.00  0.00    -0.228 OA
ENDBRANCH  17  18
ENDBRANCH  14  17
ENDBRANCH  11  13
ENDBRANCH   3  10
BRANCH   5  22
HETATM   22  C9  UNL     1     -17.006  -2.612 -24.539  1.00  0.00     0.149 C 
HETATM   23  O4  UNL     1     -16.218  -1.994 -25.284  1.00  0.00    -0.296 OA
BRANCH  22  24
HETATM   24  C10 UNL     1     -17.087  -2.149 -23.156  1.00  0.00     0.011 C 
HETATM   25  C11 UNL     1     -16.646  -0.668 -23.141  1.00  0.00     0.022 C 
HETATM   26  C12 UNL     1     -18.532  -2.066 -22.639  1.00  0.00     0.022 C 
HETATM   27  C13 UNL     1     -16.187  -2.859 -22.201  1.00  0.00     0.022 C 
ENDBRANCH  22  24
ENDBRANCH   5  22
TORSDOF 6
ENDMDL
MODEL 2
REMARK VINA RESULT: -5.999958550      2.511      4.023
REMARK  6 active torsions:
REMARK  status: ('A' for Active; 'I' for Inactive)
REMARK    1  A    between atoms: C3_3  and  C4_4 
REMARK    2  A    between atoms: N1_5  and  N2_7 
REMARK       I    between atoms: N2_7  and  C5_9 
REMARK    3  A    between atoms: C5_9  and  C6_11 
REMARK    4  A    between atoms: C6_11  and  S1_12 
REMARK    5  A    between atoms: C8_17  and  C9_18 
REMARK    6  A    between atoms: C9_18  and  C10_20 
ROOT
HETATM    1  C1  UNL     1     -17.432 -10.173 -28.594  1.00  0.00     0.054 C 
HETATM    2  C2  UNL     1     -17.425  -8.738 -28.254  1.00  0.00     0.002 C 
HETATM    3  C3  UNL     1     -16.823  -8.337 -27.136  1.00  0.00     0.027 C 
HETATM    4  S2  UNL     1     -16.865  -6.572 -26.857  1.00  0.00    -0.115 SA
HETATM    5  C8  UNL     1     -18.500  -5.956 -27.348  1.00  0.00     0.134 C 
HETATM    6  C14 UNL     1     -18.901  -6.617 -28.609  1.00  0.00     0.077 C 
HETATM    7  C15 UNL     1     -20.320  -7.218 -28.510  1.00  0.00     0.020 C 
HETATM    8  C16 UNL     1     -18.060  -7.724 -29.083  1.00  0.00     0.162 C 
HETATM    9  O5  UNL     1     -17.865  -7.815 -30.330  1.00  0.00    -0.292 OA
ENDROOT
BRANCH   3  10
HETATM   10  C4  UNL     1     -16.173  -9.201 -26.215  1.00  0.00     0.126 C 
HETATM   11  N1  UNL     1     -14.953  -9.556 -26.197  1.00  0.00    -0.308 N 
ATOM     12  H1  UNL     1     -14.349  -9.185 -26.930  1.00  0.00     0.186 HD
BRANCH  11  13
HETATM   13  N2  UNL     1     -14.369 -10.410 -25.263  1.00  0.00    -0.270 N 
HETATM   14  C5  UNL     1     -14.074 -11.751 -25.558  1.00  0.00     0.249 C 
HETATM   15  O1  UNL     1     -14.369 -12.155 -26.730  1.00  0.00    -0.271 OA
ATOM     16  H2  UNL     1     -14.148 -10.049 -24.335  1.00  0.00     0.190 HD
BRANCH  14  17
HETATM   17  C6  UNL     1     -13.462 -12.668 -24.599  1.00  0.00     0.244 C 
BRANCH  17  18
HETATM   18  S1  UNL     1     -12.299 -11.861 -23.564  1.00  0.00     0.149 S 
HETATM   19  C7  UNL     1     -10.997 -11.162 -24.578  1.00  0.00     0.161 C 
HETATM   20  O2  UNL     1     -11.637 -12.749 -22.577  1.00  0.00    -0.228 OA
HETATM   21  O3  UNL     1     -12.956 -10.710 -22.839  1.00  0.00    -0.228 OA
ENDBRANCH  17  18
ENDBRANCH  14  17
ENDBRANCH  11  13
ENDBRANCH   3  10
BRANCH   5  22
HETATM   22  C9  UNL     1     -18.461  -4.480 -27.345  1.00  0.00     0.149 C 
HETATM   23  O4  UNL     1     -18.369  -3.945 -28.469  1.00  0.00    -0.296 OA
BRANCH  22  24
HETATM   24  C10 UNL     1     -18.517  -3.575 -26.201  1.00  0.00     0.011 C 
HETATM   25  C11 UNL     1     -18.034  -2.190 -26.686  1.00  0.00     0.022 C 
HETATM   26  C12 UNL     1     -19.954  -3.280 -25.744  1.00  0.00     0.022 C 
HETATM   27  C13 UNL     1     -17.629  -3.947 -25.060  1.00  0.00     0.022 C 
ENDBRANCH  22  24
ENDBRANCH   5  22
TORSDOF 6
ENDMDL
MODEL 3
REMARK VINA RESULT: -5.882429283      4.445      7.229
REMARK  6 active torsions:
REMARK  status: ('A' for Active; 'I' for Inactive)
REMARK    1  A    between atoms: C3_3  and  C4_4 
REMARK    2  A    between atoms: N1_5  and  N2_7 
REMARK       I    between atoms: N2_7  and  C5_9 
REMARK    3  A    between atoms: C5_9  and  C6_11 
REMARK    4  A    between atoms: C6_11  and  S1_12 
REMARK    5  A    between atoms: C8_17  and  C9_18 
REMARK    6  A    between atoms: C9_18  and  C10_20 
ROOT
HETATM    1  C1  UNL     1     -17.507  -7.651 -27.157  1.00  0.00     0.054 C 
HETATM    2  C2  UNL     1     -16.262  -8.441 -27.158  1.00  0.00     0.002 C 
HETATM    3  C3  UNL     1     -16.136  -9.455 -28.013  1.00  0.00     0.027 C 
HETATM    4  S2  UNL     1     -14.569 -10.311 -27.929  1.00  0.00    -0.115 SA
HETATM    5  C8  UNL     1     -14.090 -10.452 -26.184  1.00  0.00     0.134 C 
HETATM    6  C14 UNL     1     -14.385  -9.174 -25.502  1.00  0.00     0.077 C 
HETATM    7  C15 UNL     1     -15.197  -9.395 -24.207  1.00  0.00     0.020 C 
HETATM    8  C16 UNL     1     -15.151  -8.173 -26.256  1.00  0.00     0.162 C 
HETATM    9  O5  UNL     1     -14.825  -6.959 -26.112  1.00  0.00    -0.292 OA
ENDROOT
BRANCH   3  10
HETATM   10  C4  UNL     1     -17.130  -9.853 -28.945  1.00  0.00     0.126 C 
HETATM   11  N1  UNL     1     -17.405 -11.026 -29.350  1.00  0.00    -0.308 N 
ATOM     12  H1  UNL     1     -16.850 -11.792 -28.968  1.00  0.00     0.186 HD
BRANCH  11  13
HETATM   13  N2  UNL     1     -18.397 -11.356 -30.270  1.00  0.00    -0.270 N 
HETATM   14  C5  UNL     1     -18.611 -12.677 -30.696  1.00  0.00     0.249 C 
HETATM   15  O1  UNL     1     -17.848 -13.567 -30.198  1.00  0.00    -0.271 OA
ATOM     16  H2  UNL     1     -18.988 -10.615 -30.647  1.00  0.00     0.190 HD
BRANCH  14  17
HETATM   17  C6  UNL     1     -19.644 -13.052 -31.660  1.00  0.00     0.244 C 
BRANCH  17  18
HETATM   18  S1  UNL     1     -18.991 -13.964 -33.007  1.00  0.00     0.149 S 
HETATM   19  C7  UNL     1     -18.420 -12.824 -34.267  1.00  0.00     0.161 C 
HETATM   20  O2  UNL     1     -19.966 -14.869 -33.666  1.00  0.00    -0.228 OA
HETATM   21  O3  UNL     1     -17.789 -14.764 -32.563  1.00  0.00    -0.228 OA
ENDBRANCH  17  18
ENDBRANCH  14  17
ENDBRANCH  11  13
ENDBRANCH   3  10
BRANCH   5  22
HETATM   22  C9  UNL     1     -12.698 -10.941 -26.122  1.00  0.00     0.149 C 
HETATM   23  O4  UNL     1     -12.351 -11.690 -27.058  1.00  0.00    -0.296 OA
BRANCH  22  24
HETATM   24  C10 UNL     1     -11.684 -10.660 -25.110  1.00  0.00     0.011 C 
HETATM   25  C11 UNL     1     -10.338 -11.201 -25.644  1.00  0.00     0.022 C 
HETATM   26  C12 UNL     1     -11.395  -9.158 -24.958  1.00  0.00     0.022 C 
HETATM   27  C13 UNL     1     -11.906 -11.327 -23.794  1.00  0.00     0.022 C 
ENDBRANCH  22  24
ENDBRANCH   5  22
TORSDOF 6
ENDMDL
MODEL 4
REMARK VINA RESULT: -5.851402788      3.177      8.855
REMARK  6 active torsions:
REMARK  status: ('A' for Active; 'I' for Inactive)
REMARK    1  A    between atoms: C3_3  and  C4_4 
REMARK    2  A    between atoms: N1_5  and  N2_7 
REMARK       I    between atoms: N2_7  and  C5_9 
REMARK    3  A    between atoms: C5_9  and  C6_11 
REMARK    4  A    between atoms: C6_11  and  S1_12 
REMARK    5  A    between atoms: C8_17  and  C9_18 
REMARK    6  A    between atoms: C9_18  and  C10_20 
ROOT
HETATM    1  C1  UNL     1     -15.809  -4.927 -25.333  1.00  0.00     0.054 C 
HETATM    2  C2  UNL     1     -15.661  -6.216 -26.036  1.00  0.00     0.002 C 
HETATM    3  C3  UNL     1     -16.696  -6.708 -26.715  1.00  0.00     0.027 C 
HETATM    4  S2  UNL     1     -16.375  -8.260 -27.541  1.00  0.00    -0.115 SA
HETATM    5  C8  UNL     1     -15.362  -9.291 -26.444  1.00  0.00     0.134 C 
HETATM    6  C14 UNL     1     -14.324  -8.445 -25.816  1.00  0.00     0.077 C 
HETATM    7  C15 UNL     1     -14.293  -8.626 -24.282  1.00  0.00     0.020 C 
HETATM    8  C16 UNL     1     -14.431  -6.993 -26.017  1.00  0.00     0.162 C 
HETATM    9  O5  UNL     1     -13.356  -6.348 -26.188  1.00  0.00    -0.292 OA
ENDROOT
BRANCH   3  10
HETATM   10  C4  UNL     1     -17.965  -6.081 -26.819  1.00  0.00     0.126 C 
HETATM   11  N1  UNL     1     -18.300  -5.099 -27.554  1.00  0.00    -0.308 N 
ATOM     12  H1  UNL     1     -17.578  -4.697 -28.151  1.00  0.00     0.186 HD
BRANCH  11  13
HETATM   13  N2  UNL     1     -19.568  -4.525 -27.614  1.00  0.00    -0.270 N 
HETATM   14  C5  UNL     1     -19.857  -3.287 -27.016  1.00  0.00     0.249 C 
HETATM   15  O1  UNL     1     -18.897  -2.709 -26.411  1.00  0.00    -0.271 OA
ATOM     16  H2  UNL     1     -20.311  -5.019 -28.108  1.00  0.00     0.190 HD
BRANCH  14  17
HETATM   17  C6  UNL     1     -21.177  -2.661 -27.064  1.00  0.00     0.244 C 
BRANCH  17  18
HETATM   18  S1  UNL     1     -21.444  -1.578 -25.711  1.00  0.00     0.149 S 
HETATM   19  C7  UNL     1     -23.083  -0.865 -25.843  1.00  0.00     0.161 C 
HETATM   20  O2  UNL     1     -20.492  -0.442 -25.638  1.00  0.00    -0.228 OA
HETATM   21  O3  UNL     1     -21.404  -2.347 -24.411  1.00  0.00    -0.228 OA
ENDBRANCH  17  18
ENDBRANCH  14  17
ENDBRANCH  11  13
ENDBRANCH   3  10
BRANCH   5  22
HETATM   22  C9  UNL     1     -14.898 -10.467 -27.207  1.00  0.00     0.149 C 
HETATM   23  O4  UNL     1     -15.328 -10.551 -28.376  1.00  0.00    -0.296 OA
BRANCH  22  24
HETATM   24  C10 UNL     1     -14.006 -11.537 -26.768  1.00  0.00     0.011 C 
HETATM   25  C11 UNL     1     -14.106 -12.675 -27.809  1.00  0.00     0.022 C 
HETATM   26  C12 UNL     1     -12.522 -11.146 -26.851  1.00  0.00     0.022 C 
HETATM   27  C13 UNL     1     -14.355 -12.147 -25.452  1.00  0.00     0.022 C 
ENDBRANCH  22  24
ENDBRANCH   5  22
TORSDOF 6
ENDMDL
MODEL 5
REMARK VINA RESULT: -5.847288171      5.219      7.117
REMARK  6 active torsions:
REMARK  status: ('A' for Active; 'I' for Inactive)
REMARK    1  A    between atoms: C3_3  and  C4_4 
REMARK    2  A    between atoms: N1_5  and  N2_7 
REMARK       I    between atoms: N2_7  and  C5_9 
REMARK    3  A    between atoms: C5_9  and  C6_11 
REMARK    4  A    between atoms: C6_11  and  S1_12 
REMARK    5  A    between atoms: C8_17  and  C9_18 
REMARK    6  A    between atoms: C9_18  and  C10_20 
ROOT
HETATM    1  C1  UNL     1     -14.449 -12.128 -25.955  1.00  0.00     0.054 C 
HETATM    2  C2  UNL     1     -14.197 -10.678 -25.853  1.00  0.00     0.002 C 
HETATM    3  C3  UNL     1     -13.710 -10.181 -24.717  1.00  0.00     0.027 C 
HETATM    4  S2  UNL     1     -13.426  -8.417 -24.735  1.00  0.00    -0.115 SA
HETATM    5  C8  UNL     1     -14.797  -7.628 -25.626  1.00  0.00     0.134 C 
HETATM    6  C14 UNL     1     -15.120  -8.439 -26.820  1.00  0.00     0.077 C 
HETATM    7  C15 UNL     1     -16.632  -8.748 -26.904  1.00  0.00     0.020 C 
HETATM    8  C16 UNL     1     -14.465  -9.748 -26.939  1.00  0.00     0.162 C 
HETATM    9  O5  UNL     1     -14.097 -10.112 -28.094  1.00  0.00    -0.292 OA
ENDROOT
BRANCH   3  10
HETATM   10  C4  UNL     1     -13.410 -10.952 -23.562  1.00  0.00     0.126 C 
HETATM   11  N1  UNL     1     -12.274 -11.351 -23.157  1.00  0.00    -0.308 N 
ATOM     12  H1  UNL     1     -11.462 -11.096 -23.720  1.00  0.00     0.186 HD
BRANCH  11  13
HETATM   13  N2  UNL     1     -12.040 -12.107 -22.010  1.00  0.00    -0.270 N 
HETATM   14  C5  UNL     1     -11.081 -11.736 -21.053  1.00  0.00     0.249 C 
HETATM   15  O1  UNL     1     -10.429 -10.666 -21.285  1.00  0.00    -0.271 OA
ATOM     16  H2  UNL     1     -12.582 -12.957 -21.860  1.00  0.00     0.190 HD
BRANCH  14  17
HETATM   17  C6  UNL     1     -10.815 -12.509 -19.842  1.00  0.00     0.244 C 
BRANCH  17  18
HETATM   18  S1  UNL     1     -10.336 -14.157 -20.202  1.00  0.00     0.149 S 
HETATM   19  C7  UNL     1      -8.552 -14.226 -20.367  1.00  0.00     0.161 C 
HETATM   20  O2  UNL     1     -10.899 -14.697 -21.465  1.00  0.00    -0.228 OA
HETATM   21  O3  UNL     1     -10.706 -15.071 -19.058  1.00  0.00    -0.228 OA
ENDBRANCH  17  18
ENDBRANCH  14  17
ENDBRANCH  11  13
ENDBRANCH   3  10
BRANCH   5  22
HETATM   22  C9  UNL     1     -14.451  -6.210 -25.850  1.00  0.00     0.149 C 
HETATM   23  O4  UNL     1     -13.362  -6.009 -26.426  1.00  0.00    -0.296 OA
BRANCH  22  24
HETATM   24  C10 UNL     1     -15.219  -5.023 -25.485  1.00  0.00     0.011 C 
HETATM   25  C11 UNL     1     -15.024  -4.799 -23.968  1.00  0.00     0.022 C 
HETATM   26  C12 UNL     1     -14.639  -3.732 -26.083  1.00  0.00     0.022 C 
HETATM   27  C13 UNL     1     -16.691  -5.133 -25.702  1.00  0.00     0.022 C 
ENDBRANCH  22  24
ENDBRANCH   5  22
TORSDOF 6
ENDMDL
