MODEL 1
REMARK VINA RESULT: -6.995792072      0.000      0.000
REMARK  5 active torsions:
REMARK  status: ('A' for Active; 'I' for Inactive)
REMARK    1  A    between atoms: C4_8  and  C5_9 
REMARK    2  A    between atoms: C5_9  and  C6_10 
REMARK    3  A    between atoms: N2_12  and  C8_13 
REMARK    4  A    between atoms: C8_13  and  C9_14 
REMARK    5  A    between atoms: C12_17  and  S1_18 
ROOT
HETATM    1  C6  UNL     1     -14.286  -9.417 -26.344  1.00  0.00     0.024 A 
HETATM    2  C7  UNL     1     -14.268  -8.054 -26.144  1.00  0.00     0.111 A 
HETATM    3  N2  UNL     1     -14.123  -7.605 -24.922  1.00  0.00    -0.336 N 
HETATM    4  C14 UNL     1     -14.002  -8.491 -23.935  1.00  0.00     0.145 A 
HETATM    5  S3  UNL     1     -13.817  -8.222 -22.312  1.00  0.00    -0.052 SA
HETATM    6  S4  UNL     1     -14.089  -9.993 -24.723  1.00  0.00    -0.059 SA
ENDROOT
BRANCH   3   7
HETATM    7  C8  UNL     1     -14.092  -6.138 -24.642  1.00  0.00     0.176 C 
BRANCH   7   8
HETATM    8  C9  UNL     1     -15.367  -5.496 -25.122  1.00  0.00     0.002 A 
HETATM    9  C10 UNL     1     -16.056  -4.430 -24.624  1.00  0.00     0.018 A 
HETATM   10  C11 UNL     1     -17.176  -4.052 -25.249  1.00  0.00     0.032 A 
HETATM   11  C12 UNL     1     -17.554  -4.768 -26.353  1.00  0.00     0.099 A 
HETATM   12  S2  UNL     1     -16.334  -5.945 -26.483  1.00  0.00    -0.081 SA
BRANCH  11  13
HETATM   13  S1  UNL     1     -18.956  -4.519 -27.375  1.00  0.00     0.178 S 
HETATM   14  C13 UNL     1     -19.568  -6.027 -28.032  1.00  0.00     0.167 C 
HETATM   15  O3  UNL     1     -20.022  -3.731 -26.659  1.00  0.00    -0.222 OA
HETATM   16  O4  UNL     1     -18.484  -3.638 -28.525  1.00  0.00    -0.222 OA
ENDBRANCH  11  13
ENDBRANCH   7   8
ENDBRANCH   3   7
BRANCH   1  17
HETATM   17  C5  UNL     1     -14.460 -10.152 -27.576  1.00  0.00     0.040 C 
BRANCH  17  18
HETATM   18  C4  UNL     1     -15.485 -10.779 -28.038  1.00  0.00     0.070 A 
HETATM   19  C2  UNL     1     -16.742 -10.372 -28.389  1.00  0.00     0.062 A 
HETATM   20  C1  UNL     1     -17.258  -9.173 -28.347  1.00  0.00     0.046 C 
HETATM   21  N1  UNL     1     -17.431 -11.486 -28.825  1.00  0.00    -0.257 N 
HETATM   22  O1  UNL     1     -16.663 -12.515 -28.751  1.00  0.00    -0.194 OA
ATOM     23  H1  UNL     1     -18.396 -11.492 -29.154  1.00  0.00     0.195 HD
HETATM   24  C3  UNL     1     -15.501 -12.178 -28.296  1.00  0.00     0.317 A 
HETATM   25  O2  UNL     1     -14.549 -12.971 -28.118  1.00  0.00    -0.257 OA
ENDBRANCH  17  18
ENDBRANCH   1  17
TORSDOF 5
ENDMDL
MODEL 2
REMARK VINA RESULT: -6.815866673      3.455      7.503
REMARK  5 active torsions:
REMARK  status: ('A' for Active; 'I' for Inactive)
REMARK    1  A    between atoms: C4_8  and  C5_9 
REMARK    2  A    between atoms: C5_9  and  C6_10 
REMARK    3  A    between atoms: N2_12  and  C8_13 
REMARK    4  A    between atoms: C8_13  and  C9_14 
REMARK    5  A    between atoms: C12_17  and  S1_18 
ROOT
HETATM    1  C6  UNL     1     -16.810  -8.172 -27.401  1.00  0.00     0.024 A 
HETATM    2  C7  UNL     1     -15.567  -8.766 -27.443  1.00  0.00     0.111 A 
HETATM    3  N2  UNL     1     -15.484 -10.010 -27.845  1.00  0.00    -0.336 N 
HETATM    4  C14 UNL     1     -16.606 -10.636 -28.193  1.00  0.00     0.145 A 
HETATM    5  S3  UNL     1     -16.809 -12.191 -28.726  1.00  0.00    -0.052 SA
HETATM    6  S4  UNL     1     -17.815  -9.468 -27.957  1.00  0.00    -0.059 SA
ENDROOT
BRANCH   3   7
HETATM    7  C8  UNL     1     -14.164 -10.707 -27.917  1.00  0.00     0.176 C 
BRANCH   7   8
HETATM    8  C9  UNL     1     -13.712 -11.091 -26.532  1.00  0.00     0.002 A 
HETATM    9  C10 UNL     1     -14.132 -12.103 -25.719  1.00  0.00     0.018 A 
HETATM   10  C11 UNL     1     -13.556 -12.233 -24.520  1.00  0.00     0.032 A 
HETATM   11  C12 UNL     1     -12.578 -11.333 -24.191  1.00  0.00     0.099 A 
HETATM   12  S2  UNL     1     -12.494 -10.337 -25.565  1.00  0.00    -0.081 SA
BRANCH  11  13
HETATM   13  S1  UNL     1     -11.646 -11.244 -22.708  1.00  0.00     0.178 S 
HETATM   14  C13 UNL     1     -12.304 -10.066 -21.587  1.00  0.00     0.167 C 
HETATM   15  O3  UNL     1     -11.484 -12.605 -22.082  1.00  0.00    -0.222 OA
HETATM   16  O4  UNL     1     -10.247 -10.803 -23.120  1.00  0.00    -0.222 OA
ENDBRANCH  11  13
ENDBRANCH   7   8
ENDBRANCH   3   7
BRANCH   1  17
HETATM   17  C5  UNL     1     -17.165  -6.839 -26.971  1.00  0.00     0.040 C 
BRANCH  17  18
HETATM   18  C4  UNL     1     -18.138  -6.077 -27.330  1.00  0.00     0.070 A 
HETATM   19  C2  UNL     1     -18.719  -4.979 -26.759  1.00  0.00     0.062 A 
HETATM   20  C1  UNL     1     -18.418  -4.384 -25.636  1.00  0.00     0.046 C 
HETATM   21  N1  UNL     1     -19.734  -4.565 -27.596  1.00  0.00    -0.257 N 
HETATM   22  O1  UNL     1     -19.788  -5.345 -28.618  1.00  0.00    -0.194 OA
ATOM     23  H1  UNL     1     -20.347  -3.766 -27.432  1.00  0.00     0.195 HD
HETATM   24  C3  UNL     1     -18.879  -6.261 -28.532  1.00  0.00     0.317 A 
HETATM   25  O2  UNL     1     -18.692  -7.160 -29.382  1.00  0.00    -0.257 OA
ENDBRANCH  17  18
ENDBRANCH   1  17
TORSDOF 5
ENDMDL
MODEL 3
REMARK VINA RESULT: -6.804111745      3.118      4.809
REMARK  5 active torsions:
REMARK  status: ('A' for Active; 'I' for Inactive)
REMARK    1  A    between atoms: C4_8  and  C5_9 
REMARK    2  A    between atoms: C5_9  and  C6_10 
REMARK    3  A    between atoms: N2_12  and  C8_13 
REMARK    4  A    between atoms: C8_13  and  C9_14 
REMARK    5  A    between atoms: C12_17  and  S1_18 
ROOT
HETATM    1  C6  UNL     1     -15.084 -10.902 -27.290  1.00  0.00     0.024 A 
HETATM    2  C7  UNL     1     -15.853  -9.841 -27.718  1.00  0.00     0.111 A 
HETATM    3  N2  UNL     1     -16.818 -10.075 -28.571  1.00  0.00    -0.336 N 
HETATM    4  C14 UNL     1     -17.007 -11.328 -28.981  1.00  0.00     0.145 A 
HETATM    5  S3  UNL     1     -18.129 -11.917 -30.047  1.00  0.00    -0.052 SA
HETATM    6  S4  UNL     1     -15.811 -12.211 -28.160  1.00  0.00    -0.059 SA
ENDROOT
BRANCH   3   7
HETATM    7  C8  UNL     1     -17.688  -8.968 -29.070  1.00  0.00     0.176 C 
BRANCH   7   8
HETATM    8  C9  UNL     1     -17.599  -7.787 -28.139  1.00  0.00     0.002 A 
HETATM    9  C10 UNL     1     -16.692  -7.507 -27.158  1.00  0.00     0.018 A 
HETATM   10  C11 UNL     1     -16.836  -6.372 -26.467  1.00  0.00     0.032 A 
HETATM   11  C12 UNL     1     -17.892  -5.564 -26.796  1.00  0.00     0.099 A 
HETATM   12  S2  UNL     1     -18.648  -6.416 -28.058  1.00  0.00    -0.081 SA
BRANCH  11  13
HETATM   13  S1  UNL     1     -18.340  -4.027 -26.082  1.00  0.00     0.178 S 
HETATM   14  C13 UNL     1     -17.838  -2.669 -27.072  1.00  0.00     0.167 C 
HETATM   15  O3  UNL     1     -19.811  -3.986 -25.754  1.00  0.00    -0.222 OA
HETATM   16  O4  UNL     1     -17.611  -3.959 -24.746  1.00  0.00    -0.222 OA
ENDBRANCH  11  13
ENDBRANCH   7   8
ENDBRANCH   3   7
BRANCH   1  17
HETATM   17  C5  UNL     1     -13.956 -10.900 -26.387  1.00  0.00     0.040 C 
BRANCH  17  18
HETATM   18  C4  UNL     1     -13.913 -10.980 -25.103  1.00  0.00     0.070 A 
HETATM   19  C2  UNL     1     -13.636 -12.007 -24.244  1.00  0.00     0.062 A 
HETATM   20  C1  UNL     1     -13.322 -13.244 -24.520  1.00  0.00     0.046 C 
HETATM   21  N1  UNL     1     -13.741 -11.512 -22.960  1.00  0.00    -0.257 N 
HETATM   22  O1  UNL     1     -14.061 -10.267 -23.009  1.00  0.00    -0.194 OA
ATOM     23  H1  UNL     1     -13.589 -12.049 -22.106  1.00  0.00     0.195 HD
HETATM   24  C3  UNL     1     -14.180  -9.882 -24.238  1.00  0.00     0.317 A 
HETATM   25  O2  UNL     1     -14.484  -8.721 -24.593  1.00  0.00    -0.257 OA
ENDBRANCH  17  18
ENDBRANCH   1  17
TORSDOF 5
ENDMDL
MODEL 4
REMARK VINA RESULT: -6.794058052      0.876      1.551
REMARK  5 active torsions:
REMARK  status: ('A' for Active; 'I' for Inactive)
REMARK    1  A    between atoms: C4_8  and  C5_9 
REMARK    2  A    between atoms: C5_9  and  C6_10 
REMARK    3  A    between atoms: N2_12  and  C8_13 
REMARK    4  A    between atoms: C8_13  and  C9_14 
REMARK    5  A    between atoms: C12_17  and  S1_18 
ROOT
HETATM    1  C6  UNL     1     -14.444  -9.182 -26.467  1.00  0.00     0.024 A 
HETATM    2  C7  UNL     1     -14.487  -7.839 -26.159  1.00  0.00     0.111 A 
HETATM    3  N2  UNL     1     -14.253  -7.476 -24.923  1.00  0.00    -0.336 N 
HETATM    4  C14 UNL     1     -13.985  -8.424 -24.027  1.00  0.00     0.145 A 
HETATM    5  S3  UNL     1     -13.662  -8.267 -22.411  1.00  0.00    -0.052 SA
HETATM    6  S4  UNL     1     -14.058  -9.864 -24.923  1.00  0.00    -0.059 SA
ENDROOT
BRANCH   3   7
HETATM    7  C8  UNL     1     -14.281  -6.035 -24.528  1.00  0.00     0.176 C 
BRANCH   7   8
HETATM    8  C9  UNL     1     -15.527  -5.381 -25.065  1.00  0.00     0.002 A 
HETATM    9  C10 UNL     1     -16.198  -4.275 -24.630  1.00  0.00     0.018 A 
HETATM   10  C11 UNL     1     -17.292  -3.895 -25.296  1.00  0.00     0.032 A 
HETATM   11  C12 UNL     1     -17.664  -4.647 -26.378  1.00  0.00     0.099 A 
HETATM   12  S2  UNL     1     -16.475  -5.861 -26.428  1.00  0.00    -0.081 SA
BRANCH  11  13
HETATM   13  S1  UNL     1     -19.036  -4.405 -27.443  1.00  0.00     0.178 S 
HETATM   14  C13 UNL     1     -19.645  -5.919 -28.087  1.00  0.00     0.167 C 
HETATM   15  O3  UNL     1     -20.113  -3.592 -26.770  1.00  0.00    -0.222 OA
HETATM   16  O4  UNL     1     -18.523  -3.550 -28.595  1.00  0.00    -0.222 OA
ENDBRANCH  11  13
ENDBRANCH   7   8
ENDBRANCH   3   7
BRANCH   1  17
HETATM   17  C5  UNL     1     -14.691  -9.832 -27.734  1.00  0.00     0.040 C 
BRANCH  17  18
HETATM   18  C4  UNL     1     -15.614 -10.658 -28.083  1.00  0.00     0.070 A 
HETATM   19  C2  UNL     1     -15.622 -12.009 -28.293  1.00  0.00     0.062 A 
HETATM   20  C1  UNL     1     -14.639 -12.861 -28.185  1.00  0.00     0.046 C 
HETATM   21  N1  UNL     1     -16.905 -12.364 -28.658  1.00  0.00    -0.257 N 
HETATM   22  O1  UNL     1     -17.647 -11.313 -28.677  1.00  0.00    -0.194 OA
ATOM     23  H1  UNL     1     -17.216 -13.310 -28.879  1.00  0.00     0.195 HD
HETATM   24  C3  UNL     1     -16.957 -10.270 -28.350  1.00  0.00     0.317 A 
HETATM   25  O2  UNL     1     -17.415  -9.107 -28.282  1.00  0.00    -0.257 OA
ENDBRANCH  17  18
ENDBRANCH   1  17
TORSDOF 5
ENDMDL
MODEL 5
REMARK VINA RESULT: -6.776350062      1.460      1.941
REMARK  5 active torsions:
REMARK  status: ('A' for Active; 'I' for Inactive)
REMARK    1  A    between atoms: C4_8  and  C5_9 
REMARK    2  A    between atoms: C5_9  and  C6_10 
REMARK    3  A    between atoms: N2_12  and  C8_13 
REMARK    4  A    between atoms: C8_13  and  C9_14 
REMARK    5  A    between atoms: C12_17  and  S1_18 
ROOT
HETATM    1  C6  UNL     1     -14.525  -9.156 -26.609  1.00  0.00     0.024 A 
HETATM    2  C7  UNL     1     -14.474  -7.794 -26.410  1.00  0.00     0.111 A 
HETATM    3  N2  UNL     1     -14.213  -7.349 -25.206  1.00  0.00    -0.336 N 
HETATM    4  C14 UNL     1     -14.011  -8.238 -24.236  1.00  0.00     0.145 A 
HETATM    5  S3  UNL     1     -13.674  -7.975 -22.636  1.00  0.00    -0.052 SA
HETATM    6  S4  UNL     1     -14.186  -9.738 -25.014  1.00  0.00    -0.059 SA
ENDROOT
BRANCH   3   7
HETATM    7  C8  UNL     1     -14.140  -5.883 -24.929  1.00  0.00     0.176 C 
BRANCH   7   8
HETATM    8  C9  UNL     1     -15.488  -5.250 -25.154  1.00  0.00     0.002 A 
HETATM    9  C10 UNL     1     -16.507  -5.624 -25.980  1.00  0.00     0.018 A 
HETATM   10  C11 UNL     1     -17.619  -4.882 -25.990  1.00  0.00     0.032 A 
HETATM   11  C12 UNL     1     -17.656  -3.792 -25.162  1.00  0.00     0.099 A 
HETATM   12  S2  UNL     1     -16.138  -3.839 -24.398  1.00  0.00    -0.081 SA
BRANCH  11  13
HETATM   13  S1  UNL     1     -18.960  -2.639 -24.951  1.00  0.00     0.178 S 
HETATM   14  C13 UNL     1     -18.602  -1.095 -25.705  1.00  0.00     0.167 C 
HETATM   15  O3  UNL     1     -20.276  -3.211 -25.411  1.00  0.00    -0.222 OA
HETATM   16  O4  UNL     1     -19.095  -2.432 -23.447  1.00  0.00    -0.222 OA
ENDBRANCH  11  13
ENDBRANCH   7   8
ENDBRANCH   3   7
BRANCH   1  17
HETATM   17  C5  UNL     1     -14.820  -9.887 -27.821  1.00  0.00     0.040 C 
BRANCH  17  18
HETATM   18  C4  UNL     1     -15.915 -10.429 -28.225  1.00  0.00     0.070 A 
HETATM   19  C2  UNL     1     -17.133  -9.914 -28.573  1.00  0.00     0.062 A 
HETATM   20  C1  UNL     1     -17.523  -8.668 -28.589  1.00  0.00     0.046 C 
HETATM   21  N1  UNL     1     -17.943 -10.973 -28.930  1.00  0.00    -0.257 N 
HETATM   22  O1  UNL     1     -17.283 -12.071 -28.814  1.00  0.00    -0.194 OA
ATOM     23  H1  UNL     1     -18.913 -10.897 -29.238  1.00  0.00     0.195 HD
HETATM   24  C3  UNL     1     -16.080 -11.831 -28.403  1.00  0.00     0.317 A 
HETATM   25  O2  UNL     1     -15.210 -12.707 -28.200  1.00  0.00    -0.257 OA
ENDBRANCH  17  18
ENDBRANCH   1  17
TORSDOF 5
ENDMDL
