MODEL 1
REMARK VINA RESULT: -5.145401553      0.000      0.000
REMARK  6 active torsions:
REMARK  status: ('A' for Active; 'I' for Inactive)
REMARK    1  A    between atoms: C2_4  and  N2_5 
REMARK    2  A    between atoms: N2_5  and  C3_7 
REMARK    3  A    between atoms: C3_7  and  C4_8 
REMARK    4  A    between atoms: C4_8  and  N3_9 
REMARK    5  A    between atoms: N3_9  and  C5_12 
REMARK    6  A    between atoms: C5_12  and  C6_13 
ROOT
HETATM    1  C3  UNL     1      16.023   1.027   4.654  1.00  0.00     0.165 C 
ENDROOT
BRANCH   1   2
HETATM    2  N2  UNL     1      17.051   1.934   5.084  1.00  0.00    -0.223 N 
ATOM      3  H2  UNL     1      16.867   2.569   5.861  1.00  0.00     0.177 HD
BRANCH   2   4
HETATM    4  C2  UNL     1      18.205   1.959   4.500  1.00  0.00     0.693 A 
HETATM    5  N1  UNL     1      19.060   2.981   4.394  1.00  0.00    -0.185 N 
HETATM    6  C1  UNL     1      20.153   2.574   3.703  1.00  0.00     0.215 A 
ATOM      7  H1  UNL     1      18.914   3.917   4.772  1.00  0.00     0.185 HD
HETATM    8  N6  UNL     1      19.951   1.287   3.390  1.00  0.00    -0.281 N 
HETATM    9  N5  UNL     1      18.775   0.923   3.873  1.00  0.00    -0.131 N 
ATOM     10  H6  UNL     1      20.593   0.690   2.868  1.00  0.00     0.188 HD
ATOM     11  H5  UNL     1      18.364  -0.006   3.782  1.00  0.00     0.205 HD
ENDBRANCH   2   4
ENDBRANCH   1   2
BRANCH   1  12
HETATM   12  C4  UNL     1      15.085   1.667   3.680  1.00  0.00     0.252 C 
BRANCH  12  13
HETATM   13  N3  UNL     1      14.440   2.782   4.322  1.00  0.00    -0.073 N 
ATOM     14  H32 UNL     1      13.567   2.504   4.771  1.00  0.00     0.277 HD
ATOM     15  H31 UNL     1      14.951   3.085   5.151  1.00  0.00     0.277 HD
BRANCH  13  16
HETATM   16  C5  UNL     1      14.239   3.870   3.393  1.00  0.00     0.240 C 
BRANCH  16  17
HETATM   17  C6  UNL     1      15.130   5.013   3.750  1.00  0.00     0.062 C 
HETATM   18  C7  UNL     1      16.507   4.999   3.163  1.00  0.00     0.240 C 
HETATM   19  N4  UNL     1      16.319   6.418   2.833  1.00  0.00    -0.074 N 
HETATM   20  C8  UNL     1      14.885   6.187   2.810  1.00  0.00     0.240 C 
ATOM     21  H42 UNL     1      16.718   7.147   3.425  1.00  0.00     0.277 HD
ATOM     22  H41 UNL     1      16.791   6.831   2.029  1.00  0.00     0.277 HD
ENDBRANCH  16  17
ENDBRANCH  13  16
ENDBRANCH  12  13
ENDBRANCH   1  12
TORSDOF 6
ENDMDL
MODEL 2
REMARK VINA RESULT: -5.022227100      1.648      4.979
REMARK  6 active torsions:
REMARK  status: ('A' for Active; 'I' for Inactive)
REMARK    1  A    between atoms: C2_4  and  N2_5 
REMARK    2  A    between atoms: N2_5  and  C3_7 
REMARK    3  A    between atoms: C3_7  and  C4_8 
REMARK    4  A    between atoms: C4_8  and  N3_9 
REMARK    5  A    between atoms: N3_9  and  C5_12 
REMARK    6  A    between atoms: C5_12  and  C6_13 
ROOT
HETATM    1  C3  UNL     1      16.880   1.827   4.809  1.00  0.00     0.165 C 
ENDROOT
BRANCH   1   2
HETATM    2  N2  UNL     1      15.588   1.827   4.181  1.00  0.00    -0.223 N 
ATOM      3  H2  UNL     1      15.070   0.951   4.097  1.00  0.00     0.177 HD
BRANCH   2   4
HETATM    4  C2  UNL     1      15.070   2.919   3.720  1.00  0.00     0.693 A 
HETATM    5  N1  UNL     1      13.974   3.560   4.140  1.00  0.00    -0.185 N 
HETATM    6  C1  UNL     1      13.790   4.666   3.378  1.00  0.00     0.215 A 
ATOM      7  H1  UNL     1      13.374   3.264   4.909  1.00  0.00     0.185 HD
HETATM    8  N6  UNL     1      14.790   4.689   2.487  1.00  0.00    -0.281 N 
HETATM    9  N5  UNL     1      15.557   3.633   2.699  1.00  0.00    -0.131 N 
ATOM     10  H6  UNL     1      14.935   5.399   1.769  1.00  0.00     0.188 HD
ATOM     11  H5  UNL     1      16.395   3.398   2.165  1.00  0.00     0.205 HD
ENDBRANCH   2   4
ENDBRANCH   1   2
BRANCH   1  12
HETATM   12  C4  UNL     1      17.795   0.811   4.204  1.00  0.00     0.252 C 
BRANCH  12  13
HETATM   13  N3  UNL     1      19.065   1.434   3.936  1.00  0.00    -0.073 N 
ATOM     14  H32 UNL     1      19.834   0.922   4.370  1.00  0.00     0.277 HD
ATOM     15  H31 UNL     1      19.339   1.325   2.960  1.00  0.00     0.277 HD
BRANCH  13  16
HETATM   16  C5  UNL     1      19.057   2.822   4.336  1.00  0.00     0.240 C 
BRANCH  16  17
HETATM   17  C6  UNL     1      20.103   3.573   3.581  1.00  0.00     0.062 C 
HETATM   18  C7  UNL     1      21.142   4.277   4.397  1.00  0.00     0.240 C 
HETATM   19  N4  UNL     1      22.151   3.731   3.479  1.00  0.00    -0.074 N 
HETATM   20  C8  UNL     1      21.239   2.640   3.182  1.00  0.00     0.240 C 
ATOM     21  H42 UNL     1      22.536   4.306   2.729  1.00  0.00     0.277 HD
ATOM     22  H41 UNL     1      23.100   3.541   3.803  1.00  0.00     0.277 HD
ENDBRANCH  16  17
ENDBRANCH  13  16
ENDBRANCH  12  13
ENDBRANCH   1  12
TORSDOF 6
ENDMDL
MODEL 3
REMARK VINA RESULT: -5.019641486      1.653      4.730
REMARK  6 active torsions:
REMARK  status: ('A' for Active; 'I' for Inactive)
REMARK    1  A    between atoms: C2_4  and  N2_5 
REMARK    2  A    between atoms: N2_5  and  C3_7 
REMARK    3  A    between atoms: C3_7  and  C4_8 
REMARK    4  A    between atoms: C4_8  and  N3_9 
REMARK    5  A    between atoms: N3_9  and  C5_12 
REMARK    6  A    between atoms: C5_12  and  C6_13 
ROOT
HETATM    1  C3  UNL     1      17.296   2.076   4.807  1.00  0.00     0.165 C 
ENDROOT
BRANCH   1   2
HETATM    2  N2  UNL     1      16.015   2.356   4.220  1.00  0.00    -0.223 N 
ATOM      3  H2  UNL     1      15.367   1.589   4.041  1.00  0.00     0.177 HD
BRANCH   2   4
HETATM    4  C2  UNL     1      15.672   3.566   3.914  1.00  0.00     0.693 A 
HETATM    5  N1  UNL     1      14.558   4.223   4.253  1.00  0.00    -0.185 N 
HETATM    6  C1  UNL     1      14.602   5.469   3.723  1.00  0.00     0.215 A 
ATOM      7  H1  UNL     1      13.799   3.847   4.820  1.00  0.00     0.185 HD
HETATM    8  N6  UNL     1      15.759   5.561   3.054  1.00  0.00    -0.281 N 
HETATM    9  N5  UNL     1      16.399   4.410   3.174  1.00  0.00    -0.131 N 
ATOM     10  H6  UNL     1      16.090   6.379   2.541  1.00  0.00     0.188 HD
ATOM     11  H5  UNL     1      17.308   4.198   2.764  1.00  0.00     0.205 HD
ENDBRANCH   2   4
ENDBRANCH   1   2
BRANCH   1  12
HETATM   12  C4  UNL     1      18.136   1.206   3.927  1.00  0.00     0.252 C 
BRANCH  12  13
HETATM   13  N3  UNL     1      19.451   1.782   3.826  1.00  0.00    -0.073 N 
ATOM     14  H32 UNL     1      20.172   1.132   4.140  1.00  0.00     0.277 HD
ATOM     15  H31 UNL     1      19.744   1.881   2.855  1.00  0.00     0.277 HD
BRANCH  13  16
HETATM   16  C5  UNL     1      19.522   3.039   4.534  1.00  0.00     0.240 C 
BRANCH  16  17
HETATM   17  C6  UNL     1      20.474   3.958   3.843  1.00  0.00     0.062 C 
HETATM   18  C7  UNL     1      21.602   3.317   3.095  1.00  0.00     0.240 C 
HETATM   19  N4  UNL     1      21.313   4.236   1.986  1.00  0.00    -0.074 N 
HETATM   20  C8  UNL     1      19.944   4.326   2.463  1.00  0.00     0.240 C 
ATOM     21  H42 UNL     1      21.873   5.078   1.850  1.00  0.00     0.277 HD
ATOM     22  H41 UNL     1      21.511   3.965   1.022  1.00  0.00     0.277 HD
ENDBRANCH  16  17
ENDBRANCH  13  16
ENDBRANCH  12  13
ENDBRANCH   1  12
TORSDOF 6
ENDMDL
MODEL 4
REMARK VINA RESULT: -4.980361973      1.386      1.853
REMARK  6 active torsions:
REMARK  status: ('A' for Active; 'I' for Inactive)
REMARK    1  A    between atoms: C2_4  and  N2_5 
REMARK    2  A    between atoms: N2_5  and  C3_7 
REMARK    3  A    between atoms: C3_7  and  C4_8 
REMARK    4  A    between atoms: C4_8  and  N3_9 
REMARK    5  A    between atoms: N3_9  and  C5_12 
REMARK    6  A    between atoms: C5_12  and  C6_13 
ROOT
HETATM    1  C3  UNL     1      16.037   1.083   4.567  1.00  0.00     0.165 C 
ENDROOT
BRANCH   1   2
HETATM    2  N2  UNL     1      17.119   1.830   5.144  1.00  0.00    -0.223 N 
ATOM      3  H2  UNL     1      17.002   2.253   6.065  1.00  0.00     0.177 HD
BRANCH   2   4
HETATM    4  C2  UNL     1      18.241   1.974   4.515  1.00  0.00     0.693 A 
HETATM    5  N1  UNL     1      18.945   3.093   4.320  1.00  0.00    -0.185 N 
HETATM    6  C1  UNL     1      20.060   2.796   3.609  1.00  0.00     0.215 A 
ATOM      7  H1  UNL     1      18.686   4.021   4.653  1.00  0.00     0.185 HD
HETATM    8  N6  UNL     1      20.024   1.477   3.373  1.00  0.00    -0.281 N 
HETATM    9  N5  UNL     1      18.924   0.989   3.922  1.00  0.00    -0.131 N 
ATOM     10  H6  UNL     1      20.724   0.942   2.858  1.00  0.00     0.188 HD
ATOM     11  H5  UNL     1      18.640   0.010   3.896  1.00  0.00     0.205 HD
ENDBRANCH   2   4
ENDBRANCH   1   2
BRANCH   1  12
HETATM   12  C4  UNL     1      15.264   1.895   3.576  1.00  0.00     0.252 C 
BRANCH  12  13
HETATM   13  N3  UNL     1      14.497   2.884   4.286  1.00  0.00    -0.073 N 
ATOM     14  H32 UNL     1      13.497   2.777   4.117  1.00  0.00     0.277 HD
ATOM     15  H31 UNL     1      14.503   2.714   5.291  1.00  0.00     0.277 HD
BRANCH  13  16
HETATM   16  C5  UNL     1      14.951   4.218   3.969  1.00  0.00     0.240 C 
BRANCH  16  17
HETATM   17  C6  UNL     1      13.778   5.126   3.797  1.00  0.00     0.062 C 
HETATM   18  C7  UNL     1      13.120   5.124   2.453  1.00  0.00     0.240 C 
HETATM   19  N4  UNL     1      11.828   5.060   3.150  1.00  0.00    -0.074 N 
HETATM   20  C8  UNL     1      12.505   4.440   4.275  1.00  0.00     0.240 C 
ATOM     21  H42 UNL     1      11.266   5.902   3.280  1.00  0.00     0.277 HD
ATOM     22  H41 UNL     1      11.024   4.608   2.713  1.00  0.00     0.277 HD
ENDBRANCH  16  17
ENDBRANCH  13  16
ENDBRANCH  12  13
ENDBRANCH   1  12
TORSDOF 6
ENDMDL
MODEL 5
REMARK VINA RESULT: -4.968187029      2.415      3.736
REMARK  6 active torsions:
REMARK  status: ('A' for Active; 'I' for Inactive)
REMARK    1  A    between atoms: C2_4  and  N2_5 
REMARK    2  A    between atoms: N2_5  and  C3_7 
REMARK    3  A    between atoms: C3_7  and  C4_8 
REMARK    4  A    between atoms: C4_8  and  N3_9 
REMARK    5  A    between atoms: N3_9  and  C5_12 
REMARK    6  A    between atoms: C5_12  and  C6_13 
ROOT
HETATM    1  C3  UNL     1      19.324   3.899   3.917  1.00  0.00     0.165 C 
ENDROOT
BRANCH   1   2
HETATM    2  N2  UNL     1      20.761   3.928   3.914  1.00  0.00    -0.223 N 
ATOM      3  H2  UNL     1      21.265   3.934   4.801  1.00  0.00     0.177 HD
BRANCH   2   4
HETATM    4  C2  UNL     1      21.425   3.945   2.804  1.00  0.00     0.693 A 
HETATM    5  N1  UNL     1      21.164   4.639   1.691  1.00  0.00    -0.185 N 
HETATM    6  C1  UNL     1      22.115   4.364   0.766  1.00  0.00     0.215 A 
ATOM      7  H1  UNL     1      20.376   5.272   1.560  1.00  0.00     0.185 HD
HETATM    8  N6  UNL     1      22.960   3.492   1.332  1.00  0.00    -0.281 N 
HETATM    9  N5  UNL     1      22.538   3.244   2.560  1.00  0.00    -0.131 N 
ATOM     10  H6  UNL     1      23.787   3.088   0.891  1.00  0.00     0.188 HD
ATOM     11  H5  UNL     1      22.991   2.614   3.222  1.00  0.00     0.205 HD
ENDBRANCH   2   4
ENDBRANCH   1   2
BRANCH   1  12
HETATM   12  C4  UNL     1      18.793   2.578   4.374  1.00  0.00     0.252 C 
BRANCH  12  13
HETATM   13  N3  UNL     1      17.668   2.221   3.550  1.00  0.00    -0.073 N 
ATOM     14  H32 UNL     1      17.872   1.410   2.967  1.00  0.00     0.277 HD
ATOM     15  H31 UNL     1      16.908   1.827   4.103  1.00  0.00     0.277 HD
BRANCH  13  16
HETATM   16  C5  UNL     1      17.225   3.347   2.762  1.00  0.00     0.240 C 
BRANCH  16  17
HETATM   17  C6  UNL     1      15.733   3.407   2.756  1.00  0.00     0.062 C 
HETATM   18  C7  UNL     1      15.016   2.316   3.488  1.00  0.00     0.240 C 
HETATM   19  N4  UNL     1      14.158   3.354   4.077  1.00  0.00    -0.074 N 
HETATM   20  C8  UNL     1      15.237   4.307   3.880  1.00  0.00     0.240 C 
ATOM     21  H42 UNL     1      13.228   3.535   3.698  1.00  0.00     0.277 HD
ATOM     22  H41 UNL     1      13.743   3.222   4.999  1.00  0.00     0.277 HD
ENDBRANCH  16  17
ENDBRANCH  13  16
ENDBRANCH  12  13
ENDBRANCH   1  12
TORSDOF 6
ENDMDL
