MODEL 1
REMARK VINA RESULT: -8.248862532      0.000      0.000
REMARK  15 active torsions:
REMARK  status: ('A' for Active; 'I' for Inactive)
REMARK    1  A    between atoms: C2_2  and  C3_3 
REMARK    2  A    between atoms: C3_3  and  C4_4 
REMARK    3  A    between atoms: C4_4  and  C5_5 
REMARK    4  A    between atoms: N1_8  and  C8_9 
REMARK    5  A    between atoms: C8_9  and  C9_10 
REMARK    6  A    between atoms: C9_10  and  C10_11 
REMARK    7  A    between atoms: C11_12  and  C12_13 
REMARK    8  A    between atoms: C12_13  and  N2_14 
REMARK    9  A    between atoms: N2_14  and  C13_15 
REMARK   10  A    between atoms: N2_14  and  C15_17 
REMARK   11  A    between atoms: C15_17  and  C16_21 
REMARK   12  A    between atoms: C16_21  and  C17_22 
REMARK   13  A    between atoms: C17_22  and  O1_23 
REMARK   14  A    between atoms: O1_23  and  C18_24 
REMARK       I    between atoms: C18_24  and  N4_26 
REMARK   15  A    between atoms: C19_27  and  N5_28 
REMARK       I    between atoms: N5_28  and  C20_29 
ROOT
HETATM    1  C15 UNL     1      18.570   6.766  24.365  1.00  0.00     0.075 C 
HETATM    2  N3  UNL     1      18.580   7.904  23.716  1.00  0.00    -0.389 N 
ATOM      3  H31 UNL     1      18.399   7.868  22.713  1.00  0.00     0.157 HD
ATOM      4  H32 UNL     1      18.767   8.774  24.216  1.00  0.00     0.157 HD
ENDROOT
BRANCH   1   5
HETATM    5  N2  UNL     1      18.819   6.815  25.745  1.00  0.00    -0.361 N 
BRANCH   5   6
HETATM    6  C12 UNL     1      20.008   6.175  26.319  1.00  0.00     0.218 C 
BRANCH   6   7
HETATM    7  C11 UNL     1      20.845   7.166  26.999  1.00  0.00    -0.087 C 
HETATM    8  C10 UNL     1      21.517   7.996  27.556  1.00  0.00    -0.103 C 
BRANCH   8   9
HETATM    9  C9  UNL     1      22.317   9.031  28.235  1.00  0.00     0.114 C 
BRANCH   9  10
HETATM   10  C8  UNL     1      22.042   8.911  29.718  1.00  0.00     0.139 C 
BRANCH  10  11
HETATM   11  N1  UNL     1      23.257   9.146  30.468  1.00  0.00    -0.366 N 
HETATM   12  C7  UNL     1      23.879  10.333  30.451  1.00  0.00     0.091 A 
HETATM   13  C6  UNL     1      25.054  10.539  31.185  1.00  0.00     0.024 A 
HETATM   14  C5  UNL     1      25.604   9.534  31.942  1.00  0.00    -0.056 A 
HETATM   15  C27 UNL     1      24.947   8.309  31.949  1.00  0.00     0.024 A 
HETATM   16  C26 UNL     1      23.790   8.145  31.213  1.00  0.00     0.091 A 
BRANCH  14  17
HETATM   17  C4  UNL     1      26.849   9.706  32.735  1.00  0.00     0.038 C 
BRANCH  17  18
HETATM   18  C3  UNL     1      26.709   8.785  33.941  1.00  0.00     0.004 C 
BRANCH  18  19
HETATM   19  C2  UNL     1      26.416   9.600  35.172  1.00  0.00    -0.004 C 
HETATM   20  C1  UNL     1      25.035   9.262  35.654  1.00  0.00     0.005 C 
ENDBRANCH  18  19
ENDBRANCH  17  18
ENDBRANCH  14  17
ENDBRANCH  10  11
ENDBRANCH   9  10
ENDBRANCH   8   9
ENDBRANCH   6   7
ENDBRANCH   5   6
BRANCH   5  21
HETATM   21  C13 UNL     1      17.956   7.485  26.657  1.00  0.00     0.120 C 
HETATM   22  C14 UNL     1      17.227   6.513  27.579  1.00  0.00     0.026 C 
ENDBRANCH   5  21
ENDBRANCH   1   5
BRANCH   1  23
HETATM   23  C16 UNL     1      18.303   5.520  23.648  1.00  0.00     0.102 C 
BRANCH  23  24
HETATM   24  C17 UNL     1      17.001   5.418  22.942  1.00  0.00     0.188 C 
BRANCH  24  25
HETATM   25  O1  UNL     1      16.108   6.485  23.189  1.00  0.00    -0.303 OA
BRANCH  25  26
HETATM   26  C18 UNL     1      15.279   6.550  24.296  1.00  0.00     0.372 C 
HETATM   27  O2  UNL     1      14.917   5.395  24.712  1.00  0.00    -0.238 OA
HETATM   28  N4  UNL     1      14.847   7.737  24.940  1.00  0.00    -0.230 N 
HETATM   29  C19 UNL     1      13.942   7.567  26.092  1.00  0.00     0.266 C 
HETATM   30  C25 UNL     1      15.203   9.071  24.607  1.00  0.00     0.203 C 
HETATM   31  N8  UNL     1      13.880   8.794  26.920  1.00  0.00    -0.349 N 
HETATM   32  C21 UNL     1      13.945  10.112  26.373  1.00  0.00     0.132 C 
ATOM     33  H8  UNL     1      13.787   8.693  27.930  1.00  0.00     0.163 HD
HETATM   34  C22 UNL     1      14.007   9.976  24.882  1.00  0.00     0.051 C 
HETATM   35  C23 UNL     1      14.496  11.219  24.173  1.00  0.00     0.054 C 
HETATM   36  C24 UNL     1      15.112  10.555  22.972  1.00  0.00     0.058 C 
HETATM   37  N9  UNL     1      15.486   9.366  23.260  1.00  0.00    -0.381 N 
ATOM     38  H9  UNL     1      15.929   8.721  22.605  1.00  0.00     0.160 HD
BRANCH  29  39
HETATM   39  N5  UNL     1      13.346   6.604  26.336  1.00  0.00    -0.339 NA
HETATM   40  C20 UNL     1      12.689   5.470  26.543  1.00  0.00     0.264 C 
HETATM   41  N6  UNL     1      13.154   4.401  27.166  1.00  0.00    -0.362 N 
HETATM   42  N7  UNL     1      11.325   5.256  26.084  1.00  0.00    -0.049 NA
ATOM     43  H62 UNL     1      14.111   4.551  27.487  1.00  0.00     0.159 HD
ATOM     44  H61 UNL     1      12.649   3.529  27.324  1.00  0.00     0.159 HD
ENDBRANCH  29  39
ENDBRANCH  25  26
ENDBRANCH  24  25
ENDBRANCH  23  24
ENDBRANCH   1  23
TORSDOF 15
ENDMDL
MODEL 2
REMARK VINA RESULT: -8.092788148      6.411      9.295
REMARK  15 active torsions:
REMARK  status: ('A' for Active; 'I' for Inactive)
REMARK    1  A    between atoms: C2_2  and  C3_3 
REMARK    2  A    between atoms: C3_3  and  C4_4 
REMARK    3  A    between atoms: C4_4  and  C5_5 
REMARK    4  A    between atoms: N1_8  and  C8_9 
REMARK    5  A    between atoms: C8_9  and  C9_10 
REMARK    6  A    between atoms: C9_10  and  C10_11 
REMARK    7  A    between atoms: C11_12  and  C12_13 
REMARK    8  A    between atoms: C12_13  and  N2_14 
REMARK    9  A    between atoms: N2_14  and  C13_15 
REMARK   10  A    between atoms: N2_14  and  C15_17 
REMARK   11  A    between atoms: C15_17  and  C16_21 
REMARK   12  A    between atoms: C16_21  and  C17_22 
REMARK   13  A    between atoms: C17_22  and  O1_23 
REMARK   14  A    between atoms: O1_23  and  C18_24 
REMARK       I    between atoms: C18_24  and  N4_26 
REMARK   15  A    between atoms: C19_27  and  N5_28 
REMARK       I    between atoms: N5_28  and  C20_29 
ROOT
HETATM    1  C15 UNL     1      16.176   4.778  20.272  1.00  0.00     0.075 C 
HETATM    2  N3  UNL     1      15.697   5.963  19.987  1.00  0.00    -0.389 N 
ATOM      3  H31 UNL     1      16.182   6.768  20.385  1.00  0.00     0.157 HD
ATOM      4  H32 UNL     1      14.872   6.051  19.392  1.00  0.00     0.157 HD
ENDROOT
BRANCH   1   5
HETATM    5  N2  UNL     1      15.509   3.671  19.724  1.00  0.00    -0.361 N 
BRANCH   5   6
HETATM    6  C12 UNL     1      15.894   2.303  20.088  1.00  0.00     0.218 C 
BRANCH   6   7
HETATM    7  C11 UNL     1      16.961   1.821  19.207  1.00  0.00    -0.087 C 
HETATM    8  C10 UNL     1      17.852   1.437  18.493  1.00  0.00    -0.103 C 
BRANCH   8   9
HETATM    9  C9  UNL     1      18.961   0.987  17.634  1.00  0.00     0.114 C 
BRANCH   9  10
HETATM   10  C8  UNL     1      19.856   2.183  17.390  1.00  0.00     0.139 C 
BRANCH  10  11
HETATM   11  N1  UNL     1      20.775   2.349  18.497  1.00  0.00    -0.366 N 
HETATM   12  C7  UNL     1      20.483   3.130  19.546  1.00  0.00     0.091 A 
HETATM   13  C6  UNL     1      21.386   3.275  20.607  1.00  0.00     0.024 A 
HETATM   14  C5  UNL     1      22.595   2.624  20.604  1.00  0.00    -0.056 A 
HETATM   15  C27 UNL     1      22.882   1.818  19.509  1.00  0.00     0.024 A 
HETATM   16  C26 UNL     1      21.966   1.700  18.483  1.00  0.00     0.091 A 
BRANCH  14  17
HETATM   17  C4  UNL     1      23.584   2.749  21.706  1.00  0.00     0.038 C 
BRANCH  17  18
HETATM   18  C3  UNL     1      24.207   4.132  21.556  1.00  0.00     0.004 C 
BRANCH  18  19
HETATM   19  C2  UNL     1      25.571   4.146  22.192  1.00  0.00    -0.004 C 
HETATM   20  C1  UNL     1      26.024   2.728  22.388  1.00  0.00     0.005 C 
ENDBRANCH  18  19
ENDBRANCH  17  18
ENDBRANCH  14  17
ENDBRANCH  10  11
ENDBRANCH   9  10
ENDBRANCH   8   9
ENDBRANCH   6   7
ENDBRANCH   5   6
BRANCH   5  21
HETATM   21  C13 UNL     1      14.429   3.803  18.806  1.00  0.00     0.120 C 
HETATM   22  C14 UNL     1      13.493   2.600  18.841  1.00  0.00     0.026 C 
ENDBRANCH   5  21
ENDBRANCH   1   5
BRANCH   1  23
HETATM   23  C16 UNL     1      17.356   4.653  21.124  1.00  0.00     0.102 C 
BRANCH  23  24
HETATM   24  C17 UNL     1      17.391   5.492  22.349  1.00  0.00     0.188 C 
BRANCH  24  25
HETATM   25  O1  UNL     1      16.183   5.519  23.081  1.00  0.00    -0.303 OA
BRANCH  25  26
HETATM   26  C18 UNL     1      15.558   6.687  23.484  1.00  0.00     0.372 C 
HETATM   27  O2  UNL     1      15.486   7.558  22.549  1.00  0.00    -0.238 OA
HETATM   28  N4  UNL     1      15.035   6.945  24.776  1.00  0.00    -0.230 N 
HETATM   29  C19 UNL     1      14.431   8.274  24.987  1.00  0.00     0.266 C 
HETATM   30  C25 UNL     1      15.015   6.058  25.885  1.00  0.00     0.203 C 
HETATM   31  N8  UNL     1      13.576   8.296  26.197  1.00  0.00    -0.349 N 
HETATM   32  C21 UNL     1      13.876   7.557  27.382  1.00  0.00     0.132 C 
ATOM     33  H8  UNL     1      12.731   8.866  26.183  1.00  0.00     0.163 HD
HETATM   34  C22 UNL     1      15.191   6.872  27.162  1.00  0.00     0.051 C 
HETATM   35  C23 UNL     1      15.457   5.733  28.121  1.00  0.00     0.054 C 
HETATM   36  C24 UNL     1      16.331   4.897  27.228  1.00  0.00     0.058 C 
HETATM   37  N9  UNL     1      16.051   5.113  25.998  1.00  0.00    -0.381 N 
ATOM     38  H9  UNL     1      16.514   4.662  25.209  1.00  0.00     0.160 HD
BRANCH  29  39
HETATM   39  N5  UNL     1      14.592   9.197  24.305  1.00  0.00    -0.339 NA
HETATM   40  C20 UNL     1      14.821  10.287  23.586  1.00  0.00     0.264 C 
HETATM   41  N6  UNL     1      15.822  10.469  22.742  1.00  0.00    -0.362 N 
HETATM   42  N7  UNL     1      13.969  11.464  23.648  1.00  0.00    -0.049 NA
ATOM     43  H62 UNL     1      16.420   9.644  22.699  1.00  0.00     0.159 HD
ATOM     44  H61 UNL     1      15.999  11.308  22.189  1.00  0.00     0.159 HD
ENDBRANCH  29  39
ENDBRANCH  25  26
ENDBRANCH  24  25
ENDBRANCH  23  24
ENDBRANCH   1  23
TORSDOF 15
ENDMDL
MODEL 3
REMARK VINA RESULT: -8.044871434      2.028      4.206
REMARK  15 active torsions:
REMARK  status: ('A' for Active; 'I' for Inactive)
REMARK    1  A    between atoms: C2_2  and  C3_3 
REMARK    2  A    between atoms: C3_3  and  C4_4 
REMARK    3  A    between atoms: C4_4  and  C5_5 
REMARK    4  A    between atoms: N1_8  and  C8_9 
REMARK    5  A    between atoms: C8_9  and  C9_10 
REMARK    6  A    between atoms: C9_10  and  C10_11 
REMARK    7  A    between atoms: C11_12  and  C12_13 
REMARK    8  A    between atoms: C12_13  and  N2_14 
REMARK    9  A    between atoms: N2_14  and  C13_15 
REMARK   10  A    between atoms: N2_14  and  C15_17 
REMARK   11  A    between atoms: C15_17  and  C16_21 
REMARK   12  A    between atoms: C16_21  and  C17_22 
REMARK   13  A    between atoms: C17_22  and  O1_23 
REMARK   14  A    between atoms: O1_23  and  C18_24 
REMARK       I    between atoms: C18_24  and  N4_26 
REMARK   15  A    between atoms: C19_27  and  N5_28 
REMARK       I    between atoms: N5_28  and  C20_29 
ROOT
HETATM    1  C15 UNL     1      17.078   4.014  21.539  1.00  0.00     0.075 C 
HETATM    2  N3  UNL     1      16.312   3.321  22.346  1.00  0.00    -0.389 N 
ATOM      3  H31 UNL     1      15.386   3.698  22.545  1.00  0.00     0.157 HD
ATOM      4  H32 UNL     1      16.654   2.446  22.746  1.00  0.00     0.157 HD
ENDROOT
BRANCH   1   5
HETATM    5  N2  UNL     1      18.353   3.495  21.266  1.00  0.00    -0.361 N 
BRANCH   5   6
HETATM    6  C12 UNL     1      19.560   4.161  21.765  1.00  0.00     0.218 C 
BRANCH   6   7
HETATM    7  C11 UNL     1      19.439   4.432  23.200  1.00  0.00    -0.087 C 
HETATM    8  C10 UNL     1      19.345   4.676  24.376  1.00  0.00    -0.103 C 
BRANCH   8   9
HETATM    9  C9  UNL     1      19.237   5.003  25.808  1.00  0.00     0.114 C 
BRANCH   9  10
HETATM   10  C8  UNL     1      20.564   4.659  26.449  1.00  0.00     0.139 C 
BRANCH  10  11
HETATM   11  N1  UNL     1      21.208   5.863  26.931  1.00  0.00    -0.366 N 
HETATM   12  C7  UNL     1      22.528   5.914  27.161  1.00  0.00     0.091 A 
HETATM   13  C6  UNL     1      23.131   7.089  27.626  1.00  0.00     0.024 A 
HETATM   14  C5  UNL     1      22.391   8.222  27.863  1.00  0.00    -0.056 A 
HETATM   15  C27 UNL     1      21.025   8.152  27.620  1.00  0.00     0.024 A 
HETATM   16  C26 UNL     1      20.467   6.975  27.160  1.00  0.00     0.091 A 
BRANCH  14  17
HETATM   17  C4  UNL     1      22.988   9.489  28.358  1.00  0.00     0.038 C 
BRANCH  17  18
HETATM   18  C3  UNL     1      22.846   9.455  29.875  1.00  0.00     0.004 C 
BRANCH  18  19
HETATM   19  C2  UNL     1      23.429  10.710  30.468  1.00  0.00    -0.004 C 
HETATM   20  C1  UNL     1      24.770  10.384  31.058  1.00  0.00     0.005 C 
ENDBRANCH  18  19
ENDBRANCH  17  18
ENDBRANCH  14  17
ENDBRANCH  10  11
ENDBRANCH   9  10
ENDBRANCH   8   9
ENDBRANCH   6   7
ENDBRANCH   5   6
BRANCH   5  21
HETATM   21  C13 UNL     1      18.551   2.306  20.509  1.00  0.00     0.120 C 
HETATM   22  C14 UNL     1      19.974   1.773  20.635  1.00  0.00     0.026 C 
ENDBRANCH   5  21
ENDBRANCH   1   5
BRANCH   1  23
HETATM   23  C16 UNL     1      16.589   5.266  20.967  1.00  0.00     0.102 C 
BRANCH  23  24
HETATM   24  C17 UNL     1      15.591   6.024  21.763  1.00  0.00     0.188 C 
BRANCH  24  25
HETATM   25  O1  UNL     1      16.064   6.497  23.008  1.00  0.00    -0.303 OA
BRANCH  25  26
HETATM   26  C18 UNL     1      15.293   6.533  24.157  1.00  0.00     0.372 C 
HETATM   27  O2  UNL     1      14.959   5.367  24.567  1.00  0.00    -0.238 OA
HETATM   28  N4  UNL     1      14.888   7.703  24.848  1.00  0.00    -0.230 N 
HETATM   29  C19 UNL     1      14.044   7.502  26.041  1.00  0.00     0.266 C 
HETATM   30  C25 UNL     1      15.218   9.046  24.526  1.00  0.00     0.203 C 
HETATM   31  N8  UNL     1      14.019   8.711  26.897  1.00  0.00    -0.349 N 
HETATM   32  C21 UNL     1      14.047  10.041  26.376  1.00  0.00     0.132 C 
ATOM     33  H8  UNL     1      13.978   8.588  27.909  1.00  0.00     0.163 HD
HETATM   34  C22 UNL     1      14.034   9.937  24.881  1.00  0.00     0.051 C 
HETATM   35  C23 UNL     1      14.479  11.197  24.174  1.00  0.00     0.054 C 
HETATM   36  C24 UNL     1      15.035  10.563  22.930  1.00  0.00     0.058 C 
HETATM   37  N9  UNL     1      15.431   9.371  23.173  1.00  0.00    -0.381 N 
ATOM     38  H9  UNL     1      15.843   8.743  22.482  1.00  0.00     0.160 HD
BRANCH  29  39
HETATM   39  N5  UNL     1      13.467   6.530  26.295  1.00  0.00    -0.339 NA
HETATM   40  C20 UNL     1      12.832   5.386  26.513  1.00  0.00     0.264 C 
HETATM   41  N6  UNL     1      13.319   4.331  27.142  1.00  0.00    -0.362 N 
HETATM   42  N7  UNL     1      11.471   5.143  26.061  1.00  0.00    -0.049 NA
ATOM     43  H62 UNL     1      14.274   4.501  27.459  1.00  0.00     0.159 HD
ATOM     44  H61 UNL     1      12.831   3.451  27.310  1.00  0.00     0.159 HD
ENDBRANCH  29  39
ENDBRANCH  25  26
ENDBRANCH  24  25
ENDBRANCH  23  24
ENDBRANCH   1  23
TORSDOF 15
ENDMDL
MODEL 4
REMARK VINA RESULT: -7.961642235      6.414      8.761
REMARK  15 active torsions:
REMARK  status: ('A' for Active; 'I' for Inactive)
REMARK    1  A    between atoms: C2_2  and  C3_3 
REMARK    2  A    between atoms: C3_3  and  C4_4 
REMARK    3  A    between atoms: C4_4  and  C5_5 
REMARK    4  A    between atoms: N1_8  and  C8_9 
REMARK    5  A    between atoms: C8_9  and  C9_10 
REMARK    6  A    between atoms: C9_10  and  C10_11 
REMARK    7  A    between atoms: C11_12  and  C12_13 
REMARK    8  A    between atoms: C12_13  and  N2_14 
REMARK    9  A    between atoms: N2_14  and  C13_15 
REMARK   10  A    between atoms: N2_14  and  C15_17 
REMARK   11  A    between atoms: C15_17  and  C16_21 
REMARK   12  A    between atoms: C16_21  and  C17_22 
REMARK   13  A    between atoms: C17_22  and  O1_23 
REMARK   14  A    between atoms: O1_23  and  C18_24 
REMARK       I    between atoms: C18_24  and  N4_26 
REMARK   15  A    between atoms: C19_27  and  N5_28 
REMARK       I    between atoms: N5_28  and  C20_29 
ROOT
HETATM    1  C15 UNL     1      17.168   4.258  22.063  1.00  0.00     0.075 C 
HETATM    2  N3  UNL     1      16.533   3.465  22.891  1.00  0.00    -0.389 N 
ATOM      3  H31 UNL     1      16.745   3.565  23.883  1.00  0.00     0.157 HD
ATOM      4  H32 UNL     1      15.863   2.785  22.531  1.00  0.00     0.157 HD
ENDROOT
BRANCH   1   5
HETATM    5  N2  UNL     1      16.877   4.121  20.697  1.00  0.00    -0.361 N 
BRANCH   5   6
HETATM    6  C12 UNL     1      16.302   2.878  20.170  1.00  0.00     0.218 C 
BRANCH   6   7
HETATM    7  C11 UNL     1      17.259   2.204  19.291  1.00  0.00    -0.087 C 
HETATM    8  C10 UNL     1      18.046   1.631  18.580  1.00  0.00    -0.103 C 
BRANCH   8   9
HETATM    9  C9  UNL     1      19.006   0.907  17.730  1.00  0.00     0.114 C 
BRANCH   9  10
HETATM   10  C8  UNL     1      19.680  -0.135  18.598  1.00  0.00     0.139 C 
BRANCH  10  11
HETATM   11  N1  UNL     1      20.777   0.463  19.329  1.00  0.00    -0.366 N 
HETATM   12  C7  UNL     1      20.859   0.389  20.664  1.00  0.00     0.091 A 
HETATM   13  C6  UNL     1      21.930   0.973  21.352  1.00  0.00     0.024 A 
HETATM   14  C5  UNL     1      22.926   1.640  20.681  1.00  0.00    -0.056 A 
HETATM   15  C27 UNL     1      22.825   1.709  19.297  1.00  0.00     0.024 A 
HETATM   16  C26 UNL     1      21.754   1.119  18.655  1.00  0.00     0.091 A 
BRANCH  14  17
HETATM   17  C4  UNL     1      24.079   2.276  21.369  1.00  0.00     0.038 C 
BRANCH  17  18
HETATM   18  C3  UNL     1      23.795   3.774  21.365  1.00  0.00     0.004 C 
BRANCH  18  19
HETATM   19  C2  UNL     1      25.032   4.526  21.780  1.00  0.00    -0.004 C 
HETATM   20  C1  UNL     1      25.721   3.754  22.867  1.00  0.00     0.005 C 
ENDBRANCH  18  19
ENDBRANCH  17  18
ENDBRANCH  14  17
ENDBRANCH  10  11
ENDBRANCH   9  10
ENDBRANCH   8   9
ENDBRANCH   6   7
ENDBRANCH   5   6
BRANCH   5  21
HETATM   21  C13 UNL     1      17.107   5.163  19.755  1.00  0.00     0.120 C 
HETATM   22  C14 UNL     1      15.822   5.609  19.065  1.00  0.00     0.026 C 
ENDBRANCH   5  21
ENDBRANCH   1   5
BRANCH   1  23
HETATM   23  C16 UNL     1      18.129   5.231  22.578  1.00  0.00     0.102 C 
BRANCH  23  24
HETATM   24  C17 UNL     1      17.573   6.472  23.174  1.00  0.00     0.188 C 
BRANCH  24  25
HETATM   25  O1  UNL     1      16.174   6.618  23.039  1.00  0.00    -0.303 OA
BRANCH  25  26
HETATM   26  C18 UNL     1      15.302   6.668  24.112  1.00  0.00     0.372 C 
HETATM   27  O2  UNL     1      14.890   5.510  24.470  1.00  0.00    -0.238 OA
HETATM   28  N4  UNL     1      14.876   7.843  24.781  1.00  0.00    -0.230 N 
HETATM   29  C19 UNL     1      13.919   7.658  25.888  1.00  0.00     0.266 C 
HETATM   30  C25 UNL     1      15.283   9.177  24.513  1.00  0.00     0.203 C 
HETATM   31  N8  UNL     1      13.857   8.857  26.757  1.00  0.00    -0.349 N 
HETATM   32  C21 UNL     1      13.981  10.191  26.263  1.00  0.00     0.132 C 
ATOM     33  H8  UNL     1      13.718   8.722  27.759  1.00  0.00     0.163 HD
HETATM   34  C22 UNL     1      14.103  10.107  24.772  1.00  0.00     0.051 C 
HETATM   35  C23 UNL     1      14.656  11.359  24.130  1.00  0.00     0.054 C 
HETATM   36  C24 UNL     1      15.303  10.720  22.931  1.00  0.00     0.058 C 
HETATM   37  N9  UNL     1      15.631   9.511  23.191  1.00  0.00    -0.381 N 
ATOM     38  H9  UNL     1      16.083   8.877  22.531  1.00  0.00     0.160 HD
BRANCH  29  39
HETATM   39  N5  UNL     1      13.286   6.705  26.072  1.00  0.00    -0.339 NA
HETATM   40  C20 UNL     1      12.544   5.644  26.359  1.00  0.00     0.264 C 
HETATM   41  N6  UNL     1      11.253   5.505  26.116  1.00  0.00    -0.362 N 
HETATM   42  N7  UNL     1      13.084   4.460  27.010  1.00  0.00    -0.049 NA
ATOM     43  H62 UNL     1      10.874   6.335  25.659  1.00  0.00     0.159 HD
ATOM     44  H61 UNL     1      10.682   4.689  26.337  1.00  0.00     0.159 HD
ENDBRANCH  29  39
ENDBRANCH  25  26
ENDBRANCH  24  25
ENDBRANCH  23  24
ENDBRANCH   1  23
TORSDOF 15
ENDMDL
MODEL 5
REMARK VINA RESULT: -7.947857643      6.521      9.670
REMARK  15 active torsions:
REMARK  status: ('A' for Active; 'I' for Inactive)
REMARK    1  A    between atoms: C2_2  and  C3_3 
REMARK    2  A    between atoms: C3_3  and  C4_4 
REMARK    3  A    between atoms: C4_4  and  C5_5 
REMARK    4  A    between atoms: N1_8  and  C8_9 
REMARK    5  A    between atoms: C8_9  and  C9_10 
REMARK    6  A    between atoms: C9_10  and  C10_11 
REMARK    7  A    between atoms: C11_12  and  C12_13 
REMARK    8  A    between atoms: C12_13  and  N2_14 
REMARK    9  A    between atoms: N2_14  and  C13_15 
REMARK   10  A    between atoms: N2_14  and  C15_17 
REMARK   11  A    between atoms: C15_17  and  C16_21 
REMARK   12  A    between atoms: C16_21  and  C17_22 
REMARK   13  A    between atoms: C17_22  and  O1_23 
REMARK   14  A    between atoms: O1_23  and  C18_24 
REMARK       I    between atoms: C18_24  and  N4_26 
REMARK   15  A    between atoms: C19_27  and  N5_28 
REMARK       I    between atoms: N5_28  and  C20_29 
ROOT
HETATM    1  C15 UNL     1      18.157   4.635  22.577  1.00  0.00     0.075 C 
HETATM    2  N3  UNL     1      17.158   4.012  23.152  1.00  0.00    -0.389 N 
ATOM      3  H31 UNL     1      16.928   4.286  24.108  1.00  0.00     0.157 HD
ATOM      4  H32 UNL     1      16.649   3.287  22.645  1.00  0.00     0.157 HD
ENDROOT
BRANCH   1   5
HETATM    5  N2  UNL     1      18.473   4.259  21.263  1.00  0.00    -0.361 N 
BRANCH   5   6
HETATM    6  C12 UNL     1      17.520   4.472  20.168  1.00  0.00     0.218 C 
BRANCH   6   7
HETATM    7  C11 UNL     1      17.121   3.191  19.580  1.00  0.00    -0.087 C 
HETATM    8  C10 UNL     1      16.784   2.148  19.079  1.00  0.00    -0.103 C 
BRANCH   8   9
HETATM    9  C9  UNL     1      16.358   0.889  18.445  1.00  0.00     0.114 C 
BRANCH   9  10
HETATM   10  C8  UNL     1      17.325   0.605  17.316  1.00  0.00     0.139 C 
BRANCH  10  11
HETATM   11  N1  UNL     1      18.674   0.502  17.833  1.00  0.00    -0.366 N 
HETATM   12  C7  UNL     1      19.015  -0.428  18.735  1.00  0.00     0.091 A 
HETATM   13  C6  UNL     1      20.326  -0.511  19.221  1.00  0.00     0.024 A 
HETATM   14  C5  UNL     1      21.299   0.356  18.790  1.00  0.00    -0.056 A 
HETATM   15  C27 UNL     1      20.929   1.314  17.854  1.00  0.00     0.024 A 
HETATM   16  C26 UNL     1      19.626   1.363  17.398  1.00  0.00     0.091 A 
BRANCH  14  17
HETATM   17  C4  UNL     1      22.701   0.306  19.278  1.00  0.00     0.038 C 
BRANCH  17  18
HETATM   18  C3  UNL     1      23.087   1.747  19.595  1.00  0.00     0.004 C 
BRANCH  18  19
HETATM   19  C2  UNL     1      23.556   1.844  21.022  1.00  0.00    -0.004 C 
HETATM   20  C1  UNL     1      23.875   3.279  21.326  1.00  0.00     0.005 C 
ENDBRANCH  18  19
ENDBRANCH  17  18
ENDBRANCH  14  17
ENDBRANCH  10  11
ENDBRANCH   9  10
ENDBRANCH   8   9
ENDBRANCH   6   7
ENDBRANCH   5   6
BRANCH   5  21
HETATM   21  C13 UNL     1      19.719   3.666  20.913  1.00  0.00     0.120 C 
HETATM   22  C14 UNL     1      19.970   2.366  21.668  1.00  0.00     0.026 C 
ENDBRANCH   5  21
ENDBRANCH   1   5
BRANCH   1  23
HETATM   23  C16 UNL     1      18.884   5.673  23.304  1.00  0.00     0.102 C 
BRANCH  23  24
HETATM   24  C17 UNL     1      18.142   6.921  23.614  1.00  0.00     0.188 C 
BRANCH  24  25
HETATM   25  O1  UNL     1      16.747   6.848  23.403  1.00  0.00    -0.303 OA
BRANCH  25  26
HETATM   26  C18 UNL     1      15.814   6.885  24.425  1.00  0.00     0.372 C 
HETATM   27  O2  UNL     1      15.527   5.722  24.876  1.00  0.00    -0.238 OA
HETATM   28  N4  UNL     1      15.210   8.053  24.955  1.00  0.00    -0.230 N 
HETATM   29  C19 UNL     1      14.221   7.850  26.030  1.00  0.00     0.266 C 
HETATM   30  C25 UNL     1      15.466   9.397  24.576  1.00  0.00     0.203 C 
HETATM   31  N8  UNL     1      13.963   9.106  26.773  1.00  0.00    -0.349 N 
HETATM   32  C21 UNL     1      13.952  10.394  26.157  1.00  0.00     0.132 C 
ATOM     33  H8  UNL     1      13.784   9.047  27.776  1.00  0.00     0.163 HD
HETATM   34  C22 UNL     1      14.168  10.189  24.688  1.00  0.00     0.051 C 
HETATM   35  C23 UNL     1      14.601  11.437  23.952  1.00  0.00     0.054 C 
HETATM   36  C24 UNL     1      15.389  10.779  22.853  1.00  0.00     0.058 C 
HETATM   37  N9  UNL     1      15.847   9.650  23.245  1.00  0.00    -0.381 N 
ATOM     38  H9  UNL     1      16.410   9.021  22.672  1.00  0.00     0.160 HD
BRANCH  29  39
HETATM   39  N5  UNL     1      13.700   6.846  26.277  1.00  0.00    -0.339 NA
HETATM   40  C20 UNL     1      13.124   5.669  26.485  1.00  0.00     0.264 C 
HETATM   41  N6  UNL     1      13.696   4.604  27.020  1.00  0.00    -0.362 N 
HETATM   42  N7  UNL     1      11.741   5.395  26.126  1.00  0.00    -0.049 NA
ATOM     43  H62 UNL     1      14.666   4.796  27.271  1.00  0.00     0.159 HD
ATOM     44  H61 UNL     1      13.254   3.699  27.179  1.00  0.00     0.159 HD
ENDBRANCH  29  39
ENDBRANCH  25  26
ENDBRANCH  24  25
ENDBRANCH  23  24
ENDBRANCH   1  23
TORSDOF 15
ENDMDL
