MODEL 1
REMARK VINA RESULT: -7.783359855      0.000      0.000
REMARK  14 active torsions:
REMARK  status: ('A' for Active; 'I' for Inactive)
REMARK    1  A    between atoms: C2_2  and  N1_3 
REMARK    2  A    between atoms: N1_3  and  C3_4 
REMARK       I    between atoms: N1_3  and  C5_6 
REMARK       I    between atoms: C5_6  and  N3_8 
REMARK    3  A    between atoms: N3_8  and  C6_10 
REMARK    4  A    between atoms: C9_13  and  C10_14 
REMARK    5  A    between atoms: C10_14  and  C11_15 
REMARK    6  A    between atoms: C13_19  and  C14_20 
REMARK    7  A    between atoms: C14_20  and  C15_21 
REMARK    8  A    between atoms: C16_24  and  C17_25 
REMARK    9  A    between atoms: C17_25  and  C18_26 
REMARK   10  A    between atoms: C18_26  and  C19_27 
REMARK   11  A    between atoms: C19_27  and  C20_28 
REMARK   12  A    between atoms: C20_28  and  C21_29 
REMARK   13  A    between atoms: C22_32  and  C23_33 
REMARK   14  A    between atoms: C27_38  and  C28_39 
ROOT
HETATM    1  C11 UNL     1      16.649   6.654  23.127  1.00  0.00     0.045 A 
HETATM    2  N4  UNL     1      17.517   7.691  22.903  1.00  0.00    -0.364 N 
ATOM      3  H4  UNL     1      17.590   8.228  22.039  1.00  0.00     0.165 HD
HETATM    4  C12 UNL     1      18.249   7.883  23.998  1.00  0.00     0.100 A 
HETATM    5  C13 UNL     1      17.880   6.985  24.955  1.00  0.00    -0.005 A 
HETATM    6  C27 UNL     1      16.861   6.201  24.400  1.00  0.00     0.015 A 
ENDROOT
BRANCH   5   7
HETATM    7  C14 UNL     1      18.470   6.891  26.252  1.00  0.00     0.043 C 
BRANCH   7   8
HETATM    8  C15 UNL     1      19.720   6.703  26.601  1.00  0.00     0.040 A 
HETATM    9  N5  UNL     1      20.589   7.664  27.030  1.00  0.00    -0.355 N 
HETATM   10  C16 UNL     1      21.788   7.146  27.305  1.00  0.00     0.043 A 
ATOM     11  H5  UNL     1      20.353   8.652  27.129  1.00  0.00     0.166 HD
HETATM   12  C22 UNL     1      21.746   5.792  27.059  1.00  0.00     0.044 A 
HETATM   13  C25 UNL     1      20.440   5.531  26.618  1.00  0.00    -0.019 A 
HETATM   14  C26 UNL     1      20.009   4.151  26.248  1.00  0.00     0.052 C 
BRANCH  10  15
HETATM   15  C17 UNL     1      22.876   7.768  27.742  1.00  0.00     0.004 C 
BRANCH  15  16
HETATM   16  C18 UNL     1      22.794   9.202  28.091  1.00  0.00     0.030 C 
BRANCH  16  17
HETATM   17  C19 UNL     1      22.594   9.377  29.596  1.00  0.00     0.013 C 
BRANCH  17  18
HETATM   18  C20 UNL     1      23.420  10.535  30.114  1.00  0.00     0.100 C 
BRANCH  18  19
HETATM   19  C21 UNL     1      24.520  10.041  30.954  1.00  0.00     0.231 C 
HETATM   20  N6  UNL     1      25.598  10.858  31.325  1.00  0.00    -0.062 NA
HETATM   21  O1  UNL     1      24.513   8.834  31.370  1.00  0.00    -0.277 OA
ENDBRANCH  18  19
ENDBRANCH  17  18
ENDBRANCH  16  17
ENDBRANCH  15  16
ENDBRANCH  10  15
BRANCH  12  22
HETATM   22  C23 UNL     1      22.835   4.837  27.222  1.00  0.00     0.158 C 
HETATM   23  C24 UNL     1      23.171   4.157  28.477  1.00  0.00     0.097 C 
HETATM   24  O2  UNL     1      23.558   4.561  26.206  1.00  0.00    -0.293 OA
ENDBRANCH  12  22
ENDBRANCH   7   8
ENDBRANCH   5   7
BRANCH   6  25
HETATM   25  C28 UNL     1      16.284   5.241  25.049  1.00  0.00     0.114 C 
HETATM   26  N7  UNL     1      14.917   5.168  25.359  1.00  0.00    -0.114 NA
ENDBRANCH   6  25
BRANCH   1  27
HETATM   27  C10 UNL     1      15.788   6.242  22.221  1.00  0.00     0.043 C 
BRANCH  27  28
HETATM   28  C9  UNL     1      16.160   5.200  21.285  1.00  0.00    -0.018 A 
HETATM   29  C8  UNL     1      16.638   5.528  20.051  1.00  0.00     0.016 A 
HETATM   30  C7  UNL     1      16.989   4.503  19.184  1.00  0.00     0.050 A 
HETATM   31  C6  UNL     1      16.847   3.194  19.589  1.00  0.00     0.109 A 
HETATM   32  N8  UNL     1      16.366   2.868  20.829  1.00  0.00    -0.347 N 
HETATM   33  C29 UNL     1      16.033   3.862  21.650  1.00  0.00     0.103 A 
HETATM   34  C30 UNL     1      16.213   1.475  21.245  1.00  0.00     0.157 C 
BRANCH  31  35
HETATM   35  N3  UNL     1      17.198   2.148  18.744  1.00  0.00    -0.317 N 
HETATM   36  C5  UNL     1      18.286   1.613  18.447  1.00  0.00     0.192 C 
HETATM   37  N1  UNL     1      19.563   1.971  18.943  1.00  0.00    -0.356 N 
HETATM   38  N2  UNL     1      18.276   0.503  17.492  1.00  0.00    -0.063 NA
ATOM     39  H3  UNL     1      16.400   1.730  18.267  1.00  0.00     0.170 HD
BRANCH  37  40
HETATM   40  C2  UNL     1      20.480   2.693  18.031  1.00  0.00     0.121 C 
HETATM   41  C1  UNL     1      21.676   1.795  17.723  1.00  0.00     0.026 C 
ENDBRANCH  37  40
BRANCH  37  42
HETATM   42  C3  UNL     1      19.967   1.639  20.273  1.00  0.00     0.121 C 
HETATM   43  C4  UNL     1      20.143   2.867  21.113  1.00  0.00     0.026 C 
ENDBRANCH  37  42
ENDBRANCH  31  35
ENDBRANCH  27  28
ENDBRANCH   1  27
TORSDOF 14
ENDMDL
MODEL 2
REMARK VINA RESULT: -7.699827008      5.287     11.529
REMARK  14 active torsions:
REMARK  status: ('A' for Active; 'I' for Inactive)
REMARK    1  A    between atoms: C2_2  and  N1_3 
REMARK    2  A    between atoms: N1_3  and  C3_4 
REMARK       I    between atoms: N1_3  and  C5_6 
REMARK       I    between atoms: C5_6  and  N3_8 
REMARK    3  A    between atoms: N3_8  and  C6_10 
REMARK    4  A    between atoms: C9_13  and  C10_14 
REMARK    5  A    between atoms: C10_14  and  C11_15 
REMARK    6  A    between atoms: C13_19  and  C14_20 
REMARK    7  A    between atoms: C14_20  and  C15_21 
REMARK    8  A    between atoms: C16_24  and  C17_25 
REMARK    9  A    between atoms: C17_25  and  C18_26 
REMARK   10  A    between atoms: C18_26  and  C19_27 
REMARK   11  A    between atoms: C19_27  and  C20_28 
REMARK   12  A    between atoms: C20_28  and  C21_29 
REMARK   13  A    between atoms: C22_32  and  C23_33 
REMARK   14  A    between atoms: C27_38  and  C28_39 
ROOT
HETATM    1  C11 UNL     1      21.555   7.474  27.698  1.00  0.00     0.045 A 
HETATM    2  N4  UNL     1      22.109   6.426  27.010  1.00  0.00    -0.364 N 
ATOM      3  H4  UNL     1      23.102   6.304  26.810  1.00  0.00     0.165 HD
HETATM    4  C12 UNL     1      21.138   5.591  26.643  1.00  0.00     0.100 A 
HETATM    5  C13 UNL     1      19.938   6.070  27.081  1.00  0.00    -0.005 A 
HETATM    6  C27 UNL     1      20.203   7.270  27.752  1.00  0.00     0.015 A 
ENDROOT
BRANCH   5   7
HETATM    7  C14 UNL     1      18.679   5.438  26.850  1.00  0.00     0.043 C 
BRANCH   7   8
HETATM    8  C15 UNL     1      17.535   5.949  26.463  1.00  0.00     0.040 A 
HETATM    9  N5  UNL     1      17.285   6.541  25.258  1.00  0.00    -0.355 N 
HETATM   10  C16 UNL     1      16.019   6.959  25.177  1.00  0.00     0.043 A 
ATOM     11  H5  UNL     1      17.976   6.651  24.516  1.00  0.00     0.166 HD
HETATM   12  C22 UNL     1      15.379   6.647  26.355  1.00  0.00     0.044 A 
HETATM   13  C25 UNL     1      16.346   6.013  27.150  1.00  0.00    -0.019 A 
HETATM   14  C26 UNL     1      16.019   5.523  28.522  1.00  0.00     0.052 C 
BRANCH  10  15
HETATM   15  C17 UNL     1      15.417   7.575  24.168  1.00  0.00     0.004 C 
BRANCH  15  16
HETATM   16  C18 UNL     1      15.969   8.853  23.671  1.00  0.00     0.030 C 
BRANCH  16  17
HETATM   17  C19 UNL     1      14.848   9.865  23.433  1.00  0.00     0.013 C 
BRANCH  17  18
HETATM   18  C20 UNL     1      14.243  10.311  24.747  1.00  0.00     0.100 C 
BRANCH  18  19
HETATM   19  C21 UNL     1      14.240  11.777  24.835  1.00  0.00     0.231 C 
HETATM   20  N6  UNL     1      13.565  12.461  25.857  1.00  0.00    -0.062 NA
HETATM   21  O1  UNL     1      14.865  12.471  23.964  1.00  0.00    -0.277 OA
ENDBRANCH  18  19
ENDBRANCH  17  18
ENDBRANCH  16  17
ENDBRANCH  15  16
ENDBRANCH  10  15
BRANCH  12  22
HETATM   22  C23 UNL     1      13.989   6.923  26.698  1.00  0.00     0.158 C 
HETATM   23  C24 UNL     1      12.854   6.066  26.342  1.00  0.00     0.097 C 
HETATM   24  O2  UNL     1      13.726   7.985  27.357  1.00  0.00    -0.293 OA
ENDBRANCH  12  22
ENDBRANCH   7   8
ENDBRANCH   5   7
BRANCH   6  25
HETATM   25  C28 UNL     1      19.273   7.989  28.292  1.00  0.00     0.114 C 
HETATM   26  N7  UNL     1      18.864   7.926  29.633  1.00  0.00    -0.114 NA
ENDBRANCH   6  25
BRANCH   1  27
HETATM   27  C10 UNL     1      22.277   8.456  28.195  1.00  0.00     0.043 C 
BRANCH  27  28
HETATM   28  C9  UNL     1      22.468   8.565  29.627  1.00  0.00    -0.018 A 
HETATM   29  C8  UNL     1      22.666   9.787  30.200  1.00  0.00     0.016 A 
HETATM   30  C7  UNL     1      22.841   9.853  31.574  1.00  0.00     0.050 A 
HETATM   31  C6  UNL     1      22.809   8.693  32.318  1.00  0.00     0.109 A 
HETATM   32  N8  UNL     1      22.612   7.467  31.740  1.00  0.00    -0.347 N 
HETATM   33  C29 UNL     1      22.446   7.420  30.420  1.00  0.00     0.103 A 
HETATM   34  C30 UNL     1      22.589   6.244  32.539  1.00  0.00     0.157 C 
BRANCH  31  35
HETATM   35  N3  UNL     1      22.974   8.731  33.697  1.00  0.00    -0.317 N 
HETATM   36  C5  UNL     1      23.963   8.598  34.448  1.00  0.00     0.192 C 
HETATM   37  N1  UNL     1      25.297   8.351  34.045  1.00  0.00    -0.356 N 
HETATM   38  N2  UNL     1      23.755   8.702  35.894  1.00  0.00    -0.063 NA
ATOM     39  H3  UNL     1      22.105   8.903  34.202  1.00  0.00     0.170 HD
BRANCH  37  40
HETATM   40  C2  UNL     1      25.843   6.992  34.262  1.00  0.00     0.121 C 
HETATM   41  C1  UNL     1      26.846   7.041  35.413  1.00  0.00     0.026 C 
ENDBRANCH  37  40
BRANCH  37  42
HETATM   42  C3  UNL     1      26.102   9.378  33.461  1.00  0.00     0.121 C 
HETATM   43  C4  UNL     1      26.509   9.024  32.062  1.00  0.00     0.026 C 
ENDBRANCH  37  42
ENDBRANCH  31  35
ENDBRANCH  27  28
ENDBRANCH   1  27
TORSDOF 14
ENDMDL
MODEL 3
REMARK VINA RESULT: -7.692948547      3.973     11.178
REMARK  14 active torsions:
REMARK  status: ('A' for Active; 'I' for Inactive)
REMARK    1  A    between atoms: C2_2  and  N1_3 
REMARK    2  A    between atoms: N1_3  and  C3_4 
REMARK       I    between atoms: N1_3  and  C5_6 
REMARK       I    between atoms: C5_6  and  N3_8 
REMARK    3  A    between atoms: N3_8  and  C6_10 
REMARK    4  A    between atoms: C9_13  and  C10_14 
REMARK    5  A    between atoms: C10_14  and  C11_15 
REMARK    6  A    between atoms: C13_19  and  C14_20 
REMARK    7  A    between atoms: C14_20  and  C15_21 
REMARK    8  A    between atoms: C16_24  and  C17_25 
REMARK    9  A    between atoms: C17_25  and  C18_26 
REMARK   10  A    between atoms: C18_26  and  C19_27 
REMARK   11  A    between atoms: C19_27  and  C20_28 
REMARK   12  A    between atoms: C20_28  and  C21_29 
REMARK   13  A    between atoms: C22_32  and  C23_33 
REMARK   14  A    between atoms: C27_38  and  C28_39 
ROOT
HETATM    1  C11 UNL     1      21.618   7.519  27.449  1.00  0.00     0.045 A 
HETATM    2  N4  UNL     1      22.527   6.516  27.229  1.00  0.00    -0.364 N 
ATOM      3  H4  UNL     1      23.526   6.566  27.431  1.00  0.00     0.165 HD
HETATM    4  C12 UNL     1      21.894   5.467  26.710  1.00  0.00     0.100 A 
HETATM    5  C13 UNL     1      20.567   5.756  26.580  1.00  0.00    -0.005 A 
HETATM    6  C27 UNL     1      20.391   7.064  27.049  1.00  0.00     0.015 A 
ENDROOT
BRANCH   5   7
HETATM    7  C14 UNL     1      19.591   4.865  26.040  1.00  0.00     0.043 C 
BRANCH   7   8
HETATM    8  C15 UNL     1      18.644   5.081  25.158  1.00  0.00     0.040 A 
HETATM    9  N5  UNL     1      17.347   5.409  25.433  1.00  0.00    -0.355 N 
HETATM   10  C16 UNL     1      16.638   5.560  24.312  1.00  0.00     0.043 A 
ATOM     11  H5  UNL     1      16.969   5.522  26.373  1.00  0.00     0.166 HD
HETATM   12  C22 UNL     1      17.465   5.333  23.236  1.00  0.00     0.044 A 
HETATM   13  C25 UNL     1      18.722   5.034  23.786  1.00  0.00    -0.019 A 
HETATM   14  C26 UNL     1      19.893   4.724  22.915  1.00  0.00     0.052 C 
BRANCH  10  15
HETATM   15  C17 UNL     1      15.355   5.875  24.183  1.00  0.00     0.004 C 
BRANCH  15  16
HETATM   16  C18 UNL     1      14.823   7.042  24.919  1.00  0.00     0.030 C 
BRANCH  16  17
HETATM   17  C19 UNL     1      15.657   8.288  24.624  1.00  0.00     0.013 C 
BRANCH  17  18
HETATM   18  C20 UNL     1      14.919   9.215  23.683  1.00  0.00     0.100 C 
BRANCH  18  19
HETATM   19  C21 UNL     1      14.444  10.403  24.406  1.00  0.00     0.231 C 
HETATM   20  N6  UNL     1      13.948  11.532  23.739  1.00  0.00    -0.062 NA
HETATM   21  O1  UNL     1      14.476  10.429  25.683  1.00  0.00    -0.277 OA
ENDBRANCH  18  19
ENDBRANCH  17  18
ENDBRANCH  16  17
ENDBRANCH  15  16
ENDBRANCH  10  15
BRANCH  12  22
HETATM   22  C23 UNL     1      17.105   5.389  21.825  1.00  0.00     0.158 C 
HETATM   23  C24 UNL     1      16.535   4.276  21.061  1.00  0.00     0.097 C 
HETATM   24  O2  UNL     1      17.296   6.484  21.193  1.00  0.00    -0.293 OA
ENDBRANCH  12  22
ENDBRANCH   7   8
ENDBRANCH   5   7
BRANCH   6  25
HETATM   25  C28 UNL     1      19.239   7.653  27.062  1.00  0.00     0.114 C 
HETATM   26  N7  UNL     1      18.200   7.399  27.971  1.00  0.00    -0.114 NA
ENDBRANCH   6  25
BRANCH   1  27
HETATM   27  C10 UNL     1      21.955   8.680  27.968  1.00  0.00     0.043 C 
BRANCH  27  28
HETATM   28  C9  UNL     1      22.292   8.778  29.373  1.00  0.00    -0.018 A 
HETATM   29  C8  UNL     1      23.088   9.792  29.816  1.00  0.00     0.016 A 
HETATM   30  C7  UNL     1      23.386   9.857  31.170  1.00  0.00     0.050 A 
HETATM   31  C6  UNL     1      22.873   8.904  32.023  1.00  0.00     0.109 A 
HETATM   32  N8  UNL     1      22.075   7.886  31.575  1.00  0.00    -0.347 N 
HETATM   33  C29 UNL     1      21.798   7.837  30.273  1.00  0.00     0.103 A 
HETATM   34  C30 UNL     1      21.543   6.876  32.488  1.00  0.00     0.157 C 
BRANCH  31  35
HETATM   35  N3  UNL     1      23.149   8.949  33.384  1.00  0.00    -0.317 N 
HETATM   36  C5  UNL     1      24.120   8.579  34.076  1.00  0.00     0.192 C 
HETATM   37  N1  UNL     1      25.302   7.959  33.603  1.00  0.00    -0.356 N 
HETATM   38  N2  UNL     1      24.061   8.791  35.523  1.00  0.00    -0.063 NA
ATOM     39  H3  UNL     1      22.401   9.373  33.933  1.00  0.00     0.170 HD
BRANCH  37  40
HETATM   40  C2  UNL     1      25.473   6.512  33.864  1.00  0.00     0.121 C 
HETATM   41  C1  UNL     1      25.008   5.731  32.637  1.00  0.00     0.026 C 
ENDBRANCH  37  40
BRANCH  37  42
HETATM   42  C3  UNL     1      26.307   8.701  32.909  1.00  0.00     0.121 C 
HETATM   43  C4  UNL     1      26.917   9.749  33.790  1.00  0.00     0.026 C 
ENDBRANCH  37  42
ENDBRANCH  31  35
ENDBRANCH  27  28
ENDBRANCH   1  27
TORSDOF 14
ENDMDL
MODEL 4
REMARK VINA RESULT: -7.678965396      5.624      8.458
REMARK  14 active torsions:
REMARK  status: ('A' for Active; 'I' for Inactive)
REMARK    1  A    between atoms: C2_2  and  N1_3 
REMARK    2  A    between atoms: N1_3  and  C3_4 
REMARK       I    between atoms: N1_3  and  C5_6 
REMARK       I    between atoms: C5_6  and  N3_8 
REMARK    3  A    between atoms: N3_8  and  C6_10 
REMARK    4  A    between atoms: C9_13  and  C10_14 
REMARK    5  A    between atoms: C10_14  and  C11_15 
REMARK    6  A    between atoms: C13_19  and  C14_20 
REMARK    7  A    between atoms: C14_20  and  C15_21 
REMARK    8  A    between atoms: C16_24  and  C17_25 
REMARK    9  A    between atoms: C17_25  and  C18_26 
REMARK   10  A    between atoms: C18_26  and  C19_27 
REMARK   11  A    between atoms: C19_27  and  C20_28 
REMARK   12  A    between atoms: C20_28  and  C21_29 
REMARK   13  A    between atoms: C22_32  and  C23_33 
REMARK   14  A    between atoms: C27_38  and  C28_39 
ROOT
HETATM    1  C11 UNL     1      15.524   3.156  18.659  1.00  0.00     0.045 A 
HETATM    2  N4  UNL     1      15.791   4.444  18.270  1.00  0.00    -0.364 N 
ATOM      3  H4  UNL     1      15.489   4.875  17.396  1.00  0.00     0.165 HD
HETATM    4  C12 UNL     1      16.509   5.039  19.219  1.00  0.00     0.100 A 
HETATM    5  C13 UNL     1      16.725   4.164  20.243  1.00  0.00    -0.005 A 
HETATM    6  C27 UNL     1      16.099   2.963  19.885  1.00  0.00     0.015 A 
ENDROOT
BRANCH   5   7
HETATM    7  C14 UNL     1      17.475   4.461  21.421  1.00  0.00     0.043 C 
BRANCH   7   8
HETATM    8  C15 UNL     1      17.143   5.158  22.481  1.00  0.00     0.040 A 
HETATM    9  N5  UNL     1      17.350   6.496  22.662  1.00  0.00    -0.355 N 
HETATM   10  C16 UNL     1      16.897   6.900  23.851  1.00  0.00     0.043 A 
ATOM     11  H5  UNL     1      17.795   7.107  21.978  1.00  0.00     0.166 HD
HETATM   12  C22 UNL     1      16.362   5.815  24.507  1.00  0.00     0.044 A 
HETATM   13  C25 UNL     1      16.524   4.730  23.632  1.00  0.00    -0.019 A 
HETATM   14  C26 UNL     1      16.059   3.361  24.002  1.00  0.00     0.052 C 
BRANCH  10  15
HETATM   15  C17 UNL     1      16.924   8.119  24.374  1.00  0.00     0.004 C 
BRANCH  15  16
HETATM   16  C18 UNL     1      16.233   9.220  23.670  1.00  0.00     0.030 C 
BRANCH  16  17
HETATM   17  C19 UNL     1      14.730   9.171  23.943  1.00  0.00     0.013 C 
BRANCH  17  18
HETATM   18  C20 UNL     1      14.378  10.020  25.146  1.00  0.00     0.100 C 
BRANCH  18  19
HETATM   19  C21 UNL     1      13.985  11.370  24.720  1.00  0.00     0.231 C 
HETATM   20  N6  UNL     1      13.768  12.407  25.639  1.00  0.00    -0.062 NA
HETATM   21  O1  UNL     1      13.829  11.628  23.479  1.00  0.00    -0.277 OA
ENDBRANCH  18  19
ENDBRANCH  17  18
ENDBRANCH  16  17
ENDBRANCH  15  16
ENDBRANCH  10  15
BRANCH  12  22
HETATM   22  C23 UNL     1      15.757   5.802  25.834  1.00  0.00     0.158 C 
HETATM   23  C24 UNL     1      14.330   5.998  26.105  1.00  0.00     0.097 C 
HETATM   24  O2  UNL     1      16.515   5.607  26.844  1.00  0.00    -0.293 OA
ENDBRANCH  12  22
ENDBRANCH   7   8
ENDBRANCH   5   7
BRANCH   6  25
HETATM   25  C28 UNL     1      16.116   1.913  20.641  1.00  0.00     0.114 C 
HETATM   26  N7  UNL     1      17.125   0.938  20.665  1.00  0.00    -0.114 NA
ENDBRANCH   6  25
BRANCH   1  27
HETATM   27  C10 UNL     1      14.820   2.325  17.921  1.00  0.00     0.043 C 
BRANCH  27  28
HETATM   28  C9  UNL     1      13.380   2.255  18.076  1.00  0.00    -0.018 A 
HETATM   29  C8  UNL     1      12.677   3.364  18.441  1.00  0.00     0.016 A 
HETATM   30  C7  UNL     1      11.300   3.260  18.575  1.00  0.00     0.050 A 
HETATM   31  C6  UNL     1      10.685   2.050  18.337  1.00  0.00     0.109 A 
HETATM   32  N8  UNL     1      11.395   0.937  17.972  1.00  0.00    -0.347 N 
HETATM   33  C29 UNL     1      12.715   1.053  17.848  1.00  0.00     0.103 A 
HETATM   34  C30 UNL     1      10.732  -0.343  17.730  1.00  0.00     0.157 C 
BRANCH  31  35
HETATM   35  N3  UNL     1       9.307   1.920  18.456  1.00  0.00    -0.317 N 
HETATM   36  C5  UNL     1       8.351   2.188  17.699  1.00  0.00     0.192 C 
HETATM   37  N1  UNL     1       8.437   2.748  16.402  1.00  0.00    -0.356 N 
HETATM   38  N2  UNL     1       6.993   1.908  18.171  1.00  0.00    -0.063 NA
ATOM     39  H3  UNL     1       9.016   1.521  19.349  1.00  0.00     0.170 HD
BRANCH  37  40
HETATM   40  C2  UNL     1       8.043   4.165  16.235  1.00  0.00     0.121 C 
HETATM   41  C1  UNL     1       7.569   4.380  14.799  1.00  0.00     0.026 C 
ENDBRANCH  37  40
BRANCH  37  42
HETATM   42  C3  UNL     1       8.874   1.975  15.283  1.00  0.00     0.121 C 
HETATM   43  C4  UNL     1       8.133   0.674  15.195  1.00  0.00     0.026 C 
ENDBRANCH  37  42
ENDBRANCH  31  35
ENDBRANCH  27  28
ENDBRANCH   1  27
TORSDOF 14
ENDMDL
MODEL 5
REMARK VINA RESULT: -7.624256030      4.877      7.267
REMARK  14 active torsions:
REMARK  status: ('A' for Active; 'I' for Inactive)
REMARK    1  A    between atoms: C2_2  and  N1_3 
REMARK    2  A    between atoms: N1_3  and  C3_4 
REMARK       I    between atoms: N1_3  and  C5_6 
REMARK       I    between atoms: C5_6  and  N3_8 
REMARK    3  A    between atoms: N3_8  and  C6_10 
REMARK    4  A    between atoms: C9_13  and  C10_14 
REMARK    5  A    between atoms: C10_14  and  C11_15 
REMARK    6  A    between atoms: C13_19  and  C14_20 
REMARK    7  A    between atoms: C14_20  and  C15_21 
REMARK    8  A    between atoms: C16_24  and  C17_25 
REMARK    9  A    between atoms: C17_25  and  C18_26 
REMARK   10  A    between atoms: C18_26  and  C19_27 
REMARK   11  A    between atoms: C19_27  and  C20_28 
REMARK   12  A    between atoms: C20_28  and  C21_29 
REMARK   13  A    between atoms: C22_32  and  C23_33 
REMARK   14  A    between atoms: C27_38  and  C28_39 
ROOT
HETATM    1  C11 UNL     1      17.604   1.940  18.071  1.00  0.00     0.045 A 
HETATM    2  N4  UNL     1      16.415   1.310  18.331  1.00  0.00    -0.364 N 
ATOM      3  H4  UNL     1      16.144   0.388  17.987  1.00  0.00     0.165 HD
HETATM    4  C12 UNL     1      15.670   2.097  19.104  1.00  0.00     0.100 A 
HETATM    5  C13 UNL     1      16.350   3.250  19.367  1.00  0.00    -0.005 A 
HETATM    6  C27 UNL     1      17.581   3.151  18.707  1.00  0.00     0.015 A 
ENDROOT
BRANCH   5   7
HETATM    7  C14 UNL     1      15.844   4.330  20.153  1.00  0.00     0.043 C 
BRANCH   7   8
HETATM    8  C15 UNL     1      16.291   4.839  21.276  1.00  0.00     0.040 A 
HETATM    9  N5  UNL     1      16.699   6.128  21.469  1.00  0.00    -0.355 N 
HETATM   10  C16 UNL     1      17.099   6.326  22.728  1.00  0.00     0.043 A 
ATOM     11  H5  UNL     1      16.699   6.846  20.745  1.00  0.00     0.166 HD
HETATM   12  C22 UNL     1      16.963   5.145  23.421  1.00  0.00     0.044 A 
HETATM   13  C25 UNL     1      16.454   4.222  22.494  1.00  0.00    -0.019 A 
HETATM   14  C26 UNL     1      16.172   2.809  22.884  1.00  0.00     0.052 C 
BRANCH  10  15
HETATM   15  C17 UNL     1      17.558   7.441  23.282  1.00  0.00     0.004 C 
BRANCH  15  16
HETATM   16  C18 UNL     1      16.704   8.174  24.240  1.00  0.00     0.030 C 
BRANCH  16  17
HETATM   17  C19 UNL     1      15.369   8.543  23.595  1.00  0.00     0.013 C 
BRANCH  17  18
HETATM   18  C20 UNL     1      15.285  10.035  23.354  1.00  0.00     0.100 C 
BRANCH  18  19
HETATM   19  C21 UNL     1      14.396  10.661  24.341  1.00  0.00     0.231 C 
HETATM   20  N6  UNL     1      14.173  12.046  24.370  1.00  0.00    -0.062 NA
HETATM   21  O1  UNL     1      13.797   9.941  25.209  1.00  0.00    -0.277 OA
ENDBRANCH  18  19
ENDBRANCH  17  18
ENDBRANCH  16  17
ENDBRANCH  15  16
ENDBRANCH  10  15
BRANCH  12  22
HETATM   22  C23 UNL     1      17.284   4.909  24.823  1.00  0.00     0.158 C 
HETATM   23  C24 UNL     1      16.321   4.980  25.926  1.00  0.00     0.097 C 
HETATM   24  O2  UNL     1      18.490   4.617  25.129  1.00  0.00    -0.293 OA
ENDBRANCH  12  22
ENDBRANCH   7   8
ENDBRANCH   5   7
BRANCH   6  25
HETATM   25  C28 UNL     1      18.473   4.088  18.749  1.00  0.00     0.114 C 
HETATM   26  N7  UNL     1      19.507   4.193  19.692  1.00  0.00    -0.114 NA
ENDBRANCH   6  25
BRANCH   1  27
HETATM   27  C10 UNL     1      18.549   1.396  17.336  1.00  0.00     0.043 C 
BRANCH  27  28
HETATM   28  C9  UNL     1      19.831   1.066  17.926  1.00  0.00    -0.018 A 
HETATM   29  C8  UNL     1      20.950   1.753  17.560  1.00  0.00     0.016 A 
HETATM   30  C7  UNL     1      22.158   1.412  18.150  1.00  0.00     0.050 A 
HETATM   31  C6  UNL     1      22.195   0.398  19.083  1.00  0.00     0.109 A 
HETATM   32  N8  UNL     1      21.070  -0.291  19.447  1.00  0.00    -0.347 N 
HETATM   33  C29 UNL     1      19.918   0.047  18.872  1.00  0.00     0.103 A 
HETATM   34  C30 UNL     1      21.123  -1.370  20.432  1.00  0.00     0.157 C 
BRANCH  31  35
HETATM   35  N3  UNL     1      23.390   0.042  19.695  1.00  0.00    -0.317 N 
HETATM   36  C5  UNL     1      24.000   0.466  20.699  1.00  0.00     0.192 C 
HETATM   37  N1  UNL     1      23.589   1.520  21.549  1.00  0.00    -0.356 N 
HETATM   38  N2  UNL     1      25.270  -0.169  21.058  1.00  0.00    -0.063 NA
ATOM     39  H3  UNL     1      23.869  -0.728  19.228  1.00  0.00     0.170 HD
BRANCH  37  40
HETATM   40  C2  UNL     1      24.310   2.809  21.447  1.00  0.00     0.121 C 
HETATM   41  C1  UNL     1      23.291   3.948  21.481  1.00  0.00     0.026 C 
ENDBRANCH  37  40
BRANCH  37  42
HETATM   42  C3  UNL     1      22.526   1.350  22.489  1.00  0.00     0.121 C 
HETATM   43  C4  UNL     1      23.036   0.847  23.806  1.00  0.00     0.026 C 
ENDBRANCH  37  42
ENDBRANCH  31  35
ENDBRANCH  27  28
ENDBRANCH   1  27
TORSDOF 14
ENDMDL
