MODEL 1
REMARK VINA RESULT: -8.532696491      0.000      0.000
REMARK  15 active torsions:
REMARK  status: ('A' for Active; 'I' for Inactive)
REMARK    1  A    between atoms: C2_2  and  C3_3 
REMARK    2  A    between atoms: C2_2  and  C5_5 
REMARK    3  A    between atoms: C5_5  and  C6_6 
REMARK    4  A    between atoms: C5_5  and  C8_8 
REMARK    5  A    between atoms: C8_8  and  C9_9 
REMARK    6  A    between atoms: C10_10  and  C11_11 
REMARK    7  A    between atoms: C11_11  and  C12_12 
REMARK    8  A    between atoms: C13_13  and  C14_14 
REMARK    9  A    between atoms: C14_14  and  C16_16 
REMARK   10  A    between atoms: C14_14  and  N1_23 
REMARK   11  A    between atoms: C16_16  and  C17_17 
REMARK       I    between atoms: N1_23  and  C23_25 
REMARK   12  A    between atoms: C23_25  and  C24_27 
REMARK   13  A    between atoms: C24_27  and  C25_28 
REMARK   14  A    between atoms: C25_28  and  N2_29 
REMARK   15  A    between atoms: N5_33  and  N6_34 
ROOT
HETATM    1  C14 UNL     1      16.435   7.167  23.973  1.00  0.00     0.097 C 
HETATM    2  C15 UNL     1      17.501   8.230  23.481  1.00  0.00     0.053 C 
ENDROOT
BRANCH   1   3
HETATM    3  C13 UNL     1      16.685   7.077  25.432  1.00  0.00    -0.074 C 
HETATM    4  C12 UNL     1      16.871   7.018  26.620  1.00  0.00    -0.092 C 
BRANCH   4   5
HETATM    5  C11 UNL     1      17.111   6.926  28.059  1.00  0.00     0.187 C 
BRANCH   5   6
HETATM    6  C10 UNL     1      18.436   7.415  28.439  1.00  0.00    -0.095 C 
HETATM    7  C9  UNL     1      19.536   7.809  28.733  1.00  0.00    -0.105 C 
BRANCH   7   8
HETATM    8  C8  UNL     1      20.893   8.279  29.077  1.00  0.00     0.103 C 
BRANCH   8   9
HETATM    9  C5  UNL     1      21.692   8.316  27.793  1.00  0.00     0.024 C 
BRANCH   9  10
HETATM   10  C2  UNL     1      22.172   6.957  27.423  1.00  0.00    -0.085 C 
HETATM   11  C1  UNL     1      23.393   6.568  27.756  1.00  0.00     0.014 C 
BRANCH  10  12
HETATM   12  C3  UNL     1      21.305   6.013  26.679  1.00  0.00     0.029 C 
HETATM   13  C4  UNL     1      22.007   4.688  26.480  1.00  0.00     0.010 C 
ENDBRANCH  10  12
ENDBRANCH   9  10
BRANCH   9  14
HETATM   14  C6  UNL     1      22.926   9.188  27.958  1.00  0.00     0.005 C 
HETATM   15  C7  UNL     1      22.941   9.866  29.308  1.00  0.00     0.006 C 
ENDBRANCH   9  14
ENDBRANCH   8   9
ENDBRANCH   7   8
ENDBRANCH   5   6
ENDBRANCH   4   5
ENDBRANCH   1   3
BRANCH   1  16
HETATM   16  C16 UNL     1      15.146   7.781  23.603  1.00  0.00     0.082 C 
BRANCH  16  17
HETATM   17  C17 UNL     1      14.793   9.086  24.128  1.00  0.00    -0.055 A 
HETATM   18  C18 UNL     1      15.092  10.240  23.437  1.00  0.00     0.007 A 
HETATM   19  C19 UNL     1      14.682  11.460  23.968  1.00  0.00     0.001 A 
HETATM   20  C20 UNL     1      13.990  11.563  25.156  1.00  0.00     0.000 A 
HETATM   21  C21 UNL     1      13.699  10.402  25.836  1.00  0.00     0.001 A 
HETATM   22  C22 UNL     1      14.102   9.199  25.315  1.00  0.00     0.007 A 
ENDBRANCH  16  17
ENDBRANCH   1  16
BRANCH   1  23
HETATM   23  N1  UNL     1      16.825   5.961  23.345  1.00  0.00    -0.341 N 
HETATM   24  C23 UNL     1      16.134   4.715  23.552  1.00  0.00     0.220 C 
HETATM   25  O1  UNL     1      15.151   4.619  24.316  1.00  0.00    -0.274 OA
ATOM     26  H1  UNL     1      17.630   5.976  22.719  1.00  0.00     0.164 HD
BRANCH  24  27
HETATM   27  C24 UNL     1      16.600   3.506  22.838  1.00  0.00     0.134 C 
BRANCH  27  28
HETATM   28  C25 UNL     1      17.772   3.681  21.968  1.00  0.00     0.297 C 
BRANCH  28  29
HETATM   29  N2  UNL     1      17.568   3.913  20.582  1.00  0.00     0.127 N 
HETATM   30  C26 UNL     1      16.548   3.209  19.886  1.00  0.00     0.327 C 
HETATM   31  N3  UNL     1      17.453   5.308  20.318  1.00  0.00     0.105 NA
HETATM   32  N4  UNL     1      18.284   5.035  19.181  1.00  0.00     0.025 NA
HETATM   33  N5  UNL     1      18.811   4.007  19.936  1.00  0.00     0.105 NA
BRANCH  33  34
HETATM   34  N6  UNL     1      19.256   2.942  19.203  1.00  0.00    -0.142 N 
HETATM   35  N7  UNL     1      18.763   2.590  17.942  1.00  0.00    -0.314 N 
HETATM   36  C27 UNL     1      19.717   2.168  16.983  1.00  0.00     0.141 C 
ATOM     37  H7  UNL     1      17.768   2.635  17.724  1.00  0.00     0.182 HD
HETATM   38  C28 UNL     1      21.020   1.666  17.510  1.00  0.00     0.031 C 
HETATM   39  C29 UNL     1      20.731   0.987  18.832  1.00  0.00     0.108 C 
HETATM   40  C30 UNL     1      20.272   2.104  19.739  1.00  0.00     0.256 C 
HETATM   41  O2  UNL     1      20.784   2.241  20.882  1.00  0.00    -0.270 OA
ENDBRANCH  33  34
ENDBRANCH  28  29
ENDBRANCH  27  28
ENDBRANCH  24  27
ENDBRANCH   1  23
TORSDOF 15
ENDMDL
MODEL 2
REMARK VINA RESULT: -8.274144847      2.386      8.148
REMARK  15 active torsions:
REMARK  status: ('A' for Active; 'I' for Inactive)
REMARK    1  A    between atoms: C2_2  and  C3_3 
REMARK    2  A    between atoms: C2_2  and  C5_5 
REMARK    3  A    between atoms: C5_5  and  C6_6 
REMARK    4  A    between atoms: C5_5  and  C8_8 
REMARK    5  A    between atoms: C8_8  and  C9_9 
REMARK    6  A    between atoms: C10_10  and  C11_11 
REMARK    7  A    between atoms: C11_11  and  C12_12 
REMARK    8  A    between atoms: C13_13  and  C14_14 
REMARK    9  A    between atoms: C14_14  and  C16_16 
REMARK   10  A    between atoms: C14_14  and  N1_23 
REMARK   11  A    between atoms: C16_16  and  C17_17 
REMARK       I    between atoms: N1_23  and  C23_25 
REMARK   12  A    between atoms: C23_25  and  C24_27 
REMARK   13  A    between atoms: C24_27  and  C25_28 
REMARK   14  A    between atoms: C25_28  and  N2_29 
REMARK   15  A    between atoms: N5_33  and  N6_34 
ROOT
HETATM    1  C14 UNL     1      17.165   3.166  21.254  1.00  0.00     0.097 C 
HETATM    2  C15 UNL     1      16.557   1.772  21.696  1.00  0.00     0.053 C 
ENDROOT
BRANCH   1   3
HETATM    3  C13 UNL     1      18.581   3.077  21.685  1.00  0.00    -0.074 C 
HETATM    4  C12 UNL     1      19.737   3.021  22.020  1.00  0.00    -0.092 C 
BRANCH   4   5
HETATM    5  C11 UNL     1      21.132   2.939  22.449  1.00  0.00     0.187 C 
BRANCH   5   6
HETATM    6  C10 UNL     1      21.324   3.395  23.825  1.00  0.00    -0.095 C 
HETATM    7  C9  UNL     1      21.495   3.787  24.951  1.00  0.00    -0.105 C 
BRANCH   7   8
HETATM    8  C8  UNL     1      21.718   4.283  26.323  1.00  0.00     0.103 C 
BRANCH   8   9
HETATM    9  C5  UNL     1      21.042   5.632  26.427  1.00  0.00     0.024 C 
BRANCH   9  10
HETATM   10  C2  UNL     1      21.905   6.608  27.145  1.00  0.00    -0.085 C 
HETATM   11  C1  UNL     1      23.150   6.288  27.467  1.00  0.00     0.014 C 
BRANCH  10  12
HETATM   12  C3  UNL     1      21.401   7.951  27.516  1.00  0.00     0.029 C 
HETATM   13  C4  UNL     1      22.547   8.873  27.869  1.00  0.00     0.010 C 
ENDBRANCH  10  12
ENDBRANCH   9  10
BRANCH   9  14
HETATM   14  C6  UNL     1      19.749   5.522  27.220  1.00  0.00     0.005 C 
HETATM   15  C7  UNL     1      19.866   4.486  28.314  1.00  0.00     0.006 C 
ENDBRANCH   9  14
ENDBRANCH   8   9
ENDBRANCH   7   8
ENDBRANCH   5   6
ENDBRANCH   4   5
ENDBRANCH   1   3
BRANCH   1  16
HETATM   16  C16 UNL     1      16.962   3.178  19.794  1.00  0.00     0.082 C 
BRANCH  16  17
HETATM   17  C17 UNL     1      17.997   2.664  18.918  1.00  0.00    -0.055 A 
HETATM   18  C18 UNL     1      19.007   3.477  18.451  1.00  0.00     0.007 A 
HETATM   19  C19 UNL     1      20.001   2.915  17.655  1.00  0.00     0.001 A 
HETATM   20  C20 UNL     1      20.018   1.579  17.312  1.00  0.00     0.000 A 
HETATM   21  C21 UNL     1      19.002   0.779  17.785  1.00  0.00     0.001 A 
HETATM   22  C22 UNL     1      18.022   1.330  18.570  1.00  0.00     0.007 A 
ENDBRANCH  16  17
ENDBRANCH   1  16
BRANCH   1  23
HETATM   23  N1  UNL     1      16.482   4.115  22.049  1.00  0.00    -0.341 N 
HETATM   24  C23 UNL     1      16.604   5.535  21.846  1.00  0.00     0.220 C 
HETATM   25  O1  UNL     1      17.338   6.019  20.959  1.00  0.00    -0.274 OA
ATOM     26  H1  UNL     1      15.877   3.778  22.798  1.00  0.00     0.164 HD
BRANCH  24  27
HETATM   27  C24 UNL     1      15.836   6.456  22.713  1.00  0.00     0.134 C 
BRANCH  27  28
HETATM   28  C25 UNL     1      16.540   6.958  23.903  1.00  0.00     0.297 C 
BRANCH  28  29
HETATM   29  N2  UNL     1      15.782   7.290  25.057  1.00  0.00     0.127 N 
HETATM   30  C26 UNL     1      14.450   6.817  25.193  1.00  0.00     0.327 C 
HETATM   31  N3  UNL     1      16.518   6.999  26.242  1.00  0.00     0.105 NA
HETATM   32  N4  UNL     1      16.018   8.256  26.715  1.00  0.00     0.025 NA
HETATM   33  N5  UNL     1      16.001   8.637  25.389  1.00  0.00     0.105 NA
BRANCH  33  34
HETATM   34  N6  UNL     1      15.038   9.558  25.080  1.00  0.00    -0.142 N 
HETATM   35  N7  UNL     1      13.936   9.851  25.890  1.00  0.00    -0.314 N 
HETATM   36  C27 UNL     1      13.569  11.214  25.993  1.00  0.00     0.141 C 
ATOM     37  H7  UNL     1      13.423   9.119  26.382  1.00  0.00     0.182 HD
HETATM   38  C28 UNL     1      14.027  12.117  24.896  1.00  0.00     0.031 C 
HETATM   39  C29 UNL     1      14.039  11.296  23.624  1.00  0.00     0.108 C 
HETATM   40  C30 UNL     1      15.121  10.266  23.849  1.00  0.00     0.256 C 
HETATM   41  O2  UNL     1      16.012  10.084  22.976  1.00  0.00    -0.270 OA
ENDBRANCH  33  34
ENDBRANCH  28  29
ENDBRANCH  27  28
ENDBRANCH  24  27
ENDBRANCH   1  23
TORSDOF 15
ENDMDL
MODEL 3
REMARK VINA RESULT: -8.251937655      3.737      9.061
REMARK  15 active torsions:
REMARK  status: ('A' for Active; 'I' for Inactive)
REMARK    1  A    between atoms: C2_2  and  C3_3 
REMARK    2  A    between atoms: C2_2  and  C5_5 
REMARK    3  A    between atoms: C5_5  and  C6_6 
REMARK    4  A    between atoms: C5_5  and  C8_8 
REMARK    5  A    between atoms: C8_8  and  C9_9 
REMARK    6  A    between atoms: C10_10  and  C11_11 
REMARK    7  A    between atoms: C11_11  and  C12_12 
REMARK    8  A    between atoms: C13_13  and  C14_14 
REMARK    9  A    between atoms: C14_14  and  C16_16 
REMARK   10  A    between atoms: C14_14  and  N1_23 
REMARK   11  A    between atoms: C16_16  and  C17_17 
REMARK       I    between atoms: N1_23  and  C23_25 
REMARK   12  A    between atoms: C23_25  and  C24_27 
REMARK   13  A    between atoms: C24_27  and  C25_28 
REMARK   14  A    between atoms: C25_28  and  N2_29 
REMARK   15  A    between atoms: N5_33  and  N6_34 
ROOT
HETATM    1  C14 UNL     1      16.385   3.203  20.269  1.00  0.00     0.097 C 
HETATM    2  C15 UNL     1      15.178   2.216  19.991  1.00  0.00     0.053 C 
ENDROOT
BRANCH   1   3
HETATM    3  C13 UNL     1      17.322   2.383  21.075  1.00  0.00    -0.074 C 
HETATM    4  C12 UNL     1      18.069   1.700  21.726  1.00  0.00    -0.092 C 
BRANCH   4   5
HETATM    5  C11 UNL     1      18.996   0.889  22.515  1.00  0.00     0.187 C 
BRANCH   5   6
HETATM    6  C10 UNL     1      20.372   0.974  22.026  1.00  0.00    -0.095 C 
HETATM    7  C9  UNL     1      21.497   1.041  21.604  1.00  0.00    -0.105 C 
BRANCH   7   8
HETATM    8  C8  UNL     1      22.870   1.117  21.065  1.00  0.00     0.103 C 
BRANCH   8   9
HETATM    9  C5  UNL     1      23.797   1.368  22.234  1.00  0.00     0.024 C 
BRANCH   9  10
HETATM   10  C2  UNL     1      23.903   2.822  22.529  1.00  0.00    -0.085 C 
HETATM   11  C1  UNL     1      23.736   3.267  23.765  1.00  0.00     0.014 C 
BRANCH  10  12
HETATM   12  C3  UNL     1      24.196   3.803  21.457  1.00  0.00     0.029 C 
HETATM   13  C4  UNL     1      25.396   4.649  21.821  1.00  0.00     0.010 C 
ENDBRANCH  10  12
ENDBRANCH   9  10
BRANCH   9  14
HETATM   14  C6  UNL     1      25.201   0.880  21.915  1.00  0.00     0.005 C 
HETATM   15  C7  UNL     1      25.169  -0.456  21.211  1.00  0.00     0.006 C 
ENDBRANCH   9  14
ENDBRANCH   8   9
ENDBRANCH   7   8
ENDBRANCH   5   6
ENDBRANCH   4   5
ENDBRANCH   1   3
BRANCH   1  16
HETATM   16  C16 UNL     1      16.865   3.542  18.917  1.00  0.00     0.082 C 
BRANCH  16  17
HETATM   17  C17 UNL     1      18.106   2.972  18.429  1.00  0.00    -0.055 A 
HETATM   18  C18 UNL     1      19.307   3.626  18.594  1.00  0.00     0.007 A 
HETATM   19  C19 UNL     1      20.471   3.005  18.150  1.00  0.00     0.001 A 
HETATM   20  C20 UNL     1      20.474   1.763  17.551  1.00  0.00     0.000 A 
HETATM   21  C21 UNL     1      19.266   1.120  17.392  1.00  0.00     0.001 A 
HETATM   22  C22 UNL     1      18.118   1.731  17.829  1.00  0.00     0.007 A 
ENDBRANCH  16  17
ENDBRANCH   1  16
BRANCH   1  23
HETATM   23  N1  UNL     1      15.826   4.222  21.074  1.00  0.00    -0.341 N 
HETATM   24  C23 UNL     1      16.577   5.371  21.511  1.00  0.00     0.220 C 
HETATM   25  O1  UNL     1      17.780   5.529  21.217  1.00  0.00    -0.274 OA
ATOM     26  H1  UNL     1      14.849   4.141  21.356  1.00  0.00     0.164 HD
BRANCH  24  27
HETATM   27  C24 UNL     1      15.906   6.400  22.335  1.00  0.00     0.134 C 
BRANCH  27  28
HETATM   28  C25 UNL     1      16.686   6.933  23.462  1.00  0.00     0.297 C 
BRANCH  28  29
HETATM   29  N2  UNL     1      16.023   7.198  24.690  1.00  0.00     0.127 N 
HETATM   30  C26 UNL     1      14.733   6.655  24.933  1.00  0.00     0.327 C 
HETATM   31  N3  UNL     1      16.878   6.917  25.794  1.00  0.00     0.105 NA
HETATM   32  N4  UNL     1      16.363   8.136  26.346  1.00  0.00     0.025 NA
HETATM   33  N5  UNL     1      16.206   8.547  25.038  1.00  0.00     0.105 NA
BRANCH  33  34
HETATM   34  N6  UNL     1      15.175   9.424  24.844  1.00  0.00    -0.142 N 
HETATM   35  N7  UNL     1      14.073   9.549  25.695  1.00  0.00    -0.314 N 
HETATM   36  C27 UNL     1      13.614  10.864  25.952  1.00  0.00     0.141 C 
ATOM     37  H7  UNL     1      13.622   8.734  26.111  1.00  0.00     0.182 HD
HETATM   38  C28 UNL     1      13.985  11.910  24.954  1.00  0.00     0.031 C 
HETATM   39  C29 UNL     1      14.028  11.234  23.600  1.00  0.00     0.108 C 
HETATM   40  C30 UNL     1      15.184  10.265  23.696  1.00  0.00     0.256 C 
HETATM   41  O2  UNL     1      16.066  10.242  22.798  1.00  0.00    -0.270 OA
ENDBRANCH  33  34
ENDBRANCH  28  29
ENDBRANCH  27  28
ENDBRANCH  24  27
ENDBRANCH   1  23
TORSDOF 15
ENDMDL
MODEL 4
REMARK VINA RESULT: -8.184654158      3.007      7.890
REMARK  15 active torsions:
REMARK  status: ('A' for Active; 'I' for Inactive)
REMARK    1  A    between atoms: C2_2  and  C3_3 
REMARK    2  A    between atoms: C2_2  and  C5_5 
REMARK    3  A    between atoms: C5_5  and  C6_6 
REMARK    4  A    between atoms: C5_5  and  C8_8 
REMARK    5  A    between atoms: C8_8  and  C9_9 
REMARK    6  A    between atoms: C10_10  and  C11_11 
REMARK    7  A    between atoms: C11_11  and  C12_12 
REMARK    8  A    between atoms: C13_13  and  C14_14 
REMARK    9  A    between atoms: C14_14  and  C16_16 
REMARK   10  A    between atoms: C14_14  and  N1_23 
REMARK   11  A    between atoms: C16_16  and  C17_17 
REMARK       I    between atoms: N1_23  and  C23_25 
REMARK   12  A    between atoms: C23_25  and  C24_27 
REMARK   13  A    between atoms: C24_27  and  C25_28 
REMARK   14  A    between atoms: C25_28  and  N2_29 
REMARK   15  A    between atoms: N5_33  and  N6_34 
ROOT
HETATM    1  C14 UNL     1      21.376   3.220  24.448  1.00  0.00     0.097 C 
HETATM    2  C15 UNL     1      20.566   2.091  25.208  1.00  0.00     0.053 C 
ENDROOT
BRANCH   1   3
HETATM    3  C13 UNL     1      22.179   3.852  25.522  1.00  0.00    -0.074 C 
HETATM    4  C12 UNL     1      22.841   4.376  26.380  1.00  0.00    -0.092 C 
BRANCH   4   5
HETATM    5  C11 UNL     1      23.629   5.005  27.439  1.00  0.00     0.187 C 
BRANCH   5   6
HETATM    6  C10 UNL     1      23.317   6.425  27.602  1.00  0.00    -0.095 C 
HETATM    7  C9  UNL     1      23.060   7.596  27.714  1.00  0.00    -0.105 C 
BRANCH   7   8
HETATM    8  C8  UNL     1      22.747   9.035  27.829  1.00  0.00     0.103 C 
BRANCH   8   9
HETATM    9  C5  UNL     1      21.854   9.203  29.039  1.00  0.00     0.024 C 
BRANCH   9  10
HETATM   10  C2  UNL     1      22.659   9.432  30.268  1.00  0.00    -0.085 C 
HETATM   11  C1  UNL     1      23.393  10.528  30.392  1.00  0.00     0.014 C 
BRANCH  10  12
HETATM   12  C3  UNL     1      22.663   8.449  31.378  1.00  0.00     0.029 C 
HETATM   13  C4  UNL     1      24.036   7.840  31.548  1.00  0.00     0.010 C 
ENDBRANCH  10  12
ENDBRANCH   9  10
BRANCH   9  14
HETATM   14  C6  UNL     1      21.035   7.944  29.277  1.00  0.00     0.005 C 
HETATM   15  C7  UNL     1      19.581   8.165  28.935  1.00  0.00     0.006 C 
ENDBRANCH   9  14
ENDBRANCH   8   9
ENDBRANCH   7   8
ENDBRANCH   5   6
ENDBRANCH   4   5
ENDBRANCH   1   3
BRANCH   1  16
HETATM   16  C16 UNL     1      22.160   2.464  23.453  1.00  0.00     0.082 C 
BRANCH  16  17
HETATM   17  C17 UNL     1      23.433   2.984  22.993  1.00  0.00    -0.055 A 
HETATM   18  C18 UNL     1      24.624   2.505  23.494  1.00  0.00     0.007 A 
HETATM   19  C19 UNL     1      25.815   3.006  22.977  1.00  0.00     0.001 A 
HETATM   20  C20 UNL     1      25.854   3.964  21.985  1.00  0.00     0.000 A 
HETATM   21  C21 UNL     1      24.657   4.435  21.495  1.00  0.00     0.001 A 
HETATM   22  C22 UNL     1      23.482   3.941  22.003  1.00  0.00     0.007 A 
ENDBRANCH  16  17
ENDBRANCH   1  16
BRANCH   1  23
HETATM   23  N1  UNL     1      20.384   4.121  23.997  1.00  0.00    -0.341 N 
HETATM   24  C23 UNL     1      19.688   3.955  22.748  1.00  0.00     0.220 C 
HETATM   25  O1  UNL     1      19.930   3.006  21.974  1.00  0.00    -0.274 OA
ATOM     26  H1  UNL     1      20.152   4.924  24.583  1.00  0.00     0.164 HD
BRANCH  24  27
HETATM   27  C24 UNL     1      18.650   4.937  22.365  1.00  0.00     0.134 C 
BRANCH  27  28
HETATM   28  C25 UNL     1      17.716   5.337  23.428  1.00  0.00     0.297 C 
BRANCH  28  29
HETATM   29  N2  UNL     1      17.580   6.716  23.737  1.00  0.00     0.127 N 
HETATM   30  C26 UNL     1      18.387   7.301  24.751  1.00  0.00     0.327 C 
HETATM   31  N3  UNL     1      17.652   7.506  22.553  1.00  0.00     0.105 NA
HETATM   32  N4  UNL     1      16.564   8.244  23.127  1.00  0.00     0.025 NA
HETATM   33  N5  UNL     1      16.219   7.061  23.749  1.00  0.00     0.105 NA
BRANCH  33  34
HETATM   34  N6  UNL     1      15.589   7.221  24.952  1.00  0.00    -0.142 N 
HETATM   35  N7  UNL     1      15.658   8.380  25.732  1.00  0.00    -0.314 N 
HETATM   36  C27 UNL     1      14.459   8.796  26.359  1.00  0.00     0.141 C 
ATOM     37  H7  UNL     1      16.529   8.900  25.843  1.00  0.00     0.182 HD
HETATM   38  C28 UNL     1      13.408   7.754  26.554  1.00  0.00     0.031 C 
HETATM   39  C29 UNL     1      14.125   6.442  26.793  1.00  0.00     0.108 C 
HETATM   40  C30 UNL     1      14.822   6.148  25.485  1.00  0.00     0.256 C 
HETATM   41  O2  UNL     1      14.702   5.016  24.945  1.00  0.00    -0.270 OA
ENDBRANCH  33  34
ENDBRANCH  28  29
ENDBRANCH  27  28
ENDBRANCH  24  27
ENDBRANCH   1  23
TORSDOF 15
ENDMDL
MODEL 5
REMARK VINA RESULT: -8.175845688      0.938      1.968
REMARK  15 active torsions:
REMARK  status: ('A' for Active; 'I' for Inactive)
REMARK    1  A    between atoms: C2_2  and  C3_3 
REMARK    2  A    between atoms: C2_2  and  C5_5 
REMARK    3  A    between atoms: C5_5  and  C6_6 
REMARK    4  A    between atoms: C5_5  and  C8_8 
REMARK    5  A    between atoms: C8_8  and  C9_9 
REMARK    6  A    between atoms: C10_10  and  C11_11 
REMARK    7  A    between atoms: C11_11  and  C12_12 
REMARK    8  A    between atoms: C13_13  and  C14_14 
REMARK    9  A    between atoms: C14_14  and  C16_16 
REMARK   10  A    between atoms: C14_14  and  N1_23 
REMARK   11  A    between atoms: C16_16  and  C17_17 
REMARK       I    between atoms: N1_23  and  C23_25 
REMARK   12  A    between atoms: C23_25  and  C24_27 
REMARK   13  A    between atoms: C24_27  and  C25_28 
REMARK   14  A    between atoms: C25_28  and  N2_29 
REMARK   15  A    between atoms: N5_33  and  N6_34 
ROOT
HETATM    1  C14 UNL     1      16.460   7.232  23.879  1.00  0.00     0.097 C 
HETATM    2  C15 UNL     1      17.515   8.278  23.329  1.00  0.00     0.053 C 
ENDROOT
BRANCH   1   3
HETATM    3  C13 UNL     1      16.757   7.174  25.330  1.00  0.00    -0.074 C 
HETATM    4  C12 UNL     1      17.003   7.106  26.507  1.00  0.00    -0.092 C 
BRANCH   4   5
HETATM    5  C11 UNL     1      17.302   7.048  27.937  1.00  0.00     0.187 C 
BRANCH   5   6
HETATM    6  C10 UNL     1      18.725   7.235  28.220  1.00  0.00    -0.095 C 
HETATM    7  C9  UNL     1      19.894   7.375  28.471  1.00  0.00    -0.105 C 
BRANCH   7   8
HETATM    8  C8  UNL     1      21.325   7.535  28.798  1.00  0.00     0.103 C 
BRANCH   8   9
HETATM    9  C5  UNL     1      21.417   8.532  29.931  1.00  0.00     0.024 C 
BRANCH   9  10
HETATM   10  C2  UNL     1      22.496   9.525  29.683  1.00  0.00    -0.085 C 
HETATM   11  C1  UNL     1      23.005   9.667  28.468  1.00  0.00     0.014 C 
BRANCH  10  12
HETATM   12  C3  UNL     1      23.026  10.374  30.776  1.00  0.00     0.029 C 
HETATM   13  C4  UNL     1      24.536  10.312  30.817  1.00  0.00     0.010 C 
ENDBRANCH  10  12
ENDBRANCH   9  10
BRANCH   9  14
HETATM   14  C6  UNL     1      21.759   7.828  31.235  1.00  0.00     0.005 C 
HETATM   15  C7  UNL     1      22.690   6.662  30.999  1.00  0.00     0.006 C 
ENDBRANCH   9  14
ENDBRANCH   8   9
ENDBRANCH   7   8
ENDBRANCH   5   6
ENDBRANCH   4   5
ENDBRANCH   1   3
BRANCH   1  16
HETATM   16  C16 UNL     1      15.163   7.845  23.536  1.00  0.00     0.082 C 
BRANCH  16  17
HETATM   17  C17 UNL     1      14.805   9.133  24.096  1.00  0.00    -0.055 A 
HETATM   18  C18 UNL     1      15.064  10.304  23.419  1.00  0.00     0.007 A 
HETATM   19  C19 UNL     1      14.650  11.507  23.984  1.00  0.00     0.001 A 
HETATM   20  C20 UNL     1      13.993  11.577  25.194  1.00  0.00     0.000 A 
HETATM   21  C21 UNL     1      13.741  10.398  25.861  1.00  0.00     0.001 A 
HETATM   22  C22 UNL     1      14.148   9.212  25.305  1.00  0.00     0.007 A 
ENDBRANCH  16  17
ENDBRANCH   1  16
BRANCH   1  23
HETATM   23  N1  UNL     1      16.825   6.011  23.266  1.00  0.00    -0.341 N 
HETATM   24  C23 UNL     1      16.127   4.776  23.512  1.00  0.00     0.220 C 
HETATM   25  O1  UNL     1      15.160   4.704  24.298  1.00  0.00    -0.274 OA
ATOM     26  H1  UNL     1      17.617   6.005  22.623  1.00  0.00     0.164 HD
BRANCH  24  27
HETATM   27  C24 UNL     1      16.565   3.548  22.812  1.00  0.00     0.134 C 
BRANCH  27  28
HETATM   28  C25 UNL     1      17.748   3.685  21.949  1.00  0.00     0.297 C 
BRANCH  28  29
HETATM   29  N2  UNL     1      17.561   3.910  20.560  1.00  0.00     0.127 N 
HETATM   30  C26 UNL     1      16.546   3.207  19.857  1.00  0.00     0.327 C 
HETATM   31  N3  UNL     1      17.457   5.304  20.287  1.00  0.00     0.105 NA
HETATM   32  N4  UNL     1      18.299   5.021  19.161  1.00  0.00     0.025 NA
HETATM   33  N5  UNL     1      18.812   3.995  19.927  1.00  0.00     0.105 NA
BRANCH  33  34
HETATM   34  N6  UNL     1      19.261   2.923  19.206  1.00  0.00    -0.142 N 
HETATM   35  N7  UNL     1      18.790   2.574  17.935  1.00  0.00    -0.314 N 
HETATM   36  C27 UNL     1      19.758   2.140  16.997  1.00  0.00     0.141 C 
ATOM     37  H7  UNL     1      17.800   2.630  17.697  1.00  0.00     0.182 HD
HETATM   38  C28 UNL     1      21.045   1.624  17.551  1.00  0.00     0.031 C 
HETATM   39  C29 UNL     1      20.721   0.951  18.868  1.00  0.00     0.108 C 
HETATM   40  C30 UNL     1      20.256   2.075  19.764  1.00  0.00     0.256 C 
HETATM   41  O2  UNL     1      20.746   2.208  20.917  1.00  0.00    -0.270 OA
ENDBRANCH  33  34
ENDBRANCH  28  29
ENDBRANCH  27  28
ENDBRANCH  24  27
ENDBRANCH   1  23
TORSDOF 15
ENDMDL
