MODEL 1
REMARK VINA RESULT: -7.140499603      0.000      0.000
REMARK  4 active torsions:
REMARK  status: ('A' for Active; 'I' for Inactive)
REMARK    1  A    between atoms: O1_2  and  C2_3 
REMARK    2  A    between atoms: C4_5  and  C5_6 
REMARK    3  A    between atoms: C12_17  and  C13_18 
REMARK    4  A    between atoms: C13_18  and  N1_20 
ROOT
HETATM    1  C2  UNL     1     -12.198  13.238 -18.308  1.00  0.00     0.089 A 
HETATM    2  C3  UNL     1     -13.191  12.313 -18.207  1.00  0.00     0.051 A 
HETATM    3  C4  UNL     1     -14.331  12.463 -17.376  1.00  0.00     0.025 A 
HETATM    4  C6  UNL     1     -14.394  13.609 -16.656  1.00  0.00     0.063 A 
HETATM    5  C7  UNL     1     -13.375  14.595 -16.741  1.00  0.00     0.104 A 
HETATM    6  C8  UNL     1     -12.294  14.387 -17.567  1.00  0.00     0.078 A 
HETATM    7 BR1  UNL     1     -10.918  15.695 -17.696  1.00  0.00    -0.045 Br
HETATM    8  O2  UNL     1     -13.351  15.783 -16.061  1.00  0.00    -0.344 OA
HETATM    9  C9  UNL     1     -14.096  16.383 -15.058  1.00  0.00     0.217 C 
HETATM   10  C10 UNL     1     -15.552  16.074 -15.053  1.00  0.00     0.007 A 
HETATM   11  C11 UNL     1     -16.549  16.976 -14.690  1.00  0.00     0.052 A 
HETATM   12  C12 UNL     1     -17.737  16.294 -14.812  1.00  0.00     0.114 A 
HETATM   13  O3  UNL     1     -17.525  15.064 -15.217  1.00  0.00    -0.303 OA
HETATM   14  C16 UNL     1     -16.227  14.913 -15.366  1.00  0.00     0.135 A 
HETATM   15  C17 UNL     1     -15.572  13.671 -15.809  1.00  0.00     0.220 C 
HETATM   16  O4  UNL     1     -16.049  12.600 -15.439  1.00  0.00    -0.284 OA
ENDROOT
BRANCH  12  17
HETATM   17  C13 UNL     1     -19.075  16.863 -14.527  1.00  0.00     0.132 C 
HETATM   18  S1  UNL     1     -19.989  17.483 -15.725  1.00  0.00    -0.058 SA
BRANCH  17  19
HETATM   19  N1  UNL     1     -19.571  16.875 -13.208  1.00  0.00    -0.378 N 
HETATM   20  C14 UNL     1     -19.807  15.644 -12.512  1.00  0.00     0.150 C 
HETATM   21  C15 UNL     1     -19.849  18.123 -12.537  1.00  0.00     0.150 C 
ENDBRANCH  17  19
ENDBRANCH  12  17
BRANCH   3  22
HETATM   22  C5  UNL     1     -15.349  11.449 -17.378  1.00  0.00     0.388 C 
HETATM   23  F1  UNL     1     -16.039  11.394 -18.625  1.00  0.00    -0.209 F 
HETATM   24  F2  UNL     1     -14.548  10.288 -17.637  1.00  0.00    -0.209 F 
ENDBRANCH   3  22
BRANCH   1  25
HETATM   25  O1  UNL     1     -11.089  13.025 -19.156  1.00  0.00    -0.354 OA
HETATM   26  C1  UNL     1     -11.114  11.900 -20.021  1.00  0.00     0.210 C 
ENDBRANCH   1  25
TORSDOF 4
ENDMDL
MODEL 2
REMARK VINA RESULT: -7.064974123      1.005      1.228
REMARK  4 active torsions:
REMARK  status: ('A' for Active; 'I' for Inactive)
REMARK    1  A    between atoms: O1_2  and  C2_3 
REMARK    2  A    between atoms: C4_5  and  C5_6 
REMARK    3  A    between atoms: C12_17  and  C13_18 
REMARK    4  A    between atoms: C13_18  and  N1_20 
ROOT
HETATM    1  C2  UNL     1     -12.307  13.036 -18.197  1.00  0.00     0.089 A 
HETATM    2  C3  UNL     1     -13.233  12.052 -18.036  1.00  0.00     0.051 A 
HETATM    3  C4  UNL     1     -14.319  12.129 -17.126  1.00  0.00     0.025 A 
HETATM    4  C6  UNL     1     -14.399  13.266 -16.393  1.00  0.00     0.063 A 
HETATM    5  C7  UNL     1     -13.450  14.312 -16.539  1.00  0.00     0.104 A 
HETATM    6  C8  UNL     1     -12.419  14.173 -17.441  1.00  0.00     0.078 A 
HETATM    7 BR1  UNL     1     -11.136  15.562 -17.653  1.00  0.00    -0.045 Br
HETATM    8  O2  UNL     1     -13.449  15.495 -15.852  1.00  0.00    -0.344 OA
HETATM    9  C9  UNL     1     -14.155  16.044 -14.794  1.00  0.00     0.217 C 
HETATM   10  C10 UNL     1     -15.587  15.648 -14.689  1.00  0.00     0.007 A 
HETATM   11  C11 UNL     1     -16.608  16.487 -14.249  1.00  0.00     0.052 A 
HETATM   12  C12 UNL     1     -17.759  15.735 -14.295  1.00  0.00     0.114 A 
HETATM   13  O3  UNL     1     -17.503  14.523 -14.725  1.00  0.00    -0.303 OA
HETATM   14  C16 UNL     1     -16.212  14.450 -14.966  1.00  0.00     0.135 A 
HETATM   15  C17 UNL     1     -15.517  13.253 -15.465  1.00  0.00     0.220 C 
HETATM   16  O4  UNL     1     -15.902  12.152 -15.073  1.00  0.00    -0.284 OA
ENDROOT
BRANCH  12  17
HETATM   17  C13 UNL     1     -19.105  16.221 -13.911  1.00  0.00     0.132 C 
HETATM   18  S1  UNL     1     -19.912  15.546 -12.667  1.00  0.00    -0.058 SA
BRANCH  17  19
HETATM   19  N1  UNL     1     -19.704  17.278 -14.625  1.00  0.00    -0.378 N 
HETATM   20  C14 UNL     1     -19.453  17.438 -16.027  1.00  0.00     0.150 C 
HETATM   21  C15 UNL     1     -20.579  18.213 -13.959  1.00  0.00     0.150 C 
ENDBRANCH  17  19
ENDBRANCH  12  17
BRANCH   3  22
HETATM   22  C5  UNL     1     -15.273  11.056 -17.067  1.00  0.00     0.388 C 
HETATM   23  F1  UNL     1     -16.259  11.167 -18.091  1.00  0.00    -0.209 F 
HETATM   24  F2  UNL     1     -14.531  10.023 -17.730  1.00  0.00    -0.209 F 
ENDBRANCH   3  22
BRANCH   1  25
HETATM   25  O1  UNL     1     -11.249  12.894 -19.123  1.00  0.00    -0.354 OA
HETATM   26  C1  UNL     1     -11.317  11.830 -20.059  1.00  0.00     0.210 C 
ENDBRANCH   1  25
TORSDOF 4
ENDMDL
MODEL 3
REMARK VINA RESULT: -6.718340079      5.232      9.174
REMARK  4 active torsions:
REMARK  status: ('A' for Active; 'I' for Inactive)
REMARK    1  A    between atoms: O1_2  and  C2_3 
REMARK    2  A    between atoms: C4_5  and  C5_6 
REMARK    3  A    between atoms: C12_17  and  C13_18 
REMARK    4  A    between atoms: C13_18  and  N1_20 
ROOT
HETATM    1  C2  UNL     1     -22.171  19.992 -13.539  1.00  0.00     0.089 A 
HETATM    2  C3  UNL     1     -21.656  19.586 -12.347  1.00  0.00     0.051 A 
HETATM    3  C4  UNL     1     -20.670  18.574 -12.214  1.00  0.00     0.025 A 
HETATM    4  C6  UNL     1     -20.245  18.005 -13.369  1.00  0.00     0.063 A 
HETATM    5  C7  UNL     1     -20.761  18.408 -14.629  1.00  0.00     0.104 A 
HETATM    6  C8  UNL     1     -21.717  19.397 -14.687  1.00  0.00     0.078 A 
HETATM    7 BR1  UNL     1     -22.423  19.953 -16.365  1.00  0.00    -0.045 Br
HETATM    8  O2  UNL     1     -20.394  17.901 -15.846  1.00  0.00    -0.344 OA
HETATM    9  C9  UNL     1     -19.607  16.855 -16.302  1.00  0.00     0.217 C 
HETATM   10  C10 UNL     1     -18.412  16.528 -15.477  1.00  0.00     0.007 A 
HETATM   11  C11 UNL     1     -17.193  16.094 -15.991  1.00  0.00     0.052 A 
HETATM   12  C12 UNL     1     -16.374  15.897 -14.903  1.00  0.00     0.114 A 
HETATM   13  O3  UNL     1     -17.008  16.178 -13.790  1.00  0.00    -0.303 OA
HETATM   14  C16 UNL     1     -18.226  16.557 -14.111  1.00  0.00     0.135 A 
HETATM   15  C17 UNL     1     -19.262  16.960 -13.146  1.00  0.00     0.220 C 
HETATM   16  O4  UNL     1     -19.308  16.373 -12.065  1.00  0.00    -0.284 OA
ENDROOT
BRANCH  12  17
HETATM   17  C13 UNL     1     -14.969  15.430 -14.972  1.00  0.00     0.132 C 
HETATM   18  S1  UNL     1     -13.735  16.470 -14.749  1.00  0.00    -0.058 SA
BRANCH  17  19
HETATM   19  N1  UNL     1     -14.687  14.075 -15.236  1.00  0.00    -0.378 N 
HETATM   20  C14 UNL     1     -13.405  13.689 -15.747  1.00  0.00     0.150 C 
HETATM   21  C15 UNL     1     -15.681  13.056 -14.995  1.00  0.00     0.150 C 
ENDBRANCH  17  19
ENDBRANCH  12  17
BRANCH   3  22
HETATM   22  C5  UNL     1     -20.154  18.252 -10.913  1.00  0.00     0.388 C 
HETATM   23  F1  UNL     1     -19.269  19.259 -10.430  1.00  0.00    -0.209 F 
HETATM   24  F2  UNL     1     -21.258  18.665 -10.095  1.00  0.00    -0.209 F 
ENDBRANCH   3  22
BRANCH   1  25
HETATM   25  O1  UNL     1     -23.153  21.007 -13.600  1.00  0.00    -0.354 OA
HETATM   26  C1  UNL     1     -23.171  21.981 -12.569  1.00  0.00     0.210 C 
ENDBRANCH   1  25
TORSDOF 4
ENDMDL
MODEL 4
REMARK VINA RESULT: -6.664662068      5.008      9.058
REMARK  4 active torsions:
REMARK  status: ('A' for Active; 'I' for Inactive)
REMARK    1  A    between atoms: O1_2  and  C2_3 
REMARK    2  A    between atoms: C4_5  and  C5_6 
REMARK    3  A    between atoms: C12_17  and  C13_18 
REMARK    4  A    between atoms: C13_18  and  N1_20 
ROOT
HETATM    1  C2  UNL     1     -22.578  18.901 -13.365  1.00  0.00     0.089 A 
HETATM    2  C3  UNL     1     -21.998  19.586 -14.388  1.00  0.00     0.051 A 
HETATM    3  C4  UNL     1     -20.675  19.355 -14.846  1.00  0.00     0.025 A 
HETATM    4  C6  UNL     1     -19.984  18.387 -14.196  1.00  0.00     0.063 A 
HETATM    5  C7  UNL     1     -20.561  17.653 -13.127  1.00  0.00     0.104 A 
HETATM    6  C8  UNL     1     -21.851  17.927 -12.732  1.00  0.00     0.078 A 
HETATM    7 BR1  UNL     1     -22.645  16.955 -11.301  1.00  0.00    -0.045 Br
HETATM    8  O2  UNL     1     -19.949  16.656 -12.416  1.00  0.00    -0.344 OA
HETATM    9  C9  UNL     1     -18.676  16.116 -12.334  1.00  0.00     0.217 C 
HETATM   10  C10 UNL     1     -17.895  16.091 -13.602  1.00  0.00     0.007 A 
HETATM   11  C11 UNL     1     -17.007  15.081 -13.962  1.00  0.00     0.052 A 
HETATM   12  C12 UNL     1     -16.496  15.447 -15.186  1.00  0.00     0.114 A 
HETATM   13  O3  UNL     1     -17.008  16.589 -15.578  1.00  0.00    -0.303 OA
HETATM   14  C16 UNL     1     -17.845  16.990 -14.646  1.00  0.00     0.135 A 
HETATM   15  C17 UNL     1     -18.631  18.234 -14.702  1.00  0.00     0.220 C 
HETATM   16  O4  UNL     1     -18.112  19.225 -15.213  1.00  0.00    -0.284 OA
ENDROOT
BRANCH  12  17
HETATM   17  C13 UNL     1     -15.504  14.664 -15.959  1.00  0.00     0.132 C 
HETATM   18  S1  UNL     1     -15.842  13.150 -16.456  1.00  0.00    -0.058 SA
BRANCH  17  19
HETATM   19  N1  UNL     1     -14.250  15.225 -16.272  1.00  0.00    -0.378 N 
HETATM   20  C14 UNL     1     -13.676  15.038 -17.572  1.00  0.00     0.150 C 
HETATM   21  C15 UNL     1     -13.524  15.998 -15.292  1.00  0.00     0.150 C 
ENDBRANCH  17  19
ENDBRANCH  12  17
BRANCH   3  22
HETATM   22  C5  UNL     1     -20.172  20.099 -15.967  1.00  0.00     0.388 C 
HETATM   23  F1  UNL     1     -20.356  19.396 -17.194  1.00  0.00    -0.209 F 
HETATM   24  F2  UNL     1     -21.266  21.000 -16.184  1.00  0.00    -0.209 F 
ENDBRANCH   3  22
BRANCH   1  25
HETATM   25  O1  UNL     1     -23.902  19.183 -12.960  1.00  0.00    -0.354 OA
HETATM   26  C1  UNL     1     -24.344  20.530 -13.009  1.00  0.00     0.210 C 
ENDBRANCH   1  25
TORSDOF 4
ENDMDL
MODEL 5
REMARK VINA RESULT: -6.629826433      4.483      7.776
REMARK  4 active torsions:
REMARK  status: ('A' for Active; 'I' for Inactive)
REMARK    1  A    between atoms: O1_2  and  C2_3 
REMARK    2  A    between atoms: C4_5  and  C5_6 
REMARK    3  A    between atoms: C12_17  and  C13_18 
REMARK    4  A    between atoms: C13_18  and  N1_20 
ROOT
HETATM    1  C2  UNL     1     -16.529  16.129 -14.646  1.00  0.00     0.089 A 
HETATM    2  C3  UNL     1     -15.214  16.480 -14.638  1.00  0.00     0.051 A 
HETATM    3  C4  UNL     1     -14.185  15.711 -15.240  1.00  0.00     0.025 A 
HETATM    4  C6  UNL     1     -14.580  14.565 -15.848  1.00  0.00     0.063 A 
HETATM    5  C7  UNL     1     -15.944  14.172 -15.877  1.00  0.00     0.104 A 
HETATM    6  C8  UNL     1     -16.893  14.965 -15.272  1.00  0.00     0.078 A 
HETATM    7 BR1  UNL     1     -18.727  14.457 -15.299  1.00  0.00    -0.045 Br
HETATM    8  O2  UNL     1     -16.440  13.042 -16.468  1.00  0.00    -0.344 OA
HETATM    9  C9  UNL     1     -15.916  11.907 -17.065  1.00  0.00     0.217 C 
HETATM   10  C10 UNL     1     -14.643  12.092 -17.814  1.00  0.00     0.007 A 
HETATM   11  C11 UNL     1     -14.307  11.410 -18.981  1.00  0.00     0.052 A 
HETATM   12  C12 UNL     1     -13.057  11.863 -19.336  1.00  0.00     0.114 A 
HETATM   13  O3  UNL     1     -12.627  12.755 -18.477  1.00  0.00    -0.303 OA
HETATM   14  C16 UNL     1     -13.559  12.906 -17.560  1.00  0.00     0.135 A 
HETATM   15  C17 UNL     1     -13.466  13.822 -16.411  1.00  0.00     0.220 C 
HETATM   16  O4  UNL     1     -12.368  13.975 -15.879  1.00  0.00    -0.284 OA
ENDROOT
BRANCH  12  17
HETATM   17  C13 UNL     1     -12.296  11.408 -20.523  1.00  0.00     0.132 C 
HETATM   18  S1  UNL     1     -13.066  10.790 -21.819  1.00  0.00    -0.058 SA
BRANCH  17  19
HETATM   19  N1  UNL     1     -10.891  11.506 -20.542  1.00  0.00    -0.378 N 
HETATM   20  C14 UNL     1     -10.090  10.569 -19.810  1.00  0.00     0.150 C 
HETATM   21  C15 UNL     1     -10.235  12.548 -21.295  1.00  0.00     0.150 C 
ENDBRANCH  17  19
ENDBRANCH  12  17
BRANCH   3  22
HETATM   22  C5  UNL     1     -12.832  16.194 -15.219  1.00  0.00     0.388 C 
HETATM   23  F1  UNL     1     -12.777  17.616 -15.312  1.00  0.00    -0.209 F 
HETATM   24  F2  UNL     1     -12.574  16.159 -13.809  1.00  0.00    -0.209 F 
ENDBRANCH   3  22
BRANCH   1  25
HETATM   25  O1  UNL     1     -17.503  16.942 -14.026  1.00  0.00    -0.354 OA
HETATM   26  C1  UNL     1     -17.795  18.201 -14.613  1.00  0.00     0.210 C 
ENDBRANCH   1  25
TORSDOF 4
ENDMDL
