MODEL 1
REMARK VINA RESULT: -7.909351667      0.000      0.000
REMARK  3 active torsions:
REMARK  status: ('A' for Active; 'I' for Inactive)
REMARK    1  A    between atoms: C4_4  and  S1_5 
REMARK    2  A    between atoms: S1_5  and  N1_8 
REMARK    3  A    between atoms: N3_19  and  C11_20 
ROOT
HETATM    1  C1  UNL     1     -20.436  14.835 -15.412  1.00  0.00     0.070 C 
HETATM    2  C2  UNL     1     -19.069  15.389 -15.107  1.00  0.00     0.034 A 
HETATM    3  C3  UNL     1     -17.845  14.817 -15.371  1.00  0.00     0.071 A 
HETATM    4  C4  UNL     1     -16.892  15.700 -14.907  1.00  0.00     0.166 A 
HETATM    5  N2  UNL     1     -17.559  16.750 -14.394  1.00  0.00    -0.281 N 
ATOM      6  H2  UNL     1     -17.117  17.568 -13.975  1.00  0.00     0.188 HD
HETATM    7  N3  UNL     1     -18.864  16.576 -14.506  1.00  0.00    -0.257 N 
ENDROOT
BRANCH   4   8
HETATM    8  S1  UNL     1     -15.171  15.529 -14.955  1.00  0.00     0.284 S 
HETATM    9  O1  UNL     1     -14.556  16.882 -15.135  1.00  0.00    -0.198 OA
HETATM   10  O2  UNL     1     -14.716  15.009 -13.600  1.00  0.00    -0.198 OA
BRANCH   8  11
HETATM   11  N1  UNL     1     -14.627  14.476 -16.204  1.00  0.00    -0.235 N 
HETATM   12  C5  UNL     1     -15.562  14.121 -17.248  1.00  0.00     0.176 C 
HETATM   13  C6  UNL     1     -14.995  13.291 -18.342  1.00  0.00     0.137 C 
HETATM   14  C7  UNL     1     -15.527  11.873 -18.266  1.00  0.00     0.041 C 
HETATM   15  O3  UNL     1     -13.650  13.357 -18.541  1.00  0.00    -0.370 OA
HETATM   16  C8  UNL     1     -12.847  13.246 -17.439  1.00  0.00     0.211 C 
HETATM   17  C9  UNL     1     -12.465  11.809 -17.111  1.00  0.00     0.050 C 
HETATM   18  C10 UNL     1     -13.326  13.951 -16.257  1.00  0.00     0.262 C 
HETATM   19  O4  UNL     1     -12.560  14.090 -15.276  1.00  0.00    -0.269 OA
ENDBRANCH   8  11
ENDBRANCH   4   8
BRANCH   7  20
HETATM   20  C11 UNL     1     -19.901  17.447 -14.079  1.00  0.00     0.100 A 
HETATM   21  C12 UNL     1     -20.372  18.468 -14.870  1.00  0.00     0.066 A 
HETATM   22 CL1  UNL     1     -19.665  18.700 -16.455  1.00  0.00    -0.082 Cl
HETATM   23  C13 UNL     1     -21.382  19.314 -14.459  1.00  0.00     0.050 A 
HETATM   24  C14 UNL     1     -21.952  19.155 -13.229  1.00  0.00     0.037 A 
HETATM   25 CL2  UNL     1     -23.231  20.263 -12.761  1.00  0.00    -0.084 Cl
HETATM   26  C15 UNL     1     -21.511  18.139 -12.392  1.00  0.00     0.050 A 
HETATM   27  C16 UNL     1     -20.497  17.305 -12.828  1.00  0.00     0.066 A 
HETATM   28 CL3  UNL     1     -19.920  16.015 -11.801  1.00  0.00    -0.082 Cl
ENDBRANCH   7  20
TORSDOF 3
ENDMDL
MODEL 2
REMARK VINA RESULT: -7.901284853      1.776      2.448
REMARK  3 active torsions:
REMARK  status: ('A' for Active; 'I' for Inactive)
REMARK    1  A    between atoms: C4_4  and  S1_5 
REMARK    2  A    between atoms: S1_5  and  N1_8 
REMARK    3  A    between atoms: N3_19  and  C11_20 
ROOT
HETATM    1  C1  UNL     1     -17.778  19.907 -14.140  1.00  0.00     0.070 C 
HETATM    2  C2  UNL     1     -18.062  18.447 -14.378  1.00  0.00     0.034 A 
HETATM    3  C3  UNL     1     -17.164  17.449 -14.683  1.00  0.00     0.071 A 
HETATM    4  C4  UNL     1     -17.898  16.288 -14.807  1.00  0.00     0.166 A 
HETATM    5  N2  UNL     1     -19.182  16.618 -14.577  1.00  0.00    -0.281 N 
ATOM      6  H2  UNL     1     -19.962  15.961 -14.598  1.00  0.00     0.188 HD
HETATM    7  N3  UNL     1     -19.294  17.909 -14.319  1.00  0.00    -0.257 N 
ENDROOT
BRANCH   4   8
HETATM    8  S1  UNL     1     -17.321  14.700 -15.186  1.00  0.00     0.284 S 
HETATM    9  O1  UNL     1     -17.326  13.875 -13.937  1.00  0.00    -0.198 OA
HETATM   10  O2  UNL     1     -18.312  14.061 -16.148  1.00  0.00    -0.198 OA
BRANCH   8  11
HETATM   11  N1  UNL     1     -15.744  14.697 -15.877  1.00  0.00    -0.235 N 
HETATM   12  C5  UNL     1     -15.615  14.335 -17.271  1.00  0.00     0.176 C 
HETATM   13  C6  UNL     1     -14.241  14.450 -17.823  1.00  0.00     0.137 C 
HETATM   14  C7  UNL     1     -13.649  13.077 -18.072  1.00  0.00     0.041 C 
HETATM   15  O3  UNL     1     -13.387  15.305 -17.195  1.00  0.00    -0.370 OA
HETATM   16  C8  UNL     1     -13.311  15.226 -15.831  1.00  0.00     0.211 C 
HETATM   17  C9  UNL     1     -12.265  14.234 -15.340  1.00  0.00     0.050 C 
HETATM   18  C10 UNL     1     -14.587  15.031 -15.156  1.00  0.00     0.262 C 
HETATM   19  O4  UNL     1     -14.647  15.165 -13.912  1.00  0.00    -0.269 OA
ENDBRANCH   8  11
ENDBRANCH   4   8
BRANCH   7  20
HETATM   20  C11 UNL     1     -20.476  18.644 -14.036  1.00  0.00     0.100 A 
HETATM   21  C12 UNL     1     -21.182  19.300 -15.017  1.00  0.00     0.066 A 
HETATM   22 CL1  UNL     1     -20.598  19.228 -16.666  1.00  0.00    -0.082 Cl
HETATM   23  C13 UNL     1     -22.332  20.012 -14.746  1.00  0.00     0.050 A 
HETATM   24  C14 UNL     1     -22.811  20.084 -13.470  1.00  0.00     0.037 A 
HETATM   25 CL2  UNL     1     -24.278  21.006 -13.187  1.00  0.00    -0.084 Cl
HETATM   26  C15 UNL     1     -22.134  19.439 -12.444  1.00  0.00     0.050 A 
HETATM   27  C16 UNL     1     -20.983  18.732 -12.741  1.00  0.00     0.066 A 
HETATM   28 CL3  UNL     1     -20.108  17.906 -11.475  1.00  0.00    -0.082 Cl
ENDBRANCH   7  20
TORSDOF 3
ENDMDL
MODEL 3
REMARK VINA RESULT: -7.899792775      1.774      2.976
REMARK  3 active torsions:
REMARK  status: ('A' for Active; 'I' for Inactive)
REMARK    1  A    between atoms: C4_4  and  S1_5 
REMARK    2  A    between atoms: S1_5  and  N1_8 
REMARK    3  A    between atoms: N3_19  and  C11_20 
ROOT
HETATM    1  C1  UNL     1     -17.779  19.901 -14.143  1.00  0.00     0.070 C 
HETATM    2  C2  UNL     1     -18.066  18.443 -14.392  1.00  0.00     0.034 A 
HETATM    3  C3  UNL     1     -17.168  17.441 -14.680  1.00  0.00     0.071 A 
HETATM    4  C4  UNL     1     -17.905  16.284 -14.823  1.00  0.00     0.166 A 
HETATM    5  N2  UNL     1     -19.192  16.621 -14.620  1.00  0.00    -0.281 N 
ATOM      6  H2  UNL     1     -19.975  15.969 -14.660  1.00  0.00     0.188 HD
HETATM    7  N3  UNL     1     -19.303  17.912 -14.361  1.00  0.00    -0.257 N 
ENDROOT
BRANCH   4   8
HETATM    8  S1  UNL     1     -17.330  14.694 -15.194  1.00  0.00     0.284 S 
HETATM    9  O1  UNL     1     -17.332  13.876 -13.940  1.00  0.00    -0.198 OA
HETATM   10  O2  UNL     1     -18.323  14.049 -16.150  1.00  0.00    -0.198 OA
BRANCH   8  11
HETATM   11  N1  UNL     1     -15.754  14.687 -15.888  1.00  0.00    -0.235 N 
HETATM   12  C5  UNL     1     -15.627  14.312 -17.279  1.00  0.00     0.176 C 
HETATM   13  C6  UNL     1     -14.254  14.423 -17.835  1.00  0.00     0.137 C 
HETATM   14  C7  UNL     1     -13.661  13.048 -18.072  1.00  0.00     0.041 C 
HETATM   15  O3  UNL     1     -13.400  15.285 -17.217  1.00  0.00    -0.370 OA
HETATM   16  C8  UNL     1     -13.322  15.219 -15.852  1.00  0.00     0.211 C 
HETATM   17  C9  UNL     1     -12.273  14.233 -15.354  1.00  0.00     0.050 C 
HETATM   18  C10 UNL     1     -14.596  15.029 -15.173  1.00  0.00     0.262 C 
HETATM   19  O4  UNL     1     -14.653  15.175 -13.930  1.00  0.00    -0.269 OA
ENDBRANCH   8  11
ENDBRANCH   4   8
BRANCH   7  20
HETATM   20  C11 UNL     1     -20.486  18.653 -14.102  1.00  0.00     0.100 A 
HETATM   21  C12 UNL     1     -21.043  18.727 -12.846  1.00  0.00     0.066 A 
HETATM   22 CL1  UNL     1     -20.265  17.876 -11.529  1.00  0.00    -0.082 Cl
HETATM   23  C13 UNL     1     -22.191  19.448 -12.591  1.00  0.00     0.050 A 
HETATM   24  C14 UNL     1     -22.817  20.123 -13.599  1.00  0.00     0.037 A 
HETATM   25 CL2  UNL     1     -24.275  21.021 -13.212  1.00  0.00    -0.084 Cl
HETATM   26  C15 UNL     1     -22.295  20.078 -14.884  1.00  0.00     0.050 A 
HETATM   27  C16 UNL     1     -21.143  19.348 -15.115  1.00  0.00     0.066 A 
HETATM   28 CL3  UNL     1     -20.458  19.273 -16.720  1.00  0.00    -0.082 Cl
ENDBRANCH   7  20
TORSDOF 3
ENDMDL
MODEL 4
REMARK VINA RESULT: -7.818712315      0.149      1.730
REMARK  3 active torsions:
REMARK  status: ('A' for Active; 'I' for Inactive)
REMARK    1  A    between atoms: C4_4  and  S1_5 
REMARK    2  A    between atoms: S1_5  and  N1_8 
REMARK    3  A    between atoms: N3_19  and  C11_20 
ROOT
HETATM    1  C1  UNL     1     -20.495  14.925 -15.418  1.00  0.00     0.070 C 
HETATM    2  C2  UNL     1     -19.132  15.488 -15.111  1.00  0.00     0.034 A 
HETATM    3  C3  UNL     1     -17.904  14.911 -15.351  1.00  0.00     0.071 A 
HETATM    4  C4  UNL     1     -16.957  15.805 -14.897  1.00  0.00     0.166 A 
HETATM    5  N2  UNL     1     -17.630  16.865 -14.412  1.00  0.00    -0.281 N 
ATOM      6  H2  UNL     1     -17.193  17.692 -14.006  1.00  0.00     0.188 HD
HETATM    7  N3  UNL     1     -18.934  16.687 -14.534  1.00  0.00    -0.257 N 
ENDROOT
BRANCH   4   8
HETATM    8  S1  UNL     1     -15.235  15.636 -14.925  1.00  0.00     0.284 S 
HETATM    9  O1  UNL     1     -14.620  16.989 -15.096  1.00  0.00    -0.198 OA
HETATM   10  O2  UNL     1     -14.796  15.114 -13.564  1.00  0.00    -0.198 OA
BRANCH   8  11
HETATM   11  N1  UNL     1     -14.676  14.584 -16.168  1.00  0.00    -0.235 N 
HETATM   12  C5  UNL     1     -15.600  14.225 -17.220  1.00  0.00     0.176 C 
HETATM   13  C6  UNL     1     -15.020  13.397 -18.308  1.00  0.00     0.137 C 
HETATM   14  C7  UNL     1     -15.546  11.976 -18.237  1.00  0.00     0.041 C 
HETATM   15  O3  UNL     1     -13.673  13.470 -18.496  1.00  0.00    -0.370 OA
HETATM   16  C8  UNL     1     -12.879  13.363 -17.387  1.00  0.00     0.211 C 
HETATM   17  C9  UNL     1     -12.493  11.927 -17.055  1.00  0.00     0.050 C 
HETATM   18  C10 UNL     1     -13.372  14.066 -16.210  1.00  0.00     0.262 C 
HETATM   19  O4  UNL     1     -12.614  14.209 -15.222  1.00  0.00    -0.269 OA
ENDBRANCH   8  11
ENDBRANCH   4   8
BRANCH   7  20
HETATM   20  C11 UNL     1     -19.976  17.565 -14.134  1.00  0.00     0.100 A 
HETATM   21  C12 UNL     1     -20.607  17.445 -12.918  1.00  0.00     0.066 A 
HETATM   22 CL1  UNL     1     -20.108  16.166 -11.833  1.00  0.00    -0.082 Cl
HETATM   23  C13 UNL     1     -21.618  18.299 -12.525  1.00  0.00     0.050 A 
HETATM   24  C14 UNL     1     -22.026  19.306 -13.351  1.00  0.00     0.037 A 
HETATM   25 CL2  UNL     1     -23.317  20.358 -12.796  1.00  0.00    -0.084 Cl
HETATM   26  C15 UNL     1     -21.420  19.468 -14.590  1.00  0.00     0.050 A 
HETATM   27  C16 UNL     1     -20.410  18.599 -14.960  1.00  0.00     0.066 A 
HETATM   28 CL3  UNL     1     -19.625  18.776 -16.511  1.00  0.00    -0.082 Cl
ENDBRANCH   7  20
TORSDOF 3
ENDMDL
MODEL 5
REMARK VINA RESULT: -7.785224531      1.797      3.300
REMARK  3 active torsions:
REMARK  status: ('A' for Active; 'I' for Inactive)
REMARK    1  A    between atoms: C4_4  and  S1_5 
REMARK    2  A    between atoms: S1_5  and  N1_8 
REMARK    3  A    between atoms: N3_19  and  C11_20 
ROOT
HETATM    1  C1  UNL     1     -17.441  19.872 -14.171  1.00  0.00     0.070 C 
HETATM    2  C2  UNL     1     -17.641  18.405 -14.449  1.00  0.00     0.034 A 
HETATM    3  C3  UNL     1     -16.683  17.463 -14.751  1.00  0.00     0.071 A 
HETATM    4  C4  UNL     1     -17.351  16.268 -14.920  1.00  0.00     0.166 A 
HETATM    5  N2  UNL     1     -18.656  16.524 -14.718  1.00  0.00    -0.281 N 
ATOM      6  H2  UNL     1     -19.399  15.829 -14.775  1.00  0.00     0.188 HD
HETATM    7  N3  UNL     1     -18.844  17.802 -14.435  1.00  0.00    -0.257 N 
ENDROOT
BRANCH   4   8
HETATM    8  S1  UNL     1     -16.681  14.722 -15.317  1.00  0.00     0.284 S 
HETATM    9  O1  UNL     1     -17.110  13.730 -14.282  1.00  0.00    -0.198 OA
HETATM   10  O2  UNL     1     -17.287  14.276 -16.640  1.00  0.00    -0.198 OA
BRANCH   8  11
HETATM   11  N1  UNL     1     -14.963  14.735 -15.431  1.00  0.00    -0.235 N 
HETATM   12  C5  UNL     1     -14.240  15.732 -14.673  1.00  0.00     0.176 C 
HETATM   13  C6  UNL     1     -12.761  15.620 -14.742  1.00  0.00     0.137 C 
HETATM   14  C7  UNL     1     -12.177  16.749 -15.569  1.00  0.00     0.041 C 
HETATM   15  O3  UNL     1     -12.242  14.398 -15.046  1.00  0.00    -0.370 OA
HETATM   16  C8  UNL     1     -12.786  13.734 -16.111  1.00  0.00     0.211 C 
HETATM   17  C9  UNL     1     -12.112  14.062 -17.437  1.00  0.00     0.050 C 
HETATM   18  C10 UNL     1     -14.236  13.826 -16.216  1.00  0.00     0.262 C 
HETATM   19  O4  UNL     1     -14.839  13.079 -17.021  1.00  0.00    -0.269 OA
ENDBRANCH   8  11
ENDBRANCH   4   8
BRANCH   7  20
HETATM   20  C11 UNL     1     -20.070  18.466 -14.170  1.00  0.00     0.100 A 
HETATM   21  C12 UNL     1     -20.633  18.489 -12.915  1.00  0.00     0.066 A 
HETATM   22 CL1  UNL     1     -19.809  17.667 -11.608  1.00  0.00    -0.082 Cl
HETATM   23  C13 UNL     1     -21.823  19.137 -12.652  1.00  0.00     0.050 A 
HETATM   24  C14 UNL     1     -22.486  19.787 -13.653  1.00  0.00     0.037 A 
HETATM   25 CL2  UNL     1     -23.995  20.591 -13.258  1.00  0.00    -0.084 Cl
HETATM   26  C15 UNL     1     -21.959  19.793 -14.937  1.00  0.00     0.050 A 
HETATM   27  C16 UNL     1     -20.765  19.136 -15.174  1.00  0.00     0.066 A 
HETATM   28 CL3  UNL     1     -20.072  19.125 -16.778  1.00  0.00    -0.082 Cl
ENDBRANCH   7  20
TORSDOF 3
ENDMDL
