MODEL 1
REMARK VINA RESULT: -6.883670443      0.000      0.000
REMARK  6 active torsions:
REMARK  status: ('A' for Active; 'I' for Inactive)
REMARK    1  A    between atoms: O1_2  and  C2_3 
REMARK    2  A    between atoms: C6_8  and  S1_9 
REMARK    3  A    between atoms: S1_9  and  C7_10 
REMARK    4  A    between atoms: N1_20  and  C12_21 
REMARK    5  A    between atoms: C12_21  and  O4_22 
REMARK    6  A    between atoms: C12_21  and  N2_24 
ROOT
HETATM    1  C7  UNL     1     -13.553  14.263 -16.560  1.00  0.00     0.105 C 
HETATM    2  C8  UNL     1     -13.939  15.134 -17.746  1.00  0.00     0.053 C 
HETATM    3  C9  UNL     1     -14.262  14.676 -15.308  1.00  0.00     0.099 C 
HETATM    4  C10 UNL     1     -15.668  14.273 -15.448  1.00  0.00     0.094 C 
HETATM    5  C11 UNL     1     -16.738  14.843 -15.035  1.00  0.00     0.122 C 
HETATM    6 CL1  UNL     1     -18.370  14.206 -15.296  1.00  0.00    -0.070 Cl
HETATM    7 CL2  UNL     1     -16.619  16.357 -14.146  1.00  0.00    -0.070 Cl
HETATM    8  S2  UNL     1     -15.550  12.745 -16.362  1.00  0.00     0.268 S 
HETATM    9  O2  UNL     1     -15.774  11.622 -15.421  1.00  0.00    -0.200 OA
HETATM   10  O3  UNL     1     -16.513  12.790 -17.515  1.00  0.00    -0.200 OA
HETATM   11  N1  UNL     1     -13.915  12.875 -16.854  1.00  0.00    -0.216 N 
ENDROOT
BRANCH   1  12
HETATM   12  S1  UNL     1     -11.791  14.473 -16.285  1.00  0.00    -0.094 SA
BRANCH  12  13
HETATM   13  C6  UNL     1     -11.161  15.932 -17.095  1.00  0.00     0.044 A 
HETATM   14  C5  UNL     1     -11.460  17.217 -16.653  1.00  0.00     0.133 A 
HETATM   15  C4  UNL     1     -10.933  18.299 -17.336  1.00  0.00     0.046 A 
HETATM   16  F1  UNL     1     -12.260  17.380 -15.565  1.00  0.00    -0.205 F 
HETATM   17  C3  UNL     1     -10.118  18.166 -18.443  1.00  0.00     0.040 A 
HETATM   18  C2  UNL     1      -9.825  16.888 -18.876  1.00  0.00     0.069 A 
HETATM   19  C15 UNL     1     -10.347  15.797 -18.201  1.00  0.00     0.058 A 
BRANCH  18  20
HETATM   20  O1  UNL     1      -9.006  16.762 -19.990  1.00  0.00    -0.356 OA
HETATM   21  C1  UNL     1      -7.807  17.527 -20.116  1.00  0.00     0.210 C 
ENDBRANCH  18  20
ENDBRANCH  12  13
ENDBRANCH   1  12
BRANCH  11  22
HETATM   22  C12 UNL     1     -13.070  11.935 -17.417  1.00  0.00     0.232 C 
BRANCH  22  23
HETATM   23  O4  UNL     1     -12.782  10.934 -16.616  1.00  0.00    -0.332 OA
ATOM     24  H4  UNL     1     -11.875  10.915 -16.337  1.00  0.00     0.221 HD
ENDBRANCH  22  23
BRANCH  22  25
HETATM   25  N2  UNL     1     -12.474  11.868 -18.683  1.00  0.00    -0.355 N 
HETATM   26  C13 UNL     1     -11.107  12.084 -19.054  1.00  0.00     0.152 C 
HETATM   27  C14 UNL     1     -13.372  11.532 -19.808  1.00  0.00     0.152 C 
ENDBRANCH  22  25
ENDBRANCH  11  22
TORSDOF 6
ENDMDL
MODEL 2
REMARK VINA RESULT: -6.373608937      1.934      2.331
REMARK  6 active torsions:
REMARK  status: ('A' for Active; 'I' for Inactive)
REMARK    1  A    between atoms: O1_2  and  C2_3 
REMARK    2  A    between atoms: C6_8  and  S1_9 
REMARK    3  A    between atoms: S1_9  and  C7_10 
REMARK    4  A    between atoms: N1_20  and  C12_21 
REMARK    5  A    between atoms: C12_21  and  O4_22 
REMARK    6  A    between atoms: C12_21  and  N2_24 
ROOT
HETATM    1  C7  UNL     1     -14.940  14.970 -15.717  1.00  0.00     0.105 C 
HETATM    2  C8  UNL     1     -15.035  15.466 -17.153  1.00  0.00     0.053 C 
HETATM    3  C9  UNL     1     -15.356  16.018 -14.734  1.00  0.00     0.099 C 
HETATM    4  C10 UNL     1     -16.815  16.161 -14.837  1.00  0.00     0.094 C 
HETATM    5  C11 UNL     1     -17.556  17.199 -14.721  1.00  0.00     0.122 C 
HETATM    6 CL1  UNL     1     -19.320  17.185 -14.877  1.00  0.00    -0.070 Cl
HETATM    7 CL2  UNL     1     -16.810  18.757 -14.385  1.00  0.00    -0.070 Cl
HETATM    8  S2  UNL     1     -17.349  14.492 -15.175  1.00  0.00     0.268 S 
HETATM    9  O2  UNL     1     -17.928  13.929 -13.932  1.00  0.00    -0.200 OA
HETATM   10  O3  UNL     1     -18.292  14.509 -16.346  1.00  0.00    -0.200 OA
HETATM   11  N1  UNL     1     -15.824  13.814 -15.556  1.00  0.00    -0.216 N 
ENDROOT
BRANCH   1  12
HETATM   12  S1  UNL     1     -13.219  14.571 -15.395  1.00  0.00    -0.094 SA
BRANCH  12  13
HETATM   13  C6  UNL     1     -12.111  15.549 -16.395  1.00  0.00     0.044 A 
HETATM   14  C5  UNL     1     -11.909  16.908 -16.170  1.00  0.00     0.133 A 
HETATM   15  C4  UNL     1     -11.034  17.598 -16.991  1.00  0.00     0.046 A 
HETATM   16  F1  UNL     1     -12.572  17.524 -15.155  1.00  0.00    -0.205 F 
HETATM   17  C3  UNL     1     -10.346  17.001 -18.029  1.00  0.00     0.040 A 
HETATM   18  C2  UNL     1     -10.552  15.654 -18.246  1.00  0.00     0.069 A 
HETATM   19  C15 UNL     1     -11.425  14.952 -17.432  1.00  0.00     0.058 A 
BRANCH  18  20
HETATM   20  O1  UNL     1      -9.857  15.061 -19.292  1.00  0.00    -0.356 OA
HETATM   21  C1  UNL     1      -8.874  15.786 -20.031  1.00  0.00     0.210 C 
ENDBRANCH  18  20
ENDBRANCH  12  13
ENDBRANCH   1  12
BRANCH  11  22
HETATM   22  C12 UNL     1     -15.442  12.493 -15.706  1.00  0.00     0.232 C 
BRANCH  22  23
HETATM   23  O4  UNL     1     -15.600  11.769 -14.621  1.00  0.00    -0.332 OA
ATOM     24  H4  UNL     1     -15.732  10.844 -14.793  1.00  0.00     0.221 HD
ENDBRANCH  22  23
BRANCH  22  25
HETATM   25  N2  UNL     1     -14.919  11.801 -16.806  1.00  0.00    -0.355 N 
HETATM   26  C13 UNL     1     -13.555  11.648 -17.216  1.00  0.00     0.152 C 
HETATM   27  C14 UNL     1     -15.904  11.130 -17.681  1.00  0.00     0.152 C 
ENDBRANCH  22  25
ENDBRANCH  11  22
TORSDOF 6
ENDMDL
MODEL 3
REMARK VINA RESULT: -6.311895613      3.496      6.260
REMARK  6 active torsions:
REMARK  status: ('A' for Active; 'I' for Inactive)
REMARK    1  A    between atoms: O1_2  and  C2_3 
REMARK    2  A    between atoms: C6_8  and  S1_9 
REMARK    3  A    between atoms: S1_9  and  C7_10 
REMARK    4  A    between atoms: N1_20  and  C12_21 
REMARK    5  A    between atoms: C12_21  and  O4_22 
REMARK    6  A    between atoms: C12_21  and  N2_24 
ROOT
HETATM    1  C7  UNL     1     -14.948  13.977 -16.350  1.00  0.00     0.105 C 
HETATM    2  C8  UNL     1     -15.515  14.839 -17.469  1.00  0.00     0.053 C 
HETATM    3  C9  UNL     1     -15.463  12.572 -16.410  1.00  0.00     0.099 C 
HETATM    4  C10 UNL     1     -14.821  11.919 -17.559  1.00  0.00     0.094 C 
HETATM    5  C11 UNL     1     -15.276  11.045 -18.376  1.00  0.00     0.122 C 
HETATM    6 CL1  UNL     1     -14.348  10.359 -19.719  1.00  0.00    -0.070 Cl
HETATM    7 CL2  UNL     1     -16.926  10.464 -18.184  1.00  0.00    -0.070 Cl
HETATM    8  S2  UNL     1     -13.191  12.646 -17.562  1.00  0.00     0.268 S 
HETATM    9  O2  UNL     1     -12.237  11.651 -17.016  1.00  0.00    -0.200 OA
HETATM   10  O3  UNL     1     -12.868  13.115 -18.953  1.00  0.00    -0.200 OA
HETATM   11  N1  UNL     1     -13.490  13.935 -16.476  1.00  0.00    -0.216 N 
ENDROOT
BRANCH   1  12
HETATM   12  S1  UNL     1     -15.486  14.690 -14.792  1.00  0.00    -0.094 SA
BRANCH  12  13
HETATM   13  C6  UNL     1     -16.957  15.680 -14.987  1.00  0.00     0.044 A 
HETATM   14  C5  UNL     1     -18.164  15.142 -15.423  1.00  0.00     0.133 A 
HETATM   15  C4  UNL     1     -19.261  15.976 -15.550  1.00  0.00     0.046 A 
HETATM   16  F1  UNL     1     -18.239  13.816 -15.715  1.00  0.00    -0.205 F 
HETATM   17  C3  UNL     1     -19.217  17.327 -15.262  1.00  0.00     0.040 A 
HETATM   18  C2  UNL     1     -18.016  17.853 -14.829  1.00  0.00     0.069 A 
HETATM   19  C15 UNL     1     -16.912  17.029 -14.699  1.00  0.00     0.058 A 
BRANCH  18  20
HETATM   20  O1  UNL     1     -17.980  19.211 -14.542  1.00  0.00    -0.356 OA
HETATM   21  C1  UNL     1     -16.744  19.885 -14.311  1.00  0.00     0.210 C 
ENDBRANCH  18  20
ENDBRANCH  12  13
ENDBRANCH   1  12
BRANCH  11  22
HETATM   22  C12 UNL     1     -12.612  14.791 -15.834  1.00  0.00     0.232 C 
BRANCH  22  23
HETATM   23  O4  UNL     1     -12.109  14.300 -14.725  1.00  0.00    -0.332 OA
ATOM     24  H4  UNL     1     -12.721  14.292 -13.998  1.00  0.00     0.221 HD
ENDBRANCH  22  23
BRANCH  22  25
HETATM   25  N2  UNL     1     -12.171  16.079 -16.163  1.00  0.00    -0.355 N 
HETATM   26  C13 UNL     1     -11.417  16.517 -17.299  1.00  0.00     0.152 C 
HETATM   27  C14 UNL     1     -12.524  17.150 -15.207  1.00  0.00     0.152 C 
ENDBRANCH  22  25
ENDBRANCH  11  22
TORSDOF 6
ENDMDL
MODEL 4
REMARK VINA RESULT: -6.047620770      3.313      6.009
REMARK  6 active torsions:
REMARK  status: ('A' for Active; 'I' for Inactive)
REMARK    1  A    between atoms: O1_2  and  C2_3 
REMARK    2  A    between atoms: C6_8  and  S1_9 
REMARK    3  A    between atoms: S1_9  and  C7_10 
REMARK    4  A    between atoms: N1_20  and  C12_21 
REMARK    5  A    between atoms: C12_21  and  O4_22 
REMARK    6  A    between atoms: C12_21  and  N2_24 
ROOT
HETATM    1  C7  UNL     1     -15.346  13.570 -16.092  1.00  0.00     0.105 C 
HETATM    2  C8  UNL     1     -15.489  12.410 -15.116  1.00  0.00     0.053 C 
HETATM    3  C9  UNL     1     -16.653  14.255 -16.342  1.00  0.00     0.099 C 
HETATM    4  C10 UNL     1     -16.991  15.010 -15.128  1.00  0.00     0.094 C 
HETATM    5  C11 UNL     1     -18.128  15.244 -14.587  1.00  0.00     0.122 C 
HETATM    6 CL1  UNL     1     -18.350  16.187 -13.105  1.00  0.00    -0.070 Cl
HETATM    7 CL2  UNL     1     -19.586  14.604 -15.336  1.00  0.00    -0.070 Cl
HETATM    8  S2  UNL     1     -15.394  15.554 -14.547  1.00  0.00     0.268 S 
HETATM    9  O2  UNL     1     -15.245  16.992 -14.876  1.00  0.00    -0.200 OA
HETATM   10  O3  UNL     1     -15.273  15.238 -13.083  1.00  0.00    -0.200 OA
HETATM   11  N1  UNL     1     -14.415  14.550 -15.530  1.00  0.00    -0.216 N 
ENDROOT
BRANCH   1  12
HETATM   12  S1  UNL     1     -14.776  12.894 -17.655  1.00  0.00    -0.094 SA
BRANCH  12  13
HETATM   13  C6  UNL     1     -14.533  11.129 -17.567  1.00  0.00     0.044 A 
HETATM   14  C5  UNL     1     -15.569  10.224 -17.778  1.00  0.00     0.133 A 
HETATM   15  C4  UNL     1     -15.301   8.869 -17.692  1.00  0.00     0.046 A 
HETATM   16  F1  UNL     1     -16.815  10.688 -18.063  1.00  0.00    -0.205 F 
HETATM   17  C3  UNL     1     -14.047   8.366 -17.405  1.00  0.00     0.040 A 
HETATM   18  C2  UNL     1     -13.024   9.270 -17.197  1.00  0.00     0.069 A 
HETATM   19  C15 UNL     1     -13.280  10.628 -17.280  1.00  0.00     0.058 A 
BRANCH  18  20
HETATM   20  O1  UNL     1     -11.766   8.757 -16.908  1.00  0.00    -0.356 OA
HETATM   21  C1  UNL     1     -11.414   7.420 -17.264  1.00  0.00     0.210 C 
ENDBRANCH  18  20
ENDBRANCH  12  13
ENDBRANCH   1  12
BRANCH  11  22
HETATM   22  C12 UNL     1     -13.054  14.587 -15.776  1.00  0.00     0.232 C 
BRANCH  22  23
HETATM   23  O4  UNL     1     -12.380  13.636 -15.170  1.00  0.00    -0.332 OA
ATOM     24  H4  UNL     1     -11.579  13.390 -15.617  1.00  0.00     0.221 HD
ENDBRANCH  22  23
BRANCH  22  25
HETATM   25  N2  UNL     1     -12.279  15.456 -16.554  1.00  0.00    -0.355 N 
HETATM   26  C13 UNL     1     -11.682  15.237 -17.837  1.00  0.00     0.152 C 
HETATM   27  C14 UNL     1     -12.029  16.796 -15.979  1.00  0.00     0.152 C 
ENDBRANCH  22  25
ENDBRANCH  11  22
TORSDOF 6
ENDMDL
MODEL 5
REMARK VINA RESULT: -6.030747252      3.122      6.265
REMARK  6 active torsions:
REMARK  status: ('A' for Active; 'I' for Inactive)
REMARK    1  A    between atoms: O1_2  and  C2_3 
REMARK    2  A    between atoms: C6_8  and  S1_9 
REMARK    3  A    between atoms: S1_9  and  C7_10 
REMARK    4  A    between atoms: N1_20  and  C12_21 
REMARK    5  A    between atoms: C12_21  and  O4_22 
REMARK    6  A    between atoms: C12_21  and  N2_24 
ROOT
HETATM    1  C7  UNL     1     -15.383  13.635 -16.088  1.00  0.00     0.105 C 
HETATM    2  C8  UNL     1     -15.530  12.464 -15.126  1.00  0.00     0.053 C 
HETATM    3  C9  UNL     1     -16.689  14.322 -16.336  1.00  0.00     0.099 C 
HETATM    4  C10 UNL     1     -17.033  15.063 -15.114  1.00  0.00     0.094 C 
HETATM    5  C11 UNL     1     -18.172  15.290 -14.576  1.00  0.00     0.122 C 
HETATM    6 CL1  UNL     1     -18.401  16.217 -13.084  1.00  0.00    -0.070 Cl
HETATM    7 CL2  UNL     1     -19.626  14.658 -15.339  1.00  0.00    -0.070 Cl
HETATM    8  S2  UNL     1     -15.438  15.602 -14.521  1.00  0.00     0.268 S 
HETATM    9  O2  UNL     1     -15.289  17.043 -14.833  1.00  0.00    -0.200 OA
HETATM   10  O3  UNL     1     -15.323  15.268 -13.060  1.00  0.00    -0.200 OA
HETATM   11  N1  UNL     1     -14.455  14.609 -15.511  1.00  0.00    -0.216 N 
ENDROOT
BRANCH   1  12
HETATM   12  S1  UNL     1     -14.806  12.977 -17.656  1.00  0.00    -0.094 SA
BRANCH  12  13
HETATM   13  C6  UNL     1     -14.478  11.226 -17.563  1.00  0.00     0.044 A 
HETATM   14  C5  UNL     1     -13.190  10.715 -17.433  1.00  0.00     0.133 A 
HETATM   15  C4  UNL     1     -13.018   9.344 -17.369  1.00  0.00     0.046 A 
HETATM   16  F1  UNL     1     -12.135  11.570 -17.373  1.00  0.00    -0.205 F 
HETATM   17  C3  UNL     1     -14.070   8.449 -17.427  1.00  0.00     0.040 A 
HETATM   18  C2  UNL     1     -15.344   8.964 -17.556  1.00  0.00     0.069 A 
HETATM   19  C15 UNL     1     -15.529  10.334 -17.622  1.00  0.00     0.058 A 
BRANCH  18  20
HETATM   20  O1  UNL     1     -16.396   8.058 -17.615  1.00  0.00    -0.356 OA
HETATM   21  C1  UNL     1     -17.612   8.380 -18.288  1.00  0.00     0.210 C 
ENDBRANCH  18  20
ENDBRANCH  12  13
ENDBRANCH   1  12
BRANCH  11  22
HETATM   22  C12 UNL     1     -13.093  14.649 -15.751  1.00  0.00     0.232 C 
BRANCH  22  23
HETATM   23  O4  UNL     1     -12.419  13.702 -15.139  1.00  0.00    -0.332 OA
ATOM     24  H4  UNL     1     -12.908  13.269 -14.449  1.00  0.00     0.221 HD
ENDBRANCH  22  23
BRANCH  22  25
HETATM   25  N2  UNL     1     -12.317  15.518 -16.528  1.00  0.00    -0.355 N 
HETATM   26  C13 UNL     1     -11.742  15.308 -17.823  1.00  0.00     0.152 C 
HETATM   27  C14 UNL     1     -12.040  16.846 -15.939  1.00  0.00     0.152 C 
ENDBRANCH  22  25
ENDBRANCH  11  22
TORSDOF 6
ENDMDL
