MODEL 1
REMARK VINA RESULT: -9.165642350      0.000      0.000
REMARK  8 active torsions:
REMARK  status: ('A' for Active; 'I' for Inactive)
REMARK    1  A    between atoms: C1_2  and  C2_3 
REMARK       I    between atoms: C1_2  and  N3_13 
REMARK    2  A    between atoms: C2_3  and  N1_4 
REMARK       I    between atoms: N1_4  and  C3_6 
REMARK       I    between atoms: C3_6  and  N2_8 
REMARK    3  A    between atoms: N3_13  and  C8_15 
REMARK    4  A    between atoms: C11_21  and  N5_22 
REMARK       I    between atoms: N5_22  and  C12_24 
REMARK       I    between atoms: C12_24  and  N6_26 
REMARK    5  A    between atoms: N6_26  and  C13_28 
REMARK    6  A    between atoms: C13_28  and  C14_29 
REMARK    7  A    between atoms: C14_29  and  C15_30 
REMARK    8  A    between atoms: C15_30  and  N7_31 
ROOT
HETATM    1  C8  UNL     1      15.046   8.356  23.784  1.00  0.00     0.134 C 
HETATM    2  C9  UNL     1      15.816   9.662  23.487  1.00  0.00     0.150 C 
HETATM    3  N4  UNL     1      14.878  10.630  23.975  1.00  0.00    -0.357 N 
ATOM      4  H4  UNL     1      14.785  11.580  23.615  1.00  0.00     0.162 HD
HETATM    5  C10 UNL     1      14.095  10.087  25.027  1.00  0.00     0.242 C 
HETATM    6  O3  UNL     1      13.236  10.671  25.741  1.00  0.00    -0.271 OA
HETATM    7  C11 UNL     1      14.480   8.657  25.143  1.00  0.00     0.202 C 
ENDROOT
BRANCH   7   8
HETATM    8  N5  UNL     1      15.508   8.578  26.181  1.00  0.00    -0.328 N 
HETATM    9  C12 UNL     1      15.677   7.376  26.913  1.00  0.00     0.316 C 
HETATM   10  O4  UNL     1      14.906   6.397  26.665  1.00  0.00    -0.247 OA
HETATM   11  N6  UNL     1      16.648   7.191  27.904  1.00  0.00    -0.343 N 
ATOM     12  H6  UNL     1      17.287   7.956  28.117  1.00  0.00     0.164 HD
ATOM     13  H5  UNL     1      16.100   9.384  26.376  1.00  0.00     0.165 HD
BRANCH  11  14
HETATM   14  C13 UNL     1      16.778   5.916  28.656  1.00  0.00     0.126 C 
BRANCH  14  15
HETATM   15  C14 UNL     1      18.181   5.854  29.134  1.00  0.00     0.048 C 
BRANCH  15  16
HETATM   16  C15 UNL     1      18.773   6.955  29.875  1.00  0.00     0.239 C 
BRANCH  16  17
HETATM   17  N7  UNL     1      20.045   7.529  29.603  1.00  0.00    -0.066 N 
HETATM   18  C16 UNL     1      19.928   8.266  28.336  1.00  0.00     0.238 C 
HETATM   19  C17 UNL     1      21.097   8.154  27.435  1.00  0.00     0.032 C 
HETATM   20  C18 UNL     1      22.424   8.493  28.038  1.00  0.00    -0.012 C 
HETATM   21  C19 UNL     1      22.320   9.468  29.179  1.00  0.00     0.011 C 
HETATM   22  C23 UNL     1      23.092   7.191  28.431  1.00  0.00     0.011 C 
HETATM   23  C20 UNL     1      21.955   8.847  30.478  1.00  0.00     0.012 C 
HETATM   24  C21 UNL     1      22.714   7.574  30.786  1.00  0.00     0.012 C 
HETATM   25  C25 UNL     1      20.463   8.471  30.567  1.00  0.00     0.242 C 
HETATM   26  C22 UNL     1      22.385   6.647  29.634  1.00  0.00     0.012 C 
HETATM   27  C24 UNL     1      20.956   6.402  29.438  1.00  0.00     0.242 C 
ENDBRANCH  16  17
ENDBRANCH  15  16
ENDBRANCH  14  15
ENDBRANCH  11  14
ENDBRANCH   7   8
BRANCH   1  28
HETATM   28  N3  UNL     1      15.962   7.242  23.794  1.00  0.00    -0.351 N 
HETATM   29  C1  UNL     1      15.984   6.368  22.661  1.00  0.00     0.235 C 
HETATM   30  O1  UNL     1      15.229   6.555  21.679  1.00  0.00    -0.272 OA
ATOM     31  H3  UNL     1      16.579   7.081  24.590  1.00  0.00     0.163 HD
BRANCH  29  32
HETATM   32  C2  UNL     1      16.912   5.205  22.618  1.00  0.00     0.227 C 
BRANCH  32  33
HETATM   33  N1  UNL     1      17.480   4.963  21.322  1.00  0.00    -0.334 N 
HETATM   34  C3  UNL     1      18.383   3.888  21.130  1.00  0.00     0.318 C 
HETATM   35  O2  UNL     1      18.684   3.138  22.096  1.00  0.00    -0.247 OA
HETATM   36  N2  UNL     1      18.953   3.644  19.850  1.00  0.00    -0.334 N 
HETATM   37  C4  UNL     1      18.722   4.407  18.635  1.00  0.00     0.127 C 
HETATM   38  C7  UNL     1      19.870   2.567  19.557  1.00  0.00     0.127 C 
HETATM   39  C5  UNL     1      18.916   3.340  17.560  1.00  0.00     0.022 C 
HETATM   40  C6  UNL     1      20.145   2.633  18.077  1.00  0.00     0.022 C 
ATOM     41  H1  UNL     1      17.234   5.567  20.537  1.00  0.00     0.164 HD
ENDBRANCH  32  33
ENDBRANCH  29  32
ENDBRANCH   1  28
TORSDOF 8
ENDMDL
MODEL 2
REMARK VINA RESULT: -9.158918800      0.480      1.405
REMARK  8 active torsions:
REMARK  status: ('A' for Active; 'I' for Inactive)
REMARK    1  A    between atoms: C1_2  and  C2_3 
REMARK       I    between atoms: C1_2  and  N3_13 
REMARK    2  A    between atoms: C2_3  and  N1_4 
REMARK       I    between atoms: N1_4  and  C3_6 
REMARK       I    between atoms: C3_6  and  N2_8 
REMARK    3  A    between atoms: N3_13  and  C8_15 
REMARK    4  A    between atoms: C11_21  and  N5_22 
REMARK       I    between atoms: N5_22  and  C12_24 
REMARK       I    between atoms: C12_24  and  N6_26 
REMARK    5  A    between atoms: N6_26  and  C13_28 
REMARK    6  A    between atoms: C13_28  and  C14_29 
REMARK    7  A    between atoms: C14_29  and  C15_30 
REMARK    8  A    between atoms: C15_30  and  N7_31 
ROOT
HETATM    1  C8  UNL     1      15.154   8.150  23.841  1.00  0.00     0.134 C 
HETATM    2  C9  UNL     1      15.868   9.480  23.509  1.00  0.00     0.150 C 
HETATM    3  N4  UNL     1      14.899  10.418  23.995  1.00  0.00    -0.357 N 
ATOM      4  H4  UNL     1      14.762  11.357  23.619  1.00  0.00     0.162 HD
HETATM    5  C10 UNL     1      14.155   9.864  25.068  1.00  0.00     0.242 C 
HETATM    6  O3  UNL     1      13.283  10.427  25.786  1.00  0.00    -0.271 OA
HETATM    7  C11 UNL     1      14.598   8.453  25.203  1.00  0.00     0.202 C 
ENDROOT
BRANCH   7   8
HETATM    8  N5  UNL     1      15.643   8.433  26.226  1.00  0.00    -0.328 N 
HETATM    9  C12 UNL     1      15.875   7.251  26.972  1.00  0.00     0.316 C 
HETATM   10  O4  UNL     1      15.145   6.236  26.750  1.00  0.00    -0.247 OA
HETATM   11  N6  UNL     1      16.868   7.122  27.950  1.00  0.00    -0.343 N 
ATOM     12  H6  UNL     1      17.477   7.918  28.142  1.00  0.00     0.164 HD
ATOM     13  H5  UNL     1      16.203   9.267  26.401  1.00  0.00     0.165 HD
BRANCH  11  14
HETATM   14  C13 UNL     1      17.066   5.865  28.717  1.00  0.00     0.126 C 
BRANCH  14  15
HETATM   15  C14 UNL     1      17.835   6.233  29.931  1.00  0.00     0.048 C 
BRANCH  15  16
HETATM   16  C15 UNL     1      18.622   7.454  29.982  1.00  0.00     0.239 C 
BRANCH  16  17
HETATM   17  N7  UNL     1      20.010   7.541  29.686  1.00  0.00    -0.066 N 
HETATM   18  C16 UNL     1      20.648   8.257  30.800  1.00  0.00     0.238 C 
HETATM   19  C17 UNL     1      21.705   9.216  30.407  1.00  0.00     0.032 C 
HETATM   20  C18 UNL     1      22.791   8.671  29.533  1.00  0.00    -0.012 C 
HETATM   21  C19 UNL     1      23.009   7.194  29.716  1.00  0.00     0.011 C 
HETATM   22  C23 UNL     1      22.459   9.048  28.103  1.00  0.00     0.011 C 
HETATM   23  C20 UNL     1      22.055   6.341  28.961  1.00  0.00     0.012 C 
HETATM   24  C21 UNL     1      21.830   6.787  27.532  1.00  0.00     0.012 C 
HETATM   25  C25 UNL     1      20.655   6.290  29.604  1.00  0.00     0.242 C 
HETATM   26  C22 UNL     1      21.306   8.203  27.653  1.00  0.00     0.012 C 
HETATM   27  C24 UNL     1      20.100   8.339  28.469  1.00  0.00     0.242 C 
ENDBRANCH  16  17
ENDBRANCH  15  16
ENDBRANCH  14  15
ENDBRANCH  11  14
ENDBRANCH   7   8
BRANCH   1  28
HETATM   28  N3  UNL     1      16.114   7.073  23.856  1.00  0.00    -0.351 N 
HETATM   29  C1  UNL     1      16.206   6.226  22.706  1.00  0.00     0.235 C 
HETATM   30  O1  UNL     1      15.474   6.405  21.705  1.00  0.00    -0.272 OA
ATOM     31  H3  UNL     1      16.713   6.920  24.667  1.00  0.00     0.163 HD
BRANCH  29  32
HETATM   32  C2  UNL     1      17.180   5.102  22.668  1.00  0.00     0.227 C 
BRANCH  32  33
HETATM   33  N1  UNL     1      17.714   4.841  21.360  1.00  0.00    -0.334 N 
HETATM   34  C3  UNL     1      18.604   3.757  21.158  1.00  0.00     0.318 C 
HETATM   35  O2  UNL     1      18.923   3.016  22.125  1.00  0.00    -0.247 OA
HETATM   36  N2  UNL     1      19.140   3.494  19.868  1.00  0.00    -0.334 N 
HETATM   37  C4  UNL     1      18.883   4.245  18.649  1.00  0.00     0.127 C 
HETATM   38  C7  UNL     1      20.040   2.406  19.564  1.00  0.00     0.127 C 
HETATM   39  C5  UNL     1      19.042   3.164  17.583  1.00  0.00     0.022 C 
HETATM   40  C6  UNL     1      20.279   2.453  18.077  1.00  0.00     0.022 C 
ATOM     41  H1  UNL     1      17.453   5.438  20.575  1.00  0.00     0.164 HD
ENDBRANCH  32  33
ENDBRANCH  29  32
ENDBRANCH   1  28
TORSDOF 8
ENDMDL
MODEL 3
REMARK VINA RESULT: -9.052959066      0.469      1.425
REMARK  8 active torsions:
REMARK  status: ('A' for Active; 'I' for Inactive)
REMARK    1  A    between atoms: C1_2  and  C2_3 
REMARK       I    between atoms: C1_2  and  N3_13 
REMARK    2  A    between atoms: C2_3  and  N1_4 
REMARK       I    between atoms: N1_4  and  C3_6 
REMARK       I    between atoms: C3_6  and  N2_8 
REMARK    3  A    between atoms: N3_13  and  C8_15 
REMARK    4  A    between atoms: C11_21  and  N5_22 
REMARK       I    between atoms: N5_22  and  C12_24 
REMARK       I    between atoms: C12_24  and  N6_26 
REMARK    5  A    between atoms: N6_26  and  C13_28 
REMARK    6  A    between atoms: C13_28  and  C14_29 
REMARK    7  A    between atoms: C14_29  and  C15_30 
REMARK    8  A    between atoms: C15_30  and  N7_31 
ROOT
HETATM    1  C8  UNL     1      15.187   8.241  23.658  1.00  0.00     0.134 C 
HETATM    2  C9  UNL     1      15.876   9.561  23.246  1.00  0.00     0.150 C 
HETATM    3  N4  UNL     1      14.910  10.511  23.715  1.00  0.00    -0.357 N 
ATOM      4  H4  UNL     1      14.753  11.430  23.301  1.00  0.00     0.162 HD
HETATM    5  C10 UNL     1      14.202   9.999  24.833  1.00  0.00     0.242 C 
HETATM    6  O3  UNL     1      13.344  10.586  25.549  1.00  0.00    -0.271 OA
HETATM    7  C11 UNL     1      14.664   8.600  25.020  1.00  0.00     0.202 C 
ENDROOT
BRANCH   7   8
HETATM    8  N5  UNL     1      15.738   8.638  26.013  1.00  0.00    -0.328 N 
HETATM    9  C12 UNL     1      15.965   7.514  26.846  1.00  0.00     0.316 C 
HETATM   10  O4  UNL     1      15.207   6.503  26.726  1.00  0.00    -0.247 OA
HETATM   11  N6  UNL     1      16.982   7.441  27.804  1.00  0.00    -0.343 N 
ATOM     12  H6  UNL     1      17.614   8.235  27.916  1.00  0.00     0.164 HD
ATOM     13  H5  UNL     1      16.320   9.470  26.105  1.00  0.00     0.165 HD
BRANCH  11  14
HETATM   14  C13 UNL     1      17.174   6.245  28.666  1.00  0.00     0.126 C 
BRANCH  14  15
HETATM   15  C14 UNL     1      17.968   6.696  29.835  1.00  0.00     0.048 C 
BRANCH  15  16
HETATM   16  C15 UNL     1      18.851   7.846  29.748  1.00  0.00     0.239 C 
BRANCH  16  17
HETATM   17  N7  UNL     1      20.242   7.786  29.456  1.00  0.00    -0.066 N 
HETATM   18  C16 UNL     1      20.655   6.382  29.601  1.00  0.00     0.238 C 
HETATM   19  C17 UNL     1      21.978   6.180  30.233  1.00  0.00     0.032 C 
HETATM   20  C18 UNL     1      23.119   6.931  29.620  1.00  0.00    -0.012 C 
HETATM   21  C19 UNL     1      22.911   7.229  28.161  1.00  0.00     0.011 C 
HETATM   22  C23 UNL     1      23.344   8.177  30.452  1.00  0.00     0.011 C 
HETATM   23  C20 UNL     1      22.063   8.421  27.898  1.00  0.00     0.012 C 
HETATM   24  C21 UNL     1      22.404   9.618  28.758  1.00  0.00     0.012 C 
HETATM   25  C25 UNL     1      20.563   8.155  28.133  1.00  0.00     0.242 C 
HETATM   26  C22 UNL     1      22.221   9.131  30.180  1.00  0.00     0.012 C 
HETATM   27  C24 UNL     1      20.891   8.600  30.477  1.00  0.00     0.242 C 
ENDBRANCH  16  17
ENDBRANCH  15  16
ENDBRANCH  14  15
ENDBRANCH  11  14
ENDBRANCH   7   8
BRANCH   1  28
HETATM   28  N3  UNL     1      16.158   7.176  23.695  1.00  0.00    -0.351 N 
HETATM   29  C1  UNL     1      16.204   6.256  22.600  1.00  0.00     0.235 C 
HETATM   30  O1  UNL     1      15.422   6.363  21.627  1.00  0.00    -0.272 OA
ATOM     31  H3  UNL     1      16.798   7.080  24.484  1.00  0.00     0.163 HD
BRANCH  29  32
HETATM   32  C2  UNL     1      17.189   5.140  22.586  1.00  0.00     0.227 C 
BRANCH  32  33
HETATM   33  N1  UNL     1      17.714   4.846  21.282  1.00  0.00    -0.334 N 
HETATM   34  C3  UNL     1      18.662   3.805  21.115  1.00  0.00     0.318 C 
HETATM   35  O2  UNL     1      19.040   3.133  22.111  1.00  0.00    -0.247 OA
HETATM   36  N2  UNL     1      19.190   3.510  19.829  1.00  0.00    -0.334 N 
HETATM   37  C4  UNL     1      18.869   4.183  18.581  1.00  0.00     0.127 C 
HETATM   38  C7  UNL     1      20.147   2.462  19.560  1.00  0.00     0.127 C 
HETATM   39  C5  UNL     1      19.072   3.061  17.565  1.00  0.00     0.022 C 
HETATM   40  C6  UNL     1      20.357   2.448  18.069  1.00  0.00     0.022 C 
ATOM     41  H1  UNL     1      17.405   5.387  20.475  1.00  0.00     0.164 HD
ENDBRANCH  32  33
ENDBRANCH  29  32
ENDBRANCH   1  28
TORSDOF 8
ENDMDL
MODEL 4
REMARK VINA RESULT: -9.003891369      2.447      6.030
REMARK  8 active torsions:
REMARK  status: ('A' for Active; 'I' for Inactive)
REMARK    1  A    between atoms: C1_2  and  C2_3 
REMARK       I    between atoms: C1_2  and  N3_13 
REMARK    2  A    between atoms: C2_3  and  N1_4 
REMARK       I    between atoms: N1_4  and  C3_6 
REMARK       I    between atoms: C3_6  and  N2_8 
REMARK    3  A    between atoms: N3_13  and  C8_15 
REMARK    4  A    between atoms: C11_21  and  N5_22 
REMARK       I    between atoms: N5_22  and  C12_24 
REMARK       I    between atoms: C12_24  and  N6_26 
REMARK    5  A    between atoms: N6_26  and  C13_28 
REMARK    6  A    between atoms: C13_28  and  C14_29 
REMARK    7  A    between atoms: C14_29  and  C15_30 
REMARK    8  A    between atoms: C15_30  and  N7_31 
ROOT
HETATM    1  C8  UNL     1      18.736   4.757  23.395  1.00  0.00     0.134 C 
HETATM    2  C9  UNL     1      18.971   3.233  23.299  1.00  0.00     0.150 C 
HETATM    3  N4  UNL     1      20.318   3.151  23.782  1.00  0.00    -0.357 N 
ATOM      4  H4  UNL     1      20.990   2.435  23.505  1.00  0.00     0.162 HD
HETATM    5  C10 UNL     1      20.591   4.202  24.696  1.00  0.00     0.242 C 
HETATM    6  O3  UNL     1      21.636   4.393  25.375  1.00  0.00    -0.271 OA
HETATM    7  C11 UNL     1      19.384   5.067  24.714  1.00  0.00     0.202 C 
ENDROOT
BRANCH   7   8
HETATM    8  N5  UNL     1      18.559   4.620  25.835  1.00  0.00    -0.328 N 
HETATM    9  C12 UNL     1      18.088   5.564  26.783  1.00  0.00     0.316 C 
HETATM   10  O4  UNL     1      18.421   6.782  26.647  1.00  0.00    -0.247 OA
HETATM   11  N6  UNL     1      17.271   5.241  27.872  1.00  0.00    -0.343 N 
ATOM     12  H6  UNL     1      16.979   4.272  28.001  1.00  0.00     0.164 HD
ATOM     13  H5  UNL     1      18.322   3.633  25.935  1.00  0.00     0.165 HD
BRANCH  11  14
HETATM   14  C13 UNL     1      16.813   6.264  28.849  1.00  0.00     0.126 C 
BRANCH  14  15
HETATM   15  C14 UNL     1      17.866   6.349  29.890  1.00  0.00     0.048 C 
BRANCH  15  16
HETATM   16  C15 UNL     1      18.673   7.547  30.048  1.00  0.00     0.239 C 
BRANCH  16  17
HETATM   17  N7  UNL     1      20.060   7.641  29.749  1.00  0.00    -0.066 N 
HETATM   18  C16 UNL     1      20.710   8.284  30.901  1.00  0.00     0.238 C 
HETATM   19  C17 UNL     1      21.773   9.255  30.559  1.00  0.00     0.032 C 
HETATM   20  C18 UNL     1      22.850   8.755  29.648  1.00  0.00    -0.012 C 
HETATM   21  C19 UNL     1      23.056   7.268  29.741  1.00  0.00     0.011 C 
HETATM   22  C23 UNL     1      22.513   9.220  28.246  1.00  0.00     0.011 C 
HETATM   23  C20 UNL     1      22.091   6.469  28.942  1.00  0.00     0.012 C 
HETATM   24  C21 UNL     1      21.862   7.002  27.544  1.00  0.00     0.012 C 
HETATM   25  C25 UNL     1      20.694   6.391  29.588  1.00  0.00     0.242 C 
HETATM   26  C22 UNL     1      21.352   8.413  27.752  1.00  0.00     0.012 C 
HETATM   27  C24 UNL     1      20.150   8.510  28.582  1.00  0.00     0.242 C 
ENDBRANCH  16  17
ENDBRANCH  15  16
ENDBRANCH  14  15
ENDBRANCH  11  14
ENDBRANCH   7   8
BRANCH   1  28
HETATM   28  N3  UNL     1      17.320   5.032  23.389  1.00  0.00    -0.351 N 
HETATM   29  C1  UNL     1      16.885   6.361  23.085  1.00  0.00     0.235 C 
HETATM   30  O1  UNL     1      17.705   7.272  22.830  1.00  0.00    -0.272 OA
ATOM     31  H3  UNL     1      16.644   4.297  23.598  1.00  0.00     0.163 HD
BRANCH  29  32
HETATM   32  C2  UNL     1      15.435   6.699  23.063  1.00  0.00     0.227 C 
BRANCH  32  33
HETATM   33  N1  UNL     1      15.072   7.755  23.966  1.00  0.00    -0.334 N 
HETATM   34  C3  UNL     1      14.875   9.071  23.480  1.00  0.00     0.318 C 
HETATM   35  O2  UNL     1      15.014   9.315  22.252  1.00  0.00    -0.247 OA
HETATM   36  N2  UNL     1      14.518  10.123  24.367  1.00  0.00    -0.334 N 
HETATM   37  C4  UNL     1      14.322  10.020  25.804  1.00  0.00     0.127 C 
HETATM   38  C7  UNL     1      14.284  11.490  23.962  1.00  0.00     0.127 C 
HETATM   39  C5  UNL     1      13.293  11.121  26.054  1.00  0.00     0.022 C 
HETATM   40  C6  UNL     1      13.850  12.233  25.198  1.00  0.00     0.022 C 
ATOM     41  H1  UNL     1      14.955   7.557  24.960  1.00  0.00     0.164 HD
ENDBRANCH  32  33
ENDBRANCH  29  32
ENDBRANCH   1  28
TORSDOF 8
ENDMDL
MODEL 5
REMARK VINA RESULT: -8.917512075      1.826      2.720
REMARK  8 active torsions:
REMARK  status: ('A' for Active; 'I' for Inactive)
REMARK    1  A    between atoms: C1_2  and  C2_3 
REMARK       I    between atoms: C1_2  and  N3_13 
REMARK    2  A    between atoms: C2_3  and  N1_4 
REMARK       I    between atoms: N1_4  and  C3_6 
REMARK       I    between atoms: C3_6  and  N2_8 
REMARK    3  A    between atoms: N3_13  and  C8_15 
REMARK    4  A    between atoms: C11_21  and  N5_22 
REMARK       I    between atoms: N5_22  and  C12_24 
REMARK       I    between atoms: C12_24  and  N6_26 
REMARK    5  A    between atoms: N6_26  and  C13_28 
REMARK    6  A    between atoms: C13_28  and  C14_29 
REMARK    7  A    between atoms: C14_29  and  C15_30 
REMARK    8  A    between atoms: C15_30  and  N7_31 
ROOT
HETATM    1  C8  UNL     1      15.297   8.257  23.577  1.00  0.00     0.134 C 
HETATM    2  C9  UNL     1      15.848   9.686  23.375  1.00  0.00     0.150 C 
HETATM    3  N4  UNL     1      14.811  10.451  24.003  1.00  0.00    -0.357 N 
ATOM      4  H4  UNL     1      14.558  11.405  23.744  1.00  0.00     0.162 HD
HETATM    5  C10 UNL     1      14.185   9.703  25.032  1.00  0.00     0.242 C 
HETATM    6  O3  UNL     1      13.297  10.082  25.843  1.00  0.00    -0.271 OA
HETATM    7  C11 UNL     1      14.781   8.343  24.986  1.00  0.00     0.202 C 
ENDROOT
BRANCH   7   8
HETATM    8  N5  UNL     1      15.873   8.326  25.958  1.00  0.00    -0.328 N 
HETATM    9  C12 UNL     1      15.945   7.284  26.917  1.00  0.00     0.316 C 
HETATM   10  O4  UNL     1      15.036   6.397  26.923  1.00  0.00    -0.247 OA
HETATM   11  N6  UNL     1      16.963   7.162  27.869  1.00  0.00    -0.343 N 
ATOM     12  H6  UNL     1      17.713   7.854  27.881  1.00  0.00     0.164 HD
ATOM     13  H5  UNL     1      16.580   9.060  25.947  1.00  0.00     0.165 HD
BRANCH  11  14
HETATM   14  C13 UNL     1      16.990   6.059  28.864  1.00  0.00     0.126 C 
BRANCH  14  15
HETATM   15  C14 UNL     1      18.400   5.929  29.306  1.00  0.00     0.048 C 
BRANCH  15  16
HETATM   16  C15 UNL     1      19.044   6.973  30.085  1.00  0.00     0.239 C 
BRANCH  16  17
HETATM   17  N7  UNL     1      20.276   7.599  29.747  1.00  0.00    -0.066 N 
HETATM   18  C16 UNL     1      20.040   8.392  28.531  1.00  0.00     0.238 C 
HETATM   19  C17 UNL     1      21.138   8.360  27.539  1.00  0.00     0.032 C 
HETATM   20  C18 UNL     1      22.499   8.710  28.056  1.00  0.00    -0.012 C 
HETATM   21  C19 UNL     1      22.457   9.625  29.249  1.00  0.00     0.011 C 
HETATM   22  C23 UNL     1      23.231   7.412  28.331  1.00  0.00     0.011 C 
HETATM   23  C20 UNL     1      22.211   8.931  30.540  1.00  0.00     0.012 C 
HETATM   24  C21 UNL     1      23.026   7.669  30.723  1.00  0.00     0.012 C 
HETATM   25  C25 UNL     1      20.741   8.505  30.722  1.00  0.00     0.242 C 
HETATM   26  C22 UNL     1      22.633   6.788  29.555  1.00  0.00     0.012 C 
HETATM   27  C24 UNL     1      21.201   6.510  29.455  1.00  0.00     0.242 C 
ENDBRANCH  16  17
ENDBRANCH  15  16
ENDBRANCH  14  15
ENDBRANCH  11  14
ENDBRANCH   7   8
BRANCH   1  28
HETATM   28  N3  UNL     1      16.364   7.298  23.431  1.00  0.00    -0.351 N 
HETATM   29  C1  UNL     1      16.295   6.361  22.352  1.00  0.00     0.235 C 
HETATM   30  O1  UNL     1      15.334   6.362  21.548  1.00  0.00    -0.272 OA
ATOM     31  H3  UNL     1      17.150   7.288  24.081  1.00  0.00     0.163 HD
BRANCH  29  32
HETATM   32  C2  UNL     1      17.371   5.352  22.153  1.00  0.00     0.227 C 
BRANCH  32  33
HETATM   33  N1  UNL     1      18.182   5.131  23.317  1.00  0.00    -0.334 N 
HETATM   34  C3  UNL     1      19.472   4.559  23.188  1.00  0.00     0.318 C 
HETATM   35  O2  UNL     1      19.911   4.247  22.049  1.00  0.00    -0.247 OA
HETATM   36  N2  UNL     1      20.280   4.334  24.336  1.00  0.00    -0.334 N 
HETATM   37  C4  UNL     1      19.932   4.627  25.716  1.00  0.00     0.127 C 
HETATM   38  C7  UNL     1      21.610   3.769  24.301  1.00  0.00     0.127 C 
HETATM   39  C5  UNL     1      21.304   4.907  26.326  1.00  0.00     0.022 C 
HETATM   40  C6  UNL     1      22.121   3.794  25.717  1.00  0.00     0.022 C 
ATOM     41  H1  UNL     1      17.829   5.387  24.239  1.00  0.00     0.164 HD
ENDBRANCH  32  33
ENDBRANCH  29  32
ENDBRANCH   1  28
TORSDOF 8
ENDMDL
