MODEL 1
REMARK VINA RESULT: -8.357168194      0.000      0.000
REMARK  11 active torsions:
REMARK  status: ('A' for Active; 'I' for Inactive)
REMARK    1  A    between atoms: C2_2  and  C3_3 
REMARK       I    between atoms: C3_3  and  N1_5 
REMARK    2  A    between atoms: N1_5  and  C4_7 
REMARK    3  A    between atoms: C4_7  and  C6_9 
REMARK    4  A    between atoms: C4_7  and  C18_37 
REMARK       I    between atoms: N2_13  and  C10_14 
REMARK    5  A    between atoms: C10_14  and  C11_16 
REMARK    6  A    between atoms: C11_16  and  C12_17 
REMARK    7  A    between atoms: C11_16  and  N8_32 
REMARK    8  A    between atoms: C12_17  and  C13_18 
REMARK    9  A    between atoms: C15_22  and  N4_23 
REMARK   10  A    between atoms: N4_23  and  N5_25 
REMARK       I    between atoms: N8_32  and  C16_34 
REMARK   11  A    between atoms: C18_37  and  C21_40 
ROOT
HETATM    1  C6  UNL     1      17.367   3.482  21.136  1.00  0.00     0.021 C 
HETATM    2  C7  UNL     1      16.878   2.261  21.908  1.00  0.00     0.057 C 
HETATM    3  C8  UNL     1      17.683   2.462  23.165  1.00  0.00     0.026 C 
HETATM    4  C9  UNL     1      18.086   3.911  23.178  1.00  0.00     0.132 C 
HETATM    5  N2  UNL     1      17.183   4.452  22.107  1.00  0.00    -0.321 N 
HETATM    6  C10 UNL     1      16.557   5.662  22.410  1.00  0.00     0.247 C 
HETATM    7  O2  UNL     1      15.825   6.375  21.639  1.00  0.00    -0.271 OA
ENDROOT
BRANCH   6   8
HETATM    8  C11 UNL     1      16.610   6.385  23.725  1.00  0.00     0.182 C 
BRANCH   8   9
HETATM    9  C12 UNL     1      16.870   7.864  23.566  1.00  0.00     0.094 C 
BRANCH   9  10
HETATM   10  C13 UNL     1      15.809   8.760  24.023  1.00  0.00     0.045 A 
HETATM   11  C14 UNL     1      15.011   9.591  23.280  1.00  0.00     0.131 A 
HETATM   12  N3  UNL     1      14.166  10.235  24.081  1.00  0.00    -0.199 N 
HETATM   13  C15 UNL     1      14.395   9.841  25.343  1.00  0.00     0.698 A 
ATOM     14  H3  UNL     1      13.463  10.913  23.786  1.00  0.00     0.183 HD
HETATM   15  N7  UNL     1      15.392   8.945  25.315  1.00  0.00    -0.193 N 
ATOM     16  H7  UNL     1      15.781   8.474  26.131  1.00  0.00     0.184 HD
BRANCH  13  17
HETATM   17  N4  UNL     1      13.745  10.275  26.385  1.00  0.00    -0.118 N 
ATOM     18  H4  UNL     1      13.945   9.880  27.303  1.00  0.00     0.207 HD
BRANCH  17  19
HETATM   19  N5  UNL     1      12.780  11.273  26.259  1.00  0.00    -0.235 N 
HETATM   20  N6  UNL     1      12.768  12.288  27.022  1.00  0.00    -0.330 N 
ATOM     21  H62 UNL     1      13.490  12.360  27.739  1.00  0.00     0.178 HD
ATOM     22  H61 UNL     1      12.062  13.018  26.930  1.00  0.00     0.178 HD
ATOM     23  H5  UNL     1      12.066  11.186  25.537  1.00  0.00     0.208 HD
ENDBRANCH  17  19
ENDBRANCH  13  17
ENDBRANCH   9  10
ENDBRANCH   8   9
BRANCH   8  24
HETATM   24  N8  UNL     1      15.224   6.336  24.248  1.00  0.00    -0.348 N 
HETATM   25  C16 UNL     1      14.844   5.447  25.280  1.00  0.00     0.214 C 
HETATM   26  C17 UNL     1      13.447   5.432  25.771  1.00  0.00     0.117 C 
HETATM   27  O3  UNL     1      15.714   4.686  25.756  1.00  0.00    -0.274 OA
ATOM     28  H8  UNL     1      14.522   6.962  23.851  1.00  0.00     0.163 HD
ENDBRANCH   8  24
ENDBRANCH   6   8
BRANCH   1  29
HETATM   29  C4  UNL     1      17.399   3.468  19.688  1.00  0.00     0.075 C 
HETATM   30  C5  UNL     1      17.617   4.997  19.330  1.00  0.00     0.046 C 
BRANCH  29  31
HETATM   31  N1  UNL     1      16.095   3.115  19.172  1.00  0.00    -0.346 N 
HETATM   32  C3  UNL     1      14.898   3.740  18.961  1.00  0.00     0.218 C 
HETATM   33  O1  UNL     1      14.637   4.911  19.208  1.00  0.00    -0.274 OA
ATOM     34  H1  UNL     1      16.059   2.136  18.888  1.00  0.00     0.163 HD
BRANCH  32  35
HETATM   35  C2  UNL     1      13.719   2.980  18.367  1.00  0.00     0.098 C 
HETATM   36  C1  UNL     1      14.076   1.544  18.091  1.00  0.00     0.014 C 
ENDBRANCH  32  35
ENDBRANCH  29  31
BRANCH  29  37
HETATM   37  C18 UNL     1      18.542   2.829  18.955  1.00  0.00    -0.011 C 
HETATM   38  C19 UNL     1      19.796   3.005  19.846  1.00  0.00     0.018 C 
HETATM   39  C20 UNL     1      18.842   3.615  17.680  1.00  0.00     0.018 C 
BRANCH  37  40
HETATM   40  C21 UNL     1      18.594   1.422  18.541  1.00  0.00    -0.042 C 
HETATM   41  C22 UNL     1      20.035   1.294  17.948  1.00  0.00     0.015 C 
HETATM   42  C23 UNL     1      17.705   0.963  17.425  1.00  0.00     0.015 C 
HETATM   43  C24 UNL     1      18.558   0.318  19.550  1.00  0.00     0.015 C 
ENDBRANCH  37  40
ENDBRANCH  29  37
ENDBRANCH   1  29
TORSDOF 11
ENDMDL
MODEL 2
REMARK VINA RESULT: -8.258645827      5.636      8.199
REMARK  11 active torsions:
REMARK  status: ('A' for Active; 'I' for Inactive)
REMARK    1  A    between atoms: C2_2  and  C3_3 
REMARK       I    between atoms: C3_3  and  N1_5 
REMARK    2  A    between atoms: N1_5  and  C4_7 
REMARK    3  A    between atoms: C4_7  and  C6_9 
REMARK    4  A    between atoms: C4_7  and  C18_37 
REMARK       I    between atoms: N2_13  and  C10_14 
REMARK    5  A    between atoms: C10_14  and  C11_16 
REMARK    6  A    between atoms: C11_16  and  C12_17 
REMARK    7  A    between atoms: C11_16  and  N8_32 
REMARK    8  A    between atoms: C12_17  and  C13_18 
REMARK    9  A    between atoms: C15_22  and  N4_23 
REMARK   10  A    between atoms: N4_23  and  N5_25 
REMARK       I    between atoms: N8_32  and  C16_34 
REMARK   11  A    between atoms: C18_37  and  C21_40 
ROOT
HETATM    1  C6  UNL     1      19.433   6.382  28.278  1.00  0.00     0.021 C 
HETATM    2  C7  UNL     1      19.057   5.020  28.853  1.00  0.00     0.057 C 
HETATM    3  C8  UNL     1      17.801   5.428  29.575  1.00  0.00     0.026 C 
HETATM    4  C9  UNL     1      17.358   6.723  28.949  1.00  0.00     0.132 C 
HETATM    5  N2  UNL     1      18.217   6.733  27.717  1.00  0.00    -0.321 N 
HETATM    6  C10 UNL     1      17.566   7.104  26.540  1.00  0.00     0.247 C 
HETATM    7  O2  UNL     1      18.088   7.287  25.384  1.00  0.00    -0.271 OA
ENDROOT
BRANCH   6   8
HETATM    8  C11 UNL     1      16.096   7.365  26.382  1.00  0.00     0.182 C 
BRANCH   8   9
HETATM    9  C12 UNL     1      15.776   8.158  25.137  1.00  0.00     0.094 C 
BRANCH   9  10
HETATM   10  C13 UNL     1      14.910   9.322  25.317  1.00  0.00     0.045 A 
HETATM   11  C14 UNL     1      13.940   9.531  26.264  1.00  0.00     0.131 A 
HETATM   12  N3  UNL     1      13.385  10.726  26.082  1.00  0.00    -0.199 N 
HETATM   13  C15 UNL     1      13.975  11.311  25.028  1.00  0.00     0.698 A 
ATOM     14  H3  UNL     1      12.638  11.130  26.648  1.00  0.00     0.183 HD
HETATM   15  N7  UNL     1      14.902  10.464  24.559  1.00  0.00    -0.193 N 
ATOM     16  H7  UNL     1      15.508  10.642  23.758  1.00  0.00     0.184 HD
BRANCH  13  17
HETATM   17  N4  UNL     1      13.673  12.492  24.570  1.00  0.00    -0.118 N 
ATOM     18  H4  UNL     1      12.931  12.588  23.877  1.00  0.00     0.207 HD
BRANCH  17  19
HETATM   19  N5  UNL     1      14.350  13.626  25.017  1.00  0.00    -0.235 N 
HETATM   20  N6  UNL     1      15.160  14.256  24.270  1.00  0.00    -0.330 N 
ATOM     21  H62 UNL     1      15.307  13.910  23.321  1.00  0.00     0.178 HD
ATOM     22  H61 UNL     1      15.656  15.085  24.596  1.00  0.00     0.178 HD
ATOM     23  H5  UNL     1      14.191  13.958  25.968  1.00  0.00     0.208 HD
ENDBRANCH  17  19
ENDBRANCH  13  17
ENDBRANCH   9  10
ENDBRANCH   8   9
BRANCH   8  24
HETATM   24  N8  UNL     1      15.496   6.037  26.105  1.00  0.00    -0.348 N 
HETATM   25  C16 UNL     1      14.396   5.544  26.844  1.00  0.00     0.214 C 
HETATM   26  C17 UNL     1      13.830   4.212  26.533  1.00  0.00     0.117 C 
HETATM   27  O3  UNL     1      13.925   6.259  27.754  1.00  0.00    -0.274 OA
ATOM     28  H8  UNL     1      15.889   5.462  25.359  1.00  0.00     0.163 HD
ENDBRANCH   8  24
ENDBRANCH   6   8
BRANCH   1  29
HETATM   29  C4  UNL     1      20.820   6.709  28.019  1.00  0.00     0.075 C 
HETATM   30  C5  UNL     1      20.706   7.935  27.020  1.00  0.00     0.046 C 
BRANCH  29  31
HETATM   31  N1  UNL     1      21.446   5.639  27.274  1.00  0.00    -0.346 N 
HETATM   32  C3  UNL     1      21.178   4.911  26.149  1.00  0.00     0.218 C 
HETATM   33  O1  UNL     1      20.197   5.027  25.425  1.00  0.00    -0.274 OA
ATOM     34  H1  UNL     1      22.324   5.350  27.705  1.00  0.00     0.163 HD
BRANCH  32  35
HETATM   35  C2  UNL     1      22.140   3.827  25.679  1.00  0.00     0.098 C 
HETATM   36  C1  UNL     1      23.500   3.993  26.303  1.00  0.00     0.014 C 
ENDBRANCH  32  35
ENDBRANCH  29  31
BRANCH  29  37
HETATM   37  C18 UNL     1      21.683   7.291  29.099  1.00  0.00    -0.011 C 
HETATM   38  C19 UNL     1      22.175   8.666  28.583  1.00  0.00     0.018 C 
HETATM   39  C20 UNL     1      22.946   6.448  29.263  1.00  0.00     0.018 C 
BRANCH  37  40
HETATM   40  C21 UNL     1      21.242   7.564  30.473  1.00  0.00    -0.042 C 
HETATM   41  C22 UNL     1      22.412   8.431  31.041  1.00  0.00     0.015 C 
HETATM   42  C23 UNL     1      21.138   6.424  31.439  1.00  0.00     0.015 C 
HETATM   43  C24 UNL     1      20.044   8.418  30.744  1.00  0.00     0.015 C 
ENDBRANCH  37  40
ENDBRANCH  29  37
ENDBRANCH   1  29
TORSDOF 11
ENDMDL
MODEL 3
REMARK VINA RESULT: -8.193018523      0.764      1.348
REMARK  11 active torsions:
REMARK  status: ('A' for Active; 'I' for Inactive)
REMARK    1  A    between atoms: C2_2  and  C3_3 
REMARK       I    between atoms: C3_3  and  N1_5 
REMARK    2  A    between atoms: N1_5  and  C4_7 
REMARK    3  A    between atoms: C4_7  and  C6_9 
REMARK    4  A    between atoms: C4_7  and  C18_37 
REMARK       I    between atoms: N2_13  and  C10_14 
REMARK    5  A    between atoms: C10_14  and  C11_16 
REMARK    6  A    between atoms: C11_16  and  C12_17 
REMARK    7  A    between atoms: C11_16  and  N8_32 
REMARK    8  A    between atoms: C12_17  and  C13_18 
REMARK    9  A    between atoms: C15_22  and  N4_23 
REMARK   10  A    between atoms: N4_23  and  N5_25 
REMARK       I    between atoms: N8_32  and  C16_34 
REMARK   11  A    between atoms: C18_37  and  C21_40 
ROOT
HETATM    1  C6  UNL     1      17.134   3.452  21.128  1.00  0.00     0.021 C 
HETATM    2  C7  UNL     1      16.667   2.215  21.889  1.00  0.00     0.057 C 
HETATM    3  C8  UNL     1      17.464   2.420  23.150  1.00  0.00     0.026 C 
HETATM    4  C9  UNL     1      17.838   3.877  23.177  1.00  0.00     0.132 C 
HETATM    5  N2  UNL     1      16.928   4.409  22.107  1.00  0.00    -0.321 N 
HETATM    6  C10 UNL     1      16.277   5.604  22.418  1.00  0.00     0.247 C 
HETATM    7  O2  UNL     1      15.533   6.309  21.650  1.00  0.00    -0.271 OA
ENDROOT
BRANCH   6   8
HETATM    8  C11 UNL     1      16.311   6.317  23.739  1.00  0.00     0.182 C 
BRANCH   8   9
HETATM    9  C12 UNL     1      16.421   7.815  23.590  1.00  0.00     0.094 C 
BRANCH   9  10
HETATM   10  C13 UNL     1      15.615   8.617  24.508  1.00  0.00     0.045 A 
HETATM   11  C14 UNL     1      15.582   8.578  25.878  1.00  0.00     0.131 A 
HETATM   12  N3  UNL     1      14.714   9.477  26.333  1.00  0.00    -0.199 N 
HETATM   13  C15 UNL     1      14.172  10.111  25.281  1.00  0.00     0.698 A 
ATOM     14  H3  UNL     1      14.497   9.655  27.314  1.00  0.00     0.183 HD
HETATM   15  N7  UNL     1      14.714   9.594  24.170  1.00  0.00    -0.193 N 
ATOM     16  H7  UNL     1      14.491   9.883  23.218  1.00  0.00     0.184 HD
BRANCH  13  17
HETATM   17  N4  UNL     1      13.279  11.056  25.365  1.00  0.00    -0.118 N 
ATOM     18  H4  UNL     1      12.341  10.833  25.696  1.00  0.00     0.207 HD
BRANCH  17  19
HETATM   19  N5  UNL     1      13.590  12.367  25.008  1.00  0.00    -0.235 N 
HETATM   20  N6  UNL     1      13.156  13.359  25.670  1.00  0.00    -0.330 N 
ATOM     21  H62 UNL     1      12.566  13.174  26.482  1.00  0.00     0.178 HD
ATOM     22  H61 UNL     1      13.384  14.318  25.409  1.00  0.00     0.178 HD
ATOM     23  H5  UNL     1      14.182  12.534  24.195  1.00  0.00     0.208 HD
ENDBRANCH  17  19
ENDBRANCH  13  17
ENDBRANCH   9  10
ENDBRANCH   8   9
BRANCH   8  24
HETATM   24  N8  UNL     1      14.957   6.129  24.313  1.00  0.00    -0.348 N 
HETATM   25  C16 UNL     1      14.705   5.195  25.345  1.00  0.00     0.214 C 
HETATM   26  C17 UNL     1      13.336   5.041  25.888  1.00  0.00     0.117 C 
HETATM   27  O3  UNL     1      15.661   4.515  25.776  1.00  0.00    -0.274 OA
ATOM     28  H8  UNL     1      14.185   6.690  23.954  1.00  0.00     0.163 HD
ENDBRANCH   8  24
ENDBRANCH   6   8
BRANCH   1  29
HETATM   29  C4  UNL     1      17.172   3.450  19.681  1.00  0.00     0.075 C 
HETATM   30  C5  UNL     1      17.480   4.968  19.340  1.00  0.00     0.046 C 
BRANCH  29  31
HETATM   31  N1  UNL     1      15.852   3.179  19.156  1.00  0.00    -0.346 N 
HETATM   32  C3  UNL     1      14.701   3.880  18.926  1.00  0.00     0.218 C 
HETATM   33  O1  UNL     1      14.517   5.069  19.156  1.00  0.00    -0.274 OA
ATOM     34  H1  UNL     1      15.753   2.201  18.885  1.00  0.00     0.163 HD
BRANCH  32  35
HETATM   35  C2  UNL     1      13.480   3.192  18.330  1.00  0.00     0.098 C 
HETATM   36  C1  UNL     1      13.752   1.738  18.048  1.00  0.00     0.014 C 
ENDBRANCH  32  35
ENDBRANCH  29  31
BRANCH  29  37
HETATM   37  C18 UNL     1      18.280   2.755  18.945  1.00  0.00    -0.011 C 
HETATM   38  C19 UNL     1      18.790   3.746  17.871  1.00  0.00     0.018 C 
HETATM   39  C20 UNL     1      17.717   1.570  18.163  1.00  0.00     0.018 C 
BRANCH  37  40
HETATM   40  C21 UNL     1      19.507   2.238  19.565  1.00  0.00    -0.042 C 
HETATM   41  C22 UNL     1      20.484   2.135  18.350  1.00  0.00     0.015 C 
HETATM   42  C23 UNL     1      19.499   0.854  20.138  1.00  0.00     0.015 C 
HETATM   43  C24 UNL     1      20.285   3.063  20.540  1.00  0.00     0.015 C 
ENDBRANCH  37  40
ENDBRANCH  29  37
ENDBRANCH   1  29
TORSDOF 11
ENDMDL
MODEL 4
REMARK VINA RESULT: -7.951045903      5.452      7.920
REMARK  11 active torsions:
REMARK  status: ('A' for Active; 'I' for Inactive)
REMARK    1  A    between atoms: C2_2  and  C3_3 
REMARK       I    between atoms: C3_3  and  N1_5 
REMARK    2  A    between atoms: N1_5  and  C4_7 
REMARK    3  A    between atoms: C4_7  and  C6_9 
REMARK    4  A    between atoms: C4_7  and  C18_37 
REMARK       I    between atoms: N2_13  and  C10_14 
REMARK    5  A    between atoms: C10_14  and  C11_16 
REMARK    6  A    between atoms: C11_16  and  C12_17 
REMARK    7  A    between atoms: C11_16  and  N8_32 
REMARK    8  A    between atoms: C12_17  and  C13_18 
REMARK    9  A    between atoms: C15_22  and  N4_23 
REMARK   10  A    between atoms: N4_23  and  N5_25 
REMARK       I    between atoms: N8_32  and  C16_34 
REMARK   11  A    between atoms: C18_37  and  C21_40 
ROOT
HETATM    1  C6  UNL     1      18.804   6.309  28.003  1.00  0.00     0.021 C 
HETATM    2  C7  UNL     1      18.333   4.911  28.395  1.00  0.00     0.057 C 
HETATM    3  C8  UNL     1      17.010   5.290  29.005  1.00  0.00     0.026 C 
HETATM    4  C9  UNL     1      16.672   6.652  28.463  1.00  0.00     0.132 C 
HETATM    5  N2  UNL     1      17.669   6.752  27.344  1.00  0.00    -0.321 N 
HETATM    6  C10 UNL     1      17.168   7.254  26.142  1.00  0.00     0.247 C 
HETATM    7  O2  UNL     1      17.826   7.528  25.077  1.00  0.00    -0.271 OA
ENDROOT
BRANCH   6   8
HETATM    8  C11 UNL     1      15.733   7.577  25.844  1.00  0.00     0.182 C 
BRANCH   8   9
HETATM    9  C12 UNL     1      15.546   8.185  24.474  1.00  0.00     0.094 C 
BRANCH   9  10
HETATM   10  C13 UNL     1      15.018   9.548  24.439  1.00  0.00     0.045 A 
HETATM   11  C14 UNL     1      15.178  10.505  23.470  1.00  0.00     0.131 A 
HETATM   12  N3  UNL     1      14.531  11.613  23.821  1.00  0.00    -0.199 N 
HETATM   13  C15 UNL     1      13.946  11.402  25.010  1.00  0.00     0.698 A 
ATOM     14  H3  UNL     1      14.488  12.476  23.279  1.00  0.00     0.183 HD
HETATM   15  N7  UNL     1      14.238  10.151  25.392  1.00  0.00    -0.193 N 
ATOM     16  H7  UNL     1      13.926   9.714  26.259  1.00  0.00     0.184 HD
BRANCH  13  17
HETATM   17  N4  UNL     1      13.230  12.282  25.650  1.00  0.00    -0.118 N 
ATOM     18  H4  UNL     1      13.122  13.220  25.263  1.00  0.00     0.207 HD
BRANCH  17  19
HETATM   19  N5  UNL     1      12.610  11.959  26.856  1.00  0.00    -0.235 N 
HETATM   20  N6  UNL     1      12.918  12.541  27.941  1.00  0.00    -0.330 N 
ATOM     21  H62 UNL     1      13.640  13.262  27.912  1.00  0.00     0.178 HD
ATOM     22  H61 UNL     1      12.465  12.304  28.823  1.00  0.00     0.178 HD
ATOM     23  H5  UNL     1      11.891  11.236  26.867  1.00  0.00     0.208 HD
ENDBRANCH  17  19
ENDBRANCH  13  17
ENDBRANCH   9  10
ENDBRANCH   8   9
BRANCH   8  24
HETATM   24  N8  UNL     1      15.058   6.261  25.728  1.00  0.00    -0.348 N 
HETATM   25  C16 UNL     1      13.781   6.024  26.287  1.00  0.00     0.214 C 
HETATM   26  C17 UNL     1      13.145   4.694  26.148  1.00  0.00     0.117 C 
HETATM   27  O3  UNL     1      13.216   6.960  26.893  1.00  0.00    -0.274 OA
ATOM     28  H8  UNL     1      15.529   5.505  25.231  1.00  0.00     0.163 HD
ENDBRANCH   8  24
ENDBRANCH   6   8
BRANCH   1  29
HETATM   29  C4  UNL     1      20.217   6.614  27.938  1.00  0.00     0.075 C 
HETATM   30  C5  UNL     1      20.256   7.880  26.984  1.00  0.00     0.046 C 
BRANCH  29  31
HETATM   31  N1  UNL     1      20.915   5.559  27.235  1.00  0.00    -0.346 N 
HETATM   32  C3  UNL     1      20.821   4.927  26.027  1.00  0.00     0.218 C 
HETATM   33  O1  UNL     1      19.995   5.154  25.151  1.00  0.00    -0.274 OA
ATOM     34  H1  UNL     1      21.684   5.186  27.792  1.00  0.00     0.163 HD
BRANCH  32  35
HETATM   35  C2  UNL     1      21.797   3.818  25.653  1.00  0.00     0.098 C 
HETATM   36  C1  UNL     1      23.168   4.083  26.215  1.00  0.00     0.014 C 
ENDBRANCH  32  35
ENDBRANCH  29  31
BRANCH  29  37
HETATM   37  C18 UNL     1      20.945   7.133  29.143  1.00  0.00    -0.011 C 
HETATM   38  C19 UNL     1      21.641   8.446  28.710  1.00  0.00     0.018 C 
HETATM   39  C20 UNL     1      22.079   6.179  29.513  1.00  0.00     0.018 C 
BRANCH  37  40
HETATM   40  C21 UNL     1      20.314   7.470  30.425  1.00  0.00    -0.042 C 
HETATM   41  C22 UNL     1      21.423   8.308  31.140  1.00  0.00     0.015 C 
HETATM   42  C23 UNL     1      20.015   6.368  31.396  1.00  0.00     0.015 C 
HETATM   43  C24 UNL     1      19.128   8.380  30.487  1.00  0.00     0.015 C 
ENDBRANCH  37  40
ENDBRANCH  29  37
ENDBRANCH   1  29
TORSDOF 11
ENDMDL
MODEL 5
REMARK VINA RESULT: -7.934190043      4.194      7.653
REMARK  11 active torsions:
REMARK  status: ('A' for Active; 'I' for Inactive)
REMARK    1  A    between atoms: C2_2  and  C3_3 
REMARK       I    between atoms: C3_3  and  N1_5 
REMARK    2  A    between atoms: N1_5  and  C4_7 
REMARK    3  A    between atoms: C4_7  and  C6_9 
REMARK    4  A    between atoms: C4_7  and  C18_37 
REMARK       I    between atoms: N2_13  and  C10_14 
REMARK    5  A    between atoms: C10_14  and  C11_16 
REMARK    6  A    between atoms: C11_16  and  C12_17 
REMARK    7  A    between atoms: C11_16  and  N8_32 
REMARK    8  A    between atoms: C12_17  and  C13_18 
REMARK    9  A    between atoms: C15_22  and  N4_23 
REMARK   10  A    between atoms: N4_23  and  N5_25 
REMARK       I    between atoms: N8_32  and  C16_34 
REMARK   11  A    between atoms: C18_37  and  C21_40 
ROOT
HETATM    1  C6  UNL     1      18.201   6.057  27.141  1.00  0.00     0.021 C 
HETATM    2  C7  UNL     1      17.608   4.660  27.292  1.00  0.00     0.057 C 
HETATM    3  C8  UNL     1      16.153   5.044  27.332  1.00  0.00     0.026 C 
HETATM    4  C9  UNL     1      16.064   6.416  26.722  1.00  0.00     0.132 C 
HETATM    5  N2  UNL     1      17.424   6.520  26.093  1.00  0.00    -0.321 N 
HETATM    6  C10 UNL     1      17.444   7.043  24.799  1.00  0.00     0.247 C 
HETATM    7  O2  UNL     1      18.472   7.324  24.088  1.00  0.00    -0.271 OA
ENDROOT
BRANCH   6   8
HETATM    8  C11 UNL     1      16.247   7.384  23.960  1.00  0.00     0.182 C 
BRANCH   8   9
HETATM    9  C12 UNL     1      16.254   8.819  23.491  1.00  0.00     0.094 C 
BRANCH   9  10
HETATM   10  C13 UNL     1      15.302   9.716  24.143  1.00  0.00     0.045 A 
HETATM   11  C14 UNL     1      14.454   9.454  25.188  1.00  0.00     0.131 A 
HETATM   12  N3  UNL     1      13.754  10.546  25.484  1.00  0.00    -0.199 N 
HETATM   13  C15 UNL     1      14.127  11.527  24.647  1.00  0.00     0.698 A 
ATOM     14  H3  UNL     1      13.053  10.625  26.221  1.00  0.00     0.183 HD
HETATM   15  N7  UNL     1      15.066  11.030  23.830  1.00  0.00    -0.193 N 
ATOM     16  H7  UNL     1      15.534  11.550  23.088  1.00  0.00     0.184 HD
BRANCH  13  17
HETATM   17  N4  UNL     1      13.639  12.734  24.657  1.00  0.00    -0.118 N 
ATOM     18  H4  UNL     1      12.676  12.890  24.362  1.00  0.00     0.207 HD
BRANCH  17  19
HETATM   19  N5  UNL     1      14.418  13.816  25.066  1.00  0.00    -0.235 N 
HETATM   20  N6  UNL     1      15.174  14.436  24.257  1.00  0.00    -0.330 N 
ATOM     21  H62 UNL     1      15.202  14.122  23.287  1.00  0.00     0.178 HD
ATOM     22  H61 UNL     1      15.744  15.228  24.556  1.00  0.00     0.178 HD
ATOM     23  H5  UNL     1      14.378  14.118  26.039  1.00  0.00     0.208 HD
ENDBRANCH  17  19
ENDBRANCH  13  17
ENDBRANCH   9  10
ENDBRANCH   8   9
BRANCH   8  24
HETATM   24  N8  UNL     1      16.425   6.614  22.705  1.00  0.00    -0.348 N 
HETATM   25  C16 UNL     1      15.972   5.280  22.575  1.00  0.00     0.214 C 
HETATM   26  C17 UNL     1      16.171   4.550  21.302  1.00  0.00     0.117 C 
HETATM   27  O3  UNL     1      15.406   4.748  23.554  1.00  0.00    -0.274 OA
ATOM     28  H8  UNL     1      16.888   7.059  21.912  1.00  0.00     0.163 HD
ENDBRANCH   8  24
ENDBRANCH   6   8
BRANCH   1  29
HETATM   29  C4  UNL     1      19.525   6.349  27.648  1.00  0.00     0.075 C 
HETATM   30  C5  UNL     1      19.923   7.660  26.850  1.00  0.00     0.046 C 
BRANCH  29  31
HETATM   31  N1  UNL     1      20.451   5.322  27.223  1.00  0.00    -0.346 N 
HETATM   32  C3  UNL     1      20.797   4.707  26.052  1.00  0.00     0.218 C 
HETATM   33  O1  UNL     1      20.318   4.928  24.947  1.00  0.00    -0.274 OA
ATOM     34  H1  UNL     1      20.991   4.959  28.008  1.00  0.00     0.163 HD
BRANCH  32  35
HETATM   35  C2  UNL     1      21.872   3.628  26.031  1.00  0.00     0.098 C 
HETATM   36  C1  UNL     1      23.207   4.175  26.460  1.00  0.00     0.014 C 
ENDBRANCH  32  35
ENDBRANCH  29  31
BRANCH  29  37
HETATM   37  C18 UNL     1      19.720   6.800  29.066  1.00  0.00    -0.011 C 
HETATM   38  C19 UNL     1      19.202   8.257  29.144  1.00  0.00     0.018 C 
HETATM   39  C20 UNL     1      21.212   6.886  29.382  1.00  0.00     0.018 C 
BRANCH  37  40
HETATM   40  C21 UNL     1      19.131   6.150  30.244  1.00  0.00    -0.042 C 
HETATM   41  C22 UNL     1      19.893   6.832  31.426  1.00  0.00     0.015 C 
HETATM   42  C23 UNL     1      19.373   4.687  30.458  1.00  0.00     0.015 C 
HETATM   43  C24 UNL     1      17.698   6.368  30.611  1.00  0.00     0.015 C 
ENDBRANCH  37  40
ENDBRANCH  29  37
ENDBRANCH   1  29
TORSDOF 11
ENDMDL
