MODEL 1
REMARK VINA RESULT: -8.317113764      0.000      0.000
REMARK  13 active torsions:
REMARK  status: ('A' for Active; 'I' for Inactive)
REMARK    1  A    between atoms: C2_2  and  C3_3 
REMARK    2  A    between atoms: C3_3  and  C4_4 
REMARK    3  A    between atoms: C4_4  and  C5_5 
REMARK    4  A    between atoms: C5_5  and  C6_6 
REMARK    5  A    between atoms: C5_5  and  C12_13 
REMARK    6  A    between atoms: C6_6  and  N1_7 
REMARK       I    between atoms: C12_13  and  N2_15 
REMARK    7  A    between atoms: N2_15  and  C13_17 
REMARK    8  A    between atoms: C13_17  and  C14_18 
REMARK    9  A    between atoms: C15_19  and  C16_20 
REMARK   10  A    between atoms: C18_24  and  N4_25 
REMARK   11  A    between atoms: N5_28  and  C19_29 
REMARK   12  A    between atoms: C19_29  and  C20_30 
REMARK   13  A    between atoms: C21_31  and  C22_32 
ROOT
HETATM    1  C16 UNL     1      18.571   5.900  26.612  1.00  0.00     0.056 A 
HETATM    2  C17 UNL     1      19.587   5.705  25.705  1.00  0.00     0.128 A 
HETATM    3  N3  UNL     1      19.263   5.646  24.399  1.00  0.00    -0.201 N 
ATOM      4  H3  UNL     1      20.003   5.502  23.711  1.00  0.00     0.183 HD
HETATM    5  C18 UNL     1      17.999   5.772  23.977  1.00  0.00     0.679 A 
HETATM    6  N5  UNL     1      16.962   5.966  24.835  1.00  0.00    -0.175 N 
HETATM    7  C26 UNL     1      17.263   6.028  26.140  1.00  0.00     0.046 A 
HETATM    8  C27 UNL     1      16.202   6.236  27.158  1.00  0.00     0.070 C 
ENDROOT
BRANCH   1   9
HETATM    9  C15 UNL     1      18.829   5.979  28.038  1.00  0.00    -0.062 C 
HETATM   10  C14 UNL     1      19.058   6.058  29.219  1.00  0.00    -0.081 C 
BRANCH  10  11
HETATM   11  C13 UNL     1      19.353   6.150  30.649  1.00  0.00     0.217 C 
BRANCH  11  12
HETATM   12  N2  UNL     1      20.234   7.277  30.837  1.00  0.00    -0.346 N 
HETATM   13  C12 UNL     1      21.609   6.999  31.103  1.00  0.00     0.253 C 
HETATM   14  O1  UNL     1      21.927   5.803  31.147  1.00  0.00    -0.268 OA
ATOM     15  H2  UNL     1      19.888   8.235  30.782  1.00  0.00     0.163 HD
BRANCH  13  16
HETATM   16  C5  UNL     1      22.546   8.161  31.304  1.00  0.00     0.044 C 
BRANCH  16  17
HETATM   17  C4  UNL     1      22.121   9.370  30.600  1.00  0.00    -0.008 C 
BRANCH  17  18
HETATM   18  C3  UNL     1      22.828   9.945  29.459  1.00  0.00     0.028 C 
BRANCH  18  19
HETATM   19  C2  UNL     1      22.871   9.113  28.191  1.00  0.00    -0.001 C 
HETATM   20  C1  UNL     1      21.547   8.610  27.740  1.00  0.00     0.005 C 
ENDBRANCH  18  19
ENDBRANCH  17  18
ENDBRANCH  16  17
BRANCH  16  21
HETATM   21  C6  UNL     1      23.959   7.815  31.517  1.00  0.00     0.112 C 
BRANCH  21  22
HETATM   22  N1  UNL     1      24.833   8.546  32.337  1.00  0.00    -0.342 N 
HETATM   23  C7  UNL     1      24.965   8.213  33.630  1.00  0.00     0.096 A 
HETATM   24  C8  UNL     1      25.810   8.870  34.465  1.00  0.00     0.018 A 
HETATM   25  C9  UNL     1      26.566   9.910  33.997  1.00  0.00     0.003 A 
HETATM   26  C10 UNL     1      26.456  10.276  32.681  1.00  0.00     0.018 A 
HETATM   27  C11 UNL     1      25.570   9.560  31.880  1.00  0.00     0.096 A 
ENDBRANCH  21  22
ENDBRANCH  16  21
ENDBRANCH  13  16
ENDBRANCH  11  12
ENDBRANCH  10  11
ENDBRANCH   1   9
BRANCH   6  28
HETATM   28  C19 UNL     1      15.622   6.099  24.362  1.00  0.00     0.241 C 
BRANCH  28  29
HETATM   29  C20 UNL     1      15.190   7.493  24.540  1.00  0.00    -0.080 C 
HETATM   30  C21 UNL     1      14.839   8.636  24.698  1.00  0.00    -0.058 C 
BRANCH  30  31
HETATM   31  C22 UNL     1      14.444  10.001  24.886  1.00  0.00     0.101 A 
HETATM   32  C23 UNL     1      13.632  10.429  25.931  1.00  0.00     0.119 A 
HETATM   33  N6  UNL     1      13.285  11.718  26.069  1.00  0.00    -0.317 N 
HETATM   34  C24 UNL     1      13.705  12.653  25.207  1.00  0.00     0.327 A 
ATOM     35  H6  UNL     1      12.688  11.991  26.849  1.00  0.00     0.170 HD
HETATM   36  O2  UNL     1      13.373  13.882  25.342  1.00  0.00    -0.247 OA
HETATM   37  N7  UNL     1      14.493  12.264  24.187  1.00  0.00    -0.274 N 
HETATM   38  C25 UNL     1      14.860  10.984  24.015  1.00  0.00     0.269 A 
ATOM     39  H7  UNL     1      14.821  12.965  23.522  1.00  0.00     0.173 HD
HETATM   40  O3  UNL     1      15.600  10.619  23.057  1.00  0.00    -0.266 OA
ENDBRANCH  30  31
ENDBRANCH  28  29
ENDBRANCH   6  28
BRANCH   5  41
HETATM   41  N4  UNL     1      17.697   5.714  22.738  1.00  0.00    -0.234 N 
ATOM     42  H42 UNL     1      16.707   5.595  22.523  1.00  0.00     0.174 HD
ATOM     43  H41 UNL     1      18.409   5.782  22.010  1.00  0.00     0.174 HD
ENDBRANCH   5  41
TORSDOF 13
ENDMDL
MODEL 2
REMARK VINA RESULT: -8.225590436      5.843     10.039
REMARK  13 active torsions:
REMARK  status: ('A' for Active; 'I' for Inactive)
REMARK    1  A    between atoms: C2_2  and  C3_3 
REMARK    2  A    between atoms: C3_3  and  C4_4 
REMARK    3  A    between atoms: C4_4  and  C5_5 
REMARK    4  A    between atoms: C5_5  and  C6_6 
REMARK    5  A    between atoms: C5_5  and  C12_13 
REMARK    6  A    between atoms: C6_6  and  N1_7 
REMARK       I    between atoms: C12_13  and  N2_15 
REMARK    7  A    between atoms: N2_15  and  C13_17 
REMARK    8  A    between atoms: C13_17  and  C14_18 
REMARK    9  A    between atoms: C15_19  and  C16_20 
REMARK   10  A    between atoms: C18_24  and  N4_25 
REMARK   11  A    between atoms: N5_28  and  C19_29 
REMARK   12  A    between atoms: C19_29  and  C20_30 
REMARK   13  A    between atoms: C21_31  and  C22_32 
ROOT
HETATM    1  C16 UNL     1      18.962   4.768  24.481  1.00  0.00     0.056 A 
HETATM    2  C17 UNL     1      19.078   4.656  25.848  1.00  0.00     0.128 A 
HETATM    3  N3  UNL     1      17.968   4.826  26.592  1.00  0.00    -0.201 N 
ATOM      4  H3  UNL     1      18.035   4.746  27.607  1.00  0.00     0.183 HD
HETATM    5  C18 UNL     1      16.780   5.095  26.037  1.00  0.00     0.679 A 
HETATM    6  N5  UNL     1      16.615   5.214  24.694  1.00  0.00    -0.175 N 
HETATM    7  C26 UNL     1      17.708   5.049  23.935  1.00  0.00     0.046 A 
HETATM    8  C27 UNL     1      17.634   5.161  22.456  1.00  0.00     0.070 C 
ENDROOT
BRANCH   1   9
HETATM    9  C15 UNL     1      20.105   4.598  23.604  1.00  0.00    -0.062 C 
HETATM   10  C14 UNL     1      21.052   4.476  22.867  1.00  0.00    -0.081 C 
BRANCH  10  11
HETATM   11  C13 UNL     1      22.190   4.332  21.961  1.00  0.00     0.217 C 
BRANCH  11  12
HETATM   12  N2  UNL     1      21.928   3.197  21.111  1.00  0.00    -0.346 N 
HETATM   13  C12 UNL     1      22.937   2.191  21.027  1.00  0.00     0.253 C 
HETATM   14  O1  UNL     1      23.959   2.384  21.699  1.00  0.00    -0.268 OA
ATOM     15  H2  UNL     1      21.054   3.116  20.591  1.00  0.00     0.163 HD
BRANCH  13  16
HETATM   16  C5  UNL     1      22.684   0.997  20.145  1.00  0.00     0.044 C 
BRANCH  16  17
HETATM   17  C4  UNL     1      23.595  -0.116  20.408  1.00  0.00    -0.008 C 
BRANCH  17  18
HETATM   18  C3  UNL     1      23.372  -1.133  21.431  1.00  0.00     0.028 C 
BRANCH  18  19
HETATM   19  C2  UNL     1      21.970  -1.232  22.002  1.00  0.00    -0.001 C 
HETATM   20  C1  UNL     1      21.271  -2.509  21.697  1.00  0.00     0.005 C 
ENDBRANCH  18  19
ENDBRANCH  17  18
ENDBRANCH  16  17
BRANCH  16  21
HETATM   21  C6  UNL     1      22.146   1.291  18.808  1.00  0.00     0.112 C 
BRANCH  21  22
HETATM   22  N1  UNL     1      20.822   1.037  18.419  1.00  0.00    -0.342 N 
HETATM   23  C7  UNL     1      20.235   1.825  17.505  1.00  0.00     0.096 A 
HETATM   24  C8  UNL     1      18.965   1.616  17.075  1.00  0.00     0.018 A 
HETATM   25  C9  UNL     1      18.235   0.572  17.575  1.00  0.00     0.003 A 
HETATM   26  C10 UNL     1      18.803  -0.252  18.511  1.00  0.00     0.018 A 
HETATM   27  C11 UNL     1      20.110   0.020  18.907  1.00  0.00     0.096 A 
ENDBRANCH  21  22
ENDBRANCH  16  21
ENDBRANCH  13  16
ENDBRANCH  11  12
ENDBRANCH  10  11
ENDBRANCH   1   9
BRANCH   6  28
HETATM   28  C19 UNL     1      15.338   5.500  24.124  1.00  0.00     0.241 C 
BRANCH  28  29
HETATM   29  C20 UNL     1      15.042   6.928  24.310  1.00  0.00    -0.080 C 
HETATM   30  C21 UNL     1      14.788   8.098  24.457  1.00  0.00    -0.058 C 
BRANCH  30  31
HETATM   31  C22 UNL     1      14.473   9.483  24.649  1.00  0.00     0.101 A 
HETATM   32  C23 UNL     1      13.667   9.952  25.681  1.00  0.00     0.119 A 
HETATM   33  N6  UNL     1      13.396  11.258  25.823  1.00  0.00    -0.317 N 
HETATM   34  C24 UNL     1      13.889  12.173  24.977  1.00  0.00     0.327 A 
ATOM     35  H6  UNL     1      12.800  11.562  26.594  1.00  0.00     0.170 HD
HETATM   36  O2  UNL     1      13.628  13.418  25.116  1.00  0.00    -0.247 OA
HETATM   37  N7  UNL     1      14.672  11.744  23.969  1.00  0.00    -0.274 N 
HETATM   38  C25 UNL     1      14.964  10.445  23.795  1.00  0.00     0.269 A 
ATOM     39  H7  UNL     1      15.055  12.428  23.317  1.00  0.00     0.173 HD
HETATM   40  O3  UNL     1      15.700  10.043  22.848  1.00  0.00    -0.266 OA
ENDBRANCH  30  31
ENDBRANCH  28  29
ENDBRANCH   6  28
BRANCH   5  41
HETATM   41  N4  UNL     1      15.731   5.256  26.747  1.00  0.00    -0.234 N 
ATOM     42  H42 UNL     1      15.736   4.807  27.663  1.00  0.00     0.174 HD
ATOM     43  H41 UNL     1      14.937   5.802  26.412  1.00  0.00     0.174 HD
ENDBRANCH   5  41
TORSDOF 13
ENDMDL
MODEL 3
REMARK VINA RESULT: -8.165288632      5.722      9.976
REMARK  13 active torsions:
REMARK  status: ('A' for Active; 'I' for Inactive)
REMARK    1  A    between atoms: C2_2  and  C3_3 
REMARK    2  A    between atoms: C3_3  and  C4_4 
REMARK    3  A    between atoms: C4_4  and  C5_5 
REMARK    4  A    between atoms: C5_5  and  C6_6 
REMARK    5  A    between atoms: C5_5  and  C12_13 
REMARK    6  A    between atoms: C6_6  and  N1_7 
REMARK       I    between atoms: C12_13  and  N2_15 
REMARK    7  A    between atoms: N2_15  and  C13_17 
REMARK    8  A    between atoms: C13_17  and  C14_18 
REMARK    9  A    between atoms: C15_19  and  C16_20 
REMARK   10  A    between atoms: C18_24  and  N4_25 
REMARK   11  A    between atoms: N5_28  and  C19_29 
REMARK   12  A    between atoms: C19_29  and  C20_30 
REMARK   13  A    between atoms: C21_31  and  C22_32 
ROOT
HETATM    1  C16 UNL     1      18.419   4.846  25.185  1.00  0.00     0.056 A 
HETATM    2  C17 UNL     1      18.644   4.802  26.542  1.00  0.00     0.128 A 
HETATM    3  N3  UNL     1      17.599   5.026  27.362  1.00  0.00    -0.201 N 
ATOM      4  H3  UNL     1      17.747   4.997  28.371  1.00  0.00     0.183 HD
HETATM    5  C18 UNL     1      16.373   5.285  26.891  1.00  0.00     0.679 A 
HETATM    6  N5  UNL     1      16.102   5.339  25.560  1.00  0.00    -0.175 N 
HETATM    7  C26 UNL     1      17.128   5.118  24.726  1.00  0.00     0.046 A 
HETATM    8  C27 UNL     1      16.937   5.157  23.254  1.00  0.00     0.070 C 
ENDROOT
BRANCH   1   9
HETATM    9  C15 UNL     1      19.486   4.614  24.229  1.00  0.00    -0.062 C 
HETATM   10  C14 UNL     1      20.358   4.416  23.420  1.00  0.00    -0.081 C 
BRANCH  10  11
HETATM   11  C13 UNL     1      21.409   4.161  22.436  1.00  0.00     0.217 C 
BRANCH  11  12
HETATM   12  N2  UNL     1      20.800   4.210  21.129  1.00  0.00    -0.346 N 
HETATM   13  C12 UNL     1      20.317   2.982  20.582  1.00  0.00     0.253 C 
HETATM   14  O1  UNL     1      20.465   1.975  21.286  1.00  0.00    -0.268 OA
ATOM     15  H2  UNL     1      20.717   5.088  20.616  1.00  0.00     0.163 HD
BRANCH  13  16
HETATM   16  C5  UNL     1      19.678   3.010  19.219  1.00  0.00     0.044 C 
BRANCH  16  17
HETATM   17  C4  UNL     1      20.481   2.344  18.194  1.00  0.00    -0.008 C 
BRANCH  17  18
HETATM   18  C3  UNL     1      20.030   1.191  17.421  1.00  0.00     0.028 C 
BRANCH  18  19
HETATM   19  C2  UNL     1      19.040   0.260  18.096  1.00  0.00    -0.001 C 
HETATM   20  C1  UNL     1      19.660  -0.755  18.989  1.00  0.00     0.005 C 
ENDBRANCH  18  19
ENDBRANCH  17  18
ENDBRANCH  16  17
BRANCH  16  21
HETATM   21  C6  UNL     1      18.826   4.174  18.935  1.00  0.00     0.112 C 
BRANCH  21  22
HETATM   22  N1  UNL     1      17.423   4.154  18.991  1.00  0.00    -0.342 N 
HETATM   23  C7  UNL     1      16.756   5.268  19.328  1.00  0.00     0.096 A 
HETATM   24  C8  UNL     1      15.401   5.315  19.378  1.00  0.00     0.018 A 
HETATM   25  C9  UNL     1      14.664   4.201  19.078  1.00  0.00     0.003 A 
HETATM   26  C10 UNL     1      15.314   3.046  18.730  1.00  0.00     0.018 A 
HETATM   27  C11 UNL     1      16.706   3.068  18.698  1.00  0.00     0.096 A 
ENDBRANCH  21  22
ENDBRANCH  16  21
ENDBRANCH  13  16
ENDBRANCH  11  12
ENDBRANCH  10  11
ENDBRANCH   1   9
BRANCH   6  28
HETATM   28  C19 UNL     1      14.787   5.616  25.081  1.00  0.00     0.241 C 
BRANCH  28  29
HETATM   29  C20 UNL     1      14.573   7.071  25.088  1.00  0.00    -0.080 C 
HETATM   30  C21 UNL     1      14.396   8.264  25.106  1.00  0.00    -0.058 C 
BRANCH  30  31
HETATM   31  C22 UNL     1      14.206   9.684  25.137  1.00  0.00     0.101 A 
HETATM   32  C23 UNL     1      13.439  10.335  26.097  1.00  0.00     0.119 A 
HETATM   33  N6  UNL     1      13.286  11.668  26.089  1.00  0.00    -0.317 N 
HETATM   34  C24 UNL     1      13.866  12.434  25.156  1.00  0.00     0.327 A 
ATOM     35  H6  UNL     1      12.715  12.108  26.811  1.00  0.00     0.170 HD
HETATM   36  O2  UNL     1      13.718  13.706  25.151  1.00  0.00    -0.247 OA
HETATM   37  N7  UNL     1      14.614  11.828  24.215  1.00  0.00    -0.274 N 
HETATM   38  C25 UNL     1      14.789  10.496  24.190  1.00  0.00     0.269 A 
ATOM     39  H7  UNL     1      15.062  12.398  23.498  1.00  0.00     0.173 HD
HETATM   40  O3  UNL     1      15.492   9.927  23.307  1.00  0.00    -0.266 OA
ENDBRANCH  30  31
ENDBRANCH  28  29
ENDBRANCH   6  28
BRANCH   5  41
HETATM   41  N4  UNL     1      15.387   5.499  27.673  1.00  0.00    -0.234 N 
ATOM     42  H42 UNL     1      15.052   4.693  28.202  1.00  0.00     0.174 HD
ATOM     43  H41 UNL     1      14.962   6.422  27.759  1.00  0.00     0.174 HD
ENDBRANCH   5  41
TORSDOF 13
ENDMDL
MODEL 4
REMARK VINA RESULT: -8.155056537      1.740      2.593
REMARK  13 active torsions:
REMARK  status: ('A' for Active; 'I' for Inactive)
REMARK    1  A    between atoms: C2_2  and  C3_3 
REMARK    2  A    between atoms: C3_3  and  C4_4 
REMARK    3  A    between atoms: C4_4  and  C5_5 
REMARK    4  A    between atoms: C5_5  and  C6_6 
REMARK    5  A    between atoms: C5_5  and  C12_13 
REMARK    6  A    between atoms: C6_6  and  N1_7 
REMARK       I    between atoms: C12_13  and  N2_15 
REMARK    7  A    between atoms: N2_15  and  C13_17 
REMARK    8  A    between atoms: C13_17  and  C14_18 
REMARK    9  A    between atoms: C15_19  and  C16_20 
REMARK   10  A    between atoms: C18_24  and  N4_25 
REMARK   11  A    between atoms: N5_28  and  C19_29 
REMARK   12  A    between atoms: C19_29  and  C20_30 
REMARK   13  A    between atoms: C21_31  and  C22_32 
ROOT
HETATM    1  C16 UNL     1      18.348   5.120  26.159  1.00  0.00     0.056 A 
HETATM    2  C17 UNL     1      17.558   4.219  26.836  1.00  0.00     0.128 A 
HETATM    3  N3  UNL     1      16.316   3.992  26.366  1.00  0.00    -0.201 N 
ATOM      4  H3  UNL     1      15.715   3.327  26.854  1.00  0.00     0.183 HD
HETATM    5  C18 UNL     1      15.847   4.615  25.277  1.00  0.00     0.679 A 
HETATM    6  N5  UNL     1      16.590   5.512  24.576  1.00  0.00    -0.175 N 
HETATM    7  C26 UNL     1      17.829   5.751  25.027  1.00  0.00     0.046 A 
HETATM    8  C27 UNL     1      18.720   6.716  24.333  1.00  0.00     0.070 C 
ENDROOT
BRANCH   1   9
HETATM    9  C15 UNL     1      19.699   5.423  26.593  1.00  0.00    -0.062 C 
HETATM   10  C14 UNL     1      20.828   5.674  26.934  1.00  0.00    -0.081 C 
BRANCH  10  11
HETATM   11  C13 UNL     1      22.203   5.966  27.338  1.00  0.00     0.217 C 
BRANCH  11  12
HETATM   12  N2  UNL     1      22.161   6.455  28.694  1.00  0.00    -0.346 N 
HETATM   13  C12 UNL     1      22.605   7.793  28.924  1.00  0.00     0.253 C 
HETATM   14  O1  UNL     1      22.988   8.421  27.929  1.00  0.00    -0.268 OA
ATOM     15  H2  UNL     1      21.828   5.868  29.459  1.00  0.00     0.163 HD
BRANCH  13  16
HETATM   16  C5  UNL     1      22.571   8.324  30.333  1.00  0.00     0.044 C 
BRANCH  16  17
HETATM   17  C4  UNL     1      21.366   7.933  31.066  1.00  0.00    -0.008 C 
BRANCH  17  18
HETATM   18  C3  UNL     1      20.069   8.587  30.916  1.00  0.00     0.028 C 
BRANCH  18  19
HETATM   19  C2  UNL     1      19.012   7.836  30.130  1.00  0.00    -0.001 C 
HETATM   20  C1  UNL     1      18.873   8.271  28.714  1.00  0.00     0.005 C 
ENDBRANCH  18  19
ENDBRANCH  17  18
ENDBRANCH  16  17
BRANCH  16  21
HETATM   21  C6  UNL     1      23.260   9.603  30.553  1.00  0.00     0.112 C 
BRANCH  21  22
HETATM   22  N1  UNL     1      24.430   9.747  31.314  1.00  0.00    -0.342 N 
HETATM   23  C7  UNL     1      25.127  10.892  31.253  1.00  0.00     0.096 A 
HETATM   24  C8  UNL     1      26.253  11.096  31.981  1.00  0.00     0.018 A 
HETATM   25  C9  UNL     1      26.717  10.116  32.816  1.00  0.00     0.003 A 
HETATM   26  C10 UNL     1      26.030   8.933  32.903  1.00  0.00     0.018 A 
HETATM   27  C11 UNL     1      24.882   8.791  32.128  1.00  0.00     0.096 A 
ENDBRANCH  21  22
ENDBRANCH  16  21
ENDBRANCH  13  16
ENDBRANCH  11  12
ENDBRANCH  10  11
ENDBRANCH   1   9
BRANCH   6  28
HETATM   28  C19 UNL     1      16.070   6.162  23.417  1.00  0.00     0.241 C 
BRANCH  28  29
HETATM   29  C20 UNL     1      15.582   7.496  23.797  1.00  0.00    -0.080 C 
HETATM   30  C21 UNL     1      15.189   8.595  24.100  1.00  0.00    -0.058 C 
BRANCH  30  31
HETATM   31  C22 UNL     1      14.708   9.902  24.441  1.00  0.00     0.101 A 
HETATM   32  C23 UNL     1      14.999  11.045  23.703  1.00  0.00     0.119 A 
HETATM   33  N6  UNL     1      14.528  12.249  24.059  1.00  0.00    -0.317 N 
HETATM   34  C24 UNL     1      13.756  12.409  25.142  1.00  0.00     0.327 A 
ATOM     35  H6  UNL     1      14.764  13.063  23.491  1.00  0.00     0.170 HD
HETATM   36  O2  UNL     1      13.308  13.559  25.478  1.00  0.00    -0.247 OA
HETATM   37  N7  UNL     1      13.460  11.318  25.873  1.00  0.00    -0.274 N 
HETATM   38  C25 UNL     1      13.913  10.096  25.549  1.00  0.00     0.269 A 
ATOM     39  H7  UNL     1      12.872  11.422  26.700  1.00  0.00     0.173 HD
HETATM   40  O3  UNL     1      13.634   9.071  26.236  1.00  0.00    -0.266 OA
ENDBRANCH  30  31
ENDBRANCH  28  29
ENDBRANCH   6  28
BRANCH   5  41
HETATM   41  N4  UNL     1      14.669   4.397  24.837  1.00  0.00    -0.234 N 
ATOM     42  H42 UNL     1      14.539   3.534  24.309  1.00  0.00     0.174 HD
ATOM     43  H41 UNL     1      13.905   5.053  25.005  1.00  0.00     0.174 HD
ENDBRANCH   5  41
TORSDOF 13
ENDMDL
MODEL 5
REMARK VINA RESULT: -8.007680064      5.851      9.792
REMARK  13 active torsions:
REMARK  status: ('A' for Active; 'I' for Inactive)
REMARK    1  A    between atoms: C2_2  and  C3_3 
REMARK    2  A    between atoms: C3_3  and  C4_4 
REMARK    3  A    between atoms: C4_4  and  C5_5 
REMARK    4  A    between atoms: C5_5  and  C6_6 
REMARK    5  A    between atoms: C5_5  and  C12_13 
REMARK    6  A    between atoms: C6_6  and  N1_7 
REMARK       I    between atoms: C12_13  and  N2_15 
REMARK    7  A    between atoms: N2_15  and  C13_17 
REMARK    8  A    between atoms: C13_17  and  C14_18 
REMARK    9  A    between atoms: C15_19  and  C16_20 
REMARK   10  A    between atoms: C18_24  and  N4_25 
REMARK   11  A    between atoms: N5_28  and  C19_29 
REMARK   12  A    between atoms: C19_29  and  C20_30 
REMARK   13  A    between atoms: C21_31  and  C22_32 
ROOT
HETATM    1  C16 UNL     1      18.978   4.765  24.467  1.00  0.00     0.056 A 
HETATM    2  C17 UNL     1      19.089   4.666  25.835  1.00  0.00     0.128 A 
HETATM    3  N3  UNL     1      17.975   4.844  26.572  1.00  0.00    -0.201 N 
ATOM      4  H3  UNL     1      18.038   4.774  27.588  1.00  0.00     0.183 HD
HETATM    5  C18 UNL     1      16.790   5.110  26.009  1.00  0.00     0.679 A 
HETATM    6  N5  UNL     1      16.631   5.217  24.664  1.00  0.00    -0.175 N 
HETATM    7  C26 UNL     1      17.727   5.042  23.911  1.00  0.00     0.046 A 
HETATM    8  C27 UNL     1      17.660   5.141  22.431  1.00  0.00     0.070 C 
ENDROOT
BRANCH   1   9
HETATM    9  C15 UNL     1      20.125   4.584  23.596  1.00  0.00    -0.062 C 
HETATM   10  C14 UNL     1      21.089   4.445  22.885  1.00  0.00    -0.081 C 
BRANCH  10  11
HETATM   11  C13 UNL     1      22.261   4.294  22.023  1.00  0.00     0.217 C 
BRANCH  11  12
HETATM   12  N2  UNL     1      21.904   3.384  20.963  1.00  0.00    -0.346 N 
HETATM   13  C12 UNL     1      22.735   2.239  20.771  1.00  0.00     0.253 C 
HETATM   14  O1  UNL     1      23.698   2.127  21.542  1.00  0.00    -0.268 OA
ATOM     15  H2  UNL     1      21.089   3.552  20.373  1.00  0.00     0.163 HD
BRANCH  13  16
HETATM   16  C5  UNL     1      22.381   1.276  19.669  1.00  0.00     0.044 C 
BRANCH  16  17
HETATM   17  C4  UNL     1      22.035   1.941  18.414  1.00  0.00    -0.008 C 
BRANCH  17  18
HETATM   18  C3  UNL     1      20.970   1.500  17.519  1.00  0.00     0.028 C 
BRANCH  18  19
HETATM   19  C2  UNL     1      19.612   2.152  17.698  1.00  0.00    -0.001 C 
HETATM   20  C1  UNL     1      18.463   1.305  17.281  1.00  0.00     0.005 C 
ENDBRANCH  18  19
ENDBRANCH  17  18
ENDBRANCH  16  17
BRANCH  16  21
HETATM   21  C6  UNL     1      21.770   0.009  20.097  1.00  0.00     0.112 C 
BRANCH  21  22
HETATM   22  N1  UNL     1      20.391  -0.175  20.288  1.00  0.00    -0.342 N 
HETATM   23  C7  UNL     1      19.764  -1.189  19.672  1.00  0.00     0.096 A 
HETATM   24  C8  UNL     1      18.439  -1.428  19.836  1.00  0.00     0.018 A 
HETATM   25  C9  UNL     1      17.692  -0.624  20.652  1.00  0.00     0.003 A 
HETATM   26  C10 UNL     1      18.300   0.422  21.297  1.00  0.00     0.018 A 
HETATM   27  C11 UNL     1      19.663   0.610  21.084  1.00  0.00     0.096 A 
ENDBRANCH  21  22
ENDBRANCH  16  21
ENDBRANCH  13  16
ENDBRANCH  11  12
ENDBRANCH  10  11
ENDBRANCH   1   9
BRANCH   6  28
HETATM   28  C19 UNL     1      15.358   5.500  24.086  1.00  0.00     0.241 C 
BRANCH  28  29
HETATM   29  C20 UNL     1      15.056   6.927  24.272  1.00  0.00    -0.080 C 
HETATM   30  C21 UNL     1      14.797   8.095  24.425  1.00  0.00    -0.058 C 
BRANCH  30  31
HETATM   31  C22 UNL     1      14.482   9.479  24.627  1.00  0.00     0.101 A 
HETATM   32  C23 UNL     1      13.675   9.940  25.662  1.00  0.00     0.119 A 
HETATM   33  N6  UNL     1      13.405  11.245  25.814  1.00  0.00    -0.317 N 
HETATM   34  C24 UNL     1      13.899  12.166  24.977  1.00  0.00     0.327 A 
ATOM     35  H6  UNL     1      12.808  11.543  26.586  1.00  0.00     0.170 HD
HETATM   36  O2  UNL     1      13.640  13.410  25.125  1.00  0.00    -0.247 OA
HETATM   37  N7  UNL     1      14.684  11.745  23.966  1.00  0.00    -0.274 N 
HETATM   38  C25 UNL     1      14.975  10.447  23.782  1.00  0.00     0.269 A 
ATOM     39  H7  UNL     1      15.069  12.434  23.320  1.00  0.00     0.173 HD
HETATM   40  O3  UNL     1      15.712  10.052  22.833  1.00  0.00    -0.266 OA
ENDBRANCH  30  31
ENDBRANCH  28  29
ENDBRANCH   6  28
BRANCH   5  41
HETATM   41  N4  UNL     1      15.738   5.280  26.712  1.00  0.00    -0.234 N 
ATOM     42  H42 UNL     1      15.857   5.203  27.723  1.00  0.00     0.174 HD
ATOM     43  H41 UNL     1      14.834   5.481  26.284  1.00  0.00     0.174 HD
ENDBRANCH   5  41
TORSDOF 13
ENDMDL
