MODEL 1
REMARK VINA RESULT: -8.284371504      0.000      0.000
REMARK  10 active torsions:
REMARK  status: ('A' for Active; 'I' for Inactive)
REMARK    1  A    between atoms: N1_1  and  C1_4 
REMARK    2  A    between atoms: C2_7  and  C3_8 
REMARK    3  A    between atoms: C4_9  and  N3_10 
REMARK    4  A    between atoms: N3_10  and  N4_12 
REMARK    5  A    between atoms: N5_15  and  C5_16 
REMARK    6  A    between atoms: C5_16  and  C6_17 
REMARK    7  A    between atoms: C6_17  and  N6_18 
REMARK    8  A    between atoms: C8_22  and  C9_23 
REMARK    9  A    between atoms: C12_33  and  O1_34 
REMARK   10  A    between atoms: N12_41  and  N13_42 
ROOT
HETATM    1  C3  UNL     1      79.777 -14.344   6.564  1.00  0.00     0.090 A 
HETATM    2  C4  UNL     1      78.941 -15.180   7.280  1.00  0.00     0.138 A 
HETATM    3  N5  UNL     1      79.361 -15.878   8.377  1.00  0.00    -0.337 N 
HETATM    4  C11 UNL     1      80.642 -15.742   8.766  1.00  0.00     0.133 A 
HETATM    5  C12 UNL     1      81.519 -14.930   8.094  1.00  0.00     0.132 A 
HETATM    6  C13 UNL     1      81.090 -14.224   6.989  1.00  0.00     0.222 A 
HETATM    7  O2  UNL     1      81.883 -13.471   6.367  1.00  0.00    -0.284 OA
ENDROOT
BRANCH   3   8
HETATM    8  C5  UNL     1      78.444 -16.715   9.119  1.00  0.00     0.150 C 
BRANCH   8   9
HETATM    9  C6  UNL     1      79.181 -18.012   9.352  1.00  0.00     0.149 C 
BRANCH   9  10
HETATM   10  N6  UNL     1      79.532 -18.281  10.709  1.00  0.00    -0.349 N 
HETATM   11  C7  UNL     1      80.715 -18.703  11.162  1.00  0.00     0.183 A 
HETATM   12  N7  UNL     1      80.628 -18.863  12.501  1.00  0.00    -0.348 N 
HETATM   13  C8  UNL     1      79.389 -18.546  12.927  1.00  0.00     0.095 A 
ATOM     14  H7  UNL     1      81.390 -19.178  13.102  1.00  0.00     0.167 HD
HETATM   15  C10 UNL     1      78.729 -18.184  11.773  1.00  0.00     0.125 A 
BRANCH  13  16
HETATM   16  C9  UNL     1      78.881 -18.590  14.290  1.00  0.00     0.162 A 
HETATM   17  N8  UNL     1      79.307 -19.388  15.282  1.00  0.00    -0.270 N 
HETATM   18  N9  UNL     1      78.613 -19.141  16.374  1.00  0.00    -0.225 N 
ATOM     19  H8  UNL     1      80.053 -20.079  15.201  1.00  0.00     0.190 HD
HETATM   20  N10 UNL     1      77.732 -18.188  16.121  1.00  0.00    -0.005 NA
ATOM     21  H9  UNL     1      78.736 -19.610  17.272  1.00  0.00     0.205 HD
HETATM   22  N11 UNL     1      77.904 -17.855  14.837  1.00  0.00    -0.265 N 
ATOM     23  H11 UNL     1      77.367 -17.141  14.344  1.00  0.00     0.186 HD
ENDBRANCH  13  16
ENDBRANCH   9  10
ENDBRANCH   8   9
ENDBRANCH   3   8
BRANCH   2  24
HETATM   24  N3  UNL     1      77.580 -15.464   6.936  1.00  0.00    -0.291 N 
ATOM     25  H3  UNL     1      76.794 -15.133   7.496  1.00  0.00     0.188 HD
BRANCH  24  26
HETATM   26  N4  UNL     1      77.404 -16.241   5.759  1.00  0.00    -0.344 N 
ATOM     27  H42 UNL     1      78.200 -16.566   5.209  1.00  0.00     0.176 HD
ATOM     28  H41 UNL     1      76.435 -16.443   5.514  1.00  0.00     0.176 HD
ENDBRANCH  24  26
ENDBRANCH   2  24
BRANCH   1  29
HETATM   29  C2  UNL     1      79.274 -13.523   5.447  1.00  0.00     0.072 A 
HETATM   30  N2  UNL     1      79.774 -13.631   4.192  1.00  0.00    -0.189 N 
HETATM   31  C1  UNL     1      79.369 -12.829   3.171  1.00  0.00     0.700 A 
ATOM     32  H2  UNL     1      80.482 -14.342   4.007  1.00  0.00     0.184 HD
HETATM   33  N12 UNL     1      78.443 -11.903   3.422  1.00  0.00    -0.055 N 
HETATM   34  C15 UNL     1      77.908 -11.747   4.650  1.00  0.00     0.284 A 
HETATM   35  C14 UNL     1      78.323 -12.558   5.674  1.00  0.00     0.108 A 
HETATM   36  O3  UNL     1      77.038 -10.873   4.872  1.00  0.00    -0.266 OA
BRANCH  31  37
HETATM   37  N1  UNL     1      79.882 -12.968   2.005  1.00  0.00    -0.233 N 
ATOM     38  H12 UNL     1      79.724 -12.282   1.267  1.00  0.00     0.174 HD
ATOM     39  H11 UNL     1      80.468 -13.776   1.798  1.00  0.00     0.174 HD
ENDBRANCH  31  37
BRANCH  33  40
HETATM   40  N13 UNL     1      78.002 -11.071   2.397  1.00  0.00    -0.321 N 
ATOM     41 2H13 UNL     1      78.203 -10.073   2.463  1.00  0.00     0.178 HD
ATOM     42 1H13 UNL     1      77.487 -11.464   1.610  1.00  0.00     0.178 HD
ENDBRANCH  33  40
ENDBRANCH   1  29
BRANCH   5  43
HETATM   43  O1  UNL     1      82.828 -14.798   8.500  1.00  0.00    -0.356 OA
ATOM     44  H1  UNL     1      83.546 -14.863   7.881  1.00  0.00     0.218 HD
ENDBRANCH   5  43
TORSDOF 10
ENDMDL
MODEL 2
REMARK VINA RESULT: -8.161150872      1.203      1.716
REMARK  10 active torsions:
REMARK  status: ('A' for Active; 'I' for Inactive)
REMARK    1  A    between atoms: N1_1  and  C1_4 
REMARK    2  A    between atoms: C2_7  and  C3_8 
REMARK    3  A    between atoms: C4_9  and  N3_10 
REMARK    4  A    between atoms: N3_10  and  N4_12 
REMARK    5  A    between atoms: N5_15  and  C5_16 
REMARK    6  A    between atoms: C5_16  and  C6_17 
REMARK    7  A    between atoms: C6_17  and  N6_18 
REMARK    8  A    between atoms: C8_22  and  C9_23 
REMARK    9  A    between atoms: C12_33  and  O1_34 
REMARK   10  A    between atoms: N12_41  and  N13_42 
ROOT
HETATM    1  C3  UNL     1      80.333 -14.480   6.644  1.00  0.00     0.090 A 
HETATM    2  C4  UNL     1      79.768 -15.678   7.042  1.00  0.00     0.138 A 
HETATM    3  N5  UNL     1      80.226 -16.386   8.117  1.00  0.00    -0.337 N 
HETATM    4  C11 UNL     1      81.270 -15.892   8.808  1.00  0.00     0.133 A 
HETATM    5  C12 UNL     1      81.872 -14.711   8.459  1.00  0.00     0.132 A 
HETATM    6  C13 UNL     1      81.405 -13.998   7.374  1.00  0.00     0.222 A 
HETATM    7  O2  UNL     1      81.946 -12.910   7.047  1.00  0.00    -0.284 OA
ENDROOT
BRANCH   3   8
HETATM    8  C5  UNL     1      79.583 -17.618   8.522  1.00  0.00     0.150 C 
BRANCH   8   9
HETATM    9  C6  UNL     1      78.747 -17.258   9.727  1.00  0.00     0.149 C 
BRANCH   9  10
HETATM   10  N6  UNL     1      79.164 -17.846  10.958  1.00  0.00    -0.349 N 
HETATM   11  C7  UNL     1      80.223 -18.635  11.150  1.00  0.00     0.183 A 
HETATM   12  N7  UNL     1      80.253 -19.003  12.451  1.00  0.00    -0.348 N 
HETATM   13  C8  UNL     1      79.214 -18.455  13.112  1.00  0.00     0.095 A 
ATOM     14  H7  UNL     1      80.959 -19.607  12.871  1.00  0.00     0.167 HD
HETATM   15  C10 UNL     1      78.553 -17.734  12.141  1.00  0.00     0.125 A 
BRANCH  13  16
HETATM   16  C9  UNL     1      78.879 -18.606  14.520  1.00  0.00     0.162 A 
HETATM   17  N8  UNL     1      77.919 -17.952  15.193  1.00  0.00    -0.270 N 
HETATM   18  N9  UNL     1      77.910 -18.355  16.448  1.00  0.00    -0.225 N 
ATOM     19  H8  UNL     1      77.294 -17.252  14.794  1.00  0.00     0.190 HD
HETATM   20  N10 UNL     1      78.851 -19.268  16.616  1.00  0.00    -0.005 NA
ATOM     21  H9  UNL     1      77.277 -18.016  17.173  1.00  0.00     0.205 HD
HETATM   22  N11 UNL     1      79.442 -19.416  15.426  1.00  0.00    -0.265 N 
ATOM     23  H11 UNL     1      80.212 -20.057  15.234  1.00  0.00     0.186 HD
ENDBRANCH  13  16
ENDBRANCH   9  10
ENDBRANCH   8   9
ENDBRANCH   3   8
BRANCH   2  24
HETATM   24  N3  UNL     1      78.700 -16.344   6.360  1.00  0.00    -0.291 N 
ATOM     25  H3  UNL     1      78.861 -17.122   5.719  1.00  0.00     0.188 HD
BRANCH  24  26
HETATM   26  N4  UNL     1      77.399 -15.843   6.639  1.00  0.00    -0.344 N 
ATOM     27  H42 UNL     1      76.896 -15.261   5.969  1.00  0.00     0.176 HD
ATOM     28  H41 UNL     1      77.019 -16.108   7.548  1.00  0.00     0.176 HD
ENDBRANCH  24  26
ENDBRANCH   2  24
BRANCH   1  29
HETATM   29  C2  UNL     1      79.757 -13.685   5.544  1.00  0.00     0.072 A 
HETATM   30  N2  UNL     1      78.728 -12.825   5.741  1.00  0.00    -0.189 N 
HETATM   31  C1  UNL     1      78.140 -12.141   4.723  1.00  0.00     0.700 A 
ATOM     32  H2  UNL     1      78.381 -12.685   6.691  1.00  0.00     0.184 HD
HETATM   33  N12 UNL     1      78.599 -12.329   3.486  1.00  0.00    -0.055 N 
HETATM   34  C15 UNL     1      79.620 -13.172   3.226  1.00  0.00     0.284 A 
HETATM   35  C14 UNL     1      80.206 -13.859   4.257  1.00  0.00     0.108 A 
HETATM   36  O3  UNL     1      80.042 -13.340   2.058  1.00  0.00    -0.266 OA
BRANCH  31  37
HETATM   37  N1  UNL     1      77.165 -11.346   4.964  1.00  0.00    -0.233 N 
ATOM     38  H12 UNL     1      77.180 -10.374   4.658  1.00  0.00     0.174 HD
ATOM     39  H11 UNL     1      76.344 -11.684   5.467  1.00  0.00     0.174 HD
ENDBRANCH  31  37
BRANCH  33  40
HETATM   40  N13 UNL     1      78.025 -11.640   2.422  1.00  0.00    -0.321 N 
ATOM     41 2H13 UNL     1      77.995 -10.621   2.464  1.00  0.00     0.178 HD
ATOM     42 1H13 UNL     1      77.644 -12.157   1.629  1.00  0.00     0.178 HD
ENDBRANCH  33  40
ENDBRANCH   1  29
BRANCH   5  43
HETATM   43  O1  UNL     1      82.941 -14.215   9.172  1.00  0.00    -0.356 OA
ATOM     44  H1  UNL     1      82.815 -13.740   9.985  1.00  0.00     0.218 HD
ENDBRANCH   5  43
TORSDOF 10
ENDMDL
MODEL 3
REMARK VINA RESULT: -8.040684966      2.679     10.199
REMARK  10 active torsions:
REMARK  status: ('A' for Active; 'I' for Inactive)
REMARK    1  A    between atoms: N1_1  and  C1_4 
REMARK    2  A    between atoms: C2_7  and  C3_8 
REMARK    3  A    between atoms: C4_9  and  N3_10 
REMARK    4  A    between atoms: N3_10  and  N4_12 
REMARK    5  A    between atoms: N5_15  and  C5_16 
REMARK    6  A    between atoms: C5_16  and  C6_17 
REMARK    7  A    between atoms: C6_17  and  N6_18 
REMARK    8  A    between atoms: C8_22  and  C9_23 
REMARK    9  A    between atoms: C12_33  and  O1_34 
REMARK   10  A    between atoms: N12_41  and  N13_42 
ROOT
HETATM    1  C3  UNL     1      78.291 -15.452   6.958  1.00  0.00     0.090 A 
HETATM    2  C4  UNL     1      78.737 -15.896   5.727  1.00  0.00     0.138 A 
HETATM    3  N5  UNL     1      78.518 -15.200   4.571  1.00  0.00    -0.337 N 
HETATM    4  C11 UNL     1      77.840 -14.040   4.644  1.00  0.00     0.133 A 
HETATM    5  C12 UNL     1      77.372 -13.551   5.836  1.00  0.00     0.132 A 
HETATM    6  C13 UNL     1      77.597 -14.254   7.001  1.00  0.00     0.222 A 
HETATM    7  O2  UNL     1      77.177 -13.813   8.102  1.00  0.00    -0.284 OA
ENDROOT
BRANCH   3   8
HETATM    8  C5  UNL     1      79.033 -15.683   3.307  1.00  0.00     0.150 C 
BRANCH   8   9
HETATM    9  C6  UNL     1      80.324 -14.931   3.085  1.00  0.00     0.149 C 
BRANCH   9  10
HETATM   10  N6  UNL     1      80.334 -14.053   1.960  1.00  0.00    -0.349 N 
HETATM   11  C7  UNL     1      80.689 -14.358   0.710  1.00  0.00     0.183 A 
HETATM   12  N7  UNL     1      80.587 -13.243  -0.048  1.00  0.00    -0.348 N 
HETATM   13  C8  UNL     1      80.165 -12.207   0.705  1.00  0.00     0.095 A 
ATOM     14  H7  UNL     1      80.799 -13.192  -1.044  1.00  0.00     0.167 HD
HETATM   15  C10 UNL     1      80.016 -12.755   1.961  1.00  0.00     0.125 A 
BRANCH  13  16
HETATM   16  C9  UNL     1      79.933 -10.836   0.278  1.00  0.00     0.162 A 
HETATM   17  N8  UNL     1      79.499  -9.819   1.038  1.00  0.00    -0.270 N 
HETATM   18  N9  UNL     1      79.414  -8.727   0.305  1.00  0.00    -0.225 N 
ATOM     19  H8  UNL     1      79.270  -9.882   2.030  1.00  0.00     0.190 HD
HETATM   20  N10 UNL     1      79.787  -9.006  -0.932  1.00  0.00    -0.005 NA
ATOM     21  H9  UNL     1      79.109  -7.813   0.639  1.00  0.00     0.205 HD
HETATM   22  N11 UNL     1      80.105 -10.305  -0.940  1.00  0.00    -0.265 N 
ATOM     23  H11 UNL     1      80.432 -10.819  -1.758  1.00  0.00     0.186 HD
ENDBRANCH  13  16
ENDBRANCH   9  10
ENDBRANCH   8   9
ENDBRANCH   3   8
BRANCH   2  24
HETATM   24  N3  UNL     1      79.410 -17.139   5.501  1.00  0.00    -0.291 N 
ATOM     25  H3  UNL     1      80.417 -17.196   5.345  1.00  0.00     0.188 HD
BRANCH  24  26
HETATM   26  N4  UNL     1      78.574 -18.289   5.510  1.00  0.00    -0.344 N 
ATOM     27  H42 UNL     1      78.318 -18.757   6.380  1.00  0.00     0.176 HD
ATOM     28  H41 UNL     1      78.257 -18.601   4.592  1.00  0.00     0.176 HD
ENDBRANCH  24  26
ENDBRANCH   2  24
BRANCH   1  29
HETATM   29  C2  UNL     1      78.628 -16.167   8.202  1.00  0.00     0.072 A 
HETATM   30  N2  UNL     1      77.680 -16.539   9.097  1.00  0.00    -0.189 N 
HETATM   31  C1  UNL     1      77.985 -17.134  10.282  1.00  0.00     0.700 A 
ATOM     32  H2  UNL     1      76.700 -16.365   8.874  1.00  0.00     0.184 HD
HETATM   33  N12 UNL     1      79.268 -17.357  10.567  1.00  0.00    -0.055 N 
HETATM   34  C15 UNL     1      80.256 -17.010   9.717  1.00  0.00     0.284 A 
HETATM   35  C14 UNL     1      79.941 -16.410   8.526  1.00  0.00     0.108 A 
HETATM   36  O3  UNL     1      81.459 -17.227   9.996  1.00  0.00    -0.266 OA
BRANCH  31  37
HETATM   37  N1  UNL     1      77.051 -17.457  11.097  1.00  0.00    -0.233 N 
ATOM     38  H12 UNL     1      76.977 -17.032  12.021  1.00  0.00     0.174 HD
ATOM     39  H11 UNL     1      76.353 -18.149  10.825  1.00  0.00     0.174 HD
ENDBRANCH  31  37
BRANCH  33  40
HETATM   40  N13 UNL     1      79.615 -17.971  11.767  1.00  0.00    -0.321 N 
ATOM     41 2H13 UNL     1      80.534 -18.406  11.842  1.00  0.00     0.178 HD
ATOM     42 1H13 UNL     1      78.952 -17.979  12.542  1.00  0.00     0.178 HD
ENDBRANCH  33  40
ENDBRANCH   1  29
BRANCH   5  43
HETATM   43  O1  UNL     1      76.678 -12.363   5.899  1.00  0.00    -0.356 OA
ATOM     44  H1  UNL     1      77.049 -11.596   6.320  1.00  0.00     0.218 HD
ENDBRANCH   5  43
TORSDOF 10
ENDMDL
MODEL 4
REMARK VINA RESULT: -7.960885263      2.482      4.371
REMARK  10 active torsions:
REMARK  status: ('A' for Active; 'I' for Inactive)
REMARK    1  A    between atoms: N1_1  and  C1_4 
REMARK    2  A    between atoms: C2_7  and  C3_8 
REMARK    3  A    between atoms: C4_9  and  N3_10 
REMARK    4  A    between atoms: N3_10  and  N4_12 
REMARK    5  A    between atoms: N5_15  and  C5_16 
REMARK    6  A    between atoms: C5_16  and  C6_17 
REMARK    7  A    between atoms: C6_17  and  N6_18 
REMARK    8  A    between atoms: C8_22  and  C9_23 
REMARK    9  A    between atoms: C12_33  and  O1_34 
REMARK   10  A    between atoms: N12_41  and  N13_42 
ROOT
HETATM    1  C3  UNL     1      79.788 -17.016   9.419  1.00  0.00     0.090 A 
HETATM    2  C4  UNL     1      78.917 -17.536  10.359  1.00  0.00     0.138 A 
HETATM    3  N5  UNL     1      79.346 -18.080  11.537  1.00  0.00    -0.337 N 
HETATM    4  C11 UNL     1      80.669 -18.109  11.782  1.00  0.00     0.133 A 
HETATM    5  C12 UNL     1      81.580 -17.610  10.887  1.00  0.00     0.132 A 
HETATM    6  C13 UNL     1      81.143 -17.059   9.700  1.00  0.00     0.222 A 
HETATM    7  O2  UNL     1      81.968 -16.594   8.872  1.00  0.00    -0.284 OA
ENDROOT
BRANCH   3   8
HETATM    8  C5  UNL     1      78.399 -18.582  12.510  1.00  0.00     0.150 C 
BRANCH   8   9
HETATM    9  C6  UNL     1      79.236 -19.123  13.644  1.00  0.00     0.149 C 
BRANCH   9  10
HETATM   10  N6  UNL     1      78.864 -18.676  14.947  1.00  0.00    -0.349 N 
HETATM   11  C7  UNL     1      79.152 -19.267  16.108  1.00  0.00     0.183 A 
HETATM   12  N7  UNL     1      78.594 -18.544  17.106  1.00  0.00    -0.348 N 
HETATM   13  C8  UNL     1      77.941 -17.479  16.598  1.00  0.00     0.095 A 
ATOM     14  H7  UNL     1      78.658 -18.771  18.098  1.00  0.00     0.167 HD
HETATM   15  C10 UNL     1      78.133 -17.596  15.239  1.00  0.00     0.125 A 
BRANCH  13  16
HETATM   16  C9  UNL     1      77.203 -16.460  17.329  1.00  0.00     0.162 A 
HETATM   17  N8  UNL     1      76.371 -15.543  16.812  1.00  0.00    -0.270 N 
HETATM   18  N9  UNL     1      75.885 -14.793  17.781  1.00  0.00    -0.225 N 
ATOM     19  H8  UNL     1      76.150 -15.442  15.821  1.00  0.00     0.190 HD
HETATM   20  N10 UNL     1      76.384 -15.201  18.935  1.00  0.00    -0.005 NA
ATOM     21  H9  UNL     1      75.230 -14.021  17.659  1.00  0.00     0.205 HD
HETATM   22  N11 UNL     1      77.193 -16.227  18.648  1.00  0.00    -0.265 N 
ATOM     23  H11 UNL     1      77.727 -16.757  19.337  1.00  0.00     0.186 HD
ENDBRANCH  13  16
ENDBRANCH   9  10
ENDBRANCH   8   9
ENDBRANCH   3   8
BRANCH   2  24
HETATM   24  N3  UNL     1      77.498 -17.627  10.196  1.00  0.00    -0.291 N 
ATOM     25  H3  UNL     1      77.046 -18.440   9.777  1.00  0.00     0.188 HD
BRANCH  24  26
HETATM   26  N4  UNL     1      76.763 -16.502  10.661  1.00  0.00    -0.344 N 
ATOM     27  H42 UNL     1      77.043 -15.991  11.498  1.00  0.00     0.176 HD
ATOM     28  H41 UNL     1      75.949 -16.254  10.098  1.00  0.00     0.176 HD
ENDBRANCH  24  26
ENDBRANCH   2  24
BRANCH   1  29
HETATM   29  C2  UNL     1      79.296 -16.343   8.204  1.00  0.00     0.072 A 
HETATM   30  N2  UNL     1      79.560 -15.039   7.947  1.00  0.00    -0.189 N 
HETATM   31  C1  UNL     1      79.050 -14.387   6.867  1.00  0.00     0.700 A 
ATOM     32  H2  UNL     1      80.164 -14.525   8.589  1.00  0.00     0.184 HD
HETATM   33  N12 UNL     1      78.262 -15.065   6.032  1.00  0.00    -0.055 N 
HETATM   34  C15 UNL     1      77.962 -16.364   6.234  1.00  0.00     0.284 A 
HETATM   35  C14 UNL     1      78.478 -17.013   7.326  1.00  0.00     0.108 A 
HETATM   36  O3  UNL     1      77.220 -16.990   5.442  1.00  0.00    -0.266 OA
BRANCH  31  37
HETATM   37  N1  UNL     1      79.324 -13.150   6.676  1.00  0.00    -0.233 N 
ATOM     38  H12 UNL     1      78.994 -12.425   7.312  1.00  0.00     0.174 HD
ATOM     39  H11 UNL     1      79.891 -12.871   5.875  1.00  0.00     0.174 HD
ENDBRANCH  31  37
BRANCH  33  40
HETATM   40  N13 UNL     1      77.729 -14.430   4.914  1.00  0.00    -0.321 N 
ATOM     41 2H13 UNL     1      78.146 -13.550   4.612  1.00  0.00     0.178 HD
ATOM     42 1H13 UNL     1      76.939 -14.847   4.422  1.00  0.00     0.178 HD
ENDBRANCH  33  40
ENDBRANCH   1  29
BRANCH   5  43
HETATM   43  O1  UNL     1      82.932 -17.646  11.146  1.00  0.00    -0.356 OA
ATOM     44  H1  UNL     1      83.571 -17.507  10.457  1.00  0.00     0.218 HD
ENDBRANCH   5  43
TORSDOF 10
ENDMDL
MODEL 5
REMARK VINA RESULT: -7.931796460      2.615      4.568
REMARK  10 active torsions:
REMARK  status: ('A' for Active; 'I' for Inactive)
REMARK    1  A    between atoms: N1_1  and  C1_4 
REMARK    2  A    between atoms: C2_7  and  C3_8 
REMARK    3  A    between atoms: C4_9  and  N3_10 
REMARK    4  A    between atoms: N3_10  and  N4_12 
REMARK    5  A    between atoms: N5_15  and  C5_16 
REMARK    6  A    between atoms: C5_16  and  C6_17 
REMARK    7  A    between atoms: C6_17  and  N6_18 
REMARK    8  A    between atoms: C8_22  and  C9_23 
REMARK    9  A    between atoms: C12_33  and  O1_34 
REMARK   10  A    between atoms: N12_41  and  N13_42 
ROOT
HETATM    1  C3  UNL     1      79.750 -17.116   9.490  1.00  0.00     0.090 A 
HETATM    2  C4  UNL     1      78.908 -17.563  10.492  1.00  0.00     0.138 A 
HETATM    3  N5  UNL     1      79.374 -18.037  11.687  1.00  0.00    -0.337 N 
HETATM    4  C11 UNL     1      80.704 -18.069  11.885  1.00  0.00     0.133 A 
HETATM    5  C12 UNL     1      81.587 -17.642  10.927  1.00  0.00     0.132 A 
HETATM    6  C13 UNL     1      81.114 -17.161   9.724  1.00  0.00     0.222 A 
HETATM    7  O2  UNL     1      81.913 -16.761   8.839  1.00  0.00    -0.284 OA
ENDROOT
BRANCH   3   8
HETATM    8  C5  UNL     1      78.457 -18.462  12.723  1.00  0.00     0.150 C 
BRANCH   8   9
HETATM    9  C6  UNL     1      79.320 -19.097  13.787  1.00  0.00     0.149 C 
BRANCH   9  10
HETATM   10  N6  UNL     1      78.970 -18.774  15.132  1.00  0.00    -0.349 N 
HETATM   11  C7  UNL     1      77.912 -18.069  15.537  1.00  0.00     0.183 A 
HETATM   12  N7  UNL     1      77.957 -17.963  16.884  1.00  0.00    -0.348 N 
HETATM   13  C8  UNL     1      79.045 -18.600  17.363  1.00  0.00     0.095 A 
ATOM     14  H7  UNL     1      77.269 -17.473  17.455  1.00  0.00     0.167 HD
HETATM   15  C10 UNL     1      79.656 -19.098  16.232  1.00  0.00     0.125 A 
BRANCH  13  16
HETATM   16  C9  UNL     1      79.464 -18.717  18.751  1.00  0.00     0.162 A 
HETATM   17  N8  UNL     1      80.377 -17.962  19.382  1.00  0.00    -0.270 N 
HETATM   18  N9  UNL     1      80.489 -18.360  20.633  1.00  0.00    -0.225 N 
ATOM     19  H8  UNL     1      80.903 -17.198  18.958  1.00  0.00     0.190 HD
HETATM   20  N10 UNL     1      79.661 -19.370  20.841  1.00  0.00    -0.005 NA
ATOM     21  H9  UNL     1      81.114 -17.954  21.330  1.00  0.00     0.205 HD
HETATM   22  N11 UNL     1      79.035 -19.582  19.679  1.00  0.00    -0.265 N 
ATOM     23  H11 UNL     1      78.329 -20.302  19.521  1.00  0.00     0.186 HD
ENDBRANCH  13  16
ENDBRANCH   9  10
ENDBRANCH   8   9
ENDBRANCH   3   8
BRANCH   2  24
HETATM   24  N3  UNL     1      77.483 -17.644  10.387  1.00  0.00    -0.291 N 
ATOM     25  H3  UNL     1      77.004 -18.487  10.070  1.00  0.00     0.188 HD
BRANCH  24  26
HETATM   26  N4  UNL     1      76.782 -16.463  10.756  1.00  0.00    -0.344 N 
ATOM     27  H42 UNL     1      75.827 -16.288  10.442  1.00  0.00     0.176 HD
ATOM     28  H41 UNL     1      77.304 -15.817  11.349  1.00  0.00     0.176 HD
ENDBRANCH  24  26
ENDBRANCH   2  24
BRANCH   1  29
HETATM   29  C2  UNL     1      79.221 -16.515   8.253  1.00  0.00     0.072 A 
HETATM   30  N2  UNL     1      79.392 -15.202   7.961  1.00  0.00    -0.189 N 
HETATM   31  C1  UNL     1      78.846 -14.620   6.859  1.00  0.00     0.700 A 
ATOM     32  H2  UNL     1      79.951 -14.629   8.593  1.00  0.00     0.184 HD
HETATM   33  N12 UNL     1      78.117 -15.376   6.039  1.00  0.00    -0.055 N 
HETATM   34  C15 UNL     1      77.910 -16.688   6.276  1.00  0.00     0.284 A 
HETATM   35  C14 UNL     1      78.462 -17.267   7.389  1.00  0.00     0.108 A 
HETATM   36  O3  UNL     1      77.223 -17.388   5.496  1.00  0.00    -0.266 OA
BRANCH  31  37
HETATM   37  N1  UNL     1      79.032 -13.372   6.635  1.00  0.00    -0.233 N 
ATOM     38  H12 UNL     1      79.695 -12.824   7.182  1.00  0.00     0.174 HD
ATOM     39  H11 UNL     1      78.515 -12.905   5.890  1.00  0.00     0.174 HD
ENDBRANCH  31  37
BRANCH  33  40
HETATM   40  N13 UNL     1      77.550 -14.814   4.899  1.00  0.00    -0.321 N 
ATOM     41 2H13 UNL     1      77.446 -13.800   4.859  1.00  0.00     0.178 HD
ATOM     42 1H13 UNL     1      77.248 -15.415   4.133  1.00  0.00     0.178 HD
ENDBRANCH  33  40
ENDBRANCH   1  29
BRANCH   5  43
HETATM   43  O1  UNL     1      82.948 -17.680  11.139  1.00  0.00    -0.356 OA
ATOM     44  H1  UNL     1      83.497 -16.925  10.963  1.00  0.00     0.218 HD
ENDBRANCH   5  43
TORSDOF 10
ENDMDL
