MODEL 1
REMARK VINA RESULT: -5.991662373      0.000      0.000
REMARK  5 active torsions:
REMARK  status: ('A' for Active; 'I' for Inactive)
REMARK    1  A    between atoms: C5_6  and  C6_7 
REMARK    2  A    between atoms: C6_7  and  N2_8 
REMARK    3  A    between atoms: N2_8  and  N3_9 
REMARK    4  A    between atoms: N2_8  and  C7_12 
REMARK    5  A    between atoms: C7_12  and  N4_13 
ROOT
HETATM    1  N2  UNL     1     -44.775   3.296 -33.413  1.00  0.00    -0.208 NA
ENDROOT
BRANCH   1   2
HETATM    2  C6  UNL     1     -45.123   3.366 -34.804  1.00  0.00     0.154 C 
BRANCH   2   3
HETATM    3  C5  UNL     1     -44.801   2.116 -35.545  1.00  0.00    -0.028 A 
HETATM    4  C4  UNL     1     -43.722   2.063 -36.402  1.00  0.00     0.011 A 
HETATM    5  C3  UNL     1     -43.434   0.899 -37.083  1.00  0.00     0.018 A 
HETATM    6  C2  UNL     1     -44.238  -0.210 -36.898  1.00  0.00     0.090 A 
HETATM    7  N1  UNL     1     -45.296  -0.182 -36.068  1.00  0.00    -0.370 N 
HETATM    8  C1  UNL     1     -46.144  -1.361 -35.876  1.00  0.00     0.154 C 
HETATM    9  C8  UNL     1     -45.552   0.966 -35.417  1.00  0.00     0.098 A 
ENDBRANCH   2   3
ENDBRANCH   1   2
BRANCH   1  10
HETATM   10  N3  UNL     1     -43.998   4.435 -33.090  1.00  0.00    -0.362 NA
ATOM     11  H32 UNL     1     -44.074   5.060 -33.893  1.00  0.00     0.171 HD
ATOM     12  H31 UNL     1     -43.042   4.130 -32.907  1.00  0.00     0.171 HD
ENDBRANCH   1  10
BRANCH   1  13
HETATM   13  C7  UNL     1     -45.928   3.341 -32.532  1.00  0.00     0.342 C 
BRANCH  13  14
HETATM   14  N4  UNL     1     -47.173   3.388 -33.188  1.00  0.00    -0.066 N 
ATOM     15  H43 UNL     1     -47.795   4.045 -32.717  1.00  0.00     0.275 HD
ATOM     16  H42 UNL     1     -47.079   3.851 -34.092  1.00  0.00     0.275 HD
ATOM     17  H41 UNL     1     -47.633   2.485 -33.301  1.00  0.00     0.275 HD
ENDBRANCH  13  14
ENDBRANCH   1  13
TORSDOF 5
ENDMDL
MODEL 2
REMARK VINA RESULT: -5.988937806      1.827      4.732
REMARK  5 active torsions:
REMARK  status: ('A' for Active; 'I' for Inactive)
REMARK    1  A    between atoms: C5_6  and  C6_7 
REMARK    2  A    between atoms: C6_7  and  N2_8 
REMARK    3  A    between atoms: N2_8  and  N3_9 
REMARK    4  A    between atoms: N2_8  and  C7_12 
REMARK    5  A    between atoms: C7_12  and  N4_13 
ROOT
HETATM    1  N2  UNL     1     -46.630  -1.661 -35.681  1.00  0.00    -0.208 NA
ENDROOT
BRANCH   1   2
HETATM    2  C6  UNL     1     -45.526  -1.155 -36.447  1.00  0.00     0.154 C 
BRANCH   2   3
HETATM    3  C5  UNL     1     -45.187   0.254 -36.112  1.00  0.00    -0.028 A 
HETATM    4  C4  UNL     1     -44.192   0.923 -36.795  1.00  0.00     0.011 A 
HETATM    5  C3  UNL     1     -43.888   2.228 -36.475  1.00  0.00     0.018 A 
HETATM    6  C2  UNL     1     -44.588   2.858 -35.464  1.00  0.00     0.090 A 
HETATM    7  N1  UNL     1     -45.562   2.228 -34.784  1.00  0.00    -0.370 N 
HETATM    8  C1  UNL     1     -46.301   2.902 -33.713  1.00  0.00     0.154 C 
HETATM    9  C8  UNL     1     -45.838   0.955 -35.118  1.00  0.00     0.098 A 
ENDBRANCH   2   3
ENDBRANCH   1   2
BRANCH   1  10
HETATM   10  N3  UNL     1     -47.829  -1.155 -36.242  1.00  0.00    -0.362 NA
ATOM     11  H32 UNL     1     -48.420  -1.969 -36.414  1.00  0.00     0.171 HD
ATOM     12  H31 UNL     1     -47.594  -0.641 -37.091  1.00  0.00     0.171 HD
ENDBRANCH   1  10
BRANCH   1  13
HETATM   13  C7  UNL     1     -46.748  -3.106 -35.734  1.00  0.00     0.342 C 
BRANCH  13  14
HETATM   14  N4  UNL     1     -46.372  -3.774 -34.552  1.00  0.00    -0.066 N 
ATOM     15  H43 UNL     1     -45.381  -3.625 -34.363  1.00  0.00     0.275 HD
ATOM     16  H42 UNL     1     -46.779  -3.311 -33.740  1.00  0.00     0.275 HD
ATOM     17  H41 UNL     1     -46.589  -4.771 -34.535  1.00  0.00     0.275 HD
ENDBRANCH  13  14
ENDBRANCH   1  13
TORSDOF 5
ENDMDL
MODEL 3
REMARK VINA RESULT: -5.864245411      3.221      4.663
REMARK  5 active torsions:
REMARK  status: ('A' for Active; 'I' for Inactive)
REMARK    1  A    between atoms: C5_6  and  C6_7 
REMARK    2  A    between atoms: C6_7  and  N2_8 
REMARK    3  A    between atoms: N2_8  and  N3_9 
REMARK    4  A    between atoms: N2_8  and  C7_12 
REMARK    5  A    between atoms: C7_12  and  N4_13 
ROOT
HETATM    1  N2  UNL     1     -44.631   5.956 -29.954  1.00  0.00    -0.208 NA
ENDROOT
BRANCH   1   2
HETATM    2  C6  UNL     1     -43.897   6.108 -31.179  1.00  0.00     0.154 C 
BRANCH   2   3
HETATM    3  C5  UNL     1     -44.494   5.347 -32.309  1.00  0.00    -0.028 A 
HETATM    4  C4  UNL     1     -44.403   5.817 -33.603  1.00  0.00     0.011 A 
HETATM    5  C3  UNL     1     -44.960   5.102 -34.641  1.00  0.00     0.018 A 
HETATM    6  C2  UNL     1     -45.610   3.913 -34.372  1.00  0.00     0.090 A 
HETATM    7  N1  UNL     1     -45.713   3.434 -33.119  1.00  0.00    -0.370 N 
HETATM    8  C1  UNL     1     -46.404   2.173 -32.841  1.00  0.00     0.154 C 
HETATM    9  C8  UNL     1     -45.159   4.152 -32.126  1.00  0.00     0.098 A 
ENDBRANCH   2   3
ENDBRANCH   1   2
BRANCH   1  10
HETATM   10  N3  UNL     1     -43.746   6.187 -28.872  1.00  0.00    -0.362 NA
ATOM     11  H32 UNL     1     -42.877   5.713 -29.120  1.00  0.00     0.171 HD
ATOM     12  H31 UNL     1     -44.176   5.822 -28.023  1.00  0.00     0.171 HD
ENDBRANCH   1  10
BRANCH   1  13
HETATM   13  C7  UNL     1     -45.700   6.927 -29.804  1.00  0.00     0.342 C 
BRANCH  13  14
HETATM   14  N4  UNL     1     -46.990   6.434 -30.080  1.00  0.00    -0.066 N 
ATOM     15  H43 UNL     1     -46.962   5.799 -30.877  1.00  0.00     0.275 HD
ATOM     16  H42 UNL     1     -47.285   5.787 -29.349  1.00  0.00     0.275 HD
ATOM     17  H41 UNL     1     -47.701   7.152 -30.224  1.00  0.00     0.275 HD
ENDBRANCH  13  14
ENDBRANCH   1  13
TORSDOF 5
ENDMDL
MODEL 4
REMARK VINA RESULT: -5.831443725      1.052      1.292
REMARK  5 active torsions:
REMARK  status: ('A' for Active; 'I' for Inactive)
REMARK    1  A    between atoms: C5_6  and  C6_7 
REMARK    2  A    between atoms: C6_7  and  N2_8 
REMARK    3  A    between atoms: N2_8  and  N3_9 
REMARK    4  A    between atoms: N2_8  and  C7_12 
REMARK    5  A    between atoms: C7_12  and  N4_13 
ROOT
HETATM    1  N2  UNL     1     -45.435   3.179 -32.560  1.00  0.00    -0.208 NA
ENDROOT
BRANCH   1   2
HETATM    2  C6  UNL     1     -45.898   3.435 -33.894  1.00  0.00     0.154 C 
BRANCH   2   3
HETATM    3  C5  UNL     1     -45.381   2.452 -34.885  1.00  0.00    -0.028 A 
HETATM    4  C4  UNL     1     -44.365   2.792 -35.753  1.00  0.00     0.011 A 
HETATM    5  C3  UNL     1     -43.896   1.872 -36.666  1.00  0.00     0.018 A 
HETATM    6  C2  UNL     1     -44.454   0.608 -36.701  1.00  0.00     0.090 A 
HETATM    7  N1  UNL     1     -45.445   0.253 -35.865  1.00  0.00    -0.370 N 
HETATM    8  C1  UNL     1     -46.033  -1.089 -35.907  1.00  0.00     0.154 C 
HETATM    9  C8  UNL     1     -45.883   1.170 -34.985  1.00  0.00     0.098 A 
ENDBRANCH   2   3
ENDBRANCH   1   2
BRANCH   1  10
HETATM   10  N3  UNL     1     -44.019   3.225 -32.563  1.00  0.00    -0.362 NA
ATOM     11  H32 UNL     1     -43.767   3.984 -33.196  1.00  0.00     0.171 HD
ATOM     12  H31 UNL     1     -43.669   2.316 -32.865  1.00  0.00     0.171 HD
ENDBRANCH   1  10
BRANCH   1  13
HETATM   13  C7  UNL     1     -45.861   4.183 -31.603  1.00  0.00     0.342 C 
BRANCH  13  14
HETATM   14  N4  UNL     1     -45.446   5.496 -31.899  1.00  0.00    -0.066 N 
ATOM     15  H43 UNL     1     -44.480   5.636 -31.602  1.00  0.00     0.275 HD
ATOM     16  H42 UNL     1     -45.340   5.615 -32.906  1.00  0.00     0.275 HD
ATOM     17  H41 UNL     1     -46.043   6.231 -31.518  1.00  0.00     0.275 HD
ENDBRANCH  13  14
ENDBRANCH   1  13
TORSDOF 5
ENDMDL
MODEL 5
REMARK VINA RESULT: -5.717748378      3.215      5.062
REMARK  5 active torsions:
REMARK  status: ('A' for Active; 'I' for Inactive)
REMARK    1  A    between atoms: C5_6  and  C6_7 
REMARK    2  A    between atoms: C6_7  and  N2_8 
REMARK    3  A    between atoms: N2_8  and  N3_9 
REMARK    4  A    between atoms: N2_8  and  C7_12 
REMARK    5  A    between atoms: C7_12  and  N4_13 
ROOT
HETATM    1  N2  UNL     1     -44.851   6.621 -30.032  1.00  0.00    -0.208 NA
ENDROOT
BRANCH   1   2
HETATM    2  C6  UNL     1     -44.944   5.217 -30.319  1.00  0.00     0.154 C 
BRANCH   2   3
HETATM    3  C5  UNL     1     -45.001   4.928 -31.778  1.00  0.00    -0.028 A 
HETATM    4  C4  UNL     1     -44.462   5.808 -32.693  1.00  0.00     0.011 A 
HETATM    5  C3  UNL     1     -44.522   5.529 -34.041  1.00  0.00     0.018 A 
HETATM    6  C2  UNL     1     -45.127   4.361 -34.465  1.00  0.00     0.090 A 
HETATM    7  N1  UNL     1     -45.660   3.488 -33.592  1.00  0.00    -0.370 N 
HETATM    8  C1  UNL     1     -46.300   2.251 -34.047  1.00  0.00     0.154 C 
HETATM    9  C8  UNL     1     -45.587   3.785 -32.283  1.00  0.00     0.098 A 
ENDBRANCH   2   3
ENDBRANCH   1   2
BRANCH   1  10
HETATM   10  N3  UNL     1     -46.083   7.045 -29.477  1.00  0.00    -0.362 NA
ATOM     11  H32 UNL     1     -45.922   7.125 -28.472  1.00  0.00     0.171 HD
ATOM     12  H31 UNL     1     -46.796   6.357 -29.717  1.00  0.00     0.171 HD
ENDBRANCH   1  10
BRANCH   1  13
HETATM   13  C7  UNL     1     -43.841   6.936 -29.039  1.00  0.00     0.342 C 
BRANCH  13  14
HETATM   14  N4  UNL     1     -43.048   5.844 -28.633  1.00  0.00    -0.066 N 
ATOM     15  H43 UNL     1     -43.515   5.327 -27.889  1.00  0.00     0.275 HD
ATOM     16  H42 UNL     1     -43.031   5.131 -29.361  1.00  0.00     0.275 HD
ATOM     17  H41 UNL     1     -42.097   6.085 -28.353  1.00  0.00     0.275 HD
ENDBRANCH  13  14
ENDBRANCH   1  13
TORSDOF 5
ENDMDL
