MODEL 1
REMARK VINA RESULT: -6.251899798      0.000      0.000
REMARK  3 active torsions:
REMARK  status: ('A' for Active; 'I' for Inactive)
REMARK    1  A    between atoms: C1_4  and  C2_6 
REMARK    2  A    between atoms: C3_7  and  C4_8 
REMARK    3  A    between atoms: C4_8  and  N3_9 
ROOT
HETATM    1  C4  UNL     1     -46.026  -0.080 -36.064  1.00  0.00     0.177 C 
ENDROOT
BRANCH   1   2
HETATM    2  C3  UNL     1     -46.045  -1.533 -35.750  1.00  0.00    -0.002 C 
HETATM    3  C2  UNL     1     -47.100  -2.288 -35.878  1.00  0.00     0.042 C 
BRANCH   3   4
HETATM    4  C1  UNL     1     -47.025  -3.693 -35.549  1.00  0.00     0.109 C 
HETATM    5  N1  UNL     1     -46.382  -4.087 -34.506  1.00  0.00    -0.388 N 
ATOM      6  H12 UNL     1     -46.330  -5.079 -34.274  1.00  0.00     0.157 HD
ATOM      7  H11 UNL     1     -45.927  -3.390 -33.917  1.00  0.00     0.157 HD
HETATM    8  N2  UNL     1     -47.657  -4.657 -36.364  1.00  0.00    -0.083 NA
ENDBRANCH   3   4
ENDBRANCH   1   2
BRANCH   1   9
HETATM    9  N3  UNL     1     -44.685   0.339 -36.480  1.00  0.00    -0.284 N 
HETATM   10  C5  UNL     1     -44.170   1.576 -36.377  1.00  0.00     0.130 A 
HETATM   11  C6  UNL     1     -42.886   1.554 -36.878  1.00  0.00     0.127 A 
HETATM   12  N4  UNL     1     -42.655   0.283 -37.278  1.00  0.00    -0.296 N 
HETATM   13  N5  UNL     1     -43.737  -0.402 -37.027  1.00  0.00    -0.241 N 
ATOM     14  H4  UNL     1     -41.797  -0.074 -37.697  1.00  0.00     0.187 HD
ATOM     15  H5  UNL     1     -43.839  -1.396 -37.230  1.00  0.00     0.208 HD
ENDBRANCH   1   9
TORSDOF 3
ENDMDL
MODEL 2
REMARK VINA RESULT: -6.006530962      6.613      8.843
REMARK  3 active torsions:
REMARK  status: ('A' for Active; 'I' for Inactive)
REMARK    1  A    between atoms: C1_4  and  C2_6 
REMARK    2  A    between atoms: C3_7  and  C4_8 
REMARK    3  A    between atoms: C4_8  and  N3_9 
ROOT
HETATM    1  C4  UNL     1     -44.491   5.503 -33.225  1.00  0.00     0.177 C 
ENDROOT
BRANCH   1   2
HETATM    2  C3  UNL     1     -44.616   6.088 -31.864  1.00  0.00    -0.002 C 
HETATM    3  C2  UNL     1     -43.884   5.721 -30.849  1.00  0.00     0.042 C 
BRANCH   3   4
HETATM    4  C1  UNL     1     -44.076   6.345 -29.560  1.00  0.00     0.109 C 
HETATM    5  N1  UNL     1     -45.193   6.914 -29.268  1.00  0.00    -0.388 N 
ATOM      6  H12 UNL     1     -45.328   7.355 -28.358  1.00  0.00     0.157 HD
ATOM      7  H11 UNL     1     -45.940   6.916 -29.963  1.00  0.00     0.157 HD
HETATM    8  N2  UNL     1     -43.043   6.342 -28.598  1.00  0.00    -0.083 NA
ENDBRANCH   3   4
ENDBRANCH   1   2
BRANCH   1   9
HETATM    9  N3  UNL     1     -45.386   4.351 -33.374  1.00  0.00    -0.284 N 
HETATM   10  C5  UNL     1     -45.300   3.394 -34.312  1.00  0.00     0.130 A 
HETATM   11  C6  UNL     1     -46.325   2.494 -34.108  1.00  0.00     0.127 A 
HETATM   12  N4  UNL     1     -47.015   2.941 -33.034  1.00  0.00    -0.296 N 
HETATM   13  N5  UNL     1     -46.431   4.036 -32.630  1.00  0.00    -0.241 N 
ATOM     14  H4  UNL     1     -47.837   2.504 -32.618  1.00  0.00     0.187 HD
ATOM     15  H5  UNL     1     -46.747   4.586 -31.831  1.00  0.00     0.208 HD
ENDBRANCH   1   9
TORSDOF 3
ENDMDL
MODEL 3
REMARK VINA RESULT: -5.985282886      6.034      7.614
REMARK  3 active torsions:
REMARK  status: ('A' for Active; 'I' for Inactive)
REMARK    1  A    between atoms: C1_4  and  C2_6 
REMARK    2  A    between atoms: C3_7  and  C4_8 
REMARK    3  A    between atoms: C4_8  and  N3_9 
ROOT
HETATM    1  C4  UNL     1     -44.185   5.092 -32.154  1.00  0.00     0.177 C 
ENDROOT
BRANCH   1   2
HETATM    2  C3  UNL     1     -44.606   3.825 -32.810  1.00  0.00    -0.002 C 
HETATM    3  C2  UNL     1     -44.996   3.747 -34.051  1.00  0.00     0.042 C 
BRANCH   3   4
HETATM    4  C1  UNL     1     -45.388   2.471 -34.604  1.00  0.00     0.109 C 
HETATM    5  N1  UNL     1     -44.659   1.893 -35.494  1.00  0.00    -0.388 N 
ATOM      6  H12 UNL     1     -44.936   0.992 -35.885  1.00  0.00     0.157 HD
ATOM      7  H11 UNL     1     -43.801   2.351 -35.800  1.00  0.00     0.157 HD
HETATM    8  N2  UNL     1     -46.575   1.836 -34.180  1.00  0.00    -0.083 NA
ENDBRANCH   3   4
ENDBRANCH   1   2
BRANCH   1   9
HETATM    9  N3  UNL     1     -45.239   5.583 -31.262  1.00  0.00    -0.284 N 
HETATM   10  C5  UNL     1     -45.181   6.682 -30.492  1.00  0.00     0.130 A 
HETATM   11  C6  UNL     1     -46.372   6.795 -29.806  1.00  0.00     0.127 A 
HETATM   12  N4  UNL     1     -47.130   5.741 -30.186  1.00  0.00    -0.296 N 
HETATM   13  N5  UNL     1     -46.429   5.052 -31.043  1.00  0.00    -0.241 N 
ATOM     14  H4  UNL     1     -48.073   5.526 -29.863  1.00  0.00     0.187 HD
ATOM     15  H5  UNL     1     -46.762   4.199 -31.494  1.00  0.00     0.208 HD
ENDBRANCH   1   9
TORSDOF 3
ENDMDL
MODEL 4
REMARK VINA RESULT: -5.813649091      3.926      5.391
REMARK  3 active torsions:
REMARK  status: ('A' for Active; 'I' for Inactive)
REMARK    1  A    between atoms: C1_4  and  C2_6 
REMARK    2  A    between atoms: C3_7  and  C4_8 
REMARK    3  A    between atoms: C4_8  and  N3_9 
ROOT
HETATM    1  C4  UNL     1     -44.784   3.716 -34.772  1.00  0.00     0.177 C 
ENDROOT
BRANCH   1   2
HETATM    2  C3  UNL     1     -45.173   2.328 -35.137  1.00  0.00    -0.002 C 
HETATM    3  C2  UNL     1     -44.565   1.623 -36.050  1.00  0.00     0.042 C 
BRANCH   3   4
HETATM    4  C1  UNL     1     -45.013   0.280 -36.340  1.00  0.00     0.109 C 
HETATM    5  N1  UNL     1     -44.478  -0.395 -37.296  1.00  0.00    -0.388 N 
ATOM      6  H12 UNL     1     -44.794  -1.343 -37.501  1.00  0.00     0.157 HD
ATOM      7  H11 UNL     1     -43.732   0.034 -37.844  1.00  0.00     0.157 HD
HETATM    8  N2  UNL     1     -46.044  -0.314 -35.581  1.00  0.00    -0.083 NA
ENDBRANCH   3   4
ENDBRANCH   1   2
BRANCH   1   9
HETATM    9  N3  UNL     1     -45.143   4.000 -33.379  1.00  0.00    -0.284 N 
HETATM   10  C5  UNL     1     -44.331   4.506 -32.436  1.00  0.00     0.130 A 
HETATM   11  C6  UNL     1     -45.048   4.622 -31.264  1.00  0.00     0.127 A 
HETATM   12  N4  UNL     1     -46.296   4.175 -31.536  1.00  0.00    -0.296 N 
HETATM   13  N5  UNL     1     -46.312   3.818 -32.790  1.00  0.00    -0.241 N 
ATOM     14  H4  UNL     1     -47.077   4.126 -30.882  1.00  0.00     0.187 HD
ATOM     15  H5  UNL     1     -47.134   3.442 -33.263  1.00  0.00     0.208 HD
ENDBRANCH   1   9
TORSDOF 3
ENDMDL
MODEL 5
REMARK VINA RESULT: -5.792687444      3.715      4.510
REMARK  3 active torsions:
REMARK  status: ('A' for Active; 'I' for Inactive)
REMARK    1  A    between atoms: C1_4  and  C2_6 
REMARK    2  A    between atoms: C3_7  and  C4_8 
REMARK    3  A    between atoms: C4_8  and  N3_9 
ROOT
HETATM    1  C4  UNL     1     -45.189   2.608 -34.950  1.00  0.00     0.177 C 
ENDROOT
BRANCH   1   2
HETATM    2  C3  UNL     1     -45.926   1.317 -34.991  1.00  0.00    -0.002 C 
HETATM    3  C2  UNL     1     -45.681   0.371 -35.854  1.00  0.00     0.042 C 
BRANCH   3   4
HETATM    4  C1  UNL     1     -46.450  -0.852 -35.820  1.00  0.00     0.109 C 
HETATM    5  N1  UNL     1     -45.905  -1.957 -35.445  1.00  0.00    -0.388 N 
ATOM      6  H12 UNL     1     -46.447  -2.820 -35.421  1.00  0.00     0.157 HD
ATOM      7  H11 UNL     1     -44.922  -1.952 -35.173  1.00  0.00     0.157 HD
HETATM    8  N2  UNL     1     -47.811  -0.858 -36.196  1.00  0.00    -0.083 NA
ENDBRANCH   3   4
ENDBRANCH   1   2
BRANCH   1   9
HETATM    9  N3  UNL     1     -45.380   3.267 -33.655  1.00  0.00    -0.284 N 
HETATM   10  C5  UNL     1     -44.439   3.911 -32.945  1.00  0.00     0.130 A 
HETATM   11  C6  UNL     1     -45.020   4.389 -31.789  1.00  0.00     0.127 A 
HETATM   12  N4  UNL     1     -46.319   4.014 -31.833  1.00  0.00    -0.296 N 
HETATM   13  N5  UNL     1     -46.492   3.356 -32.946  1.00  0.00    -0.241 N 
ATOM     14  H4  UNL     1     -47.030   4.209 -31.128  1.00  0.00     0.187 HD
ATOM     15  H5  UNL     1     -47.384   2.956 -33.237  1.00  0.00     0.208 HD
ENDBRANCH   1   9
TORSDOF 3
ENDMDL
