MODEL 1
REMARK VINA RESULT: -5.261772435      0.000      0.000
REMARK  4 active torsions:
REMARK  status: ('A' for Active; 'I' for Inactive)
REMARK    1  A    between atoms: C4_5  and  N2_6 
REMARK    2  A    between atoms: N2_6  and  C5_8 
REMARK    3  A    between atoms: C5_8  and  C6_9 
REMARK    4  A    between atoms: C6_9  and  N3_10 
ROOT
HETATM    1  C1  UNL     1     -45.892   1.532 -34.883  1.00  0.00     0.156 C 
HETATM    2  N1  UNL     1     -45.647   2.762 -34.132  1.00  0.00    -0.357 N 
HETATM    3  C2  UNL     1     -44.942   3.764 -34.655  1.00  0.00     0.095 A 
HETATM    4  C3  UNL     1     -44.717   4.921 -33.935  1.00  0.00     0.065 A 
HETATM    5  C4  UNL     1     -45.248   4.998 -32.668  1.00  0.00     0.103 A 
HETATM    6  N4  UNL     1     -45.955   3.970 -32.173  1.00  0.00    -0.339 N 
ATOM      7  H4  UNL     1     -46.345   4.036 -31.232  1.00  0.00     0.168 HD
HETATM    8  C7  UNL     1     -46.162   2.835 -32.906  1.00  0.00     0.183 A 
ENDROOT
BRANCH   5   9
HETATM    9  N2  UNL     1     -45.071   6.052 -31.954  1.00  0.00    -0.375 N 
ATOM     10  H2  UNL     1     -45.776   6.789 -31.956  1.00  0.00     0.161 HD
BRANCH   9  11
HETATM   11  C5  UNL     1     -43.882   6.199 -31.149  1.00  0.00     0.148 C 
BRANCH  11  12
HETATM   12  C6  UNL     1     -44.113   5.815 -29.710  1.00  0.00     0.249 C 
BRANCH  12  13
HETATM   13  N3  UNL     1     -43.313   6.551 -28.787  1.00  0.00    -0.078 N 
ATOM     14  H33 UNL     1     -42.373   6.159 -28.733  1.00  0.00     0.274 HD
ATOM     15  H32 UNL     1     -43.091   7.475 -29.158  1.00  0.00     0.274 HD
ATOM     16  H31 UNL     1     -43.726   6.625 -27.857  1.00  0.00     0.274 HD
ENDBRANCH  12  13
ENDBRANCH  11  12
ENDBRANCH   9  11
ENDBRANCH   5   9
TORSDOF 4
ENDMDL
MODEL 2
REMARK VINA RESULT: -5.222026574      1.863      5.514
REMARK  4 active torsions:
REMARK  status: ('A' for Active; 'I' for Inactive)
REMARK    1  A    between atoms: C4_5  and  N2_6 
REMARK    2  A    between atoms: N2_6  and  C5_8 
REMARK    3  A    between atoms: C5_8  and  C6_9 
REMARK    4  A    between atoms: C6_9  and  N3_10 
ROOT
HETATM    1  C1  UNL     1     -44.453   6.224 -31.841  1.00  0.00     0.156 C 
HETATM    2  N1  UNL     1     -44.790   5.065 -32.665  1.00  0.00    -0.357 N 
HETATM    3  C2  UNL     1     -44.768   5.131 -33.995  1.00  0.00     0.095 A 
HETATM    4  C3  UNL     1     -45.089   4.028 -34.763  1.00  0.00     0.065 A 
HETATM    5  C4  UNL     1     -45.428   2.869 -34.104  1.00  0.00     0.103 A 
HETATM    6  N4  UNL     1     -45.440   2.838 -32.762  1.00  0.00    -0.339 N 
ATOM      7  H4  UNL     1     -45.693   1.973 -32.283  1.00  0.00     0.168 HD
HETATM    8  C7  UNL     1     -45.119   3.944 -32.027  1.00  0.00     0.183 A 
ENDROOT
BRANCH   5   9
HETATM    9  N2  UNL     1     -45.735   1.812 -34.768  1.00  0.00    -0.375 N 
ATOM     10  H2  UNL     1     -46.580   1.293 -34.531  1.00  0.00     0.161 HD
BRANCH   9  11
HETATM   11  C5  UNL     1     -44.892   1.355 -35.847  1.00  0.00     0.148 C 
BRANCH  11  12
HETATM   12  C6  UNL     1     -45.237  -0.043 -36.291  1.00  0.00     0.249 C 
BRANCH  12  13
HETATM   13  N3  UNL     1     -44.494  -0.482 -37.426  1.00  0.00    -0.078 N 
ATOM     14  H33 UNL     1     -43.528  -0.160 -37.370  1.00  0.00     0.274 HD
ATOM     15  H32 UNL     1     -44.339  -1.490 -37.388  1.00  0.00     0.274 HD
ATOM     16  H31 UNL     1     -44.912  -0.215 -38.317  1.00  0.00     0.274 HD
ENDBRANCH  12  13
ENDBRANCH  11  12
ENDBRANCH   9  11
ENDBRANCH   5   9
TORSDOF 4
ENDMDL
MODEL 3
REMARK VINA RESULT: -5.159562716      1.449      1.797
REMARK  4 active torsions:
REMARK  status: ('A' for Active; 'I' for Inactive)
REMARK    1  A    between atoms: C4_5  and  N2_6 
REMARK    2  A    between atoms: N2_6  and  C5_8 
REMARK    3  A    between atoms: C5_8  and  C6_9 
REMARK    4  A    between atoms: C6_9  and  N3_10 
ROOT
HETATM    1  C1  UNL     1     -45.468   2.491 -34.860  1.00  0.00     0.156 C 
HETATM    2  N1  UNL     1     -45.116   3.554 -33.920  1.00  0.00    -0.357 N 
HETATM    3  C2  UNL     1     -44.813   4.780 -34.343  1.00  0.00     0.095 A 
HETATM    4  C3  UNL     1     -44.482   5.776 -33.444  1.00  0.00     0.065 A 
HETATM    5  C4  UNL     1     -44.480   5.453 -32.106  1.00  0.00     0.103 A 
HETATM    6  N4  UNL     1     -44.791   4.207 -31.716  1.00  0.00    -0.339 N 
ATOM      7  H4  UNL     1     -44.787   3.978 -30.721  1.00  0.00     0.168 HD
HETATM    8  C7  UNL     1     -45.114   3.241 -32.626  1.00  0.00     0.183 A 
ENDROOT
BRANCH   5   9
HETATM    9  N2  UNL     1     -44.180   6.341 -31.227  1.00  0.00    -0.375 N 
ATOM     10  H2  UNL     1     -43.482   7.052 -31.443  1.00  0.00     0.161 HD
BRANCH   9  11
HETATM   11  C5  UNL     1     -44.825   6.338 -29.935  1.00  0.00     0.148 C 
BRANCH  11  12
HETATM   12  C6  UNL     1     -46.206   6.940 -29.982  1.00  0.00     0.249 C 
BRANCH  12  13
HETATM   13  N3  UNL     1     -47.240   5.981 -30.195  1.00  0.00    -0.078 N 
ATOM     14  H33 UNL     1     -47.618   6.064 -31.138  1.00  0.00     0.274 HD
ATOM     15  H32 UNL     1     -46.853   5.039 -30.248  1.00  0.00     0.274 HD
ATOM     16  H31 UNL     1     -47.987   6.025 -29.502  1.00  0.00     0.274 HD
ENDBRANCH  12  13
ENDBRANCH  11  12
ENDBRANCH   9  11
ENDBRANCH   5   9
TORSDOF 4
ENDMDL
MODEL 4
REMARK VINA RESULT: -5.147732125      1.402      1.477
REMARK  4 active torsions:
REMARK  status: ('A' for Active; 'I' for Inactive)
REMARK    1  A    between atoms: C4_5  and  N2_6 
REMARK    2  A    between atoms: N2_6  and  C5_8 
REMARK    3  A    between atoms: C5_8  and  C6_9 
REMARK    4  A    between atoms: C6_9  and  N3_10 
ROOT
HETATM    1  C1  UNL     1     -45.951   1.149 -35.077  1.00  0.00     0.156 C 
HETATM    2  N1  UNL     1     -45.719   2.409 -34.373  1.00  0.00    -0.357 N 
HETATM    3  C2  UNL     1     -44.907   3.341 -34.869  1.00  0.00     0.095 A 
HETATM    4  C3  UNL     1     -44.696   4.527 -34.193  1.00  0.00     0.065 A 
HETATM    5  C4  UNL     1     -45.353   4.706 -32.997  1.00  0.00     0.103 A 
HETATM    6  N4  UNL     1     -46.165   3.745 -32.527  1.00  0.00    -0.339 N 
ATOM      7  H4  UNL     1     -46.648   3.888 -31.640  1.00  0.00     0.168 HD
HETATM    8  C7  UNL     1     -46.355   2.581 -33.216  1.00  0.00     0.183 A 
ENDROOT
BRANCH   5   9
HETATM    9  N2  UNL     1     -45.194   5.790 -32.327  1.00  0.00    -0.375 N 
ATOM     10  H2  UNL     1     -45.292   6.693 -32.793  1.00  0.00     0.161 HD
BRANCH   9  11
HETATM   11  C5  UNL     1     -44.879   5.742 -30.919  1.00  0.00     0.148 C 
BRANCH  11  12
HETATM   12  C6  UNL     1     -45.871   6.509 -30.083  1.00  0.00     0.249 C 
BRANCH  12  13
HETATM   13  N3  UNL     1     -47.203   6.007 -30.172  1.00  0.00    -0.078 N 
ATOM     14  H33 UNL     1     -47.261   5.261 -30.865  1.00  0.00     0.274 HD
ATOM     15  H32 UNL     1     -47.446   5.479 -29.333  1.00  0.00     0.274 HD
ATOM     16  H31 UNL     1     -47.900   6.728 -30.359  1.00  0.00     0.274 HD
ENDBRANCH  12  13
ENDBRANCH  11  12
ENDBRANCH   9  11
ENDBRANCH   5   9
TORSDOF 4
ENDMDL
MODEL 5
REMARK VINA RESULT: -5.125754210      1.272      4.923
REMARK  4 active torsions:
REMARK  status: ('A' for Active; 'I' for Inactive)
REMARK    1  A    between atoms: C4_5  and  N2_6 
REMARK    2  A    between atoms: N2_6  and  C5_8 
REMARK    3  A    between atoms: C5_8  and  C6_9 
REMARK    4  A    between atoms: C6_9  and  N3_10 
ROOT
HETATM    1  C1  UNL     1     -43.880   6.250 -29.464  1.00  0.00     0.156 C 
HETATM    2  N1  UNL     1     -44.443   5.679 -30.686  1.00  0.00    -0.357 N 
HETATM    3  C2  UNL     1     -43.939   5.972 -31.883  1.00  0.00     0.095 A 
HETATM    4  C3  UNL     1     -44.481   5.426 -33.031  1.00  0.00     0.065 A 
HETATM    5  C4  UNL     1     -45.552   4.574 -32.888  1.00  0.00     0.103 A 
HETATM    6  N4  UNL     1     -46.034   4.301 -31.666  1.00  0.00    -0.339 N 
ATOM      7  H4  UNL     1     -46.829   3.668 -31.570  1.00  0.00     0.168 HD
HETATM    8  C7  UNL     1     -45.480   4.856 -30.547  1.00  0.00     0.183 A 
ENDROOT
BRANCH   5   9
HETATM    9  N2  UNL     1     -46.095   4.037 -33.922  1.00  0.00    -0.375 N 
ATOM     10  H2  UNL     1     -46.412   4.627 -34.691  1.00  0.00     0.161 HD
BRANCH   9  11
HETATM   11  C5  UNL     1     -46.258   2.605 -34.002  1.00  0.00     0.148 C 
BRANCH  11  12
HETATM   12  C6  UNL     1     -45.332   1.978 -35.012  1.00  0.00     0.249 C 
BRANCH  12  13
HETATM   13  N3  UNL     1     -45.676   0.635 -35.346  1.00  0.00    -0.078 N 
ATOM     14  H33 UNL     1     -45.213   0.349 -36.209  1.00  0.00     0.274 HD
ATOM     15  H32 UNL     1     -45.243  -0.021 -34.695  1.00  0.00     0.274 HD
ATOM     16  H31 UNL     1     -46.681   0.473 -35.406  1.00  0.00     0.274 HD
ENDBRANCH  12  13
ENDBRANCH  11  12
ENDBRANCH   9  11
ENDBRANCH   5   9
TORSDOF 4
ENDMDL
