MODEL 1
REMARK VINA RESULT: -11.937388523      0.000      0.000
REMARK  4 active torsions:
REMARK  status: ('A' for Active; 'I' for Inactive)
REMARK    1  A    between atoms: C16_17  and  C17_18 
REMARK    2  A    between atoms: C21_22  and  N1_23 
REMARK    3  A    between atoms: C23_29  and  C24_30 
REMARK    4  A    between atoms: N3_36  and  O4_37 
ROOT
HETATM    1  O1  UNL     1      12.231  21.222  14.674  1.00  0.00    -0.286 OA
HETATM    2  C1  UNL     1      13.234  21.680  14.155  1.00  0.00     0.197 C 
HETATM    3  C2  UNL     1      14.103  20.833  13.443  1.00  0.00     0.026 A 
HETATM    4  C3  UNL     1      14.194  19.612  14.017  1.00  0.00     0.016 A 
HETATM    5  C4  UNL     1      15.076  18.694  13.489  1.00  0.00     0.001 A 
HETATM    6  C5  UNL     1      15.865  19.034  12.371  1.00  0.00     0.001 A 
HETATM    7  C6  UNL     1      15.775  20.279  11.780  1.00  0.00     0.013 A 
HETATM    8  C7  UNL     1      14.886  21.136  12.341  1.00  0.00    -0.011 A 
HETATM    9  C8  UNL     1      14.783  22.297  11.611  1.00  0.00    -0.012 A 
HETATM   10  C9  UNL     1      15.041  22.114  10.304  1.00  0.00     0.013 A 
HETATM   11  C10 UNL     1      14.876  23.163   9.411  1.00  0.00     0.001 A 
HETATM   12  C11 UNL     1      14.434  24.413   9.873  1.00  0.00     0.001 A 
HETATM   13  C12 UNL     1      14.165  24.605  11.215  1.00  0.00     0.014 A 
HETATM   14  C13 UNL     1      14.345  23.560  12.058  1.00  0.00     0.005 A 
HETATM   15  C14 UNL     1      14.049  23.884  13.360  1.00  0.00     0.092 A 
HETATM   16  C15 UNL     1      13.461  23.032  14.306  1.00  0.00     0.073 A 
HETATM   17  C16 UNL     1      13.129  23.526  15.530  1.00  0.00     0.060 A 
HETATM   18  N2  UNL     1      13.402  24.831  15.732  1.00  0.00    -0.338 N 
ATOM     19  H2  UNL     1      13.160  25.232  16.638  1.00  0.00     0.167 HD
HETATM   20  C23 UNL     1      13.982  25.657  14.806  1.00  0.00     0.144 A 
HETATM   21  N3  UNL     1      14.311  25.167  13.606  1.00  0.00    -0.205 N 
ENDROOT
BRANCH  17  22
HETATM   22  C17 UNL     1      12.519  22.723  16.569  1.00  0.00    -0.006 A 
HETATM   23  C18 UNL     1      13.295  21.880  17.279  1.00  0.00     0.014 A 
HETATM   24  C19 UNL     1      12.760  21.011  18.196  1.00  0.00     0.003 A 
HETATM   25  C20 UNL     1      11.398  21.010  18.384  1.00  0.00     0.036 A 
HETATM   26  C21 UNL     1      10.590  21.868  17.664  1.00  0.00     0.103 A 
HETATM   27  C22 UNL     1      11.180  22.721  16.756  1.00  0.00     0.049 A 
BRANCH  26  28
HETATM   28  N1  UNL     1       9.192  21.827  17.895  1.00  0.00    -0.116 N 
HETATM   29  O2  UNL     1       8.588  20.749  18.019  1.00  0.00    -0.532 OA
HETATM   30  O3  UNL     1       8.425  22.970  17.995  1.00  0.00    -0.532 OA
ENDBRANCH  26  28
ENDBRANCH  17  22
BRANCH  20  31
HETATM   31  C24 UNL     1      14.209  27.048  15.241  1.00  0.00     0.010 A 
HETATM   32  C25 UNL     1      14.885  27.253  16.453  1.00  0.00     0.015 A 
HETATM   33  C26 UNL     1      15.122  28.506  16.953  1.00  0.00     0.001 A 
HETATM   34  C27 UNL     1      14.688  29.605  16.253  1.00  0.00     0.000 A 
HETATM   35  C28 UNL     1      14.029  29.414  15.072  1.00  0.00     0.001 A 
HETATM   36  C29 UNL     1      13.786  28.141  14.562  1.00  0.00     0.015 A 
ENDBRANCH  20  31
BRANCH  21  37
HETATM   37  O4  UNL     1      15.043  25.868  12.706  1.00  0.00    -0.281 OA
ATOM     38  H4  UNL     1      15.638  26.538  13.022  1.00  0.00     0.245 HD
ENDBRANCH  21  37
TORSDOF 4
ENDMDL
MODEL 2
REMARK VINA RESULT: -11.420099405      1.838      6.106
REMARK  4 active torsions:
REMARK  status: ('A' for Active; 'I' for Inactive)
REMARK    1  A    between atoms: C16_17  and  C17_18 
REMARK    2  A    between atoms: C21_22  and  N1_23 
REMARK    3  A    between atoms: C23_29  and  C24_30 
REMARK    4  A    between atoms: N3_36  and  O4_37 
ROOT
HETATM    1  O1  UNL     1      15.085  25.253  13.661  1.00  0.00    -0.286 OA
HETATM    2  C1  UNL     1      14.511  24.229  13.334  1.00  0.00     0.197 C 
HETATM    3  C2  UNL     1      14.647  23.738  12.023  1.00  0.00     0.026 A 
HETATM    4  C3  UNL     1      14.710  24.740  11.117  1.00  0.00     0.016 A 
HETATM    5  C4  UNL     1      14.753  24.422   9.776  1.00  0.00     0.001 A 
HETATM    6  C5  UNL     1      14.731  23.072   9.370  1.00  0.00     0.001 A 
HETATM    7  C6  UNL     1      14.670  22.044  10.291  1.00  0.00     0.013 A 
HETATM    8  C7  UNL     1      14.634  22.421  11.593  1.00  0.00    -0.011 A 
HETATM    9  C8  UNL     1      14.696  21.331  12.429  1.00  0.00    -0.012 A 
HETATM   10  C9  UNL     1      15.363  20.297  11.886  1.00  0.00     0.013 A 
HETATM   11  C10 UNL     1      15.610  19.158  12.640  1.00  0.00     0.001 A 
HETATM   12  C11 UNL     1      15.167  19.090  13.971  1.00  0.00     0.001 A 
HETATM   13  C12 UNL     1      14.484  20.151  14.534  1.00  0.00     0.014 A 
HETATM   14  C13 UNL     1      14.256  21.243  13.765  1.00  0.00     0.005 A 
HETATM   15  C14 UNL     1      13.564  22.220  14.440  1.00  0.00     0.092 A 
HETATM   16  C15 UNL     1      13.743  23.603  14.294  1.00  0.00     0.073 A 
HETATM   17  C16 UNL     1      13.059  24.452  15.108  1.00  0.00     0.060 A 
HETATM   18  N2  UNL     1      12.246  23.871  16.014  1.00  0.00    -0.338 N 
ATOM     19  H2  UNL     1      11.723  24.481  16.643  1.00  0.00     0.167 HD
HETATM   20  C23 UNL     1      12.071  22.520  16.149  1.00  0.00     0.144 A 
HETATM   21  N3  UNL     1      12.741  21.689  15.343  1.00  0.00    -0.205 N 
ENDROOT
BRANCH  17  22
HETATM   22  C17 UNL     1      13.179  25.893  15.032  1.00  0.00    -0.006 A 
HETATM   23  C18 UNL     1      12.674  26.530  13.956  1.00  0.00     0.014 A 
HETATM   24  C19 UNL     1      12.856  27.878  13.768  1.00  0.00     0.003 A 
HETATM   25  C20 UNL     1      13.573  28.581  14.706  1.00  0.00     0.036 A 
HETATM   26  C21 UNL     1      14.097  27.941  15.813  1.00  0.00     0.103 A 
HETATM   27  C22 UNL     1      13.883  26.587  15.954  1.00  0.00     0.049 A 
BRANCH  26  28
HETATM   28  N1  UNL     1      14.829  28.713  16.751  1.00  0.00    -0.116 N 
HETATM   29  O2  UNL     1      15.587  28.179  17.577  1.00  0.00    -0.532 OA
HETATM   30  O3  UNL     1      14.745  30.090  16.803  1.00  0.00    -0.532 OA
ENDBRANCH  26  28
ENDBRANCH  17  22
BRANCH  20  31
HETATM   31  C24 UNL     1      11.118  22.097  17.192  1.00  0.00     0.010 A 
HETATM   32  C25 UNL     1       9.859  22.714  17.218  1.00  0.00     0.015 A 
HETATM   33  C26 UNL     1       8.915  22.408  18.163  1.00  0.00     0.001 A 
HETATM   34  C27 UNL     1       9.201  21.466  19.121  1.00  0.00     0.000 A 
HETATM   35  C28 UNL     1      10.425  20.861  19.103  1.00  0.00     0.001 A 
HETATM   36  C29 UNL     1      11.387  21.171  18.144  1.00  0.00     0.015 A 
ENDBRANCH  20  31
BRANCH  21  37
HETATM   37  O4  UNL     1      12.492  20.357  15.294  1.00  0.00    -0.281 OA
ATOM     38  H4  UNL     1      12.209  19.974  14.472  1.00  0.00     0.245 HD
ENDBRANCH  21  37
TORSDOF 4
ENDMDL
MODEL 3
REMARK VINA RESULT: -11.398356323      1.796      6.074
REMARK  4 active torsions:
REMARK  status: ('A' for Active; 'I' for Inactive)
REMARK    1  A    between atoms: C16_17  and  C17_18 
REMARK    2  A    between atoms: C21_22  and  N1_23 
REMARK    3  A    between atoms: C23_29  and  C24_30 
REMARK    4  A    between atoms: N3_36  and  O4_37 
ROOT
HETATM    1  O1  UNL     1      15.665  24.522  14.319  1.00  0.00    -0.286 OA
HETATM    2  C1  UNL     1      14.964  23.616  13.904  1.00  0.00     0.197 C 
HETATM    3  C2  UNL     1      15.093  23.184  12.571  1.00  0.00     0.026 A 
HETATM    4  C3  UNL     1      15.350  24.215  11.734  1.00  0.00     0.016 A 
HETATM    5  C4  UNL     1      15.415  23.970  10.379  1.00  0.00     0.001 A 
HETATM    6  C5  UNL     1      15.216  22.664   9.887  1.00  0.00     0.001 A 
HETATM    7  C6  UNL     1      14.956  21.607  10.738  1.00  0.00     0.013 A 
HETATM    8  C7  UNL     1      14.909  21.911  12.059  1.00  0.00    -0.011 A 
HETATM    9  C8  UNL     1      14.766  20.778  12.826  1.00  0.00    -0.012 A 
HETATM   10  C9  UNL     1      15.301  19.688  12.248  1.00  0.00     0.013 A 
HETATM   11  C10 UNL     1      15.337  18.485  12.938  1.00  0.00     0.001 A 
HETATM   12  C11 UNL     1      14.821  18.409  14.241  1.00  0.00     0.001 A 
HETATM   13  C12 UNL     1      14.274  19.528  14.841  1.00  0.00     0.014 A 
HETATM   14  C13 UNL     1      14.249  20.683  14.134  1.00  0.00     0.005 A 
HETATM   15  C14 UNL     1      13.675  21.713  14.839  1.00  0.00     0.092 A 
HETATM   16  C15 UNL     1      14.063  23.060  14.788  1.00  0.00     0.073 A 
HETATM   17  C16 UNL     1      13.470  23.955  15.625  1.00  0.00     0.060 A 
HETATM   18  N2  UNL     1      12.534  23.452  16.456  1.00  0.00    -0.338 N 
ATOM     19  H2  UNL     1      12.076  24.098  17.099  1.00  0.00     0.167 HD
HETATM   20  C23 UNL     1      12.156  22.137  16.497  1.00  0.00     0.144 A 
HETATM   21  N3  UNL     1      12.737  21.262  15.670  1.00  0.00    -0.205 N 
ENDROOT
BRANCH  17  22
HETATM   22  C17 UNL     1      13.805  25.363  15.645  1.00  0.00    -0.006 A 
HETATM   23  C18 UNL     1      14.368  25.881  16.755  1.00  0.00     0.014 A 
HETATM   24  C19 UNL     1      14.602  27.228  16.880  1.00  0.00     0.003 A 
HETATM   25  C20 UNL     1      14.249  28.056  15.841  1.00  0.00     0.036 A 
HETATM   26  C21 UNL     1      13.672  27.539  14.697  1.00  0.00     0.103 A 
HETATM   27  C22 UNL     1      13.460  26.179  14.623  1.00  0.00     0.049 A 
BRANCH  26  28
HETATM   28  N1  UNL     1      13.327  28.435  13.654  1.00  0.00    -0.116 N 
HETATM   29  O2  UNL     1      13.871  29.546  13.549  1.00  0.00    -0.532 OA
HETATM   30  O3  UNL     1      12.375  28.131  12.702  1.00  0.00    -0.532 OA
ENDBRANCH  26  28
ENDBRANCH  17  22
BRANCH  20  31
HETATM   31  C24 UNL     1      11.098  21.804  17.470  1.00  0.00     0.010 A 
HETATM   32  C25 UNL     1       9.881  22.495  17.376  1.00  0.00     0.015 A 
HETATM   33  C26 UNL     1       8.848  22.275  18.248  1.00  0.00     0.001 A 
HETATM   34  C27 UNL     1       8.998  21.349  19.252  1.00  0.00     0.000 A 
HETATM   35  C28 UNL     1      10.180  20.672  19.350  1.00  0.00     0.001 A 
HETATM   36  C29 UNL     1      11.233  20.895  18.465  1.00  0.00     0.015 A 
ENDBRANCH  20  31
BRANCH  21  37
HETATM   37  O4  UNL     1      12.297  19.987  15.527  1.00  0.00    -0.281 OA
ATOM     38  H4  UNL     1      11.582  19.685  16.075  1.00  0.00     0.245 HD
ENDBRANCH  21  37
TORSDOF 4
ENDMDL
MODEL 4
REMARK VINA RESULT: -10.856471211      1.404      1.921
REMARK  4 active torsions:
REMARK  status: ('A' for Active; 'I' for Inactive)
REMARK    1  A    between atoms: C16_17  and  C17_18 
REMARK    2  A    between atoms: C21_22  and  N1_23 
REMARK    3  A    between atoms: C23_29  and  C24_30 
REMARK    4  A    between atoms: N3_36  and  O4_37 
ROOT
HETATM    1  O1  UNL     1      11.701  20.889  14.785  1.00  0.00    -0.286 OA
HETATM    2  C1  UNL     1      12.823  21.231  14.456  1.00  0.00     0.197 C 
HETATM    3  C2  UNL     1      13.717  20.284  13.925  1.00  0.00     0.026 A 
HETATM    4  C3  UNL     1      13.576  19.076  14.518  1.00  0.00     0.016 A 
HETATM    5  C4  UNL     1      14.442  18.061  14.172  1.00  0.00     0.001 A 
HETATM    6  C5  UNL     1      15.453  18.291  13.217  1.00  0.00     0.001 A 
HETATM    7  C6  UNL     1      15.600  19.521  12.606  1.00  0.00     0.013 A 
HETATM    8  C7  UNL     1      14.715  20.476  12.985  1.00  0.00    -0.011 A 
HETATM    9  C8  UNL     1      14.867  21.621  12.236  1.00  0.00    -0.012 A 
HETATM   10  C9  UNL     1      15.339  21.376  11.002  1.00  0.00     0.013 A 
HETATM   11  C10 UNL     1      15.448  22.410  10.083  1.00  0.00     0.001 A 
HETATM   12  C11 UNL     1      15.059  23.710  10.443  1.00  0.00     0.001 A 
HETATM   13  C12 UNL     1      14.569  23.966  11.709  1.00  0.00     0.014 A 
HETATM   14  C13 UNL     1      14.484  22.933  12.581  1.00  0.00     0.005 A 
HETATM   15  C14 UNL     1      13.990  23.321  13.803  1.00  0.00     0.092 A 
HETATM   16  C15 UNL     1      13.154  22.559  14.632  1.00  0.00     0.073 A 
HETATM   17  C16 UNL     1      12.656  23.117  15.769  1.00  0.00     0.060 A 
HETATM   18  N2  UNL     1      13.018  24.395  16.005  1.00  0.00    -0.338 N 
ATOM     19  H2  UNL     1      12.656  24.843  16.846  1.00  0.00     0.167 HD
HETATM   20  C23 UNL     1      13.838  25.133  15.194  1.00  0.00     0.144 A 
HETATM   21  N3  UNL     1      14.330  24.579  14.081  1.00  0.00    -0.205 N 
ENDROOT
BRANCH  17  22
HETATM   22  C17 UNL     1      11.787  22.408  16.685  1.00  0.00    -0.006 A 
HETATM   23  C18 UNL     1      10.566  22.917  16.947  1.00  0.00     0.014 A 
HETATM   24  C19 UNL     1       9.742  22.357  17.891  1.00  0.00     0.003 A 
HETATM   25  C20 UNL     1      10.186  21.252  18.578  1.00  0.00     0.036 A 
HETATM   26  C21 UNL     1      11.434  20.719  18.319  1.00  0.00     0.103 A 
HETATM   27  C22 UNL     1      12.220  21.320  17.361  1.00  0.00     0.049 A 
BRANCH  26  28
HETATM   28  N1  UNL     1      11.843  19.579  19.055  1.00  0.00    -0.116 N 
HETATM   29  O2  UNL     1      13.044  19.303  19.207  1.00  0.00    -0.532 OA
HETATM   30  O3  UNL     1      10.941  18.714  19.643  1.00  0.00    -0.532 OA
ENDBRANCH  26  28
ENDBRANCH  17  22
BRANCH  20  31
HETATM   31  C24 UNL     1      14.123  26.507  15.650  1.00  0.00     0.010 A 
HETATM   32  C25 UNL     1      13.585  27.568  14.907  1.00  0.00     0.015 A 
HETATM   33  C26 UNL     1      13.814  28.878  15.235  1.00  0.00     0.001 A 
HETATM   34  C27 UNL     1      14.593  29.174  16.326  1.00  0.00     0.000 A 
HETATM   35  C28 UNL     1      15.121  28.146  17.055  1.00  0.00     0.001 A 
HETATM   36  C29 UNL     1      14.891  26.813  16.723  1.00  0.00     0.015 A 
ENDBRANCH  20  31
BRANCH  21  37
HETATM   37  O4  UNL     1      15.283  25.179  13.325  1.00  0.00    -0.281 OA
ATOM     38  H4  UNL     1      15.451  26.106  13.451  1.00  0.00     0.245 HD
ENDBRANCH  21  37
TORSDOF 4
ENDMDL
MODEL 5
REMARK VINA RESULT: -10.618073387      3.532      6.548
REMARK  4 active torsions:
REMARK  status: ('A' for Active; 'I' for Inactive)
REMARK    1  A    between atoms: C16_17  and  C17_18 
REMARK    2  A    between atoms: C21_22  and  N1_23 
REMARK    3  A    between atoms: C23_29  and  C24_30 
REMARK    4  A    between atoms: N3_36  and  O4_37 
ROOT
HETATM    1  O1  UNL     1      16.265  19.454  11.969  1.00  0.00    -0.286 OA
HETATM    2  C1  UNL     1      16.266  20.499  12.596  1.00  0.00     0.197 C 
HETATM    3  C2  UNL     1      17.275  21.452  12.368  1.00  0.00     0.026 A 
HETATM    4  C3  UNL     1      18.469  20.867  12.119  1.00  0.00     0.016 A 
HETATM    5  C4  UNL     1      19.581  21.666  11.963  1.00  0.00     0.001 A 
HETATM    6  C5  UNL     1      19.463  23.068  12.064  1.00  0.00     0.001 A 
HETATM    7  C6  UNL     1      18.246  23.671  12.316  1.00  0.00     0.013 A 
HETATM    8  C7  UNL     1      17.190  22.832  12.454  1.00  0.00    -0.011 A 
HETATM    9  C8  UNL     1      16.011  23.531  12.581  1.00  0.00    -0.012 A 
HETATM   10  C9  UNL     1      16.044  24.721  11.957  1.00  0.00     0.013 A 
HETATM   11  C10 UNL     1      14.900  25.503  11.896  1.00  0.00     0.001 A 
HETATM   12  C11 UNL     1      13.708  25.048  12.481  1.00  0.00     0.001 A 
HETATM   13  C12 UNL     1      13.669  23.823  13.121  1.00  0.00     0.014 A 
HETATM   14  C13 UNL     1      14.807  23.091  13.166  1.00  0.00     0.005 A 
HETATM   15  C14 UNL     1      14.636  21.902  13.834  1.00  0.00     0.092 A 
HETATM   16  C15 UNL     1      15.254  20.684  13.516  1.00  0.00     0.073 A 
HETATM   17  C16 UNL     1      14.906  19.562  14.202  1.00  0.00     0.060 A 
HETATM   18  N2  UNL     1      13.966  19.723  15.156  1.00  0.00    -0.338 N 
ATOM     19  H2  UNL     1      13.680  18.899  15.684  1.00  0.00     0.167 HD
HETATM   20  C23 UNL     1      13.370  20.916  15.466  1.00  0.00     0.144 A 
HETATM   21  N3  UNL     1      13.718  22.017  14.792  1.00  0.00    -0.205 N 
ENDROOT
BRANCH  17  22
HETATM   22  C17 UNL     1      15.489  18.262  13.944  1.00  0.00    -0.006 A 
HETATM   23  C18 UNL     1      14.779  17.360  13.236  1.00  0.00     0.014 A 
HETATM   24  C19 UNL     1      15.226  16.075  13.057  1.00  0.00     0.003 A 
HETATM   25  C20 UNL     1      16.428  15.713  13.619  1.00  0.00     0.036 A 
HETATM   26  C21 UNL     1      17.166  16.626  14.346  1.00  0.00     0.103 A 
HETATM   27  C22 UNL     1      16.671  17.903  14.494  1.00  0.00     0.049 A 
BRANCH  26  28
HETATM   28  N1  UNL     1      18.399  16.202  14.904  1.00  0.00    -0.116 N 
HETATM   29  O2  UNL     1      18.905  16.786  15.875  1.00  0.00    -0.532 OA
HETATM   30  O3  UNL     1      19.103  15.123  14.408  1.00  0.00    -0.532 OA
ENDBRANCH  26  28
ENDBRANCH  17  22
BRANCH  20  31
HETATM   31  C24 UNL     1      12.380  20.873  16.559  1.00  0.00     0.010 A 
HETATM   32  C25 UNL     1      11.021  20.931  16.214  1.00  0.00     0.015 A 
HETATM   33  C26 UNL     1      10.028  20.923  17.158  1.00  0.00     0.001 A 
HETATM   34  C27 UNL     1      10.363  20.856  18.488  1.00  0.00     0.000 A 
HETATM   35  C28 UNL     1      11.683  20.801  18.832  1.00  0.00     0.001 A 
HETATM   36  C29 UNL     1      12.695  20.809  17.874  1.00  0.00     0.015 A 
ENDBRANCH  20  31
BRANCH  21  37
HETATM   37  O4  UNL     1      13.307  23.258  15.155  1.00  0.00    -0.281 OA
ATOM     38  H4  UNL     1      13.962  23.910  15.376  1.00  0.00     0.245 HD
ENDBRANCH  21  37
TORSDOF 4
ENDMDL
