MODEL 1
REMARK VINA RESULT: -9.932406858      0.000      0.000
REMARK  4 active torsions:
REMARK  status: ('A' for Active; 'I' for Inactive)
REMARK    1  A    between atoms: N2_6  and  C5_7 
REMARK    2  A    between atoms: C10_12  and  C11_13 
REMARK    3  A    between atoms: N4_22  and  C18_23 
REMARK    4  A    between atoms: C18_23  and  C19_24 
ROOT
HETATM    1  C5  UNL     1      19.929  20.680  10.894  1.00  0.00     0.077 A 
HETATM    2  C6  UNL     1      20.333  21.973  11.032  1.00  0.00     0.034 A 
HETATM    3  C7  UNL     1      19.542  22.825  11.774  1.00  0.00     0.016 A 
HETATM    4  C8  UNL     1      18.360  22.402  12.375  1.00  0.00    -0.008 A 
HETATM    5  C9  UNL     1      17.572  23.248  13.110  1.00  0.00     0.029 A 
HETATM    6  C10 UNL     1      16.383  22.770  13.697  1.00  0.00     0.019 A 
HETATM    7  C25 UNL     1      16.055  21.465  13.515  1.00  0.00     0.051 A 
HETATM    8  C26 UNL     1      15.031  20.668  13.989  1.00  0.00     0.032 A 
HETATM    9  C27 UNL     1      15.180  19.383  13.556  1.00  0.00     0.020 A 
HETATM   10  C28 UNL     1      16.315  19.372  12.801  1.00  0.00     0.097 A 
HETATM   11  N5  UNL     1      16.819  20.613  12.791  1.00  0.00    -0.321 N 
HETATM   12  C29 UNL     1      17.965  21.110  12.232  1.00  0.00     0.051 A 
HETATM   13  C30 UNL     1      18.753  20.261  11.494  1.00  0.00     0.064 A 
ENDROOT
BRANCH   6  14
HETATM   14  C11 UNL     1      15.687  23.718  14.542  1.00  0.00     0.048 A 
HETATM   15  C12 UNL     1      16.391  24.439  15.557  1.00  0.00     0.044 A 
HETATM   16  C13 UNL     1      15.531  25.318  16.115  1.00  0.00    -0.004 A 
HETATM   17  C14 UNL     1      15.690  26.232  17.139  1.00  0.00     0.030 A 
HETATM   18  C17 UNL     1      14.318  25.197  15.509  1.00  0.00     0.061 A 
HETATM   19  C15 UNL     1      14.647  27.014  17.552  1.00  0.00     0.088 A 
HETATM   20  N3  UNL     1      13.461  26.892  16.962  1.00  0.00    -0.373 N 
HETATM   21  C16 UNL     1      13.300  26.000  15.959  1.00  0.00     0.118 A 
ATOM     22  H3  UNL     1      12.677  27.469  17.265  1.00  0.00     0.164 HD
HETATM   23  N4  UNL     1      14.456  24.215  14.554  1.00  0.00    -0.340 N 
BRANCH  23  24
HETATM   24  C18 UNL     1      13.335  23.950  13.683  1.00  0.00     0.168 C 
BRANCH  24  25
HETATM   25  C19 UNL     1      13.725  23.992  12.219  1.00  0.00    -0.040 A 
HETATM   26  C20 UNL     1      14.132  25.144  11.615  1.00  0.00     0.009 A 
HETATM   27  C21 UNL     1      14.475  25.112  10.267  1.00  0.00     0.001 A 
HETATM   28  C22 UNL     1      14.403  23.946   9.553  1.00  0.00     0.000 A 
HETATM   29  C23 UNL     1      13.996  22.764  10.127  1.00  0.00     0.001 A 
HETATM   30  C24 UNL     1      13.658  22.809  11.468  1.00  0.00     0.009 A 
ENDBRANCH  24  25
ENDBRANCH  23  24
ENDBRANCH   6  14
BRANCH   1  31
HETATM   31  N2  UNL     1      20.660  19.694  10.150  1.00  0.00    -0.195 N 
HETATM   32  N1  UNL     1      20.643  19.569   8.835  1.00  0.00    -0.284 N 
HETATM   33  C3  UNL     1      21.440  18.542   8.450  1.00  0.00     0.137 A 
HETATM   34  C4  UNL     1      19.869  20.422   7.942  1.00  0.00     0.179 C 
HETATM   35  C2  UNL     1      21.975  18.015   9.618  1.00  0.00     0.041 A 
HETATM   36  C1  UNL     1      22.913  16.863   9.658  1.00  0.00     0.071 C 
HETATM   37  N6  UNL     1      21.464  18.754  10.604  1.00  0.00    -0.282 N 
ATOM     38  H6  UNL     1      21.671  18.609  11.592  1.00  0.00     0.189 HD
ENDBRANCH   1  31
TORSDOF 4
ENDMDL
MODEL 2
REMARK VINA RESULT: -9.609462478      5.461      9.847
REMARK  4 active torsions:
REMARK  status: ('A' for Active; 'I' for Inactive)
REMARK    1  A    between atoms: N2_6  and  C5_7 
REMARK    2  A    between atoms: C10_12  and  C11_13 
REMARK    3  A    between atoms: N4_22  and  C18_23 
REMARK    4  A    between atoms: C18_23  and  C19_24 
ROOT
HETATM    1  C5  UNL     1      13.127  23.976  15.312  1.00  0.00     0.077 A 
HETATM    2  C6  UNL     1      13.683  23.183  14.354  1.00  0.00     0.034 A 
HETATM    3  C7  UNL     1      13.188  21.905  14.201  1.00  0.00     0.016 A 
HETATM    4  C8  UNL     1      12.151  21.414  14.989  1.00  0.00    -0.008 A 
HETATM    5  C9  UNL     1      11.660  20.144  14.841  1.00  0.00     0.029 A 
HETATM    6  C10 UNL     1      10.611  19.693  15.667  1.00  0.00     0.019 A 
HETATM    7  C25 UNL     1      10.110  20.550  16.594  1.00  0.00     0.051 A 
HETATM    8  C26 UNL     1       9.066  20.468  17.496  1.00  0.00     0.032 A 
HETATM    9  C27 UNL     1       8.926  21.641  18.178  1.00  0.00     0.020 A 
HETATM   10  C28 UNL     1       9.893  22.472  17.696  1.00  0.00     0.097 A 
HETATM   11  N5  UNL     1      10.581  21.808  16.758  1.00  0.00    -0.321 N 
HETATM   12  C29 UNL     1      11.603  22.212  15.943  1.00  0.00     0.051 A 
HETATM   13  C30 UNL     1      12.095  23.485  16.095  1.00  0.00     0.064 A 
ENDROOT
BRANCH   6  14
HETATM   14  C11 UNL     1      10.096  18.377  15.350  1.00  0.00     0.048 A 
HETATM   15  C12 UNL     1       8.904  18.233  14.572  1.00  0.00     0.044 A 
HETATM   16  C13 UNL     1       8.715  16.915  14.343  1.00  0.00    -0.004 A 
HETATM   17  C14 UNL     1       7.719  16.235  13.668  1.00  0.00     0.030 A 
HETATM   18  C17 UNL     1       9.723  16.214  14.930  1.00  0.00     0.061 A 
HETATM   19  C15 UNL     1       7.731  14.871  13.585  1.00  0.00     0.088 A 
HETATM   20  N3  UNL     1       8.714  14.186  14.163  1.00  0.00    -0.373 N 
HETATM   21  C16 UNL     1       9.692  14.846  14.823  1.00  0.00     0.118 A 
ATOM     22  H3  UNL     1       8.730  13.168  14.108  1.00  0.00     0.164 HD
HETATM   23  N4  UNL     1      10.546  17.141  15.530  1.00  0.00    -0.340 N 
BRANCH  23  24
HETATM   24  C18 UNL     1      11.764  16.673  16.147  1.00  0.00     0.168 C 
BRANCH  24  25
HETATM   25  C19 UNL     1      12.941  16.716  15.195  1.00  0.00    -0.040 A 
HETATM   26  C20 UNL     1      13.068  15.830  14.166  1.00  0.00     0.009 A 
HETATM   27  C21 UNL     1      14.175  15.924  13.330  1.00  0.00     0.001 A 
HETATM   28  C22 UNL     1      15.127  16.888  13.533  1.00  0.00     0.000 A 
HETATM   29  C23 UNL     1      15.035  17.798  14.560  1.00  0.00     0.001 A 
HETATM   30  C24 UNL     1      13.929  17.693  15.384  1.00  0.00     0.009 A 
ENDBRANCH  24  25
ENDBRANCH  23  24
ENDBRANCH   6  14
BRANCH   1  31
HETATM   31  N2  UNL     1      13.550  25.323  15.571  1.00  0.00    -0.195 N 
HETATM   32  N1  UNL     1      13.219  26.376  14.846  1.00  0.00    -0.284 N 
HETATM   33  C3  UNL     1      13.782  27.497  15.359  1.00  0.00     0.137 A 
HETATM   34  C4  UNL     1      12.367  26.320  13.665  1.00  0.00     0.179 C 
HETATM   35  C2  UNL     1      14.503  27.086  16.473  1.00  0.00     0.041 A 
HETATM   36  C1  UNL     1      15.285  28.003  17.342  1.00  0.00     0.071 C 
HETATM   37  N6  UNL     1      14.321  25.766  16.543  1.00  0.00    -0.282 N 
ATOM     38  H6  UNL     1      14.730  25.171  17.263  1.00  0.00     0.189 HD
ENDBRANCH   1  31
TORSDOF 4
ENDMDL
MODEL 3
REMARK VINA RESULT: -9.562431523      6.313     10.550
REMARK  4 active torsions:
REMARK  status: ('A' for Active; 'I' for Inactive)
REMARK    1  A    between atoms: N2_6  and  C5_7 
REMARK    2  A    between atoms: C10_12  and  C11_13 
REMARK    3  A    between atoms: N4_22  and  C18_23 
REMARK    4  A    between atoms: C18_23  and  C19_24 
ROOT
HETATM    1  C5  UNL     1      13.372  23.367  15.484  1.00  0.00     0.077 A 
HETATM    2  C6  UNL     1      13.891  22.413  14.662  1.00  0.00     0.034 A 
HETATM    3  C7  UNL     1      13.227  21.208  14.566  1.00  0.00     0.016 A 
HETATM    4  C8  UNL     1      12.060  20.947  15.279  1.00  0.00    -0.008 A 
HETATM    5  C9  UNL     1      11.400  19.750  15.187  1.00  0.00     0.029 A 
HETATM    6  C10 UNL     1      10.223  19.536  15.932  1.00  0.00     0.019 A 
HETATM    7  C25 UNL     1       9.771  20.542  16.724  1.00  0.00     0.051 A 
HETATM    8  C26 UNL     1       8.648  20.697  17.513  1.00  0.00     0.032 A 
HETATM    9  C27 UNL     1       8.621  21.940  18.075  1.00  0.00     0.020 A 
HETATM   10  C28 UNL     1       9.743  22.575  17.629  1.00  0.00     0.097 A 
HETATM   11  N5  UNL     1      10.408  21.732  16.830  1.00  0.00    -0.321 N 
HETATM   12  C29 UNL     1      11.550  21.905  16.097  1.00  0.00     0.051 A 
HETATM   13  C30 UNL     1      12.211  23.106  16.192  1.00  0.00     0.064 A 
ENDROOT
BRANCH   6  14
HETATM   14  C11 UNL     1       9.549  18.280  15.675  1.00  0.00     0.048 A 
HETATM   15  C12 UNL     1       8.644  18.155  14.574  1.00  0.00     0.044 A 
HETATM   16  C13 UNL     1       8.247  16.865  14.508  1.00  0.00    -0.004 A 
HETATM   17  C14 UNL     1       7.373  16.217  13.655  1.00  0.00     0.030 A 
HETATM   18  C17 UNL     1       8.851  16.163  15.505  1.00  0.00     0.061 A 
HETATM   19  C15 UNL     1       7.108  14.885  13.800  1.00  0.00     0.088 A 
HETATM   20  N3  UNL     1       7.696  14.200  14.777  1.00  0.00    -0.373 N 
HETATM   21  C16 UNL     1       8.552  14.829  15.614  1.00  0.00     0.118 A 
ATOM     22  H3  UNL     1       7.502  13.206  14.895  1.00  0.00     0.164 HD
HETATM   23  N4  UNL     1       9.640  17.060  16.191  1.00  0.00    -0.340 N 
BRANCH  23  24
HETATM   24  C18 UNL     1      10.482  16.556  17.249  1.00  0.00     0.168 C 
BRANCH  24  25
HETATM   25  C19 UNL     1       9.893  16.811  18.621  1.00  0.00    -0.040 A 
HETATM   26  C20 UNL     1      10.181  17.939  19.331  1.00  0.00     0.009 A 
HETATM   27  C21 UNL     1       9.606  18.109  20.585  1.00  0.00     0.001 A 
HETATM   28  C22 UNL     1       8.765  17.162  21.106  1.00  0.00     0.000 A 
HETATM   29  C23 UNL     1       8.452  16.011  20.421  1.00  0.00     0.001 A 
HETATM   30  C24 UNL     1       9.030  15.854  19.175  1.00  0.00     0.009 A 
ENDBRANCH  24  25
ENDBRANCH  23  24
ENDBRANCH   6  14
BRANCH   1  31
HETATM   31  N2  UNL     1      13.966  24.661  15.672  1.00  0.00    -0.195 N 
HETATM   32  N1  UNL     1      13.748  25.714  14.907  1.00  0.00    -0.284 N 
HETATM   33  C3  UNL     1      14.460  26.778  15.355  1.00  0.00     0.137 A 
HETATM   34  C4  UNL     1      12.865  25.714  13.747  1.00  0.00     0.179 C 
HETATM   35  C2  UNL     1      15.154  26.328  16.471  1.00  0.00     0.041 A 
HETATM   36  C1  UNL     1      16.066  27.177  17.281  1.00  0.00     0.071 C 
HETATM   37  N6  UNL     1      14.812  25.046  16.607  1.00  0.00    -0.282 N 
ATOM     38  H6  UNL     1      15.162  24.437  17.345  1.00  0.00     0.189 HD
ENDBRANCH   1  31
TORSDOF 4
ENDMDL
MODEL 4
REMARK VINA RESULT: -9.554093872      4.343      6.784
REMARK  4 active torsions:
REMARK  status: ('A' for Active; 'I' for Inactive)
REMARK    1  A    between atoms: N2_6  and  C5_7 
REMARK    2  A    between atoms: C10_12  and  C11_13 
REMARK    3  A    between atoms: N4_22  and  C18_23 
REMARK    4  A    between atoms: C18_23  and  C19_24 
ROOT
HETATM    1  C5  UNL     1      11.975  19.617  16.117  1.00  0.00     0.077 A 
HETATM    2  C6  UNL     1      10.966  20.421  16.555  1.00  0.00     0.034 A 
HETATM    3  C7  UNL     1      11.186  21.782  16.582  1.00  0.00     0.016 A 
HETATM    4  C8  UNL     1      12.395  22.345  16.180  1.00  0.00    -0.008 A 
HETATM    5  C9  UNL     1      12.616  23.696  16.209  1.00  0.00     0.029 A 
HETATM    6  C10 UNL     1      13.858  24.215  15.793  1.00  0.00     0.019 A 
HETATM    7  C25 UNL     1      14.809  23.345  15.365  1.00  0.00     0.051 A 
HETATM    8  C26 UNL     1      16.075  23.505  14.837  1.00  0.00     0.032 A 
HETATM    9  C27 UNL     1      16.615  22.298  14.503  1.00  0.00     0.020 A 
HETATM   10  C28 UNL     1      15.673  21.366  14.824  1.00  0.00     0.097 A 
HETATM   11  N5  UNL     1      14.611  22.006  15.330  1.00  0.00    -0.321 N 
HETATM   12  C29 UNL     1      13.395  21.535  15.745  1.00  0.00     0.051 A 
HETATM   13  C30 UNL     1      13.176  20.179  15.717  1.00  0.00     0.064 A 
ENDROOT
BRANCH   6  14
HETATM   14  C11 UNL     1      13.944  25.661  15.759  1.00  0.00     0.048 A 
HETATM   15  C12 UNL     1      14.582  26.374  16.822  1.00  0.00     0.044 A 
HETATM   16  C13 UNL     1      14.612  27.682  16.485  1.00  0.00    -0.004 A 
HETATM   17  C14 UNL     1      15.093  28.791  17.156  1.00  0.00     0.030 A 
HETATM   18  C17 UNL     1      14.031  27.839  15.265  1.00  0.00     0.061 A 
HETATM   19  C15 UNL     1      14.991  30.040  16.612  1.00  0.00     0.088 A 
HETATM   20  N3  UNL     1      14.419  30.193  15.421  1.00  0.00    -0.373 N 
HETATM   21  C16 UNL     1      13.947  29.112  14.760  1.00  0.00     0.118 A 
ATOM     22  H3  UNL     1      14.336  31.122  15.008  1.00  0.00     0.164 HD
HETATM   23  N4  UNL     1      13.641  26.584  14.854  1.00  0.00    -0.340 N 
BRANCH  23  24
HETATM   24  C18 UNL     1      13.081  26.443  13.531  1.00  0.00     0.168 C 
BRANCH  24  25
HETATM   25  C19 UNL     1      13.897  25.512  12.659  1.00  0.00    -0.040 A 
HETATM   26  C20 UNL     1      15.136  25.853  12.203  1.00  0.00     0.009 A 
HETATM   27  C21 UNL     1      15.832  24.951  11.406  1.00  0.00     0.001 A 
HETATM   28  C22 UNL     1      15.286  23.739  11.078  1.00  0.00     0.000 A 
HETATM   29  C23 UNL     1      14.039  23.359  11.518  1.00  0.00     0.001 A 
HETATM   30  C24 UNL     1      13.358  24.265  12.310  1.00  0.00     0.009 A 
ENDBRANCH  24  25
ENDBRANCH  23  24
ENDBRANCH   6  14
BRANCH   1  31
HETATM   31  N2  UNL     1      11.874  18.187  16.040  1.00  0.00    -0.195 N 
HETATM   32  N1  UNL     1      12.253  17.347  16.986  1.00  0.00    -0.284 N 
HETATM   33  C3  UNL     1      12.022  16.068  16.600  1.00  0.00     0.137 A 
HETATM   34  C4  UNL     1      12.836  17.756  18.257  1.00  0.00     0.179 C 
HETATM   35  C2  UNL     1      11.463  16.148  15.331  1.00  0.00     0.041 A 
HETATM   36  C1  UNL     1      11.051  14.968  14.527  1.00  0.00     0.071 C 
HETATM   37  N6  UNL     1      11.402  17.452  15.054  1.00  0.00    -0.282 N 
ATOM     38  H6  UNL     1      11.035  17.833  14.183  1.00  0.00     0.189 HD
ENDBRANCH   1  31
TORSDOF 4
ENDMDL
MODEL 5
REMARK VINA RESULT: -9.481345709      5.889     10.229
REMARK  4 active torsions:
REMARK  status: ('A' for Active; 'I' for Inactive)
REMARK    1  A    between atoms: N2_6  and  C5_7 
REMARK    2  A    between atoms: C10_12  and  C11_13 
REMARK    3  A    between atoms: N4_22  and  C18_23 
REMARK    4  A    between atoms: C18_23  and  C19_24 
ROOT
HETATM    1  C5  UNL     1      13.394  23.215  15.493  1.00  0.00     0.077 A 
HETATM    2  C6  UNL     1      13.874  22.205  14.715  1.00  0.00     0.034 A 
HETATM    3  C7  UNL     1      13.161  21.025  14.670  1.00  0.00     0.016 A 
HETATM    4  C8  UNL     1      11.983  20.845  15.389  1.00  0.00    -0.008 A 
HETATM    5  C9  UNL     1      11.275  19.673  15.347  1.00  0.00     0.029 A 
HETATM    6  C10 UNL     1      10.089  19.540  16.096  1.00  0.00     0.019 A 
HETATM    7  C25 UNL     1       9.677  20.597  16.842  1.00  0.00     0.051 A 
HETATM    8  C26 UNL     1       8.560  20.833  17.620  1.00  0.00     0.032 A 
HETATM    9  C27 UNL     1       8.583  22.100  18.126  1.00  0.00     0.020 A 
HETATM   10  C28 UNL     1       9.731  22.668  17.657  1.00  0.00     0.097 A 
HETATM   11  N5  UNL     1      10.362  21.764  16.898  1.00  0.00    -0.321 N 
HETATM   12  C29 UNL     1      11.512  21.858  16.162  1.00  0.00     0.051 A 
HETATM   13  C30 UNL     1      12.221  23.033  16.207  1.00  0.00     0.064 A 
ENDROOT
BRANCH   6  14
HETATM   14  C11 UNL     1       9.364  18.303  15.892  1.00  0.00     0.048 A 
HETATM   15  C12 UNL     1       8.951  17.913  14.580  1.00  0.00     0.044 A 
HETATM   16  C13 UNL     1       8.396  16.684  14.667  1.00  0.00    -0.004 A 
HETATM   17  C14 UNL     1       7.826  15.865  13.710  1.00  0.00     0.030 A 
HETATM   18  C17 UNL     1       8.436  16.270  15.963  1.00  0.00     0.061 A 
HETATM   19  C15 UNL     1       7.302  14.649  14.048  1.00  0.00     0.088 A 
HETATM   20  N3  UNL     1       7.339  14.247  15.316  1.00  0.00    -0.373 N 
HETATM   21  C16 UNL     1       7.896  15.044  16.256  1.00  0.00     0.118 A 
ATOM     22  H3  UNL     1       6.948  13.342  15.578  1.00  0.00     0.164 HD
HETATM   23  N4  UNL     1       9.037  17.283  16.677  1.00  0.00    -0.340 N 
BRANCH  23  24
HETATM   24  C18 UNL     1       9.303  17.063  18.079  1.00  0.00     0.168 C 
BRANCH  24  25
HETATM   25  C19 UNL     1      10.785  17.092  18.393  1.00  0.00    -0.040 A 
HETATM   26  C20 UNL     1      11.650  16.180  17.867  1.00  0.00     0.009 A 
HETATM   27  C21 UNL     1      12.999  16.263  18.197  1.00  0.00     0.001 A 
HETATM   28  C22 UNL     1      13.455  17.242  19.039  1.00  0.00     0.000 A 
HETATM   29  C23 UNL     1      12.613  18.180  19.589  1.00  0.00     0.001 A 
HETATM   30  C24 UNL     1      11.274  18.086  19.253  1.00  0.00     0.009 A 
ENDBRANCH  24  25
ENDBRANCH  23  24
ENDBRANCH   6  14
BRANCH   1  31
HETATM   31  N2  UNL     1      14.040  24.490  15.626  1.00  0.00    -0.195 N 
HETATM   32  N1  UNL     1      14.001  25.458  14.728  1.00  0.00    -0.284 N 
HETATM   33  C3  UNL     1      14.713  26.529  15.160  1.00  0.00     0.137 A 
HETATM   34  C4  UNL     1      13.290  25.369  13.459  1.00  0.00     0.179 C 
HETATM   35  C2  UNL     1      15.213  26.177  16.407  1.00  0.00     0.041 A 
HETATM   36  C1  UNL     1      16.058  27.066  17.245  1.00  0.00     0.071 C 
HETATM   37  N6  UNL     1      14.771  24.937  16.627  1.00  0.00    -0.282 N 
ATOM     38  H6  UNL     1      14.975  24.400  17.469  1.00  0.00     0.189 HD
ENDBRANCH   1  31
TORSDOF 4
ENDMDL
