MODEL 1
REMARK VINA RESULT: -9.617205350      0.000      0.000
REMARK  5 active torsions:
REMARK  status: ('A' for Active; 'I' for Inactive)
REMARK    1  A    between atoms: C2_2  and  C4_4 
REMARK    2  A    between atoms: C4_4  and  N1_5 
REMARK    3  A    between atoms: C4_4  and  C20_29 
REMARK    4  A    between atoms: N3_18  and  S1_20 
REMARK    5  A    between atoms: S1_20  and  C14_23 
ROOT
HETATM    1  N1  UNL     1      13.284  21.751  15.364  1.00  0.00    -0.365 N 
ATOM      2  H1  UNL     1      13.783  20.877  15.201  1.00  0.00     0.162 HD
HETATM    3  C5  UNL     1      12.357  21.659  16.148  1.00  0.00     0.130 A 
HETATM    4  N2  UNL     1      11.558  22.777  16.477  1.00  0.00    -0.350 N 
ATOM      5  H2  UNL     1      11.767  23.649  15.990  1.00  0.00     0.166 HD
HETATM    6  C6  UNL     1      10.613  22.805  17.311  1.00  0.00     0.102 A 
HETATM    7  C7  UNL     1      10.267  21.574  18.052  1.00  0.00    -0.008 A 
HETATM    8  C8  UNL     1       9.259  21.668  18.997  1.00  0.00     0.014 A 
HETATM    9  C9  UNL     1       8.922  20.579  19.769  1.00  0.00     0.001 A 
HETATM   10  C10 UNL     1       9.654  19.408  19.534  1.00  0.00     0.001 A 
HETATM   11  C11 UNL     1      10.639  19.316  18.601  1.00  0.00     0.015 A 
HETATM   12  C12 UNL     1      10.958  20.426  17.828  1.00  0.00     0.007 A 
HETATM   13  C13 UNL     1      12.056  20.362  16.854  1.00  0.00     0.097 A 
HETATM   14  N3  UNL     1      12.642  19.386  16.480  1.00  0.00    -0.276 N 
ATOM     15  H3  UNL     1      13.236  19.738  15.728  1.00  0.00     0.179 HD
ENDROOT
BRANCH   1  16
HETATM   16  C4  UNL     1      13.815  22.907  14.605  1.00  0.00     0.120 C 
BRANCH  16  17
HETATM   17  C2  UNL     1      14.928  23.367  15.539  1.00  0.00     0.005 C 
HETATM   18  C1  UNL     1      15.306  24.748  15.694  1.00  0.00     0.012 C 
HETATM   19  C3  UNL     1      16.195  22.544  15.215  1.00  0.00     0.012 C 
ENDBRANCH  16  17
BRANCH  16  20
HETATM   20  C20 UNL     1      14.324  22.459  13.313  1.00  0.00    -0.021 A 
HETATM   21  C21 UNL     1      14.743  21.180  13.028  1.00  0.00     0.027 A 
HETATM   22  C22 UNL     1      15.100  20.810  11.756  1.00  0.00     0.089 A 
HETATM   23  N4  UNL     1      15.055  21.689  10.705  1.00  0.00    -0.365 N 
HETATM   24  C23 UNL     1      14.654  22.948  10.938  1.00  0.00     0.042 A 
ATOM     25  H4  UNL     1      15.321  21.393   9.766  1.00  0.00     0.165 HD
HETATM   26  C24 UNL     1      14.669  23.850   9.883  1.00  0.00     0.030 A 
HETATM   27  C28 UNL     1      14.287  23.350  12.227  1.00  0.00    -0.001 A 
HETATM   28  C25 UNL     1      14.308  25.177  10.126  1.00  0.00     0.002 A 
HETATM   29  C26 UNL     1      13.942  25.606  11.347  1.00  0.00     0.001 A 
HETATM   30  C27 UNL     1      13.944  24.654  12.386  1.00  0.00     0.014 A 
ENDBRANCH  16  20
ENDBRANCH   1  16
BRANCH  14  31
HETATM   31  S1  UNL     1      12.992  17.803  16.533  1.00  0.00     0.263 S 
HETATM   32  O1  UNL     1      13.750  17.340  17.773  1.00  0.00    -0.200 OA
HETATM   33  O2  UNL     1      11.808  16.822  16.452  1.00  0.00    -0.200 OA
BRANCH  31  34
HETATM   34  C14 UNL     1      13.965  17.275  15.136  1.00  0.00     0.079 A 
HETATM   35  C15 UNL     1      13.703  16.018  14.594  1.00  0.00     0.025 A 
HETATM   36  C16 UNL     1      14.482  15.572  13.571  1.00  0.00     0.002 A 
HETATM   37  C17 UNL     1      15.541  16.326  13.040  1.00  0.00     0.000 A 
HETATM   38  C18 UNL     1      15.769  17.562  13.605  1.00  0.00     0.002 A 
HETATM   39  C19 UNL     1      14.973  18.036  14.657  1.00  0.00     0.025 A 
ENDBRANCH  31  34
ENDBRANCH  14  31
TORSDOF 5
ENDMDL
MODEL 2
REMARK VINA RESULT: -9.491134125      3.198      7.351
REMARK  5 active torsions:
REMARK  status: ('A' for Active; 'I' for Inactive)
REMARK    1  A    between atoms: C2_2  and  C4_4 
REMARK    2  A    between atoms: C4_4  and  N1_5 
REMARK    3  A    between atoms: C4_4  and  C20_29 
REMARK    4  A    between atoms: N3_18  and  S1_20 
REMARK    5  A    between atoms: S1_20  and  C14_23 
ROOT
HETATM    1  N1  UNL     1      14.028  22.456  15.052  1.00  0.00    -0.365 N 
ATOM      2  H1  UNL     1      14.123  21.481  14.767  1.00  0.00     0.162 HD
HETATM    3  C5  UNL     1      14.946  23.173  14.698  1.00  0.00     0.130 A 
HETATM    4  N2  UNL     1      14.971  24.548  15.020  1.00  0.00    -0.350 N 
ATOM      5  H2  UNL     1      14.209  24.897  15.601  1.00  0.00     0.166 HD
HETATM    6  C6  UNL     1      15.841  25.388  14.661  1.00  0.00     0.102 A 
HETATM    7  C7  UNL     1      16.966  24.942  13.813  1.00  0.00    -0.008 A 
HETATM    8  C8  UNL     1      17.866  25.910  13.398  1.00  0.00     0.014 A 
HETATM    9  C9  UNL     1      18.906  25.584  12.558  1.00  0.00     0.001 A 
HETATM   10  C10 UNL     1      18.981  24.241  12.165  1.00  0.00     0.001 A 
HETATM   11  C11 UNL     1      18.100  23.290  12.578  1.00  0.00     0.015 A 
HETATM   12  C12 UNL     1      17.062  23.641  13.433  1.00  0.00     0.007 A 
HETATM   13  C13 UNL     1      16.069  22.641  13.845  1.00  0.00     0.097 A 
HETATM   14  N3  UNL     1      16.120  21.455  13.685  1.00  0.00    -0.276 N 
ATOM     15  H3  UNL     1      15.317  21.107  14.211  1.00  0.00     0.179 HD
ENDROOT
BRANCH   1  16
HETATM   16  C4  UNL     1      12.797  22.747  15.825  1.00  0.00     0.120 C 
BRANCH  16  17
HETATM   17  C2  UNL     1      11.776  22.844  14.697  1.00  0.00     0.005 C 
HETATM   18  C1  UNL     1      11.809  22.001  13.530  1.00  0.00     0.012 C 
HETATM   19  C3  UNL     1      11.709  24.318  14.237  1.00  0.00     0.012 C 
ENDBRANCH  16  17
BRANCH  16  20
HETATM   20  C20 UNL     1      12.513  21.646  16.737  1.00  0.00    -0.021 A 
HETATM   21  C21 UNL     1      13.372  20.608  17.017  1.00  0.00     0.027 A 
HETATM   22  C22 UNL     1      13.077  19.672  17.976  1.00  0.00     0.089 A 
HETATM   23  N4  UNL     1      11.917  19.722  18.706  1.00  0.00    -0.365 N 
HETATM   24  C23 UNL     1      11.050  20.717  18.465  1.00  0.00     0.042 A 
ATOM     25  H4  UNL     1      11.719  19.019  19.417  1.00  0.00     0.165 HD
HETATM   26  C24 UNL     1       9.851  20.728  19.164  1.00  0.00     0.030 A 
HETATM   27  C28 UNL     1      11.327  21.682  17.491  1.00  0.00    -0.001 A 
HETATM   28  C25 UNL     1       8.916  21.727  18.882  1.00  0.00     0.002 A 
HETATM   29  C26 UNL     1       9.143  22.678  17.959  1.00  0.00     0.001 A 
HETATM   30  C27 UNL     1      10.374  22.624  17.275  1.00  0.00     0.014 A 
ENDBRANCH  16  20
ENDBRANCH   1  16
BRANCH  14  31
HETATM   31  S1  UNL     1      16.788  20.107  13.077  1.00  0.00     0.263 S 
HETATM   32  O1  UNL     1      17.825  19.430  13.966  1.00  0.00    -0.200 OA
HETATM   33  O2  UNL     1      15.832  18.958  12.707  1.00  0.00    -0.200 OA
BRANCH  31  34
HETATM   34  C14 UNL     1      17.593  20.394  11.513  1.00  0.00     0.079 A 
HETATM   35  C15 UNL     1      18.985  20.367  11.478  1.00  0.00     0.025 A 
HETATM   36  C16 UNL     1      19.616  20.652  10.307  1.00  0.00     0.002 A 
HETATM   37  C17 UNL     1      18.921  20.974   9.130  1.00  0.00     0.000 A 
HETATM   38  C18 UNL     1      17.546  20.992   9.206  1.00  0.00     0.002 A 
HETATM   39  C19 UNL     1      16.882  20.699  10.405  1.00  0.00     0.025 A 
ENDBRANCH  31  34
ENDBRANCH  14  31
TORSDOF 5
ENDMDL
MODEL 3
REMARK VINA RESULT: -9.489486133      2.660      6.902
REMARK  5 active torsions:
REMARK  status: ('A' for Active; 'I' for Inactive)
REMARK    1  A    between atoms: C2_2  and  C4_4 
REMARK    2  A    between atoms: C4_4  and  N1_5 
REMARK    3  A    between atoms: C4_4  and  C20_29 
REMARK    4  A    between atoms: N3_18  and  S1_20 
REMARK    5  A    between atoms: S1_20  and  C14_23 
ROOT
HETATM    1  N1  UNL     1      14.028  22.139  15.289  1.00  0.00    -0.365 N 
ATOM      2  H1  UNL     1      14.096  21.137  15.114  1.00  0.00     0.162 HD
HETATM    3  C5  UNL     1      14.964  22.787  14.855  1.00  0.00     0.130 A 
HETATM    4  N2  UNL     1      15.028  24.188  15.021  1.00  0.00    -0.350 N 
ATOM      5  H2  UNL     1      14.278  24.621  15.560  1.00  0.00     0.166 HD
HETATM    6  C6  UNL     1      15.919  24.959  14.570  1.00  0.00     0.102 A 
HETATM    7  C7  UNL     1      17.029  24.390  13.776  1.00  0.00    -0.008 A 
HETATM    8  C8  UNL     1      17.952  25.281  13.255  1.00  0.00     0.014 A 
HETATM    9  C9  UNL     1      18.980  24.834  12.456  1.00  0.00     0.001 A 
HETATM   10  C10 UNL     1      19.017  23.455  12.216  1.00  0.00     0.001 A 
HETATM   11  C11 UNL     1      18.113  22.580  12.733  1.00  0.00     0.015 A 
HETATM   12  C12 UNL     1      17.088  23.053  13.544  1.00  0.00     0.007 A 
HETATM   13  C13 UNL     1      16.069  22.133  14.067  1.00  0.00     0.097 A 
HETATM   14  N3  UNL     1      16.088  20.935  14.041  1.00  0.00    -0.276 N 
ATOM     15  H3  UNL     1      15.278  20.671  14.602  1.00  0.00     0.179 HD
ENDROOT
BRANCH   1  16
HETATM   16  C4  UNL     1      12.809  22.549  16.024  1.00  0.00     0.120 C 
BRANCH  16  17
HETATM   17  C2  UNL     1      11.811  22.648  14.876  1.00  0.00     0.005 C 
HETATM   18  C1  UNL     1      11.834  21.772  13.735  1.00  0.00     0.012 C 
HETATM   19  C3  UNL     1      11.803  24.111  14.375  1.00  0.00     0.012 C 
ENDBRANCH  16  17
BRANCH  16  20
HETATM   20  C20 UNL     1      12.444  21.519  16.989  1.00  0.00    -0.021 A 
HETATM   21  C21 UNL     1      13.261  20.488  17.394  1.00  0.00     0.027 A 
HETATM   22  C22 UNL     1      12.885  19.625  18.393  1.00  0.00     0.089 A 
HETATM   23  N4  UNL     1      11.683  19.746  19.042  1.00  0.00    -0.365 N 
HETATM   24  C23 UNL     1      10.855  20.736  18.678  1.00  0.00     0.042 A 
ATOM     25  H4  UNL     1      11.425  19.097  19.784  1.00  0.00     0.165 HD
HETATM   26  C24 UNL     1       9.614  20.817  19.295  1.00  0.00     0.030 A 
HETATM   27  C28 UNL     1      11.214  21.627  17.660  1.00  0.00    -0.001 A 
HETATM   28  C25 UNL     1       8.720  21.809  18.886  1.00  0.00     0.002 A 
HETATM   29  C26 UNL     1       9.026  22.691  17.917  1.00  0.00     0.001 A 
HETATM   30  C27 UNL     1      10.297  22.568  17.319  1.00  0.00     0.014 A 
ENDBRANCH  16  20
ENDBRANCH   1  16
BRANCH  14  31
HETATM   31  S1  UNL     1      16.717  19.510  13.586  1.00  0.00     0.263 S 
HETATM   32  O1  UNL     1      17.251  19.454  12.159  1.00  0.00    -0.200 OA
HETATM   33  O2  UNL     1      17.887  18.963  14.425  1.00  0.00    -0.200 OA
BRANCH  31  34
HETATM   34  C14 UNL     1      15.546  18.174  13.727  1.00  0.00     0.079 A 
HETATM   35  C15 UNL     1      14.448  18.352  14.567  1.00  0.00     0.025 A 
HETATM   36  C16 UNL     1      13.582  17.317  14.739  1.00  0.00     0.002 A 
HETATM   37  C17 UNL     1      13.748  16.075  14.104  1.00  0.00     0.000 A 
HETATM   38  C18 UNL     1      14.846  15.940  13.283  1.00  0.00     0.002 A 
HETATM   39  C19 UNL     1      15.746  16.998  13.095  1.00  0.00     0.025 A 
ENDBRANCH  31  34
ENDBRANCH  14  31
TORSDOF 5
ENDMDL
MODEL 4
REMARK VINA RESULT: -9.484808093      3.702      6.672
REMARK  5 active torsions:
REMARK  status: ('A' for Active; 'I' for Inactive)
REMARK    1  A    between atoms: C2_2  and  C4_4 
REMARK    2  A    between atoms: C4_4  and  N1_5 
REMARK    3  A    between atoms: C4_4  and  C20_29 
REMARK    4  A    between atoms: N3_18  and  S1_20 
REMARK    5  A    between atoms: S1_20  and  C14_23 
ROOT
HETATM    1  N1  UNL     1      14.885  22.831  12.923  1.00  0.00    -0.365 N 
ATOM      2  H1  UNL     1      15.194  23.774  13.161  1.00  0.00     0.162 HD
HETATM    3  C5  UNL     1      14.034  22.381  13.669  1.00  0.00     0.130 A 
HETATM    4  N2  UNL     1      13.506  21.084  13.483  1.00  0.00    -0.350 N 
ATOM      5  H2  UNL     1      13.906  20.530  12.725  1.00  0.00     0.166 HD
HETATM    6  C6  UNL     1      12.590  20.541  14.159  1.00  0.00     0.102 A 
HETATM    7  C7  UNL     1      11.968  21.297  15.267  1.00  0.00    -0.008 A 
HETATM    8  C8  UNL     1      10.928  20.681  15.945  1.00  0.00     0.014 A 
HETATM    9  C9  UNL     1      10.259  21.345  16.948  1.00  0.00     0.001 A 
HETATM   10  C10 UNL     1      10.695  22.648  17.221  1.00  0.00     0.001 A 
HETATM   11  C11 UNL     1      11.720  23.249  16.558  1.00  0.00     0.015 A 
HETATM   12  C12 UNL     1      12.386  22.557  15.553  1.00  0.00     0.007 A 
HETATM   13  C13 UNL     1      13.458  23.208  14.789  1.00  0.00     0.097 A 
HETATM   14  N3  UNL     1      13.995  24.251  15.031  1.00  0.00    -0.276 N 
ATOM     15  H3  UNL     1      14.754  24.294  14.349  1.00  0.00     0.179 HD
ENDROOT
BRANCH   1  16
HETATM   16  C4  UNL     1      15.552  22.254  11.733  1.00  0.00     0.120 C 
BRANCH  16  17
HETATM   17  C2  UNL     1      15.180  23.287  10.676  1.00  0.00     0.005 C 
HETATM   18  C1  UNL     1      15.202  24.706  10.919  1.00  0.00     0.012 C 
HETATM   19  C3  UNL     1      13.795  22.907  10.102  1.00  0.00     0.012 C 
ENDBRANCH  16  17
BRANCH  16  20
HETATM   20  C20 UNL     1      16.991  22.182  11.958  1.00  0.00    -0.021 A 
HETATM   21  C21 UNL     1      17.628  22.536  13.125  1.00  0.00     0.027 A 
HETATM   22  C22 UNL     1      18.974  22.331  13.297  1.00  0.00     0.089 A 
HETATM   23  N4  UNL     1      19.752  21.762  12.321  1.00  0.00    -0.365 N 
HETATM   24  C23 UNL     1      19.171  21.403  11.166  1.00  0.00     0.042 A 
ATOM     25  H4  UNL     1      20.750  21.614  12.471  1.00  0.00     0.165 HD
HETATM   26  C24 UNL     1      19.974  20.884  10.159  1.00  0.00     0.030 A 
HETATM   27  C28 UNL     1      17.801  21.604  10.966  1.00  0.00    -0.001 A 
HETATM   28  C25 UNL     1      19.391  20.559   8.933  1.00  0.00     0.002 A 
HETATM   29  C26 UNL     1      18.077  20.730   8.698  1.00  0.00     0.001 A 
HETATM   30  C27 UNL     1      17.304  21.261   9.750  1.00  0.00     0.014 A 
ENDBRANCH  16  20
ENDBRANCH   1  16
BRANCH  14  31
HETATM   31  S1  UNL     1      14.158  25.632  15.867  1.00  0.00     0.263 S 
HETATM   32  O1  UNL     1      13.160  25.832  17.003  1.00  0.00    -0.200 OA
HETATM   33  O2  UNL     1      15.519  25.885  16.541  1.00  0.00    -0.200 OA
BRANCH  31  34
HETATM   34  C14 UNL     1      14.020  27.075  14.830  1.00  0.00     0.079 A 
HETATM   35  C15 UNL     1      13.544  26.905  13.532  1.00  0.00     0.025 A 
HETATM   36  C16 UNL     1      13.497  27.985  12.706  1.00  0.00     0.002 A 
HETATM   37  C17 UNL     1      13.910  29.265  13.107  1.00  0.00     0.000 A 
HETATM   38  C18 UNL     1      14.376  29.391  14.397  1.00  0.00     0.002 A 
HETATM   39  C19 UNL     1      14.428  28.288  15.261  1.00  0.00     0.025 A 
ENDBRANCH  31  34
ENDBRANCH  14  31
TORSDOF 5
ENDMDL
MODEL 5
REMARK VINA RESULT: -9.459308630      3.331      6.852
REMARK  5 active torsions:
REMARK  status: ('A' for Active; 'I' for Inactive)
REMARK    1  A    between atoms: C2_2  and  C4_4 
REMARK    2  A    between atoms: C4_4  and  N1_5 
REMARK    3  A    between atoms: C4_4  and  C20_29 
REMARK    4  A    between atoms: N3_18  and  S1_20 
REMARK    5  A    between atoms: S1_20  and  C14_23 
ROOT
HETATM    1  N1  UNL     1      14.484  21.558  12.950  1.00  0.00    -0.365 N 
ATOM      2  H1  UNL     1      14.527  22.503  12.569  1.00  0.00     0.162 HD
HETATM    3  C5  UNL     1      13.791  21.451  13.945  1.00  0.00     0.130 A 
HETATM    4  N2  UNL     1      13.632  20.210  14.600  1.00  0.00    -0.350 N 
ATOM      5  H2  UNL     1      14.162  19.423  14.226  1.00  0.00     0.166 HD
HETATM    6  C6  UNL     1      12.901  19.976  15.601  1.00  0.00     0.102 A 
HETATM    7  C7  UNL     1      12.104  21.076  16.184  1.00  0.00    -0.008 A 
HETATM    8  C8  UNL     1      11.274  20.760  17.247  1.00  0.00     0.014 A 
HETATM    9  C9  UNL     1      10.456  21.717  17.804  1.00  0.00     0.001 A 
HETATM   10  C10 UNL     1      10.525  22.993  17.231  1.00  0.00     0.001 A 
HETATM   11  C11 UNL     1      11.345  23.304  16.191  1.00  0.00     0.015 A 
HETATM   12  C12 UNL     1      12.167  22.323  15.649  1.00  0.00     0.007 A 
HETATM   13  C13 UNL     1      13.019  22.625  14.491  1.00  0.00     0.097 A 
HETATM   14  N3  UNL     1      13.256  23.701  14.021  1.00  0.00    -0.276 N 
ATOM     15  H3  UNL     1      13.970  23.505  13.319  1.00  0.00     0.179 HD
ENDROOT
BRANCH   1  16
HETATM   16  C4  UNL     1      15.275  20.560  12.193  1.00  0.00     0.120 C 
BRANCH  16  17
HETATM   17  C2  UNL     1      15.864  21.442  11.098  1.00  0.00     0.005 C 
HETATM   18  C1  UNL     1      15.072  22.343  10.302  1.00  0.00     0.012 C 
HETATM   19  C3  UNL     1      16.687  20.541  10.150  1.00  0.00     0.012 C 
ENDBRANCH  16  17
BRANCH  16  20
HETATM   20  C20 UNL     1      16.301  19.986  13.055  1.00  0.00    -0.021 A 
HETATM   21  C21 UNL     1      17.264  20.704  13.727  1.00  0.00     0.027 A 
HETATM   22  C22 UNL     1      18.122  20.100  14.611  1.00  0.00     0.089 A 
HETATM   23  N4  UNL     1      18.066  18.755  14.874  1.00  0.00    -0.365 N 
HETATM   24  C23 UNL     1      17.143  18.016  14.239  1.00  0.00     0.042 A 
ATOM     25  H4  UNL     1      18.710  18.327  15.537  1.00  0.00     0.165 HD
HETATM   26  C24 UNL     1      17.130  16.646  14.463  1.00  0.00     0.030 A 
HETATM   27  C28 UNL     1      16.258  18.608  13.332  1.00  0.00    -0.001 A 
HETATM   28  C25 UNL     1      16.211  15.858  13.766  1.00  0.00     0.002 A 
HETATM   29  C26 UNL     1      15.338  16.385  12.889  1.00  0.00     0.001 A 
HETATM   30  C27 UNL     1      15.391  17.781  12.695  1.00  0.00     0.014 A 
ENDBRANCH  16  20
ENDBRANCH   1  16
BRANCH  14  31
HETATM   31  S1  UNL     1      13.043  25.306  13.909  1.00  0.00     0.263 S 
HETATM   32  O1  UNL     1      13.522  25.942  12.608  1.00  0.00    -0.200 OA
HETATM   33  O2  UNL     1      11.604  25.833  14.053  1.00  0.00    -0.200 OA
BRANCH  31  34
HETATM   34  C14 UNL     1      13.861  26.193  15.220  1.00  0.00     0.079 A 
HETATM   35  C15 UNL     1      13.926  27.582  15.131  1.00  0.00     0.025 A 
HETATM   36  C16 UNL     1      14.606  28.268  16.089  1.00  0.00     0.002 A 
HETATM   37  C17 UNL     1      15.247  27.634  17.165  1.00  0.00     0.000 A 
HETATM   38  C18 UNL     1      15.162  26.260  17.217  1.00  0.00     0.002 A 
HETATM   39  C19 UNL     1      14.463  25.539  16.238  1.00  0.00     0.025 A 
ENDBRANCH  31  34
ENDBRANCH  14  31
TORSDOF 5
ENDMDL
