MODEL 1
REMARK VINA RESULT: -9.111400938      0.000      0.000
REMARK  8 active torsions:
REMARK  status: ('A' for Active; 'I' for Inactive)
REMARK    1  A    between atoms: O1_2  and  C2_3 
REMARK    2  A    between atoms: C5_6  and  C6_7 
REMARK    3  A    between atoms: C6_7  and  C7_8 
REMARK    4  A    between atoms: C8_9  and  C9_10 
REMARK    5  A    between atoms: C12_15  and  C13_16 
REMARK    6  A    between atoms: C14_17  and  C15_18 
REMARK    7  A    between atoms: C19_22  and  C20_23 
REMARK    8  A    between atoms: C30_35  and  O3_36 
ROOT
HETATM    1  C9  UNL     1      15.936  20.639  11.731  1.00  0.00     0.134 A 
HETATM    2  C10 UNL     1      15.706  19.462  12.420  1.00  0.00     0.131 A 
HETATM    3  N1  UNL     1      14.760  19.663  13.363  1.00  0.00    -0.346 N 
ATOM      4  H1  UNL     1      14.396  18.968  14.016  1.00  0.00     0.167 HD
HETATM    5  C11 UNL     1      14.390  20.957  13.276  1.00  0.00     0.156 A 
HETATM    6  C12 UNL     1      13.539  21.899  13.838  1.00  0.00     0.095 A 
HETATM    7  C27 UNL     1      13.800  23.052  13.123  1.00  0.00     0.096 A 
HETATM    8  C28 UNL     1      13.173  24.389  13.297  1.00  0.00     0.081 C 
HETATM    9  O2  UNL     1      14.732  22.794  12.218  1.00  0.00    -0.231 OA
HETATM   10  N2  UNL     1      15.100  21.542  12.291  1.00  0.00    -0.189 N 
ENDROOT
BRANCH   6  11
HETATM   11  C13 UNL     1      12.596  21.742  14.910  1.00  0.00    -0.055 C 
HETATM   12  C14 UNL     1      11.801  21.630  15.815  1.00  0.00    -0.061 C 
BRANCH  12  13
HETATM   13  C15 UNL     1      10.857  21.522  16.900  1.00  0.00     0.018 A 
HETATM   14  C16 UNL     1      10.014  22.587  17.221  1.00  0.00     0.020 A 
HETATM   15  C17 UNL     1       9.118  22.465  18.260  1.00  0.00     0.002 A 
HETATM   16  C18 UNL     1       9.002  21.325  19.021  1.00  0.00     0.012 A 
HETATM   17  C19 UNL     1       9.835  20.259  18.712  1.00  0.00    -0.025 A 
HETATM   18  C26 UNL     1      10.732  20.385  17.669  1.00  0.00     0.032 A 
BRANCH  17  19
HETATM   19  C20 UNL     1       9.782  19.023  19.458  1.00  0.00    -0.026 A 
HETATM   20  C21 UNL     1      10.444  17.900  19.034  1.00  0.00     0.012 A 
HETATM   21  C22 UNL     1      10.384  16.718  19.763  1.00  0.00     0.001 A 
HETATM   22  C23 UNL     1       9.650  16.676  20.924  1.00  0.00     0.000 A 
HETATM   23  C24 UNL     1       8.984  17.785  21.363  1.00  0.00     0.001 A 
HETATM   24  C25 UNL     1       9.053  18.968  20.620  1.00  0.00     0.012 A 
ENDBRANCH  17  19
ENDBRANCH  12  13
ENDBRANCH   6  11
BRANCH   1  25
HETATM   25  C8  UNL     1      16.875  20.811  10.657  1.00  0.00    -0.044 C 
HETATM   26  C7  UNL     1      17.655  20.974   9.751  1.00  0.00    -0.095 C 
BRANCH  26  27
HETATM   27  C6  UNL     1      18.592  21.196   8.646  1.00  0.00     0.132 C 
BRANCH  27  28
HETATM   28  C5  UNL     1      19.762  20.351   8.884  1.00  0.00    -0.044 A 
HETATM   29  C4  UNL     1      20.332  20.307  10.134  1.00  0.00     0.011 A 
HETATM   30  C3  UNL     1      21.449  19.506  10.370  1.00  0.00     0.040 A 
HETATM   31  C2  UNL     1      21.999  18.750   9.369  1.00  0.00     0.101 A 
HETATM   32  C30 UNL     1      21.400  18.816   8.112  1.00  0.00     0.102 A 
HETATM   33  C29 UNL     1      20.297  19.602   7.864  1.00  0.00     0.047 A 
BRANCH  31  34
HETATM   34  O1  UNL     1      23.109  17.942   9.569  1.00  0.00    -0.353 OA
HETATM   35  C1  UNL     1      23.117  16.858  10.458  1.00  0.00     0.210 C 
ENDBRANCH  31  34
BRANCH  32  36
HETATM   36  O3  UNL     1      21.935  18.057   7.068  1.00  0.00    -0.353 OA
HETATM   37  C31 UNL     1      21.601  18.379   5.738  1.00  0.00     0.210 C 
ENDBRANCH  32  36
ENDBRANCH  27  28
ENDBRANCH  26  27
ENDBRANCH   1  25
TORSDOF 8
ENDMDL
MODEL 2
REMARK VINA RESULT: -9.077311957      5.146     10.893
REMARK  8 active torsions:
REMARK  status: ('A' for Active; 'I' for Inactive)
REMARK    1  A    between atoms: O1_2  and  C2_3 
REMARK    2  A    between atoms: C5_6  and  C6_7 
REMARK    3  A    between atoms: C6_7  and  C7_8 
REMARK    4  A    between atoms: C8_9  and  C9_10 
REMARK    5  A    between atoms: C12_15  and  C13_16 
REMARK    6  A    between atoms: C14_17  and  C15_18 
REMARK    7  A    between atoms: C19_22  and  C20_23 
REMARK    8  A    between atoms: C30_35  and  O3_36 
ROOT
HETATM    1  C9  UNL     1      14.738  22.791  13.537  1.00  0.00     0.134 A 
HETATM    2  C10 UNL     1      14.174  22.114  14.603  1.00  0.00     0.131 A 
HETATM    3  N1  UNL     1      14.835  20.954  14.808  1.00  0.00    -0.346 N 
ATOM      4  H1  UNL     1      14.633  20.259  15.526  1.00  0.00     0.167 HD
HETATM    5  C11 UNL     1      15.812  20.892  13.880  1.00  0.00     0.156 A 
HETATM    6  C12 UNL     1      16.857  20.095  13.432  1.00  0.00     0.095 A 
HETATM    7  C27 UNL     1      17.388  20.805  12.374  1.00  0.00     0.096 A 
HETATM    8  C28 UNL     1      18.538  20.424  11.512  1.00  0.00     0.081 C 
HETATM    9  O2  UNL     1      16.702  21.927  12.223  1.00  0.00    -0.231 OA
HETATM   10  N2  UNL     1      15.751  22.001  13.116  1.00  0.00    -0.189 N 
ENDROOT
BRANCH   6  11
HETATM   11  C13 UNL     1      17.304  18.825  13.933  1.00  0.00    -0.055 C 
HETATM   12  C14 UNL     1      17.683  17.764  14.374  1.00  0.00    -0.061 C 
BRANCH  12  13
HETATM   13  C15 UNL     1      18.143  16.511  14.921  1.00  0.00     0.018 A 
HETATM   14  C16 UNL     1      17.237  15.506  15.262  1.00  0.00     0.020 A 
HETATM   15  C17 UNL     1      17.695  14.316  15.783  1.00  0.00     0.002 A 
HETATM   16  C18 UNL     1      19.029  14.052  15.993  1.00  0.00     0.012 A 
HETATM   17  C19 UNL     1      19.940  15.044  15.658  1.00  0.00    -0.025 A 
HETATM   18  C26 UNL     1      19.477  16.237  15.135  1.00  0.00     0.032 A 
BRANCH  17  19
HETATM   19  C20 UNL     1      21.359  14.854  15.844  1.00  0.00    -0.026 A 
HETATM   20  C21 UNL     1      22.148  14.322  14.856  1.00  0.00     0.012 A 
HETATM   21  C22 UNL     1      23.513  14.147  15.050  1.00  0.00     0.001 A 
HETATM   22  C23 UNL     1      24.079  14.510  16.249  1.00  0.00     0.000 A 
HETATM   23  C24 UNL     1      23.309  15.041  17.245  1.00  0.00     0.001 A 
HETATM   24  C25 UNL     1      21.937  15.214  17.037  1.00  0.00     0.012 A 
ENDBRANCH  17  19
ENDBRANCH  12  13
ENDBRANCH   6  11
BRANCH   1  25
HETATM   25  C8  UNL     1      14.301  24.062  13.027  1.00  0.00    -0.044 C 
HETATM   26  C7  UNL     1      13.941  25.138  12.616  1.00  0.00    -0.095 C 
BRANCH  26  27
HETATM   27  C6  UNL     1      13.511  26.455  12.140  1.00  0.00     0.132 C 
BRANCH  27  28
HETATM   28  C5  UNL     1      13.669  27.397  13.248  1.00  0.00    -0.044 A 
HETATM   29  C4  UNL     1      13.955  28.717  12.988  1.00  0.00     0.011 A 
HETATM   30  C3  UNL     1      14.110  29.624  14.036  1.00  0.00     0.040 A 
HETATM   31  C2  UNL     1      13.981  29.222  15.340  1.00  0.00     0.101 A 
HETATM   32  C30 UNL     1      13.691  27.878  15.572  1.00  0.00     0.102 A 
HETATM   33  C29 UNL     1      13.536  26.972  14.547  1.00  0.00     0.047 A 
BRANCH  31  34
HETATM   34  O1  UNL     1      14.127  30.097  16.407  1.00  0.00    -0.353 OA
HETATM   35  C1  UNL     1      15.356  30.335  17.038  1.00  0.00     0.210 C 
ENDBRANCH  31  34
BRANCH  32  36
HETATM   36  O3  UNL     1      13.553  27.435  16.890  1.00  0.00    -0.353 OA
HETATM   37  C31 UNL     1      14.614  26.736  17.498  1.00  0.00     0.210 C 
ENDBRANCH  32  36
ENDBRANCH  27  28
ENDBRANCH  26  27
ENDBRANCH   1  25
TORSDOF 8
ENDMDL
MODEL 3
REMARK VINA RESULT: -8.961585914      1.444      2.222
REMARK  8 active torsions:
REMARK  status: ('A' for Active; 'I' for Inactive)
REMARK    1  A    between atoms: O1_2  and  C2_3 
REMARK    2  A    between atoms: C5_6  and  C6_7 
REMARK    3  A    between atoms: C6_7  and  C7_8 
REMARK    4  A    between atoms: C8_9  and  C9_10 
REMARK    5  A    between atoms: C12_15  and  C13_16 
REMARK    6  A    between atoms: C14_17  and  C15_18 
REMARK    7  A    between atoms: C19_22  and  C20_23 
REMARK    8  A    between atoms: C30_35  and  O3_36 
ROOT
HETATM    1  C9  UNL     1      16.833  21.170  13.331  1.00  0.00     0.134 A 
HETATM    2  C10 UNL     1      16.077  20.013  13.383  1.00  0.00     0.131 A 
HETATM    3  N1  UNL     1      14.998  20.208  14.171  1.00  0.00    -0.346 N 
ATOM      4  H1  UNL     1      14.271  19.525  14.387  1.00  0.00     0.167 HD
HETATM    5  C11 UNL     1      15.066  21.478  14.619  1.00  0.00     0.156 A 
HETATM    6  C12 UNL     1      14.403  22.403  15.416  1.00  0.00     0.095 A 
HETATM    7  C27 UNL     1      15.189  23.536  15.336  1.00  0.00     0.096 A 
HETATM    8  C28 UNL     1      14.960  24.848  15.997  1.00  0.00     0.081 C 
HETATM    9  O2  UNL     1      16.227  23.284  14.553  1.00  0.00    -0.231 OA
HETATM   10  N2  UNL     1      16.174  22.055  14.111  1.00  0.00    -0.189 N 
ENDROOT
BRANCH   6  11
HETATM   11  C13 UNL     1      13.185  22.247  16.160  1.00  0.00    -0.055 C 
HETATM   12  C14 UNL     1      12.155  22.097  16.777  1.00  0.00    -0.061 C 
BRANCH  12  13
HETATM   13  C15 UNL     1      10.921  21.898  17.496  1.00  0.00     0.018 A 
HETATM   14  C16 UNL     1       9.870  22.809  17.377  1.00  0.00     0.020 A 
HETATM   15  C17 UNL     1       8.700  22.603  18.072  1.00  0.00     0.002 A 
HETATM   16  C18 UNL     1       8.498  21.523  18.900  1.00  0.00     0.012 A 
HETATM   17  C19 UNL     1       9.535  20.610  19.028  1.00  0.00    -0.025 A 
HETATM   18  C26 UNL     1      10.709  20.820  18.329  1.00  0.00     0.032 A 
BRANCH  17  19
HETATM   19  C20 UNL     1       9.412  19.446  19.875  1.00  0.00    -0.026 A 
HETATM   20  C21 UNL     1       9.962  18.240  19.522  1.00  0.00     0.012 A 
HETATM   21  C22 UNL     1       9.835  17.130  20.349  1.00  0.00     0.001 A 
HETATM   22  C23 UNL     1       9.150  17.243  21.535  1.00  0.00     0.000 A 
HETATM   23  C24 UNL     1       8.595  18.436  21.903  1.00  0.00     0.001 A 
HETATM   24  C25 UNL     1       8.730  19.547  21.062  1.00  0.00     0.012 A 
ENDBRANCH  17  19
ENDBRANCH  12  13
ENDBRANCH   6  11
BRANCH   1  25
HETATM   25  C8  UNL     1      18.053  21.340  12.591  1.00  0.00    -0.044 C 
HETATM   26  C7  UNL     1      19.083  21.499  11.982  1.00  0.00    -0.095 C 
BRANCH  26  27
HETATM   27  C6  UNL     1      20.338  21.715  11.258  1.00  0.00     0.132 C 
BRANCH  27  28
HETATM   28  C5  UNL     1      20.372  20.768  10.143  1.00  0.00    -0.044 A 
HETATM   29  C4  UNL     1      19.620  21.007   9.018  1.00  0.00     0.011 A 
HETATM   30  C3  UNL     1      19.644  20.110   7.951  1.00  0.00     0.040 A 
HETATM   31  C2  UNL     1      20.414  18.977   7.999  1.00  0.00     0.101 A 
HETATM   32  C30 UNL     1      21.165  18.761   9.153  1.00  0.00     0.102 A 
HETATM   33  C29 UNL     1      21.151  19.638  10.215  1.00  0.00     0.047 A 
BRANCH  31  34
HETATM   34  O1  UNL     1      20.462  18.064   6.956  1.00  0.00    -0.353 OA
HETATM   35  C1  UNL     1      20.274  18.423   5.614  1.00  0.00     0.210 C 
ENDBRANCH  31  34
BRANCH  32  36
HETATM   36  O3  UNL     1      21.961  17.616   9.236  1.00  0.00    -0.353 OA
HETATM   37  C31 UNL     1      22.685  17.361  10.418  1.00  0.00     0.210 C 
ENDBRANCH  32  36
ENDBRANCH  27  28
ENDBRANCH  26  27
ENDBRANCH   1  25
TORSDOF 8
ENDMDL
MODEL 4
REMARK VINA RESULT: -8.752039472      5.920      8.861
REMARK  8 active torsions:
REMARK  status: ('A' for Active; 'I' for Inactive)
REMARK    1  A    between atoms: O1_2  and  C2_3 
REMARK    2  A    between atoms: C5_6  and  C6_7 
REMARK    3  A    between atoms: C6_7  and  C7_8 
REMARK    4  A    between atoms: C8_9  and  C9_10 
REMARK    5  A    between atoms: C12_15  and  C13_16 
REMARK    6  A    between atoms: C14_17  and  C15_18 
REMARK    7  A    between atoms: C19_22  and  C20_23 
REMARK    8  A    between atoms: C30_35  and  O3_36 
ROOT
HETATM    1  C9  UNL     1      14.314  21.732  14.654  1.00  0.00     0.134 A 
HETATM    2  C10 UNL     1      14.492  20.531  13.991  1.00  0.00     0.131 A 
HETATM    3  N1  UNL     1      13.452  19.710  14.246  1.00  0.00    -0.346 N 
ATOM      4  H1  UNL     1      13.322  18.763  13.888  1.00  0.00     0.167 HD
HETATM    5  C11 UNL     1      12.616  20.380  15.066  1.00  0.00     0.156 A 
HETATM    6  C12 UNL     1      11.412  20.263  15.747  1.00  0.00     0.095 A 
HETATM    7  C27 UNL     1      11.274  21.477  16.391  1.00  0.00     0.096 A 
HETATM    8  C28 UNL     1      10.160  21.915  17.273  1.00  0.00     0.081 C 
HETATM    9  O2  UNL     1      12.320  22.236  16.104  1.00  0.00    -0.231 OA
HETATM   10  N2  UNL     1      13.139  21.598  15.310  1.00  0.00    -0.189 N 
ENDROOT
BRANCH   6  11
HETATM   11  C13 UNL     1      10.501  19.154  15.789  1.00  0.00    -0.055 C 
HETATM   12  C14 UNL     1       9.726  18.224  15.805  1.00  0.00    -0.061 C 
BRANCH  12  13
HETATM   13  C15 UNL     1       8.793  17.125  15.803  1.00  0.00     0.018 A 
HETATM   14  C16 UNL     1       8.723  16.245  16.884  1.00  0.00     0.020 A 
HETATM   15  C17 UNL     1       7.825  15.202  16.864  1.00  0.00     0.002 A 
HETATM   16  C18 UNL     1       6.969  14.967  15.813  1.00  0.00     0.012 A 
HETATM   17  C19 UNL     1       7.029  15.835  14.731  1.00  0.00    -0.025 A 
HETATM   18  C26 UNL     1       7.931  16.882  14.754  1.00  0.00     0.032 A 
BRANCH  17  19
HETATM   19  C20 UNL     1       6.168  15.666  13.584  1.00  0.00    -0.026 A 
HETATM   20  C21 UNL     1       6.166  14.506  12.853  1.00  0.00     0.012 A 
HETATM   21  C22 UNL     1       5.330  14.358  11.752  1.00  0.00     0.001 A 
HETATM   22  C23 UNL     1       4.496  15.389  11.391  1.00  0.00     0.000 A 
HETATM   23  C24 UNL     1       4.484  16.553  12.107  1.00  0.00     0.001 A 
HETATM   24  C25 UNL     1       5.329  16.689  13.214  1.00  0.00     0.012 A 
ENDBRANCH  17  19
ENDBRANCH  12  13
ENDBRANCH   6  11
BRANCH   1  25
HETATM   25  C8  UNL     1      15.216  22.849  14.621  1.00  0.00    -0.044 C 
HETATM   26  C7  UNL     1      15.959  23.801  14.599  1.00  0.00    -0.095 C 
BRANCH  26  27
HETATM   27  C6  UNL     1      16.840  24.971  14.581  1.00  0.00     0.132 C 
BRANCH  27  28
HETATM   28  C5  UNL     1      16.040  26.131  14.975  1.00  0.00    -0.044 A 
HETATM   29  C4  UNL     1      15.981  26.505  16.297  1.00  0.00     0.011 A 
HETATM   30  C3  UNL     1      15.221  27.608  16.683  1.00  0.00     0.040 A 
HETATM   31  C2  UNL     1      14.521  28.340  15.760  1.00  0.00     0.101 A 
HETATM   32  C30 UNL     1      14.600  27.938  14.428  1.00  0.00     0.102 A 
HETATM   33  C29 UNL     1      15.346  26.850  14.032  1.00  0.00     0.047 A 
BRANCH  31  34
HETATM   34  O1  UNL     1      13.756  29.444  16.109  1.00  0.00    -0.353 OA
HETATM   35  C1  UNL     1      14.286  30.736  16.231  1.00  0.00     0.210 C 
ENDBRANCH  31  34
BRANCH  32  36
HETATM   36  O3  UNL     1      13.899  28.662  13.461  1.00  0.00    -0.353 OA
HETATM   37  C31 UNL     1      13.022  27.984  12.591  1.00  0.00     0.210 C 
ENDBRANCH  32  36
ENDBRANCH  27  28
ENDBRANCH  26  27
ENDBRANCH   1  25
TORSDOF 8
ENDMDL
MODEL 5
REMARK VINA RESULT: -8.698017473      5.574     11.216
REMARK  8 active torsions:
REMARK  status: ('A' for Active; 'I' for Inactive)
REMARK    1  A    between atoms: O1_2  and  C2_3 
REMARK    2  A    between atoms: C5_6  and  C6_7 
REMARK    3  A    between atoms: C6_7  and  C7_8 
REMARK    4  A    between atoms: C8_9  and  C9_10 
REMARK    5  A    between atoms: C12_15  and  C13_16 
REMARK    6  A    between atoms: C14_17  and  C15_18 
REMARK    7  A    between atoms: C19_22  and  C20_23 
REMARK    8  A    between atoms: C30_35  and  O3_36 
ROOT
HETATM    1  C9  UNL     1      16.178  22.490  12.584  1.00  0.00     0.134 A 
HETATM    2  C10 UNL     1      17.560  22.523  12.531  1.00  0.00     0.131 A 
HETATM    3  N1  UNL     1      18.063  21.365  13.009  1.00  0.00    -0.346 N 
ATOM      4  H1  UNL     1      19.050  21.117  13.088  1.00  0.00     0.167 HD
HETATM    5  C11 UNL     1      17.010  20.599  13.364  1.00  0.00     0.156 A 
HETATM    6  C12 UNL     1      16.679  19.361  13.900  1.00  0.00     0.095 A 
HETATM    7  C27 UNL     1      15.298  19.372  13.934  1.00  0.00     0.096 A 
HETATM    8  C28 UNL     1      14.395  18.294  14.417  1.00  0.00     0.081 C 
HETATM    9  O2  UNL     1      14.867  20.528  13.455  1.00  0.00    -0.231 OA
HETATM   10  N2  UNL     1      15.876  21.281  13.107  1.00  0.00    -0.189 N 
ENDROOT
BRANCH   6  11
HETATM   11  C13 UNL     1      17.547  18.299  14.326  1.00  0.00    -0.055 C 
HETATM   12  C14 UNL     1      18.292  17.410  14.671  1.00  0.00    -0.061 C 
BRANCH  12  13
HETATM   13  C15 UNL     1      19.194  16.355  15.061  1.00  0.00     0.018 A 
HETATM   14  C16 UNL     1      19.204  15.872  16.370  1.00  0.00     0.020 A 
HETATM   15  C17 UNL     1      20.073  14.864  16.724  1.00  0.00     0.002 A 
HETATM   16  C18 UNL     1      20.956  14.289  15.840  1.00  0.00     0.012 A 
HETATM   17  C19 UNL     1      20.956  14.761  14.534  1.00  0.00    -0.025 A 
HETATM   18  C26 UNL     1      20.083  15.772  14.183  1.00  0.00     0.032 A 
BRANCH  17  19
HETATM   19  C20 UNL     1      21.849  14.215  13.538  1.00  0.00    -0.026 A 
HETATM   20  C21 UNL     1      21.519  14.205  12.207  1.00  0.00     0.012 A 
HETATM   21  C22 UNL     1      22.389  13.677  11.261  1.00  0.00     0.001 A 
HETATM   22  C23 UNL     1      23.596  13.159  11.665  1.00  0.00     0.000 A 
HETATM   23  C24 UNL     1      23.942  13.160  12.987  1.00  0.00     0.001 A 
HETATM   24  C25 UNL     1      23.058  13.695  13.930  1.00  0.00     0.012 A 
ENDBRANCH  17  19
ENDBRANCH  12  13
ENDBRANCH   6  11
BRANCH   1  25
HETATM   25  C8  UNL     1      15.299  23.545  12.161  1.00  0.00    -0.044 C 
HETATM   26  C7  UNL     1      14.573  24.445  11.815  1.00  0.00    -0.095 C 
BRANCH  26  27
HETATM   27  C6  UNL     1      13.706  25.554  11.410  1.00  0.00     0.132 C 
BRANCH  27  28
HETATM   28  C5  UNL     1      13.646  26.498  12.526  1.00  0.00    -0.044 A 
HETATM   29  C4  UNL     1      13.631  27.850  12.279  1.00  0.00     0.011 A 
HETATM   30  C3  UNL     1      13.576  28.759  13.336  1.00  0.00     0.040 A 
HETATM   31  C2  UNL     1      13.536  28.327  14.635  1.00  0.00     0.101 A 
HETATM   32  C30 UNL     1      13.552  26.950  14.855  1.00  0.00     0.102 A 
HETATM   33  C29 UNL     1      13.607  26.042  13.822  1.00  0.00     0.047 A 
BRANCH  31  34
HETATM   34  O1  UNL     1      13.480  29.202  15.711  1.00  0.00    -0.353 OA
HETATM   35  C1  UNL     1      14.555  30.016  16.092  1.00  0.00     0.210 C 
ENDBRANCH  31  34
BRANCH  32  36
HETATM   36  O3  UNL     1      13.512  26.475  16.168  1.00  0.00    -0.353 OA
HETATM   37  C31 UNL     1      14.719  26.230  16.852  1.00  0.00     0.210 C 
ENDBRANCH  32  36
ENDBRANCH  27  28
ENDBRANCH  26  27
ENDBRANCH   1  25
TORSDOF 8
ENDMDL
