MODEL 1
REMARK VINA RESULT: -8.436523965      0.000      0.000
REMARK  9 active torsions:
REMARK  status: ('A' for Active; 'I' for Inactive)
REMARK    1  A    between atoms: C2_2  and  C4_4 
REMARK    2  A    between atoms: C4_4  and  C5_5 
REMARK    3  A    between atoms: C5_5  and  C6_6 
REMARK       I    between atoms: C6_6  and  N1_8 
REMARK    4  A    between atoms: C9_11  and  C10_12 
REMARK    5  A    between atoms: C10_12  and  N2_13 
REMARK    6  A    between atoms: C13_16  and  N3_17 
REMARK       I    between atoms: N3_17  and  C14_19 
REMARK    7  A    between atoms: C14_19  and  C15_21 
REMARK    8  A    between atoms: C15_21  and  C17_23 
REMARK    9  A    between atoms: C18_24  and  C19_25 
ROOT
HETATM    1  N2  UNL     1     -37.530  12.900 -47.159  1.00  0.00    -0.393 N 
HETATM    2  C11 UNL     1     -36.514  12.879 -46.130  1.00  0.00     0.123 C 
HETATM    3  C12 UNL     1     -35.474  11.823 -46.561  1.00  0.00     0.045 C 
HETATM    4  C13 UNL     1     -36.160  10.524 -46.880  1.00  0.00     0.087 C 
HETATM    5  C26 UNL     1     -37.618  10.566 -46.492  1.00  0.00     0.045 C 
HETATM    6  C27 UNL     1     -38.260  11.718 -47.293  1.00  0.00     0.123 C 
ENDROOT
BRANCH   1   7
HETATM    7  C10 UNL     1     -37.404  13.861 -48.132  1.00  0.00     0.062 C 
BRANCH   7   8
HETATM    8  C9  UNL     1     -37.570  13.384 -49.568  1.00  0.00     0.027 C 
HETATM    9  C8  UNL     1     -36.278  12.734 -49.943  1.00  0.00     0.030 C 
HETATM   10  C7  UNL     1     -35.840  12.907 -51.375  1.00  0.00     0.126 C 
HETATM   11  N1  UNL     1     -36.022  14.256 -51.761  1.00  0.00    -0.351 N 
HETATM   12  C6  UNL     1     -35.128  15.276 -52.097  1.00  0.00     0.228 C 
HETATM   13  C29 UNL     1     -37.461  14.559 -51.804  1.00  0.00     0.126 C 
HETATM   14  O1  UNL     1     -35.643  16.406 -52.368  1.00  0.00    -0.273 OA
HETATM   15  C28 UNL     1     -38.057  14.479 -50.418  1.00  0.00     0.030 C 
BRANCH  12  16
HETATM   16  C5  UNL     1     -33.671  15.291 -52.202  1.00  0.00     0.041 C 
HETATM   17  C30 UNL     1     -32.951  15.909 -51.042  1.00  0.00     0.019 C 
HETATM   18  C31 UNL     1     -31.646  16.376 -51.619  1.00  0.00     0.001 C 
HETATM   19  C32 UNL     1     -32.048  16.969 -52.932  1.00  0.00     0.001 C 
HETATM   20  C33 UNL     1     -33.289  16.251 -53.313  1.00  0.00     0.019 C 
BRANCH  16  21
HETATM   21  C4  UNL     1     -33.005  13.988 -52.467  1.00  0.00     0.023 C 
BRANCH  21  22
HETATM   22  C2  UNL     1     -33.037  13.425 -53.834  1.00  0.00    -0.021 C 
HETATM   23  C1  UNL     1     -31.596  12.916 -54.078  1.00  0.00     0.009 C 
HETATM   24  C3  UNL     1     -33.910  12.234 -54.053  1.00  0.00     0.009 C 
ENDBRANCH  21  22
ENDBRANCH  16  21
ENDBRANCH  12  16
ENDBRANCH   7   8
ENDBRANCH   1   7
BRANCH   4  25
HETATM   25  N3  UNL     1     -35.491   9.322 -46.545  1.00  0.00    -0.352 N 
HETATM   26  C14 UNL     1     -35.111   8.240 -47.367  1.00  0.00     0.248 C 
HETATM   27  O2  UNL     1     -35.335   8.235 -48.632  1.00  0.00    -0.268 OA
ATOM     28  H3  UNL     1     -35.247   9.223 -45.559  1.00  0.00     0.163 HD
BRANCH  26  29
HETATM   29  C15 UNL     1     -34.447   7.044 -46.849  1.00  0.00     0.019 C 
HETATM   30  C16 UNL     1     -34.910   5.746 -47.444  1.00  0.00     0.055 C 
BRANCH  29  31
HETATM   31  C17 UNL     1     -33.075   7.104 -46.358  1.00  0.00     0.024 A 
HETATM   32  C18 UNL     1     -31.883   7.330 -47.000  1.00  0.00     0.129 A 
HETATM   33  O3  UNL     1     -30.915   7.437 -46.079  1.00  0.00    -0.308 OA
HETATM   34  C20 UNL     1     -31.394   7.295 -44.904  1.00  0.00     0.087 A 
HETATM   35  C21 UNL     1     -30.701   7.343 -43.685  1.00  0.00     0.038 A 
HETATM   36  C25 UNL     1     -32.742   7.081 -44.982  1.00  0.00     0.011 A 
HETATM   37  C22 UNL     1     -31.421   7.170 -42.540  1.00  0.00     0.003 A 
HETATM   38  C23 UNL     1     -32.775   6.954 -42.571  1.00  0.00     0.001 A 
HETATM   39  C24 UNL     1     -33.430   6.912 -43.807  1.00  0.00     0.015 A 
BRANCH  32  40
HETATM   40  C19 UNL     1     -31.564   7.447 -48.423  1.00  0.00     0.411 C 
HETATM   41  F1  UNL     1     -32.178   8.642 -48.873  1.00  0.00    -0.207 F 
HETATM   42  F2  UNL     1     -30.192   7.738 -48.590  1.00  0.00    -0.207 F 
ENDBRANCH  32  40
ENDBRANCH  29  31
ENDBRANCH  26  29
ENDBRANCH   4  25
TORSDOF 9
ENDMDL
MODEL 2
REMARK VINA RESULT: -8.435481490      4.413      6.553
REMARK  9 active torsions:
REMARK  status: ('A' for Active; 'I' for Inactive)
REMARK    1  A    between atoms: C2_2  and  C4_4 
REMARK    2  A    between atoms: C4_4  and  C5_5 
REMARK    3  A    between atoms: C5_5  and  C6_6 
REMARK       I    between atoms: C6_6  and  N1_8 
REMARK    4  A    between atoms: C9_11  and  C10_12 
REMARK    5  A    between atoms: C10_12  and  N2_13 
REMARK    6  A    between atoms: C13_16  and  N3_17 
REMARK       I    between atoms: N3_17  and  C14_19 
REMARK    7  A    between atoms: C14_19  and  C15_21 
REMARK    8  A    between atoms: C15_21  and  C17_23 
REMARK    9  A    between atoms: C18_24  and  C19_25 
ROOT
HETATM    1  N2  UNL     1     -37.700  11.523 -52.679  1.00  0.00    -0.393 N 
HETATM    2  C11 UNL     1     -37.420  10.179 -53.135  1.00  0.00     0.123 C 
HETATM    3  C12 UNL     1     -36.132   9.730 -52.412  1.00  0.00     0.045 C 
HETATM    4  C13 UNL     1     -35.053  10.759 -52.594  1.00  0.00     0.087 C 
HETATM    5  C26 UNL     1     -35.467  11.816 -53.589  1.00  0.00     0.045 C 
HETATM    6  C27 UNL     1     -36.745  12.477 -53.031  1.00  0.00     0.123 C 
ENDROOT
BRANCH   1   7
HETATM    7  C10 UNL     1     -38.596  11.650 -51.646  1.00  0.00     0.062 C 
BRANCH   7   8
HETATM    8  C9  UNL     1     -38.054  12.267 -50.364  1.00  0.00     0.027 C 
HETATM    9  C8  UNL     1     -38.032  13.744 -50.590  1.00  0.00     0.030 C 
HETATM   10  C7  UNL     1     -36.892  14.495 -49.951  1.00  0.00     0.126 C 
HETATM   11  N1  UNL     1     -35.686  13.789 -50.166  1.00  0.00    -0.351 N 
HETATM   12  C6  UNL     1     -34.537  14.077 -50.908  1.00  0.00     0.228 C 
HETATM   13  C29 UNL     1     -35.724  12.523 -49.417  1.00  0.00     0.126 C 
HETATM   14  O1  UNL     1     -33.633  13.183 -50.909  1.00  0.00    -0.273 OA
HETATM   15  C28 UNL     1     -36.798  11.616 -49.973  1.00  0.00     0.030 C 
BRANCH  12  16
HETATM   16  C5  UNL     1     -34.165  15.243 -51.704  1.00  0.00     0.041 C 
HETATM   17  C30 UNL     1     -35.281  16.198 -52.002  1.00  0.00     0.019 C 
HETATM   18  C31 UNL     1     -34.855  16.887 -53.266  1.00  0.00     0.001 C 
HETATM   19  C32 UNL     1     -34.295  15.771 -54.089  1.00  0.00     0.001 C 
HETATM   20  C33 UNL     1     -33.821  14.768 -53.103  1.00  0.00     0.019 C 
BRANCH  16  21
HETATM   21  C4  UNL     1     -33.031  16.063 -51.202  1.00  0.00     0.023 C 
BRANCH  21  22
HETATM   22  C2  UNL     1     -31.723  15.984 -51.887  1.00  0.00    -0.021 C 
HETATM   23  C1  UNL     1     -31.371  17.454 -52.222  1.00  0.00     0.009 C 
HETATM   24  C3  UNL     1     -30.569  15.483 -51.084  1.00  0.00     0.009 C 
ENDBRANCH  21  22
ENDBRANCH  16  21
ENDBRANCH  12  16
ENDBRANCH   7   8
ENDBRANCH   1   7
BRANCH   4  25
HETATM   25  N3  UNL     1     -33.720  10.303 -52.734  1.00  0.00    -0.352 N 
HETATM   26  C14 UNL     1     -32.794   9.900 -51.747  1.00  0.00     0.248 C 
HETATM   27  O2  UNL     1     -33.095   9.884 -50.499  1.00  0.00    -0.268 OA
ATOM     28  H3  UNL     1     -33.376  10.259 -53.693  1.00  0.00     0.163 HD
BRANCH  26  29
HETATM   29  C15 UNL     1     -31.429   9.482 -52.063  1.00  0.00     0.019 C 
HETATM   30  C16 UNL     1     -30.746   8.670 -51.002  1.00  0.00     0.055 C 
BRANCH  29  31
HETATM   31  C17 UNL     1     -31.014   9.263 -53.444  1.00  0.00     0.024 A 
HETATM   32  C18 UNL     1     -30.700  10.138 -54.454  1.00  0.00     0.129 A 
HETATM   33  O3  UNL     1     -30.231   9.438 -55.496  1.00  0.00    -0.308 OA
HETATM   34  C20 UNL     1     -30.223   8.188 -55.232  1.00  0.00     0.087 A 
HETATM   35  C21 UNL     1     -29.803   7.140 -56.064  1.00  0.00     0.038 A 
HETATM   36  C25 UNL     1     -30.699   7.985 -53.966  1.00  0.00     0.011 A 
HETATM   37  C22 UNL     1     -29.877   5.871 -55.570  1.00  0.00     0.003 A 
HETATM   38  C23 UNL     1     -30.346   5.621 -54.305  1.00  0.00     0.001 A 
HETATM   39  C24 UNL     1     -30.757   6.694 -53.506  1.00  0.00     0.015 A 
BRANCH  32  40
HETATM   40  C19 UNL     1     -30.811  11.595 -54.534  1.00  0.00     0.411 C 
HETATM   41  F1  UNL     1     -30.104  11.985 -55.698  1.00  0.00    -0.207 F 
HETATM   42  F2  UNL     1     -32.136  11.964 -54.853  1.00  0.00    -0.207 F 
ENDBRANCH  32  40
ENDBRANCH  29  31
ENDBRANCH  26  29
ENDBRANCH   4  25
TORSDOF 9
ENDMDL
MODEL 3
REMARK VINA RESULT: -8.246130957      3.033      5.071
REMARK  9 active torsions:
REMARK  status: ('A' for Active; 'I' for Inactive)
REMARK    1  A    between atoms: C2_2  and  C4_4 
REMARK    2  A    between atoms: C4_4  and  C5_5 
REMARK    3  A    between atoms: C5_5  and  C6_6 
REMARK       I    between atoms: C6_6  and  N1_8 
REMARK    4  A    between atoms: C9_11  and  C10_12 
REMARK    5  A    between atoms: C10_12  and  N2_13 
REMARK    6  A    between atoms: C13_16  and  N3_17 
REMARK       I    between atoms: N3_17  and  C14_19 
REMARK    7  A    between atoms: C14_19  and  C15_21 
REMARK    8  A    between atoms: C15_21  and  C17_23 
REMARK    9  A    between atoms: C18_24  and  C19_25 
ROOT
HETATM    1  N2  UNL     1     -32.779   8.704 -50.014  1.00  0.00    -0.393 N 
HETATM    2  C11 UNL     1     -33.596   9.187 -48.923  1.00  0.00     0.123 C 
HETATM    3  C12 UNL     1     -32.765   9.001 -47.635  1.00  0.00     0.045 C 
HETATM    4  C13 UNL     1     -32.261   7.588 -47.547  1.00  0.00     0.087 C 
HETATM    5  C26 UNL     1     -32.877   6.719 -48.617  1.00  0.00     0.045 C 
HETATM    6  C27 UNL     1     -32.487   7.340 -49.974  1.00  0.00     0.123 C 
ENDROOT
BRANCH   1   7
HETATM    7  C10 UNL     1     -32.055   9.644 -50.706  1.00  0.00     0.062 C 
BRANCH   7   8
HETATM    8  C9  UNL     1     -32.431   9.832 -52.169  1.00  0.00     0.027 C 
HETATM    9  C8  UNL     1     -31.969  11.203 -52.544  1.00  0.00     0.030 C 
HETATM   10  C7  UNL     1     -32.838  11.949 -53.524  1.00  0.00     0.126 C 
HETATM   11  N1  UNL     1     -34.196  11.801 -53.155  1.00  0.00    -0.351 N 
HETATM   12  C6  UNL     1     -35.156  12.703 -52.689  1.00  0.00     0.228 C 
HETATM   13  C29 UNL     1     -34.599  10.399 -53.340  1.00  0.00     0.126 C 
HETATM   14  O1  UNL     1     -36.297  12.213 -52.415  1.00  0.00    -0.273 OA
HETATM   15  C28 UNL     1     -33.847   9.504 -52.381  1.00  0.00     0.030 C 
BRANCH  12  16
HETATM   16  C5  UNL     1     -35.098  14.143 -52.451  1.00  0.00     0.041 C 
HETATM   17  C30 UNL     1     -34.626  14.965 -53.611  1.00  0.00     0.019 C 
HETATM   18  C31 UNL     1     -34.059  16.206 -52.982  1.00  0.00     0.001 C 
HETATM   19  C32 UNL     1     -33.305  15.675 -51.805  1.00  0.00     0.001 C 
HETATM   20  C33 UNL     1     -33.991  14.409 -51.448  1.00  0.00     0.019 C 
BRANCH  16  21
HETATM   21  C4  UNL     1     -36.340  14.790 -51.952  1.00  0.00     0.023 C 
BRANCH  21  22
HETATM   22  C2  UNL     1     -36.496  15.034 -50.502  1.00  0.00    -0.021 C 
HETATM   23  C1  UNL     1     -37.288  16.361 -50.414  1.00  0.00     0.009 C 
HETATM   24  C3  UNL     1     -37.310  14.045 -49.734  1.00  0.00     0.009 C 
ENDBRANCH  21  22
ENDBRANCH  16  21
ENDBRANCH  12  16
ENDBRANCH   7   8
ENDBRANCH   1   7
BRANCH   4  25
HETATM   25  N3  UNL     1     -32.189   6.990 -46.266  1.00  0.00    -0.352 N 
HETATM   26  C14 UNL     1     -33.184   6.859 -45.272  1.00  0.00     0.248 C 
HETATM   27  O2  UNL     1     -34.380   7.293 -45.446  1.00  0.00    -0.268 OA
ATOM     28  H3  UNL     1     -31.281   6.592 -46.024  1.00  0.00     0.163 HD
BRANCH  26  29
HETATM   29  C15 UNL     1     -32.932   6.233 -43.974  1.00  0.00     0.019 C 
HETATM   30  C16 UNL     1     -32.516   4.792 -44.028  1.00  0.00     0.055 C 
BRANCH  29  31
HETATM   31  C17 UNL     1     -32.464   7.024 -42.842  1.00  0.00     0.024 A 
HETATM   32  C18 UNL     1     -33.058   7.350 -41.647  1.00  0.00     0.129 A 
HETATM   33  O3  UNL     1     -32.155   7.973 -40.877  1.00  0.00    -0.308 OA
HETATM   34  C20 UNL     1     -31.036   8.071 -41.485  1.00  0.00     0.087 A 
HETATM   35  C21 UNL     1     -29.852   8.653 -41.010  1.00  0.00     0.038 A 
HETATM   36  C25 UNL     1     -31.138   7.503 -42.725  1.00  0.00     0.011 A 
HETATM   37  C22 UNL     1     -28.765   8.641 -41.833  1.00  0.00     0.003 A 
HETATM   38  C23 UNL     1     -28.821   8.082 -43.085  1.00  0.00     0.001 A 
HETATM   39  C24 UNL     1     -30.021   7.511 -43.523  1.00  0.00     0.015 A 
BRANCH  32  40
HETATM   40  C19 UNL     1     -34.421   7.136 -41.160  1.00  0.00     0.411 C 
HETATM   41  F1  UNL     1     -34.640   8.103 -40.149  1.00  0.00    -0.207 F 
HETATM   42  F2  UNL     1     -35.355   7.520 -42.146  1.00  0.00    -0.207 F 
ENDBRANCH  32  40
ENDBRANCH  29  31
ENDBRANCH  26  29
ENDBRANCH   4  25
TORSDOF 9
ENDMDL
MODEL 4
REMARK VINA RESULT: -8.204330193      3.442      7.490
REMARK  9 active torsions:
REMARK  status: ('A' for Active; 'I' for Inactive)
REMARK    1  A    between atoms: C2_2  and  C4_4 
REMARK    2  A    between atoms: C4_4  and  C5_5 
REMARK    3  A    between atoms: C5_5  and  C6_6 
REMARK       I    between atoms: C6_6  and  N1_8 
REMARK    4  A    between atoms: C9_11  and  C10_12 
REMARK    5  A    between atoms: C10_12  and  N2_13 
REMARK    6  A    between atoms: C13_16  and  N3_17 
REMARK       I    between atoms: N3_17  and  C14_19 
REMARK    7  A    between atoms: C14_19  and  C15_21 
REMARK    8  A    between atoms: C15_21  and  C17_23 
REMARK    9  A    between atoms: C18_24  and  C19_25 
ROOT
HETATM    1  N2  UNL     1     -34.785  15.403 -51.361  1.00  0.00    -0.393 N 
HETATM    2  C11 UNL     1     -33.486  15.908 -51.745  1.00  0.00     0.123 C 
HETATM    3  C12 UNL     1     -33.049  15.098 -52.986  1.00  0.00     0.045 C 
HETATM    4  C13 UNL     1     -33.164  13.626 -52.707  1.00  0.00     0.087 C 
HETATM    5  C26 UNL     1     -33.466  13.367 -51.251  1.00  0.00     0.045 C 
HETATM    6  C27 UNL     1     -34.802  14.073 -50.940  1.00  0.00     0.123 C 
ENDROOT
BRANCH   1   7
HETATM    7  C10 UNL     1     -35.877  16.096 -51.823  1.00  0.00     0.062 C 
BRANCH   7   8
HETATM    8  C9  UNL     1     -37.223  15.688 -51.239  1.00  0.00     0.027 C 
HETATM    9  C8  UNL     1     -37.002  15.500 -49.773  1.00  0.00     0.030 C 
HETATM   10  C7  UNL     1     -37.797  14.399 -49.119  1.00  0.00     0.126 C 
HETATM   11  N1  UNL     1     -37.756  13.243 -49.934  1.00  0.00    -0.351 N 
HETATM   12  C6  UNL     1     -37.185  11.979 -49.761  1.00  0.00     0.228 C 
HETATM   13  C29 UNL     1     -38.492  13.502 -51.181  1.00  0.00     0.126 C 
HETATM   14  O1  UNL     1     -37.313  11.169 -50.732  1.00  0.00    -0.273 OA
HETATM   15  C28 UNL     1     -37.790  14.564 -51.996  1.00  0.00     0.030 C 
BRANCH  12  16
HETATM   16  C5  UNL     1     -36.449  11.394 -48.643  1.00  0.00     0.041 C 
HETATM   17  C30 UNL     1     -35.344  12.240 -48.091  1.00  0.00     0.019 C 
HETATM   18  C31 UNL     1     -34.395  11.256 -47.469  1.00  0.00     0.001 C 
HETATM   19  C32 UNL     1     -34.353  10.147 -48.471  1.00  0.00     0.001 C 
HETATM   20  C33 UNL     1     -35.661  10.209 -49.168  1.00  0.00     0.019 C 
BRANCH  16  21
HETATM   21  C4  UNL     1     -37.253  10.936 -47.479  1.00  0.00     0.023 C 
BRANCH  21  22
HETATM   22  C2  UNL     1     -37.616  11.905 -46.424  1.00  0.00    -0.021 C 
HETATM   23  C1  UNL     1     -39.153  12.048 -46.539  1.00  0.00     0.009 C 
HETATM   24  C3  UNL     1     -37.371  11.490 -45.012  1.00  0.00     0.009 C 
ENDBRANCH  21  22
ENDBRANCH  16  21
ENDBRANCH  12  16
ENDBRANCH   7   8
ENDBRANCH   1   7
BRANCH   4  25
HETATM   25  N3  UNL     1     -32.191  12.767 -53.272  1.00  0.00    -0.352 N 
HETATM   26  C14 UNL     1     -32.348  11.516 -53.906  1.00  0.00     0.248 C 
HETATM   27  O2  UNL     1     -33.502  10.977 -54.070  1.00  0.00    -0.268 OA
ATOM     28  H3  UNL     1     -31.229  13.104 -53.213  1.00  0.00     0.163 HD
BRANCH  26  29
HETATM   29  C15 UNL     1     -31.220  10.735 -54.412  1.00  0.00     0.019 C 
HETATM   30  C16 UNL     1     -30.152  11.528 -55.106  1.00  0.00     0.055 C 
BRANCH  29  31
HETATM   31  C17 UNL     1     -30.816   9.495 -53.759  1.00  0.00     0.024 A 
HETATM   32  C18 UNL     1     -31.000   9.033 -52.480  1.00  0.00     0.129 A 
HETATM   33  O3  UNL     1     -30.571   7.764 -52.417  1.00  0.00    -0.308 OA
HETATM   34  C20 UNL     1     -30.127   7.383 -53.552  1.00  0.00     0.087 A 
HETATM   35  C21 UNL     1     -29.597   6.128 -53.886  1.00  0.00     0.038 A 
HETATM   36  C25 UNL     1     -30.240   8.404 -54.455  1.00  0.00     0.011 A 
HETATM   37  C22 UNL     1     -29.186   5.936 -55.172  1.00  0.00     0.003 A 
HETATM   38  C23 UNL     1     -29.282   6.931 -56.111  1.00  0.00     0.001 A 
HETATM   39  C24 UNL     1     -29.815   8.170 -55.738  1.00  0.00     0.015 A 
BRANCH  32  40
HETATM   40  C19 UNL     1     -31.542   9.688 -51.289  1.00  0.00     0.411 C 
HETATM   41  F1  UNL     1     -32.946   9.505 -51.337  1.00  0.00    -0.207 F 
HETATM   42  F2  UNL     1     -31.187   8.961 -50.131  1.00  0.00    -0.207 F 
ENDBRANCH  32  40
ENDBRANCH  29  31
ENDBRANCH  26  29
ENDBRANCH   4  25
TORSDOF 9
ENDMDL
MODEL 5
REMARK VINA RESULT: -8.199714909      3.295      5.639
REMARK  9 active torsions:
REMARK  status: ('A' for Active; 'I' for Inactive)
REMARK    1  A    between atoms: C2_2  and  C4_4 
REMARK    2  A    between atoms: C4_4  and  C5_5 
REMARK    3  A    between atoms: C5_5  and  C6_6 
REMARK       I    between atoms: C6_6  and  N1_8 
REMARK    4  A    between atoms: C9_11  and  C10_12 
REMARK    5  A    between atoms: C10_12  and  N2_13 
REMARK    6  A    between atoms: C13_16  and  N3_17 
REMARK       I    between atoms: N3_17  and  C14_19 
REMARK    7  A    between atoms: C14_19  and  C15_21 
REMARK    8  A    between atoms: C15_21  and  C17_23 
REMARK    9  A    between atoms: C18_24  and  C19_25 
ROOT
HETATM    1  N2  UNL     1     -31.557   7.614 -50.617  1.00  0.00    -0.393 N 
HETATM    2  C11 UNL     1     -32.070   6.282 -50.382  1.00  0.00     0.123 C 
HETATM    3  C12 UNL     1     -32.853   6.343 -49.052  1.00  0.00     0.045 C 
HETATM    4  C13 UNL     1     -31.998   6.953 -47.978  1.00  0.00     0.087 C 
HETATM    5  C26 UNL     1     -30.576   7.134 -48.448  1.00  0.00     0.045 C 
HETATM    6  C27 UNL     1     -30.627   8.063 -49.678  1.00  0.00     0.123 C 
ENDROOT
BRANCH   1   7
HETATM    7  C10 UNL     1     -32.298   8.425 -51.440  1.00  0.00     0.062 C 
BRANCH   7   8
HETATM    8  C9  UNL     1     -31.725   9.810 -51.708  1.00  0.00     0.027 C 
HETATM    9  C8  UNL     1     -32.347  10.719 -50.699  1.00  0.00     0.030 C 
HETATM   10  C7  UNL     1     -32.639  12.124 -51.164  1.00  0.00     0.126 C 
HETATM   11  N1  UNL     1     -33.232  12.079 -52.448  1.00  0.00    -0.351 N 
HETATM   12  C6  UNL     1     -34.506  12.407 -52.917  1.00  0.00     0.228 C 
HETATM   13  C29 UNL     1     -32.242  11.595 -53.422  1.00  0.00     0.126 C 
HETATM   14  O1  UNL     1     -34.715  12.208 -54.155  1.00  0.00    -0.273 OA
HETATM   15  C28 UNL     1     -31.871  10.159 -53.127  1.00  0.00     0.030 C 
BRANCH  12  16
HETATM   16  C5  UNL     1     -35.678  12.952 -52.236  1.00  0.00     0.041 C 
HETATM   17  C30 UNL     1     -36.292  12.058 -51.203  1.00  0.00     0.019 C 
HETATM   18  C31 UNL     1     -37.726  12.499 -51.131  1.00  0.00     0.001 C 
HETATM   19  C32 UNL     1     -38.089  12.706 -52.567  1.00  0.00     0.001 C 
HETATM   20  C33 UNL     1     -36.810  13.036 -53.243  1.00  0.00     0.019 C 
BRANCH  16  21
HETATM   21  C4  UNL     1     -35.523  14.287 -51.602  1.00  0.00     0.023 C 
BRANCH  21  22
HETATM   22  C2  UNL     1     -35.827  15.501 -52.389  1.00  0.00    -0.021 C 
HETATM   23  C1  UNL     1     -36.565  16.433 -51.397  1.00  0.00     0.009 C 
HETATM   24  C3  UNL     1     -34.664  16.299 -52.876  1.00  0.00     0.009 C 
ENDBRANCH  21  22
ENDBRANCH  16  21
ENDBRANCH  12  16
ENDBRANCH   7   8
ENDBRANCH   1   7
BRANCH   4  25
HETATM   25  N3  UNL     1     -32.128   6.448 -46.662  1.00  0.00    -0.352 N 
HETATM   26  C14 UNL     1     -33.067   6.771 -45.658  1.00  0.00     0.248 C 
HETATM   27  O2  UNL     1     -34.005   7.626 -45.854  1.00  0.00    -0.268 OA
ATOM     28  H3  UNL     1     -31.440   5.742 -46.399  1.00  0.00     0.163 HD
BRANCH  26  29
HETATM   29  C15 UNL     1     -33.042   6.171 -44.324  1.00  0.00     0.019 C 
HETATM   30  C16 UNL     1     -32.851   4.683 -44.295  1.00  0.00     0.055 C 
BRANCH  29  31
HETATM   31  C17 UNL     1     -32.568   6.930 -43.172  1.00  0.00     0.024 A 
HETATM   32  C18 UNL     1     -33.162   7.240 -41.974  1.00  0.00     0.129 A 
HETATM   33  O3  UNL     1     -32.254   7.832 -41.186  1.00  0.00    -0.308 OA
HETATM   34  C20 UNL     1     -31.130   7.926 -41.786  1.00  0.00     0.087 A 
HETATM   35  C21 UNL     1     -29.940   8.479 -41.294  1.00  0.00     0.038 A 
HETATM   36  C25 UNL     1     -31.234   7.386 -43.039  1.00  0.00     0.011 A 
HETATM   37  C22 UNL     1     -28.849   8.468 -42.112  1.00  0.00     0.003 A 
HETATM   38  C23 UNL     1     -28.908   7.936 -43.375  1.00  0.00     0.001 A 
HETATM   39  C24 UNL     1     -30.114   7.394 -43.831  1.00  0.00     0.015 A 
BRANCH  32  40
HETATM   40  C19 UNL     1     -34.531   7.036 -41.498  1.00  0.00     0.411 C 
HETATM   41  F1  UNL     1     -34.774   8.049 -40.538  1.00  0.00    -0.207 F 
HETATM   42  F2  UNL     1     -35.453   7.365 -42.516  1.00  0.00    -0.207 F 
ENDBRANCH  32  40
ENDBRANCH  29  31
ENDBRANCH  26  29
ENDBRANCH   4  25
TORSDOF 9
ENDMDL
