MODEL 1
REMARK VINA RESULT: -8.753268553      0.000      0.000
REMARK  7 active torsions:
REMARK  status: ('A' for Active; 'I' for Inactive)
REMARK       I    between atoms: C1_2  and  N1_3 
REMARK       I    between atoms: C1_2  and  N3_14 
REMARK    1  A    between atoms: N1_3  and  C2_5 
REMARK    2  A    between atoms: N3_14  and  C7_15 
REMARK    3  A    between atoms: N3_14  and  C18_28 
REMARK    4  A    between atoms: C7_15  and  C8_16 
REMARK    5  A    between atoms: C8_16  and  N4_17 
REMARK    6  A    between atoms: C11_20  and  N5_21 
REMARK    7  A    between atoms: C18_28  and  C19_29 
ROOT
HETATM    1  O1  UNL     1     -30.407   9.812 -55.006  1.00  0.00    -0.246 OA
HETATM    2  C1  UNL     1     -31.133   9.243 -54.117  1.00  0.00     0.327 C 
HETATM    3  N1  UNL     1     -30.879   7.920 -53.836  1.00  0.00    -0.305 N 
ATOM      4  H1  UNL     1     -31.489   7.522 -53.122  1.00  0.00     0.171 HD
HETATM    5  N3  UNL     1     -32.148  10.089 -53.526  1.00  0.00    -0.297 N 
ENDROOT
BRANCH   5   6
HETATM    6  C7  UNL     1     -32.186  11.392 -54.223  1.00  0.00     0.164 C 
BRANCH   6   7
HETATM    7  C8  UNL     1     -31.712  12.555 -53.472  1.00  0.00     0.292 C 
BRANCH   7   8
HETATM    8  N4  UNL     1     -32.717  13.616 -53.558  1.00  0.00     0.090 N 
HETATM    9  C9  UNL     1     -33.996  13.040 -53.955  1.00  0.00     0.274 C 
HETATM   10  C10 UNL     1     -35.015  13.276 -52.828  1.00  0.00     0.066 C 
HETATM   11  C11 UNL     1     -35.232  14.778 -52.830  1.00  0.00     0.226 C 
HETATM   12  C16 UNL     1     -33.941  15.452 -52.580  1.00  0.00     0.066 C 
HETATM   13  C17 UNL     1     -32.779  14.479 -52.436  1.00  0.00     0.274 C 
BRANCH  11  14
HETATM   14  N5  UNL     1     -36.338  15.175 -52.045  1.00  0.00     0.093 N 
HETATM   15  C12 UNL     1     -37.287  14.201 -51.668  1.00  0.00     0.273 C 
HETATM   16  C13 UNL     1     -38.143  14.969 -50.650  1.00  0.00     0.032 C 
HETATM   17  C14 UNL     1     -37.071  15.746 -49.885  1.00  0.00     0.032 C 
HETATM   18  C15 UNL     1     -36.022  16.010 -50.930  1.00  0.00     0.273 C 
ENDBRANCH  11  14
ENDBRANCH   7   8
ENDBRANCH   6   7
ENDBRANCH   5   6
BRANCH   5  19
HETATM   19  C18 UNL     1     -33.017   9.802 -52.468  1.00  0.00     0.056 C 
HETATM   20  C25 UNL     1     -32.896   9.954 -51.041  1.00  0.00    -0.019 C 
HETATM   21  C26 UNL     1     -32.740  11.397 -50.507  1.00  0.00     0.042 C 
HETATM   22  C34 UNL     1     -32.156   9.179 -50.082  1.00  0.00    -0.021 A 
HETATM   23  C27 UNL     1     -33.573  11.513 -49.249  1.00  0.00     0.009 C 
HETATM   24  C28 UNL     1     -33.844  10.187 -48.584  1.00  0.00     0.040 C 
HETATM   25  C29 UNL     1     -32.652   9.266 -48.776  1.00  0.00    -0.047 A 
HETATM   26  C30 UNL     1     -32.106   8.616 -47.702  1.00  0.00     0.008 A 
HETATM   27  C31 UNL     1     -31.004   7.835 -47.934  1.00  0.00     0.001 A 
HETATM   28  C32 UNL     1     -30.477   7.718 -49.200  1.00  0.00     0.001 A 
HETATM   29  C33 UNL     1     -31.062   8.396 -50.260  1.00  0.00     0.012 A 
BRANCH  19  30
HETATM   30  C19 UNL     1     -34.123   8.859 -52.848  1.00  0.00    -0.009 A 
HETATM   31  C20 UNL     1     -33.993   7.474 -52.739  1.00  0.00     0.014 A 
HETATM   32  C21 UNL     1     -34.975   6.606 -53.087  1.00  0.00     0.001 A 
HETATM   33  C22 UNL     1     -36.162   7.079 -53.570  1.00  0.00     0.000 A 
HETATM   34  C23 UNL     1     -36.346   8.450 -53.700  1.00  0.00     0.001 A 
HETATM   35  C24 UNL     1     -35.303   9.310 -53.328  1.00  0.00     0.014 A 
ENDBRANCH  19  30
ENDBRANCH   5  19
BRANCH   3  36
HETATM   36  C2  UNL     1     -29.932   7.013 -54.351  1.00  0.00     0.081 A 
HETATM   37  C3  UNL     1     -28.779   6.626 -53.744  1.00  0.00     0.050 A 
HETATM   38  C4  UNL     1     -27.941   5.716 -54.379  1.00  0.00     0.093 A 
HETATM   39  N2  UNL     1     -28.259   5.221 -55.579  1.00  0.00    -0.340 N 
HETATM   40  C5  UNL     1     -29.369   5.554 -56.237  1.00  0.00     0.229 A 
ATOM     41  H2  UNL     1     -27.620   4.556 -56.014  1.00  0.00     0.167 HD
HETATM   42  F1  UNL     1     -29.675   5.040 -57.461  1.00  0.00    -0.183 F 
HETATM   43  C6  UNL     1     -30.205   6.453 -55.615  1.00  0.00     0.199 A 
HETATM   44  F2  UNL     1     -31.341   6.782 -56.301  1.00  0.00    -0.199 F 
ENDBRANCH   3  36
TORSDOF 7
ENDMDL
MODEL 2
REMARK VINA RESULT: -8.686456152      2.914      7.397
REMARK  7 active torsions:
REMARK  status: ('A' for Active; 'I' for Inactive)
REMARK       I    between atoms: C1_2  and  N1_3 
REMARK       I    between atoms: C1_2  and  N3_14 
REMARK    1  A    between atoms: N1_3  and  C2_5 
REMARK    2  A    between atoms: N3_14  and  C7_15 
REMARK    3  A    between atoms: N3_14  and  C18_28 
REMARK    4  A    between atoms: C7_15  and  C8_16 
REMARK    5  A    between atoms: C8_16  and  N4_17 
REMARK    6  A    between atoms: C11_20  and  N5_21 
REMARK    7  A    between atoms: C18_28  and  C19_29 
ROOT
HETATM    1  O1  UNL     1     -33.060  11.203 -50.552  1.00  0.00    -0.246 OA
HETATM    2  C1  UNL     1     -33.862  11.753 -51.385  1.00  0.00     0.327 C 
HETATM    3  N1  UNL     1     -33.570  11.635 -52.725  1.00  0.00    -0.305 N 
ATOM      4  H1  UNL     1     -34.244  12.095 -53.338  1.00  0.00     0.171 HD
HETATM    5  N3  UNL     1     -34.984  12.445 -50.786  1.00  0.00    -0.297 N 
ENDROOT
BRANCH   5   6
HETATM    6  C7  UNL     1     -34.835  12.467 -49.316  1.00  0.00     0.164 C 
BRANCH   6   7
HETATM    7  C8  UNL     1     -35.964  11.966 -48.532  1.00  0.00     0.292 C 
BRANCH   7   8
HETATM    8  N4  UNL     1     -35.621  10.649 -47.993  1.00  0.00     0.090 N 
HETATM    9  C9  UNL     1     -36.215   9.614 -48.828  1.00  0.00     0.274 C 
HETATM   10  C10 UNL     1     -35.089   8.764 -49.438  1.00  0.00     0.066 C 
HETATM   11  C11 UNL     1     -34.492   8.029 -48.252  1.00  0.00     0.226 C 
HETATM   12  C16 UNL     1     -33.992   9.018 -47.275  1.00  0.00     0.066 C 
HETATM   13  C17 UNL     1     -34.247  10.458 -47.701  1.00  0.00     0.274 C 
BRANCH  11  14
HETATM   14  N5  UNL     1     -33.615   6.989 -48.634  1.00  0.00     0.093 N 
HETATM   15  C12 UNL     1     -33.024   7.035 -49.914  1.00  0.00     0.273 C 
HETATM   16  C13 UNL     1     -31.986   5.906 -49.826  1.00  0.00     0.032 C 
HETATM   17  C14 UNL     1     -31.447   6.107 -48.410  1.00  0.00     0.032 C 
HETATM   18  C15 UNL     1     -32.639   6.628 -47.655  1.00  0.00     0.273 C 
ENDBRANCH  11  14
ENDBRANCH   7   8
ENDBRANCH   6   7
ENDBRANCH   5   6
BRANCH   5  19
HETATM   19  C18 UNL     1     -36.077  13.047 -51.418  1.00  0.00     0.056 C 
HETATM   20  C25 UNL     1     -37.305  12.517 -51.952  1.00  0.00    -0.019 C 
HETATM   21  C26 UNL     1     -38.268  11.848 -50.944  1.00  0.00     0.042 C 
HETATM   22  C34 UNL     1     -37.552  11.782 -53.163  1.00  0.00    -0.021 A 
HETATM   23  C27 UNL     1     -39.678  12.256 -51.317  1.00  0.00     0.009 C 
HETATM   24  C28 UNL     1     -39.818  12.682 -52.756  1.00  0.00     0.040 C 
HETATM   25  C29 UNL     1     -38.871  11.873 -53.624  1.00  0.00    -0.047 A 
HETATM   26  C30 UNL     1     -39.334  11.254 -54.754  1.00  0.00     0.008 A 
HETATM   27  C31 UNL     1     -38.439  10.501 -55.469  1.00  0.00     0.001 A 
HETATM   28  C32 UNL     1     -37.133  10.379 -55.057  1.00  0.00     0.001 A 
HETATM   29  C33 UNL     1     -36.707  11.023 -53.904  1.00  0.00     0.012 A 
BRANCH  19  30
HETATM   30  C19 UNL     1     -35.778  14.423 -51.940  1.00  0.00    -0.009 A 
HETATM   31  C20 UNL     1     -34.839  14.651 -52.947  1.00  0.00     0.014 A 
HETATM   32  C21 UNL     1     -34.546  15.886 -53.424  1.00  0.00     0.001 A 
HETATM   33  C22 UNL     1     -35.184  16.981 -52.915  1.00  0.00     0.000 A 
HETATM   34  C23 UNL     1     -36.129  16.813 -51.910  1.00  0.00     0.001 A 
HETATM   35  C24 UNL     1     -36.399  15.517 -51.447  1.00  0.00     0.014 A 
ENDBRANCH  19  30
ENDBRANCH   5  19
BRANCH   3  36
HETATM   36  C2  UNL     1     -32.515  10.998 -53.406  1.00  0.00     0.081 A 
HETATM   37  C3  UNL     1     -32.228   9.670 -53.378  1.00  0.00     0.050 A 
HETATM   38  C4  UNL     1     -31.149   9.185 -54.108  1.00  0.00     0.093 A 
HETATM   39  N2  UNL     1     -30.393  10.013 -54.836  1.00  0.00    -0.340 N 
HETATM   40  C5  UNL     1     -30.610  11.326 -54.912  1.00  0.00     0.229 A 
ATOM     41  H2  UNL     1     -29.610   9.621 -55.359  1.00  0.00     0.167 HD
HETATM   42  F1  UNL     1     -29.827  12.154 -55.658  1.00  0.00    -0.183 F 
HETATM   43  C6  UNL     1     -31.677  11.814 -54.192  1.00  0.00     0.199 A 
HETATM   44  F2  UNL     1     -31.889  13.161 -54.283  1.00  0.00    -0.199 F 
ENDBRANCH   3  36
TORSDOF 7
ENDMDL
MODEL 3
REMARK VINA RESULT: -8.633150299      3.853      7.116
REMARK  7 active torsions:
REMARK  status: ('A' for Active; 'I' for Inactive)
REMARK       I    between atoms: C1_2  and  N1_3 
REMARK       I    between atoms: C1_2  and  N3_14 
REMARK    1  A    between atoms: N1_3  and  C2_5 
REMARK    2  A    between atoms: N3_14  and  C7_15 
REMARK    3  A    between atoms: N3_14  and  C18_28 
REMARK    4  A    between atoms: C7_15  and  C8_16 
REMARK    5  A    between atoms: C8_16  and  N4_17 
REMARK    6  A    between atoms: C11_20  and  N5_21 
REMARK    7  A    between atoms: C18_28  and  C19_29 
ROOT
HETATM    1  O1  UNL     1     -33.061  11.199 -50.531  1.00  0.00    -0.246 OA
HETATM    2  C1  UNL     1     -33.862  11.749 -51.365  1.00  0.00     0.327 C 
HETATM    3  N1  UNL     1     -33.572  11.626 -52.705  1.00  0.00    -0.305 N 
ATOM      4  H1  UNL     1     -34.245  12.085 -53.319  1.00  0.00     0.171 HD
HETATM    5  N3  UNL     1     -34.982  12.446 -50.768  1.00  0.00    -0.297 N 
ENDROOT
BRANCH   5   6
HETATM    6  C7  UNL     1     -34.831  12.472 -49.297  1.00  0.00     0.164 C 
BRANCH   6   7
HETATM    7  C8  UNL     1     -35.507  11.413 -48.548  1.00  0.00     0.292 C 
BRANCH   7   8
HETATM    8  N4  UNL     1     -36.078  11.986 -47.328  1.00  0.00     0.090 N 
HETATM    9  C9  UNL     1     -36.999  13.058 -47.681  1.00  0.00     0.274 C 
HETATM   10  C10 UNL     1     -38.408  12.679 -47.197  1.00  0.00     0.066 C 
HETATM   11  C11 UNL     1     -38.306  12.720 -45.684  1.00  0.00     0.226 C 
HETATM   12  C16 UNL     1     -37.275  11.757 -45.244  1.00  0.00     0.066 C 
HETATM   13  C17 UNL     1     -36.593  11.043 -46.404  1.00  0.00     0.274 C 
BRANCH  11  14
HETATM   14  N5  UNL     1     -39.565  12.664 -45.046  1.00  0.00     0.093 N 
HETATM   15  C12 UNL     1     -39.864  13.616 -44.049  1.00  0.00     0.273 C 
HETATM   16  C13 UNL     1     -41.362  13.371 -43.813  1.00  0.00     0.032 C 
HETATM   17  C14 UNL     1     -41.857  13.154 -45.243  1.00  0.00     0.032 C 
HETATM   18  C15 UNL     1     -40.683  12.504 -45.922  1.00  0.00     0.273 C 
ENDBRANCH  11  14
ENDBRANCH   7   8
ENDBRANCH   6   7
ENDBRANCH   5   6
BRANCH   5  19
HETATM   19  C18 UNL     1     -36.074  13.048 -51.400  1.00  0.00     0.056 C 
HETATM   20  C25 UNL     1     -37.305  12.520 -51.927  1.00  0.00    -0.019 C 
HETATM   21  C26 UNL     1     -38.269  11.863 -50.912  1.00  0.00     0.042 C 
HETATM   22  C34 UNL     1     -37.560  11.778 -53.132  1.00  0.00    -0.021 A 
HETATM   23  C27 UNL     1     -39.678  12.275 -51.283  1.00  0.00     0.009 C 
HETATM   24  C28 UNL     1     -39.821  12.692 -52.725  1.00  0.00     0.040 C 
HETATM   25  C29 UNL     1     -38.880  11.872 -53.590  1.00  0.00    -0.047 A 
HETATM   26  C30 UNL     1     -39.350  11.249 -54.715  1.00  0.00     0.008 A 
HETATM   27  C31 UNL     1     -38.460  10.486 -55.427  1.00  0.00     0.001 A 
HETATM   28  C32 UNL     1     -37.153  10.361 -55.018  1.00  0.00     0.001 A 
HETATM   29  C33 UNL     1     -36.721  11.010 -53.871  1.00  0.00     0.012 A 
BRANCH  19  30
HETATM   30  C19 UNL     1     -35.770  14.420 -51.933  1.00  0.00    -0.009 A 
HETATM   31  C20 UNL     1     -34.825  14.637 -52.937  1.00  0.00     0.014 A 
HETATM   32  C21 UNL     1     -34.528  15.867 -53.423  1.00  0.00     0.001 A 
HETATM   33  C22 UNL     1     -35.167  16.968 -52.927  1.00  0.00     0.000 A 
HETATM   34  C23 UNL     1     -36.116  16.810 -51.926  1.00  0.00     0.001 A 
HETATM   35  C24 UNL     1     -36.392  15.519 -51.453  1.00  0.00     0.014 A 
ENDBRANCH  19  30
ENDBRANCH   5  19
BRANCH   3  36
HETATM   36  C2  UNL     1     -32.520  10.983 -53.385  1.00  0.00     0.081 A 
HETATM   37  C3  UNL     1     -32.233   9.655 -53.349  1.00  0.00     0.050 A 
HETATM   38  C4  UNL     1     -31.157   9.164 -54.080  1.00  0.00     0.093 A 
HETATM   39  N2  UNL     1     -30.402   9.987 -54.815  1.00  0.00    -0.340 N 
HETATM   40  C5  UNL     1     -30.619  11.300 -54.899  1.00  0.00     0.229 A 
ATOM     41  H2  UNL     1     -29.621   9.591 -55.338  1.00  0.00     0.167 HD
HETATM   42  F1  UNL     1     -29.837  12.122 -55.652  1.00  0.00    -0.183 F 
HETATM   43  C6  UNL     1     -31.683  11.793 -54.179  1.00  0.00     0.199 A 
HETATM   44  F2  UNL     1     -31.894  13.140 -54.278  1.00  0.00    -0.199 F 
ENDBRANCH   3  36
TORSDOF 7
ENDMDL
MODEL 4
REMARK VINA RESULT: -8.561818919      4.126      9.118
REMARK  7 active torsions:
REMARK  status: ('A' for Active; 'I' for Inactive)
REMARK       I    between atoms: C1_2  and  N1_3 
REMARK       I    between atoms: C1_2  and  N3_14 
REMARK    1  A    between atoms: N1_3  and  C2_5 
REMARK    2  A    between atoms: N3_14  and  C7_15 
REMARK    3  A    between atoms: N3_14  and  C18_28 
REMARK    4  A    between atoms: C7_15  and  C8_16 
REMARK    5  A    between atoms: C8_16  and  N4_17 
REMARK    6  A    between atoms: C11_20  and  N5_21 
REMARK    7  A    between atoms: C18_28  and  C19_29 
ROOT
HETATM    1  O1  UNL     1     -34.457  10.481 -48.213  1.00  0.00    -0.246 OA
HETATM    2  C1  UNL     1     -35.083  11.104 -49.140  1.00  0.00     0.327 C 
HETATM    3  N1  UNL     1     -36.403  11.424 -48.917  1.00  0.00    -0.305 N 
ATOM      4  H1  UNL     1     -36.847  11.918 -49.691  1.00  0.00     0.171 HD
HETATM    5  N3  UNL     1     -34.298  11.385 -50.324  1.00  0.00    -0.297 N 
ENDROOT
BRANCH   5   6
HETATM    6  C7  UNL     1     -32.976  10.731 -50.217  1.00  0.00     0.164 C 
BRANCH   6   7
HETATM    7  C8  UNL     1     -32.049  10.936 -51.329  1.00  0.00     0.292 C 
BRANCH   7   8
HETATM    8  N4  UNL     1     -31.936   9.690 -52.088  1.00  0.00     0.090 N 
HETATM    9  C9  UNL     1     -31.876   9.993 -53.512  1.00  0.00     0.274 C 
HETATM   10  C10 UNL     1     -30.526   9.507 -54.064  1.00  0.00     0.066 C 
HETATM   11  C11 UNL     1     -30.612   7.995 -53.980  1.00  0.00     0.226 C 
HETATM   12  C16 UNL     1     -30.824   7.602 -52.572  1.00  0.00     0.066 C 
HETATM   13  C17 UNL     1     -30.937   8.794 -51.631  1.00  0.00     0.274 C 
BRANCH  11  14
HETATM   14  N5  UNL     1     -29.577   7.344 -54.689  1.00  0.00     0.093 N 
HETATM   15  C12 UNL     1     -28.815   6.360 -54.027  1.00  0.00     0.273 C 
HETATM   16  C13 UNL     1     -28.009   5.749 -55.183  1.00  0.00     0.032 C 
HETATM   17  C14 UNL     1     -29.066   5.695 -56.286  1.00  0.00     0.032 C 
HETATM   18  C15 UNL     1     -29.929   6.893 -55.999  1.00  0.00     0.273 C 
ENDBRANCH  11  14
ENDBRANCH   7   8
ENDBRANCH   6   7
ENDBRANCH   5   6
BRANCH   5  19
HETATM   19  C18 UNL     1     -34.654  12.133 -51.450  1.00  0.00     0.056 C 
HETATM   20  C25 UNL     1     -34.691  13.549 -51.705  1.00  0.00    -0.019 C 
HETATM   21  C26 UNL     1     -33.341  14.302 -51.645  1.00  0.00     0.042 C 
HETATM   22  C34 UNL     1     -35.630  14.548 -51.273  1.00  0.00    -0.021 A 
HETATM   23  C27 UNL     1     -33.325  15.307 -52.777  1.00  0.00     0.009 C 
HETATM   24  C28 UNL     1     -34.701  15.688 -53.260  1.00  0.00     0.040 C 
HETATM   25  C29 UNL     1     -35.673  15.682 -52.093  1.00  0.00    -0.047 A 
HETATM   26  C30 UNL     1     -36.490  16.759 -51.874  1.00  0.00     0.008 A 
HETATM   27  C31 UNL     1     -37.311  16.711 -50.777  1.00  0.00     0.001 A 
HETATM   28  C32 UNL     1     -37.305  15.620 -49.939  1.00  0.00     0.001 A 
HETATM   29  C33 UNL     1     -36.460  14.550 -50.200  1.00  0.00     0.012 A 
BRANCH  19  30
HETATM   30  C19 UNL     1     -35.460  11.354 -52.450  1.00  0.00    -0.009 A 
HETATM   31  C20 UNL     1     -35.480   9.958 -52.468  1.00  0.00     0.014 A 
HETATM   32  C21 UNL     1     -36.191   9.237 -53.368  1.00  0.00     0.001 A 
HETATM   33  C22 UNL     1     -36.936   9.877 -54.317  1.00  0.00     0.000 A 
HETATM   34  C23 UNL     1     -36.953  11.266 -54.347  1.00  0.00     0.001 A 
HETATM   35  C24 UNL     1     -36.201  11.971 -53.396  1.00  0.00     0.014 A 
ENDBRANCH  19  30
ENDBRANCH   5  19
BRANCH   3  36
HETATM   36  C2  UNL     1     -37.254  11.195 -47.817  1.00  0.00     0.081 A 
HETATM   37  C3  UNL     1     -37.859  10.020 -47.501  1.00  0.00     0.050 A 
HETATM   38  C4  UNL     1     -38.674   9.948 -46.377  1.00  0.00     0.093 A 
HETATM   39  N2  UNL     1     -38.868  11.024 -45.607  1.00  0.00    -0.340 N 
HETATM   40  C5  UNL     1     -38.311  12.210 -45.853  1.00  0.00     0.229 A 
ATOM     41  H2  UNL     1     -39.472  10.933 -44.791  1.00  0.00     0.167 HD
HETATM   42  F1  UNL     1     -38.522  13.295 -45.058  1.00  0.00    -0.183 F 
HETATM   43  C6  UNL     1     -37.502  12.289 -46.964  1.00  0.00     0.199 A 
HETATM   44  F2  UNL     1     -36.937  13.511 -47.201  1.00  0.00    -0.199 F 
ENDBRANCH   3  36
TORSDOF 7
ENDMDL
MODEL 5
REMARK VINA RESULT: -8.374083350      3.565      7.901
REMARK  7 active torsions:
REMARK  status: ('A' for Active; 'I' for Inactive)
REMARK       I    between atoms: C1_2  and  N1_3 
REMARK       I    between atoms: C1_2  and  N3_14 
REMARK    1  A    between atoms: N1_3  and  C2_5 
REMARK    2  A    between atoms: N3_14  and  C7_15 
REMARK    3  A    between atoms: N3_14  and  C18_28 
REMARK    4  A    between atoms: C7_15  and  C8_16 
REMARK    5  A    between atoms: C8_16  and  N4_17 
REMARK    6  A    between atoms: C11_20  and  N5_21 
REMARK    7  A    between atoms: C18_28  and  C19_29 
ROOT
HETATM    1  O1  UNL     1     -32.485  12.103 -51.044  1.00  0.00    -0.246 OA
HETATM    2  C1  UNL     1     -33.564  12.459 -50.454  1.00  0.00     0.327 C 
HETATM    3  N1  UNL     1     -33.993  13.754 -50.636  1.00  0.00    -0.305 N 
ATOM      4  H1  UNL     1     -34.856  13.979 -50.140  1.00  0.00     0.171 HD
HETATM    5  N3  UNL     1     -34.191  11.429 -49.653  1.00  0.00    -0.297 N 
ENDROOT
BRANCH   5   6
HETATM    6  C7  UNL     1     -33.321  10.235 -49.600  1.00  0.00     0.164 C 
BRANCH   6   7
HETATM    7  C8  UNL     1     -33.777   9.055 -50.336  1.00  0.00     0.292 C 
BRANCH   7   8
HETATM    8  N4  UNL     1     -32.615   8.242 -50.697  1.00  0.00     0.090 N 
HETATM    9  C9  UNL     1     -32.966   7.357 -51.799  1.00  0.00     0.274 C 
HETATM   10  C10 UNL     1     -32.087   7.705 -53.011  1.00  0.00     0.066 C 
HETATM   11  C11 UNL     1     -30.690   7.287 -52.591  1.00  0.00     0.226 C 
HETATM   12  C16 UNL     1     -30.307   8.038 -51.377  1.00  0.00     0.066 C 
HETATM   13  C17 UNL     1     -31.408   8.964 -50.878  1.00  0.00     0.274 C 
BRANCH  11  14
HETATM   14  N5  UNL     1     -29.773   7.274 -53.666  1.00  0.00     0.093 N 
HETATM   15  C12 UNL     1     -29.215   6.042 -54.066  1.00  0.00     0.273 C 
HETATM   16  C13 UNL     1     -28.506   6.424 -55.375  1.00  0.00     0.032 C 
HETATM   17  C14 UNL     1     -29.530   7.369 -56.003  1.00  0.00     0.032 C 
HETATM   18  C15 UNL     1     -30.170   8.028 -54.812  1.00  0.00     0.273 C 
ENDBRANCH  11  14
ENDBRANCH   7   8
ENDBRANCH   6   7
ENDBRANCH   5   6
BRANCH   5  19
HETATM   19  C18 UNL     1     -35.417  11.470 -48.981  1.00  0.00     0.056 C 
HETATM   20  C25 UNL     1     -35.777  11.267 -47.602  1.00  0.00    -0.019 C 
HETATM   21  C26 UNL     1     -35.194  12.267 -46.577  1.00  0.00     0.042 C 
HETATM   22  C34 UNL     1     -35.883  10.054 -46.837  1.00  0.00    -0.021 A 
HETATM   23  C27 UNL     1     -36.283  12.584 -45.574  1.00  0.00     0.009 C 
HETATM   24  C28 UNL     1     -37.349  11.521 -45.491  1.00  0.00     0.040 C 
HETATM   25  C29 UNL     1     -36.729  10.155 -45.725  1.00  0.00    -0.047 A 
HETATM   26  C30 UNL     1     -36.979   9.129 -44.854  1.00  0.00     0.008 A 
HETATM   27  C31 UNL     1     -36.353   7.933 -45.096  1.00  0.00     0.001 A 
HETATM   28  C32 UNL     1     -35.510   7.784 -46.174  1.00  0.00     0.001 A 
HETATM   29  C33 UNL     1     -35.286   8.852 -47.031  1.00  0.00     0.012 A 
BRANCH  19  30
HETATM   30  C19 UNL     1     -36.601  11.367 -49.900  1.00  0.00    -0.009 A 
HETATM   31  C20 UNL     1     -37.032  10.148 -50.426  1.00  0.00     0.014 A 
HETATM   32  C21 UNL     1     -38.091  10.035 -51.266  1.00  0.00     0.001 A 
HETATM   33  C22 UNL     1     -38.791  11.149 -51.632  1.00  0.00     0.000 A 
HETATM   34  C23 UNL     1     -38.405  12.389 -51.139  1.00  0.00     0.001 A 
HETATM   35  C24 UNL     1     -37.303  12.459 -50.273  1.00  0.00     0.014 A 
ENDBRANCH  19  30
ENDBRANCH   5  19
BRANCH   3  36
HETATM   36  C2  UNL     1     -33.462  14.827 -51.379  1.00  0.00     0.081 A 
HETATM   37  C3  UNL     1     -32.265  15.435 -51.168  1.00  0.00     0.050 A 
HETATM   38  C4  UNL     1     -31.875  16.485 -51.991  1.00  0.00     0.093 A 
HETATM   39  N2  UNL     1     -32.665  16.901 -52.986  1.00  0.00    -0.340 N 
HETATM   40  C5  UNL     1     -33.852  16.356 -53.254  1.00  0.00     0.229 A 
ATOM     41  H2  UNL     1     -32.345  17.674 -53.569  1.00  0.00     0.167 HD
HETATM   42  F1  UNL     1     -34.644  16.795 -54.270  1.00  0.00    -0.183 F 
HETATM   43  C6  UNL     1     -34.246  15.316 -52.444  1.00  0.00     0.199 A 
HETATM   44  F2  UNL     1     -35.464  14.766 -52.733  1.00  0.00    -0.199 F 
ENDBRANCH   3  36
TORSDOF 7
ENDMDL
