MODEL 1
REMARK VINA RESULT: -9.062156615      0.000      0.000
REMARK  9 active torsions:
REMARK  status: ('A' for Active; 'I' for Inactive)
REMARK    1  A    between atoms: C3_3  and  C5_5 
REMARK    2  A    between atoms: C5_5  and  C6_6 
REMARK    3  A    between atoms: C6_6  and  C7_7 
REMARK    4  A    between atoms: C7_7  and  N1_8 
REMARK    5  A    between atoms: N2_11  and  C10_12 
REMARK    6  A    between atoms: C10_12  and  C11_13 
REMARK    7  A    between atoms: C11_13  and  C12_14 
REMARK    8  A    between atoms: C12_14  and  N3_15 
REMARK    9  A    between atoms: N3_15  and  C13_17 
ROOT
HETATM    1  C13 UNL     1     -34.369  12.225 -49.291  1.00  0.00     0.068 C 
HETATM    2  C14 UNL     1     -35.583  12.108 -48.587  1.00  0.00     0.001 C 
HETATM    3  C15 UNL     1     -36.857  12.484 -48.971  1.00  0.00     0.089 C 
HETATM    4  N4  UNL     1     -37.254  12.934 -50.207  1.00  0.00    -0.329 N 
ATOM      5  H4  UNL     1     -38.247  12.855 -50.425  1.00  0.00     0.168 HD
HETATM    6  C16 UNL     1     -36.471  13.464 -51.155  1.00  0.00     0.202 C 
HETATM    7  F1  UNL     1     -37.047  13.691 -52.338  1.00  0.00    -0.185 F 
HETATM    8  C17 UNL     1     -35.125  13.806 -51.057  1.00  0.00     0.061 A 
HETATM    9  C18 UNL     1     -34.167  13.251 -50.210  1.00  0.00     0.076 A 
HETATM   10  N5  UNL     1     -32.993  13.862 -50.412  1.00  0.00    -0.352 N 
ATOM     11  H5  UNL     1     -32.118  13.660 -49.929  1.00  0.00     0.166 HD
HETATM   12  C19 UNL     1     -33.179  14.797 -51.373  1.00  0.00     0.051 A 
HETATM   13  C20 UNL     1     -32.289  15.699 -51.952  1.00  0.00    -0.013 A 
HETATM   14  C21 UNL     1     -30.892  15.719 -51.516  1.00  0.00     0.052 C 
HETATM   15  C22 UNL     1     -32.723  16.566 -52.929  1.00  0.00     0.042 A 
HETATM   16 CL1  UNL     1     -31.634  17.710 -53.678  1.00  0.00    -0.084 Cl
HETATM   17  C23 UNL     1     -34.042  16.515 -53.312  1.00  0.00     0.025 A 
HETATM   18  C24 UNL     1     -34.958  15.620 -52.749  1.00  0.00     0.016 A 
HETATM   19  C25 UNL     1     -34.504  14.770 -51.781  1.00  0.00     0.008 A 
HETATM   20  C26 UNL     1     -38.155  12.560 -48.320  1.00  0.00     0.176 C 
HETATM   21  O1  UNL     1     -38.988  13.273 -48.978  1.00  0.00    -0.291 OA
HETATM   22  C27 UNL     1     -38.705  11.988 -47.069  1.00  0.00     0.085 C 
HETATM   23  C28 UNL     1     -38.264  10.543 -46.971  1.00  0.00     0.008 C 
HETATM   24  C29 UNL     1     -36.959  10.391 -46.229  1.00  0.00     0.001 C 
HETATM   25  C30 UNL     1     -35.786  10.192 -47.156  1.00  0.00     0.005 C 
HETATM   26  C31 UNL     1     -35.028  11.482 -47.392  1.00  0.00     0.043 C 
ENDROOT
BRANCH   1  27
HETATM   27  N3  UNL     1     -33.467  11.390 -49.075  1.00  0.00    -0.367 N 
ATOM     28  H3  UNL     1     -33.208  11.378 -48.089  1.00  0.00     0.165 HD
BRANCH  27  29
HETATM   29  C12 UNL     1     -32.715  10.471 -49.799  1.00  0.00     0.066 C 
BRANCH  29  30
HETATM   30  C11 UNL     1     -32.236   9.235 -49.044  1.00  0.00     0.089 C 
BRANCH  30  31
HETATM   31  C10 UNL     1     -33.173   8.103 -49.375  1.00  0.00     0.073 C 
BRANCH  31  32
HETATM   32  N2  UNL     1     -32.992   7.476 -50.617  1.00  0.00    -0.351 N 
HETATM   33  C9  UNL     1     -31.674   7.044 -50.837  1.00  0.00     0.087 C 
HETATM   34  C8  UNL     1     -31.379   6.639 -52.260  1.00  0.00     0.162 C 
HETATM   35  N1  UNL     1     -31.963   7.595 -53.134  1.00  0.00    -0.403 N 
HETATM   36  C33 UNL     1     -33.352   7.822 -53.022  1.00  0.00     0.162 C 
HETATM   37  C32 UNL     1     -33.914   7.572 -51.646  1.00  0.00     0.087 C 
BRANCH  35  38
HETATM   38  C7  UNL     1     -31.431   7.631 -54.469  1.00  0.00     0.118 C 
BRANCH  38  39
HETATM   39  C6  UNL     1     -30.362   8.626 -54.684  1.00  0.00     0.023 C 
BRANCH  39  40
HETATM   40  C5  UNL     1     -30.469   9.776 -53.744  1.00  0.00     0.035 C 
BRANCH  40  41
HETATM   41  C3  UNL     1     -31.111  10.993 -54.215  1.00  0.00    -0.088 C 
HETATM   42  C2  UNL     1     -32.291  11.404 -53.809  1.00  0.00    -0.029 C 
HETATM   43  C1  UNL     1     -32.896  12.682 -54.291  1.00  0.00     0.036 C 
HETATM   44  C4  UNL     1     -30.361  11.868 -55.215  1.00  0.00     0.043 C 
ENDBRANCH  40  41
ENDBRANCH  39  40
ENDBRANCH  38  39
ENDBRANCH  35  38
ENDBRANCH  31  32
ENDBRANCH  30  31
ENDBRANCH  29  30
ENDBRANCH  27  29
ENDBRANCH   1  27
TORSDOF 9
ENDMDL
MODEL 2
REMARK VINA RESULT: -8.624035589      2.956      5.395
REMARK  9 active torsions:
REMARK  status: ('A' for Active; 'I' for Inactive)
REMARK    1  A    between atoms: C3_3  and  C5_5 
REMARK    2  A    between atoms: C5_5  and  C6_6 
REMARK    3  A    between atoms: C6_6  and  C7_7 
REMARK    4  A    between atoms: C7_7  and  N1_8 
REMARK    5  A    between atoms: N2_11  and  C10_12 
REMARK    6  A    between atoms: C10_12  and  C11_13 
REMARK    7  A    between atoms: C11_13  and  C12_14 
REMARK    8  A    between atoms: C12_14  and  N3_15 
REMARK    9  A    between atoms: N3_15  and  C13_17 
ROOT
HETATM    1  C13 UNL     1     -34.440  13.178 -51.092  1.00  0.00     0.068 C 
HETATM    2  C14 UNL     1     -33.785  14.272 -51.690  1.00  0.00     0.001 C 
HETATM    3  C15 UNL     1     -34.323  15.425 -52.230  1.00  0.00     0.089 C 
HETATM    4  N4  UNL     1     -35.632  15.837 -52.175  1.00  0.00    -0.329 N 
ATOM      5  H4  UNL     1     -35.806  16.832 -52.321  1.00  0.00     0.168 HD
HETATM    6  C16 UNL     1     -36.704  15.067 -51.948  1.00  0.00     0.202 C 
HETATM    7  F1  UNL     1     -37.866  15.705 -51.785  1.00  0.00    -0.185 F 
HETATM    8  C17 UNL     1     -36.754  13.679 -51.858  1.00  0.00     0.061 A 
HETATM    9  C18 UNL     1     -35.728  12.815 -51.474  1.00  0.00     0.076 A 
HETATM   10  N5  UNL     1     -36.172  11.554 -51.529  1.00  0.00    -0.352 N 
ATOM     11  H5  UNL     1     -35.636  10.716 -51.303  1.00  0.00     0.166 HD
HETATM   12  C19 UNL     1     -37.463  11.590 -51.937  1.00  0.00     0.051 A 
HETATM   13  C20 UNL     1     -38.380  10.566 -52.153  1.00  0.00    -0.013 A 
HETATM   14  C21 UNL     1     -37.980   9.176 -51.929  1.00  0.00     0.052 C 
HETATM   15  C22 UNL     1     -39.657  10.859 -52.574  1.00  0.00     0.042 A 
HETATM   16 CL1  UNL     1     -40.835   9.599 -52.856  1.00  0.00    -0.084 Cl
HETATM   17  C23 UNL     1     -39.995  12.177 -52.772  1.00  0.00     0.025 A 
HETATM   18  C24 UNL     1     -39.095  13.227 -52.562  1.00  0.00     0.016 A 
HETATM   19  C25 UNL     1     -37.834  12.910 -52.144  1.00  0.00     0.008 A 
HETATM   20  C26 UNL     1     -33.807  16.551 -52.992  1.00  0.00     0.176 C 
HETATM   21  O1  UNL     1     -34.736  17.226 -53.553  1.00  0.00    -0.291 OA
HETATM   22  C27 UNL     1     -32.443  17.072 -53.247  1.00  0.00     0.085 C 
HETATM   23  C28 UNL     1     -31.672  17.051 -51.944  1.00  0.00     0.008 C 
HETATM   24  C29 UNL     1     -30.923  15.757 -51.743  1.00  0.00     0.001 C 
HETATM   25  C30 UNL     1     -31.628  14.821 -50.794  1.00  0.00     0.005 C 
HETATM   26  C31 UNL     1     -32.426  13.766 -51.530  1.00  0.00     0.043 C 
ENDROOT
BRANCH   1  27
HETATM   27  N3  UNL     1     -33.843  12.530 -50.209  1.00  0.00    -0.367 N 
ATOM     28  H3  UNL     1     -32.899  12.286 -50.510  1.00  0.00     0.165 HD
BRANCH  27  29
HETATM   29  C12 UNL     1     -34.098  12.047 -48.930  1.00  0.00     0.066 C 
BRANCH  29  30
HETATM   30  C11 UNL     1     -34.423  10.562 -48.812  1.00  0.00     0.089 C 
BRANCH  30  31
HETATM   31  C10 UNL     1     -33.297   9.905 -48.058  1.00  0.00     0.073 C 
BRANCH  31  32
HETATM   32  N2  UNL     1     -32.662   8.823 -48.688  1.00  0.00    -0.351 N 
HETATM   33  C9  UNL     1     -31.287   9.021 -48.890  1.00  0.00     0.087 C 
HETATM   34  C8  UNL     1     -30.641   8.022 -49.817  1.00  0.00     0.162 C 
HETATM   35  N1  UNL     1     -31.496   7.821 -50.935  1.00  0.00    -0.403 N 
HETATM   36  C33 UNL     1     -32.816   7.391 -50.679  1.00  0.00     0.162 C 
HETATM   37  C32 UNL     1     -33.363   7.821 -49.341  1.00  0.00     0.087 C 
BRANCH  35  38
HETATM   38  C7  UNL     1     -30.875   7.266 -52.106  1.00  0.00     0.118 C 
BRANCH  38  39
HETATM   39  C6  UNL     1     -30.031   8.209 -52.866  1.00  0.00     0.023 C 
BRANCH  39  40
HETATM   40  C5  UNL     1     -30.718   8.720 -54.085  1.00  0.00     0.035 C 
BRANCH  40  41
HETATM   41  C3  UNL     1     -31.141  10.112 -54.103  1.00  0.00    -0.088 C 
HETATM   42  C2  UNL     1     -30.573  11.041 -54.839  1.00  0.00    -0.029 C 
HETATM   43  C1  UNL     1     -31.066  12.451 -54.856  1.00  0.00     0.036 C 
HETATM   44  C4  UNL     1     -32.335  10.519 -53.246  1.00  0.00     0.043 C 
ENDBRANCH  40  41
ENDBRANCH  39  40
ENDBRANCH  38  39
ENDBRANCH  35  38
ENDBRANCH  31  32
ENDBRANCH  30  31
ENDBRANCH  29  30
ENDBRANCH  27  29
ENDBRANCH   1  27
TORSDOF 9
ENDMDL
MODEL 3
REMARK VINA RESULT: -8.377431473      2.892      5.249
REMARK  9 active torsions:
REMARK  status: ('A' for Active; 'I' for Inactive)
REMARK    1  A    between atoms: C3_3  and  C5_5 
REMARK    2  A    between atoms: C5_5  and  C6_6 
REMARK    3  A    between atoms: C6_6  and  C7_7 
REMARK    4  A    between atoms: C7_7  and  N1_8 
REMARK    5  A    between atoms: N2_11  and  C10_12 
REMARK    6  A    between atoms: C10_12  and  C11_13 
REMARK    7  A    between atoms: C11_13  and  C12_14 
REMARK    8  A    between atoms: C12_14  and  N3_15 
REMARK    9  A    between atoms: N3_15  and  C13_17 
ROOT
HETATM    1  C13 UNL     1     -34.181  12.157 -49.418  1.00  0.00     0.068 C 
HETATM    2  C14 UNL     1     -35.358  12.021 -48.657  1.00  0.00     0.001 C 
HETATM    3  C15 UNL     1     -36.644  12.433 -48.952  1.00  0.00     0.089 C 
HETATM    4  N4  UNL     1     -37.099  12.950 -50.140  1.00  0.00    -0.329 N 
ATOM      5  H4  UNL     1     -38.104  12.896 -50.309  1.00  0.00     0.168 HD
HETATM    6  C16 UNL     1     -36.359  13.518 -51.101  1.00  0.00     0.202 C 
HETATM    7  F1  UNL     1     -36.994  13.813 -52.239  1.00  0.00    -0.185 F 
HETATM    8  C17 UNL     1     -35.005  13.837 -51.059  1.00  0.00     0.061 A 
HETATM    9  C18 UNL     1     -34.012  13.226 -50.294  1.00  0.00     0.076 A 
HETATM   10  N5  UNL     1     -32.841  13.832 -50.528  1.00  0.00    -0.352 N 
ATOM     11  H5  UNL     1     -31.945  13.594 -50.103  1.00  0.00     0.166 HD
HETATM   12  C19 UNL     1     -33.063  14.817 -51.429  1.00  0.00     0.051 A 
HETATM   13  C20 UNL     1     -32.191  15.735 -52.009  1.00  0.00    -0.013 A 
HETATM   14  C21 UNL     1     -30.772  15.715 -51.649  1.00  0.00     0.052 C 
HETATM   15  C22 UNL     1     -32.662  16.656 -52.916  1.00  0.00     0.042 A 
HETATM   16 CL1  UNL     1     -31.597  17.823 -53.664  1.00  0.00    -0.084 Cl
HETATM   17  C23 UNL     1     -34.000  16.643 -53.230  1.00  0.00     0.025 A 
HETATM   18  C24 UNL     1     -34.899  15.732 -52.664  1.00  0.00     0.016 A 
HETATM   19  C25 UNL     1     -34.408  14.828 -51.766  1.00  0.00     0.008 A 
HETATM   20  C26 UNL     1     -37.904  12.493 -48.229  1.00  0.00     0.176 C 
HETATM   21  O1  UNL     1     -38.760  13.249 -48.804  1.00  0.00    -0.291 OA
HETATM   22  C27 UNL     1     -38.397  11.864 -46.980  1.00  0.00     0.085 C 
HETATM   23  C28 UNL     1     -37.974  10.411 -46.979  1.00  0.00     0.008 C 
HETATM   24  C29 UNL     1     -36.634  10.204 -46.317  1.00  0.00     0.001 C 
HETATM   25  C30 UNL     1     -35.515  10.038 -47.315  1.00  0.00     0.005 C 
HETATM   26  C31 UNL     1     -34.750  11.327 -47.526  1.00  0.00     0.043 C 
ENDROOT
BRANCH   1  27
HETATM   27  N3  UNL     1     -33.283  11.301 -49.294  1.00  0.00    -0.367 N 
ATOM     28  H3  UNL     1     -32.933  11.275 -48.336  1.00  0.00     0.165 HD
BRANCH  27  29
HETATM   29  C12 UNL     1     -32.623  10.371 -50.091  1.00  0.00     0.066 C 
BRANCH  29  30
HETATM   30  C11 UNL     1     -33.484   9.291 -50.736  1.00  0.00     0.089 C 
BRANCH  30  31
HETATM   31  C10 UNL     1     -32.661   8.032 -50.811  1.00  0.00     0.073 C 
BRANCH  31  32
HETATM   32  N2  UNL     1     -32.529   7.294 -49.625  1.00  0.00    -0.351 N 
HETATM   33  C9  UNL     1     -33.753   7.038 -48.987  1.00  0.00     0.087 C 
HETATM   34  C8  UNL     1     -33.626   6.513 -47.578  1.00  0.00     0.162 C 
HETATM   35  N1  UNL     1     -32.621   7.260 -46.904  1.00  0.00    -0.403 N 
HETATM   36  C33 UNL     1     -31.332   7.289 -47.480  1.00  0.00     0.162 C 
HETATM   37  C32 UNL     1     -31.315   7.126 -48.978  1.00  0.00     0.087 C 
BRANCH  35  38
HETATM   38  C7  UNL     1     -32.663   7.213 -45.469  1.00  0.00     0.118 C 
BRANCH  38  39
HETATM   39  C6  UNL     1     -31.343   7.230 -44.808  1.00  0.00     0.023 C 
BRANCH  39  40
HETATM   40  C5  UNL     1     -31.435   6.885 -43.363  1.00  0.00     0.035 C 
BRANCH  40  41
HETATM   41  C3  UNL     1     -30.693   7.701 -42.413  1.00  0.00    -0.088 C 
HETATM   42  C2  UNL     1     -29.542   8.276 -42.682  1.00  0.00    -0.029 C 
HETATM   43  C1  UNL     1     -28.834   9.138 -41.688  1.00  0.00     0.036 C 
HETATM   44  C4  UNL     1     -31.296   7.935 -41.031  1.00  0.00     0.043 C 
ENDBRANCH  40  41
ENDBRANCH  39  40
ENDBRANCH  38  39
ENDBRANCH  35  38
ENDBRANCH  31  32
ENDBRANCH  30  31
ENDBRANCH  29  30
ENDBRANCH  27  29
ENDBRANCH   1  27
TORSDOF 9
ENDMDL
MODEL 4
REMARK VINA RESULT: -8.307519849      1.308      2.383
REMARK  9 active torsions:
REMARK  status: ('A' for Active; 'I' for Inactive)
REMARK    1  A    between atoms: C3_3  and  C5_5 
REMARK    2  A    between atoms: C5_5  and  C6_6 
REMARK    3  A    between atoms: C6_6  and  C7_7 
REMARK    4  A    between atoms: C7_7  and  N1_8 
REMARK    5  A    between atoms: N2_11  and  C10_12 
REMARK    6  A    between atoms: C10_12  and  C11_13 
REMARK    7  A    between atoms: C11_13  and  C12_14 
REMARK    8  A    between atoms: C12_14  and  N3_15 
REMARK    9  A    between atoms: N3_15  and  C13_17 
ROOT
HETATM    1  C13 UNL     1     -34.462  12.214 -49.169  1.00  0.00     0.068 C 
HETATM    2  C14 UNL     1     -35.684  12.117 -48.475  1.00  0.00     0.001 C 
HETATM    3  C15 UNL     1     -36.953  12.482 -48.884  1.00  0.00     0.089 C 
HETATM    4  N4  UNL     1     -37.337  12.896 -50.136  1.00  0.00    -0.329 N 
ATOM      5  H4  UNL     1     -38.327  12.811 -50.364  1.00  0.00     0.168 HD
HETATM    6  C16 UNL     1     -36.543  13.399 -51.090  1.00  0.00     0.202 C 
HETATM    7  F1  UNL     1     -37.106  13.592 -52.286  1.00  0.00    -0.185 F 
HETATM    8  C17 UNL     1     -35.198  13.744 -50.987  1.00  0.00     0.061 A 
HETATM    9  C18 UNL     1     -34.250  13.213 -50.114  1.00  0.00     0.076 A 
HETATM   10  N5  UNL     1     -33.074  13.819 -50.321  1.00  0.00    -0.352 N 
ATOM     11  H5  UNL     1     -32.204  13.630 -49.823  1.00  0.00     0.166 HD
HETATM   12  C19 UNL     1     -33.248  14.726 -51.310  1.00  0.00     0.051 A 
HETATM   13  C20 UNL     1     -32.352  15.610 -51.905  1.00  0.00    -0.013 A 
HETATM   14  C21 UNL     1     -30.960  15.643 -51.454  1.00  0.00     0.052 C 
HETATM   15  C22 UNL     1     -32.775  16.449 -52.911  1.00  0.00     0.042 A 
HETATM   16 CL1  UNL     1     -31.678  17.572 -53.680  1.00  0.00    -0.084 Cl
HETATM   17  C23 UNL     1     -34.089  16.387 -53.307  1.00  0.00     0.025 A 
HETATM   18  C24 UNL     1     -35.012  15.509 -52.728  1.00  0.00     0.016 A 
HETATM   19  C25 UNL     1     -34.569  14.687 -51.732  1.00  0.00     0.008 A 
HETATM   20  C26 UNL     1     -38.259  12.577 -48.250  1.00  0.00     0.176 C 
HETATM   21  O1  UNL     1     -39.084  13.270 -48.937  1.00  0.00    -0.291 OA
HETATM   22  C27 UNL     1     -38.823  12.040 -46.989  1.00  0.00     0.085 C 
HETATM   23  C28 UNL     1     -38.384  10.598 -46.845  1.00  0.00     0.008 C 
HETATM   24  C29 UNL     1     -37.087  10.468 -46.085  1.00  0.00     0.001 C 
HETATM   25  C30 UNL     1     -35.903  10.243 -46.993  1.00  0.00     0.005 C 
HETATM   26  C31 UNL     1     -35.143  11.525 -47.257  1.00  0.00     0.043 C 
ENDROOT
BRANCH   1  27
HETATM   27  N3  UNL     1     -33.563  11.385 -48.919  1.00  0.00    -0.367 N 
ATOM     28  H3  UNL     1     -33.149  11.560 -48.004  1.00  0.00     0.165 HD
BRANCH  27  29
HETATM   29  C12 UNL     1     -32.966  10.291 -49.536  1.00  0.00     0.066 C 
BRANCH  29  30
HETATM   30  C11 UNL     1     -32.041   9.440 -48.672  1.00  0.00     0.089 C 
BRANCH  30  31
HETATM   31  C10 UNL     1     -32.215   8.004 -49.090  1.00  0.00     0.073 C 
BRANCH  31  32
HETATM   32  N2  UNL     1     -31.868   7.686 -50.412  1.00  0.00    -0.351 N 
HETATM   33  C9  UNL     1     -30.573   8.098 -50.764  1.00  0.00     0.087 C 
HETATM   34  C8  UNL     1     -30.279   8.040 -52.243  1.00  0.00     0.162 C 
HETATM   35  N1  UNL     1     -31.400   8.555 -52.949  1.00  0.00    -0.403 N 
HETATM   36  C33 UNL     1     -32.652   7.941 -52.726  1.00  0.00     0.162 C 
HETATM   37  C32 UNL     1     -32.804   7.314 -51.364  1.00  0.00     0.087 C 
BRANCH  35  38
HETATM   38  C7  UNL     1     -31.147   8.986 -54.297  1.00  0.00     0.118 C 
BRANCH  38  39
HETATM   39  C6  UNL     1     -29.810   8.643 -54.817  1.00  0.00     0.023 C 
BRANCH  39  40
HETATM   40  C5  UNL     1     -29.875   7.631 -55.908  1.00  0.00     0.035 C 
BRANCH  40  41
HETATM   41  C3  UNL     1     -29.164   6.375 -55.724  1.00  0.00    -0.088 C 
HETATM   42  C2  UNL     1     -28.242   6.182 -54.807  1.00  0.00    -0.029 C 
HETATM   43  C1  UNL     1     -27.564   4.863 -54.628  1.00  0.00     0.036 C 
HETATM   44  C4  UNL     1     -29.528   5.197 -56.622  1.00  0.00     0.043 C 
ENDBRANCH  40  41
ENDBRANCH  39  40
ENDBRANCH  38  39
ENDBRANCH  35  38
ENDBRANCH  31  32
ENDBRANCH  30  31
ENDBRANCH  29  30
ENDBRANCH  27  29
ENDBRANCH   1  27
TORSDOF 9
ENDMDL
MODEL 5
REMARK VINA RESULT: -8.297330515      3.048      5.744
REMARK  9 active torsions:
REMARK  status: ('A' for Active; 'I' for Inactive)
REMARK    1  A    between atoms: C3_3  and  C5_5 
REMARK    2  A    between atoms: C5_5  and  C6_6 
REMARK    3  A    between atoms: C6_6  and  C7_7 
REMARK    4  A    between atoms: C7_7  and  N1_8 
REMARK    5  A    between atoms: N2_11  and  C10_12 
REMARK    6  A    between atoms: C10_12  and  C11_13 
REMARK    7  A    between atoms: C11_13  and  C12_14 
REMARK    8  A    between atoms: C12_14  and  N3_15 
REMARK    9  A    between atoms: N3_15  and  C13_17 
ROOT
HETATM    1  C13 UNL     1     -32.727  11.006 -50.737  1.00  0.00     0.068 C 
HETATM    2  C14 UNL     1     -32.100  10.244 -51.742  1.00  0.00     0.001 C 
HETATM    3  C15 UNL     1     -31.578  10.656 -52.954  1.00  0.00     0.089 C 
HETATM    4  N4  UNL     1     -31.419  11.947 -53.396  1.00  0.00    -0.329 N 
ATOM      5  H4  UNL     1     -30.738  12.096 -54.140  1.00  0.00     0.168 HD
HETATM    6  C16 UNL     1     -32.068  13.030 -52.949  1.00  0.00     0.202 C 
HETATM    7  F1  UNL     1     -31.644  14.207 -53.418  1.00  0.00    -0.185 F 
HETATM    8  C17 UNL     1     -33.131  13.078 -52.053  1.00  0.00     0.061 A 
HETATM    9  C18 UNL     1     -33.439  12.161 -51.049  1.00  0.00     0.076 A 
HETATM   10  N5  UNL     1     -34.547  12.560 -50.412  1.00  0.00    -0.352 N 
ATOM     11  H5  UNL     1     -35.001  12.079 -49.635  1.00  0.00     0.166 HD
HETATM   12  C19 UNL     1     -34.955  13.716 -50.985  1.00  0.00     0.051 A 
HETATM   13  C20 UNL     1     -36.041  14.541 -50.702  1.00  0.00    -0.013 A 
HETATM   14  C21 UNL     1     -36.958  14.184 -49.619  1.00  0.00     0.052 C 
HETATM   15  C22 UNL     1     -36.249  15.684 -51.438  1.00  0.00     0.042 A 
HETATM   16 CL1  UNL     1     -37.602  16.742 -51.111  1.00  0.00    -0.084 Cl
HETATM   17  C23 UNL     1     -35.365  15.986 -52.446  1.00  0.00     0.025 A 
HETATM   18  C24 UNL     1     -34.266  15.177 -52.752  1.00  0.00     0.016 A 
HETATM   19  C25 UNL     1     -34.079  14.048 -52.008  1.00  0.00     0.008 A 
HETATM   20  C26 UNL     1     -31.042   9.991 -54.131  1.00  0.00     0.176 C 
HETATM   21  O1  UNL     1     -30.974  10.770 -55.141  1.00  0.00    -0.291 OA
HETATM   22  C27 UNL     1     -30.563   8.613 -54.396  1.00  0.00     0.085 C 
HETATM   23  C28 UNL     1     -29.702   8.174 -53.231  1.00  0.00     0.008 C 
HETATM   24  C29 UNL     1     -30.502   7.474 -52.160  1.00  0.00     0.001 C 
HETATM   25  C30 UNL     1     -30.806   8.371 -50.985  1.00  0.00     0.005 C 
HETATM   26  C31 UNL     1     -32.201   8.955 -51.067  1.00  0.00     0.043 C 
ENDROOT
BRANCH   1  27
HETATM   27  N3  UNL     1     -32.637  10.626 -49.552  1.00  0.00    -0.367 N 
ATOM     28  H3  UNL     1     -31.778  10.098 -49.402  1.00  0.00     0.165 HD
BRANCH  27  29
HETATM   29  C12 UNL     1     -33.377  10.719 -48.378  1.00  0.00     0.066 C 
BRANCH  29  30
HETATM   30  C11 UNL     1     -33.595   9.423 -47.604  1.00  0.00     0.089 C 
BRANCH  30  31
HETATM   31  C10 UNL     1     -35.070   9.301 -47.321  1.00  0.00     0.073 C 
BRANCH  31  32
HETATM   32  N2  UNL     1     -35.902   9.036 -48.418  1.00  0.00    -0.351 N 
HETATM   33  C9  UNL     1     -35.377   8.079 -49.301  1.00  0.00     0.087 C 
HETATM   34  C8  UNL     1     -36.094   7.988 -50.625  1.00  0.00     0.162 C 
HETATM   35  N1  UNL     1     -36.359   9.306 -51.089  1.00  0.00    -0.403 N 
HETATM   36  C33 UNL     1     -37.102  10.159 -50.244  1.00  0.00     0.162 C 
HETATM   37  C32 UNL     1     -36.958   9.860 -48.774  1.00  0.00     0.087 C 
BRANCH  35  38
HETATM   38  C7  UNL     1     -36.624   9.433 -52.495  1.00  0.00     0.118 C 
BRANCH  38  39
HETATM   39  C6  UNL     1     -35.555  10.091 -53.272  1.00  0.00     0.023 C 
BRANCH  39  40
HETATM   40  C5  UNL     1     -35.943  11.461 -53.710  1.00  0.00     0.035 C 
BRANCH  40  41
HETATM   41  C3  UNL     1     -37.360  11.781 -53.795  1.00  0.00    -0.088 C 
HETATM   42  C2  UNL     1     -37.993  12.538 -52.927  1.00  0.00    -0.029 C 
HETATM   43  C1  UNL     1     -39.442  12.873 -53.074  1.00  0.00     0.036 C 
HETATM   44  C4  UNL     1     -38.157  11.238 -54.976  1.00  0.00     0.043 C 
ENDBRANCH  40  41
ENDBRANCH  39  40
ENDBRANCH  38  39
ENDBRANCH  35  38
ENDBRANCH  31  32
ENDBRANCH  30  31
ENDBRANCH  29  30
ENDBRANCH  27  29
ENDBRANCH   1  27
TORSDOF 9
ENDMDL
