MODEL 1
REMARK VINA RESULT: -8.174992305      0.000      0.000
REMARK  8 active torsions:
REMARK  status: ('A' for Active; 'I' for Inactive)
REMARK    1  A    between atoms: C1_2  and  C2_3 
REMARK       I    between atoms: C1_2  and  N3_23 
REMARK    2  A    between atoms: C2_3  and  C3_4 
REMARK    3  A    between atoms: C3_4  and  S1_5 
REMARK    4  A    between atoms: S1_5  and  C4_6 
REMARK    5  A    between atoms: C4_6  and  C5_7 
REMARK    6  A    between atoms: C5_7  and  C6_8 
REMARK    7  A    between atoms: C6_8  and  S2_9 
REMARK    8  A    between atoms: S2_9  and  C7_10 
ROOT
HETATM    1  C4  UNL     1     -36.255  12.351 -48.319  1.00  0.00     0.074 C 
ENDROOT
BRANCH   1   2
HETATM    2  S1  UNL     1     -37.630  13.333 -48.949  1.00  0.00    -0.169 SA
BRANCH   2   3
HETATM    3  C3  UNL     1     -37.040  14.878 -49.660  1.00  0.00     0.083 C 
BRANCH   3   4
HETATM    4  C2  UNL     1     -37.388  14.857 -51.156  1.00  0.00     0.113 C 
BRANCH   4   5
HETATM    5  C1  UNL     1     -36.558  15.859 -51.869  1.00  0.00     0.220 C 
HETATM    6  O1  UNL     1     -36.781  17.091 -51.805  1.00  0.00    -0.273 OA
HETATM    7  N3  UNL     1     -35.470  15.413 -52.656  1.00  0.00    -0.348 N 
HETATM    8  C14 UNL     1     -35.157  14.025 -52.778  1.00  0.00     0.130 C 
HETATM    9  C22 UNL     1     -34.612  16.358 -53.381  1.00  0.00     0.164 C 
HETATM   10  C15 UNL     1     -33.691  13.741 -52.737  1.00  0.00     0.059 C 
HETATM   11  C16 UNL     1     -32.832  14.924 -52.483  1.00  0.00    -0.049 A 
HETATM   12  C17 UNL     1     -31.562  14.757 -51.925  1.00  0.00     0.008 A 
HETATM   13  C21 UNL     1     -33.259  16.191 -52.794  1.00  0.00    -0.034 A 
HETATM   14  C18 UNL     1     -30.756  15.838 -51.690  1.00  0.00     0.001 A 
HETATM   15  C19 UNL     1     -31.174  17.121 -51.998  1.00  0.00     0.001 A 
HETATM   16  C20 UNL     1     -32.435  17.258 -52.550  1.00  0.00     0.009 A 
ENDBRANCH   4   5
ENDBRANCH   3   4
ENDBRANCH   2   3
ENDBRANCH   1   2
BRANCH   1  17
HETATM   17  C5  UNL     1     -35.098  12.532 -49.295  1.00  0.00     0.021 C 
BRANCH  17  18
HETATM   18  C6  UNL     1     -34.798  11.138 -49.823  1.00  0.00     0.083 C 
BRANCH  18  19
HETATM   19  S2  UNL     1     -33.135  10.604 -49.339  1.00  0.00    -0.094 SA
BRANCH  19  20
HETATM   20  C7  UNL     1     -32.253  10.050 -50.815  1.00  0.00     0.145 A 
HETATM   21  N1  UNL     1     -31.714   8.847 -51.069  1.00  0.00    -0.335 N 
HETATM   22  C8  UNL     1     -31.139   8.821 -52.286  1.00  0.00     0.063 A 
ATOM     23  H1  UNL     1     -31.737   8.057 -50.426  1.00  0.00     0.168 HD
HETATM   24  C9  UNL     1     -30.462   7.901 -53.051  1.00  0.00     0.051 A 
HETATM   25  C13 UNL     1     -31.325  10.090 -52.843  1.00  0.00     0.078 A 
HETATM   26  C10 UNL     1     -29.975   8.178 -54.313  1.00  0.00     0.014 A 
HETATM   27 BR1  UNL     1     -29.044   6.830 -55.307  1.00  0.00    -0.051 Br
HETATM   28  C11 UNL     1     -30.166   9.434 -54.846  1.00  0.00     0.040 A 
HETATM   29  C12 UNL     1     -30.840  10.374 -54.103  1.00  0.00     0.041 A 
HETATM   30 BR2  UNL     1     -31.112  12.100 -54.818  1.00  0.00    -0.049 Br
HETATM   31  N2  UNL     1     -32.004  10.796 -51.914  1.00  0.00    -0.334 N 
ATOM     32  H2  UNL     1     -32.291  11.768 -52.027  1.00  0.00     0.168 HD
ENDBRANCH  19  20
ENDBRANCH  18  19
ENDBRANCH  17  18
ENDBRANCH   1  17
TORSDOF 8
ENDMDL
MODEL 2
REMARK VINA RESULT: -7.904379280      1.777      2.614
REMARK  8 active torsions:
REMARK  status: ('A' for Active; 'I' for Inactive)
REMARK    1  A    between atoms: C1_2  and  C2_3 
REMARK       I    between atoms: C1_2  and  N3_23 
REMARK    2  A    between atoms: C2_3  and  C3_4 
REMARK    3  A    between atoms: C3_4  and  S1_5 
REMARK    4  A    between atoms: S1_5  and  C4_6 
REMARK    5  A    between atoms: C4_6  and  C5_7 
REMARK    6  A    between atoms: C5_7  and  C6_8 
REMARK    7  A    between atoms: C6_8  and  S2_9 
REMARK    8  A    between atoms: S2_9  and  C7_10 
ROOT
HETATM    1  C4  UNL     1     -37.065  12.852 -47.386  1.00  0.00     0.074 C 
ENDROOT
BRANCH   1   2
HETATM    2  S1  UNL     1     -38.025  13.346 -48.831  1.00  0.00    -0.169 SA
BRANCH   2   3
HETATM    3  C3  UNL     1     -37.295  14.788 -49.623  1.00  0.00     0.083 C 
BRANCH   3   4
HETATM    4  C2  UNL     1     -37.059  14.432 -51.098  1.00  0.00     0.113 C 
BRANCH   4   5
HETATM    5  C1  UNL     1     -36.375  15.561 -51.776  1.00  0.00     0.220 C 
HETATM    6  O1  UNL     1     -36.719  16.756 -51.614  1.00  0.00    -0.273 OA
HETATM    7  N3  UNL     1     -35.290  15.285 -52.640  1.00  0.00    -0.348 N 
HETATM    8  C14 UNL     1     -34.843  13.950 -52.875  1.00  0.00     0.130 C 
HETATM    9  C22 UNL     1     -34.573  16.361 -53.334  1.00  0.00     0.164 C 
HETATM   10  C15 UNL     1     -33.356  13.820 -52.920  1.00  0.00     0.059 C 
HETATM   11  C16 UNL     1     -32.610  15.068 -52.622  1.00  0.00    -0.049 A 
HETATM   12  C17 UNL     1     -31.302  15.000 -52.134  1.00  0.00     0.008 A 
HETATM   13  C21 UNL     1     -33.181  16.301 -52.822  1.00  0.00    -0.034 A 
HETATM   14  C18 UNL     1     -30.600  16.142 -51.860  1.00  0.00     0.001 A 
HETATM   15  C19 UNL     1     -31.163  17.392 -52.057  1.00  0.00     0.001 A 
HETATM   16  C20 UNL     1     -32.458  17.430 -52.540  1.00  0.00     0.009 A 
ENDBRANCH   4   5
ENDBRANCH   3   4
ENDBRANCH   2   3
ENDBRANCH   1   2
BRANCH   1  17
HETATM   17  C5  UNL     1     -37.384  11.384 -47.125  1.00  0.00     0.021 C 
BRANCH  17  18
HETATM   18  C6  UNL     1     -36.034  10.705 -46.959  1.00  0.00     0.083 C 
BRANCH  18  19
HETATM   19  S2  UNL     1     -34.679  11.852 -47.325  1.00  0.00    -0.094 SA
BRANCH  19  20
HETATM   20  C7  UNL     1     -33.683  11.163 -48.665  1.00  0.00     0.145 A 
HETATM   21  N1  UNL     1     -33.524  11.622 -49.915  1.00  0.00    -0.335 N 
HETATM   22  C8  UNL     1     -32.697  10.829 -50.622  1.00  0.00     0.063 A 
ATOM     23  H1  UNL     1     -33.970  12.461 -50.283  1.00  0.00     0.168 HD
HETATM   24  C9  UNL     1     -32.187  10.803 -51.898  1.00  0.00     0.051 A 
HETATM   25  C13 UNL     1     -32.304   9.797 -49.764  1.00  0.00     0.078 A 
HETATM   26  C10 UNL     1     -31.326   9.822 -52.349  1.00  0.00     0.014 A 
HETATM   27 BR1  UNL     1     -30.663   9.869 -54.146  1.00  0.00    -0.051 Br
HETATM   28  C11 UNL     1     -30.949   8.813 -51.490  1.00  0.00     0.040 A 
HETATM   29  C12 UNL     1     -31.444   8.814 -50.208  1.00  0.00     0.041 A 
HETATM   30 BR2  UNL     1     -30.938   7.438 -49.017  1.00  0.00    -0.049 Br
HETATM   31  N2  UNL     1     -32.927  10.044 -48.593  1.00  0.00    -0.334 N 
ATOM     32  H2  UNL     1     -32.839   9.462 -47.760  1.00  0.00     0.168 HD
ENDBRANCH  19  20
ENDBRANCH  18  19
ENDBRANCH  17  18
ENDBRANCH   1  17
TORSDOF 8
ENDMDL
MODEL 3
REMARK VINA RESULT: -7.841572378      1.203      1.331
REMARK  8 active torsions:
REMARK  status: ('A' for Active; 'I' for Inactive)
REMARK    1  A    between atoms: C1_2  and  C2_3 
REMARK       I    between atoms: C1_2  and  N3_23 
REMARK    2  A    between atoms: C2_3  and  C3_4 
REMARK    3  A    between atoms: C3_4  and  S1_5 
REMARK    4  A    between atoms: S1_5  and  C4_6 
REMARK    5  A    between atoms: C4_6  and  C5_7 
REMARK    6  A    between atoms: C5_7  and  C6_8 
REMARK    7  A    between atoms: C6_8  and  S2_9 
REMARK    8  A    between atoms: S2_9  and  C7_10 
ROOT
HETATM    1  C4  UNL     1     -35.904  11.167 -48.437  1.00  0.00     0.074 C 
ENDROOT
BRANCH   1   2
HETATM    2  S1  UNL     1     -36.546  12.773 -47.924  1.00  0.00    -0.169 SA
BRANCH   2   3
HETATM    3  C3  UNL     1     -36.735  13.869 -49.340  1.00  0.00     0.083 C 
BRANCH   3   4
HETATM    4  C2  UNL     1     -36.478  13.035 -50.604  1.00  0.00     0.113 C 
BRANCH   4   5
HETATM    5  C1  UNL     1     -36.084  13.934 -51.717  1.00  0.00     0.220 C 
HETATM    6  O1  UNL     1     -36.850  14.813 -52.180  1.00  0.00    -0.273 OA
HETATM    7  N3  UNL     1     -34.796  13.799 -52.283  1.00  0.00    -0.348 N 
HETATM    8  C14 UNL     1     -33.871  12.819 -51.811  1.00  0.00     0.130 C 
HETATM    9  C22 UNL     1     -34.350  14.662 -53.384  1.00  0.00     0.164 C 
HETATM   10  C15 UNL     1     -32.468  13.322 -51.719  1.00  0.00     0.059 C 
HETATM   11  C16 UNL     1     -32.297  14.761 -52.039  1.00  0.00    -0.049 A 
HETATM   12  C17 UNL     1     -31.207  15.467 -51.523  1.00  0.00     0.008 A 
HETATM   13  C21 UNL     1     -33.193  15.420 -52.845  1.00  0.00    -0.034 A 
HETATM   14  C18 UNL     1     -31.033  16.793 -51.814  1.00  0.00     0.001 A 
HETATM   15  C19 UNL     1     -31.928  17.469 -52.625  1.00  0.00     0.001 A 
HETATM   16  C20 UNL     1     -32.998  16.747 -53.123  1.00  0.00     0.009 A 
ENDBRANCH   4   5
ENDBRANCH   3   4
ENDBRANCH   2   3
ENDBRANCH   1   2
BRANCH   1  17
HETATM   17  C5  UNL     1     -34.502  11.045 -47.852  1.00  0.00     0.021 C 
BRANCH  17  18
HETATM   18  C6  UNL     1     -33.577  10.914 -49.051  1.00  0.00     0.083 C 
BRANCH  18  19
HETATM   19  S2  UNL     1     -32.426   9.530 -48.838  1.00  0.00    -0.094 SA
BRANCH  19  20
HETATM   20  C7  UNL     1     -31.707   9.123 -50.443  1.00  0.00     0.145 A 
HETATM   21  N1  UNL     1     -31.092   7.994 -50.827  1.00  0.00    -0.335 N 
HETATM   22  C8  UNL     1     -30.691   8.071 -52.109  1.00  0.00     0.063 A 
ATOM     23  H1  UNL     1     -30.947   7.183 -50.226  1.00  0.00     0.168 HD
HETATM   24  C9  UNL     1     -30.039   7.254 -53.002  1.00  0.00     0.051 A 
HETATM   25  C13 UNL     1     -31.076   9.333 -52.573  1.00  0.00     0.078 A 
HETATM   26  C10 UNL     1     -29.760   7.625 -54.303  1.00  0.00     0.014 A 
HETATM   27 BR1  UNL     1     -28.847   6.418 -55.478  1.00  0.00    -0.051 Br
HETATM   28  C11 UNL     1     -30.146   8.872 -54.743  1.00  0.00     0.040 A 
HETATM   29  C12 UNL     1     -30.800   9.710 -53.871  1.00  0.00     0.041 A 
HETATM   30 BR2  UNL     1     -31.338  11.422 -54.458  1.00  0.00    -0.049 Br
HETATM   31  N2  UNL     1     -31.686   9.930 -51.528  1.00  0.00    -0.334 N 
ATOM     32  H2  UNL     1     -32.081  10.870 -51.554  1.00  0.00     0.168 HD
ENDBRANCH  19  20
ENDBRANCH  18  19
ENDBRANCH  17  18
ENDBRANCH   1  17
TORSDOF 8
ENDMDL
MODEL 4
REMARK VINA RESULT: -7.715156925      2.257      2.832
REMARK  8 active torsions:
REMARK  status: ('A' for Active; 'I' for Inactive)
REMARK    1  A    between atoms: C1_2  and  C2_3 
REMARK       I    between atoms: C1_2  and  N3_23 
REMARK    2  A    between atoms: C2_3  and  C3_4 
REMARK    3  A    between atoms: C3_4  and  S1_5 
REMARK    4  A    between atoms: S1_5  and  C4_6 
REMARK    5  A    between atoms: C4_6  and  C5_7 
REMARK    6  A    between atoms: C5_7  and  C6_8 
REMARK    7  A    between atoms: C6_8  and  S2_9 
REMARK    8  A    between atoms: S2_9  and  C7_10 
ROOT
HETATM    1  C4  UNL     1     -39.090  11.986 -51.045  1.00  0.00     0.074 C 
ENDROOT
BRANCH   1   2
HETATM    2  S1  UNL     1     -38.287  12.985 -49.775  1.00  0.00    -0.169 SA
BRANCH   2   3
HETATM    3  C3  UNL     1     -38.383  14.736 -50.182  1.00  0.00     0.083 C 
BRANCH   3   4
HETATM    4  C2  UNL     1     -37.012  15.354 -49.872  1.00  0.00     0.113 C 
BRANCH   4   5
HETATM    5  C1  UNL     1     -36.404  15.860 -51.128  1.00  0.00     0.220 C 
HETATM    6  O1  UNL     1     -36.818  16.888 -51.714  1.00  0.00    -0.273 OA
HETATM    7  N3  UNL     1     -35.313  15.158 -51.692  1.00  0.00    -0.348 N 
HETATM    8  C14 UNL     1     -34.788  13.979 -51.083  1.00  0.00     0.130 C 
HETATM    9  C22 UNL     1     -34.669  15.613 -52.930  1.00  0.00     0.164 C 
HETATM   10  C15 UNL     1     -33.297  13.910 -51.107  1.00  0.00     0.059 C 
HETATM   11  C16 UNL     1     -32.625  15.110 -51.666  1.00  0.00    -0.049 A 
HETATM   12  C17 UNL     1     -31.311  15.409 -51.298  1.00  0.00     0.008 A 
HETATM   13  C21 UNL     1     -33.271  15.937 -52.551  1.00  0.00    -0.034 A 
HETATM   14  C18 UNL     1     -30.676  16.508 -51.810  1.00  0.00     0.001 A 
HETATM   15  C19 UNL     1     -31.315  17.351 -52.703  1.00  0.00     0.001 A 
HETATM   16  C20 UNL     1     -32.616  17.031 -53.050  1.00  0.00     0.009 A 
ENDBRANCH   4   5
ENDBRANCH   3   4
ENDBRANCH   2   3
ENDBRANCH   1   2
BRANCH   1  17
HETATM   17  C5  UNL     1     -39.274  12.885 -52.262  1.00  0.00     0.021 C 
BRANCH  17  18
HETATM   18  C6  UNL     1     -37.917  12.916 -52.946  1.00  0.00     0.083 C 
BRANCH  18  19
HETATM   19  S2  UNL     1     -37.528  11.311 -53.693  1.00  0.00    -0.094 SA
BRANCH  19  20
HETATM   20  C7  UNL     1     -35.844  10.850 -53.230  1.00  0.00     0.145 A 
HETATM   21  N1  UNL     1     -35.438   9.902 -52.371  1.00  0.00    -0.335 N 
HETATM   22  C8  UNL     1     -34.096   9.860 -52.295  1.00  0.00     0.063 A 
ATOM     23  H1  UNL     1     -36.065   9.294 -51.845  1.00  0.00     0.168 HD
HETATM   24  C9  UNL     1     -33.158   9.124 -51.610  1.00  0.00     0.051 A 
HETATM   25  C13 UNL     1     -33.615  10.845 -53.162  1.00  0.00     0.078 A 
HETATM   26  C10 UNL     1     -31.797   9.318 -51.746  1.00  0.00     0.014 A 
HETATM   27 BR1  UNL     1     -30.563   8.241 -50.752  1.00  0.00    -0.051 Br
HETATM   28  C11 UNL     1     -31.341  10.293 -52.606  1.00  0.00     0.040 A 
HETATM   29  C12 UNL     1     -32.257  11.044 -53.303  1.00  0.00     0.041 A 
HETATM   30 BR2  UNL     1     -31.649  12.385 -54.486  1.00  0.00    -0.049 Br
HETATM   31  N2  UNL     1     -34.711  11.415 -53.704  1.00  0.00    -0.334 N 
ATOM     32  H2  UNL     1     -34.688  12.175 -54.383  1.00  0.00     0.168 HD
ENDBRANCH  19  20
ENDBRANCH  18  19
ENDBRANCH  17  18
ENDBRANCH   1  17
TORSDOF 8
ENDMDL
MODEL 5
REMARK VINA RESULT: -7.713264638      1.486      2.287
REMARK  8 active torsions:
REMARK  status: ('A' for Active; 'I' for Inactive)
REMARK    1  A    between atoms: C1_2  and  C2_3 
REMARK       I    between atoms: C1_2  and  N3_23 
REMARK    2  A    between atoms: C2_3  and  C3_4 
REMARK    3  A    between atoms: C3_4  and  S1_5 
REMARK    4  A    between atoms: S1_5  and  C4_6 
REMARK    5  A    between atoms: C4_6  and  C5_7 
REMARK    6  A    between atoms: C5_7  and  C6_8 
REMARK    7  A    between atoms: C6_8  and  S2_9 
REMARK    8  A    between atoms: S2_9  and  C7_10 
ROOT
HETATM    1  C4  UNL     1     -36.706  13.016 -48.120  1.00  0.00     0.074 C 
ENDROOT
BRANCH   1   2
HETATM    2  S1  UNL     1     -38.274  13.106 -49.007  1.00  0.00    -0.169 SA
BRANCH   2   3
HETATM    3  C3  UNL     1     -38.244  14.427 -50.229  1.00  0.00     0.083 C 
BRANCH   3   4
HETATM    4  C2  UNL     1     -37.042  15.326 -49.904  1.00  0.00     0.113 C 
BRANCH   4   5
HETATM    5  C1  UNL     1     -36.453  15.838 -51.166  1.00  0.00     0.220 C 
HETATM    6  O1  UNL     1     -36.912  16.837 -51.770  1.00  0.00    -0.273 OA
HETATM    7  N3  UNL     1     -35.330  15.178 -51.716  1.00  0.00    -0.348 N 
HETATM    8  C14 UNL     1     -34.755  14.032 -51.087  1.00  0.00     0.130 C 
HETATM    9  C22 UNL     1     -34.704  15.642 -52.960  1.00  0.00     0.164 C 
HETATM   10  C15 UNL     1     -33.262  14.031 -51.106  1.00  0.00     0.059 C 
HETATM   11  C16 UNL     1     -32.642  15.250 -51.683  1.00  0.00    -0.049 A 
HETATM   12  C17 UNL     1     -31.344  15.615 -51.317  1.00  0.00     0.008 A 
HETATM   13  C21 UNL     1     -33.323  16.034 -52.583  1.00  0.00    -0.034 A 
HETATM   14  C18 UNL     1     -30.758  16.733 -51.845  1.00  0.00     0.001 A 
HETATM   15  C19 UNL     1     -31.432  17.532 -52.753  1.00  0.00     0.001 A 
HETATM   16  C20 UNL     1     -32.716  17.148 -53.098  1.00  0.00     0.009 A 
ENDBRANCH   4   5
ENDBRANCH   3   4
ENDBRANCH   2   3
ENDBRANCH   1   2
BRANCH   1  17
HETATM   17  C5  UNL     1     -36.118  11.638 -48.399  1.00  0.00     0.021 C 
BRANCH  17  18
HETATM   18  C6  UNL     1     -34.976  11.482 -47.409  1.00  0.00     0.083 C 
BRANCH  18  19
HETATM   19  S2  UNL     1     -34.171   9.868 -47.594  1.00  0.00    -0.094 SA
BRANCH  19  20
HETATM   20  C7  UNL     1     -33.356   9.810 -49.205  1.00  0.00     0.145 A 
HETATM   21  N1  UNL     1     -32.975  10.828 -49.992  1.00  0.00    -0.335 N 
HETATM   22  C8  UNL     1     -32.396  10.379 -51.120  1.00  0.00     0.063 A 
ATOM     23  H1  UNL     1     -33.107  11.813 -49.764  1.00  0.00     0.168 HD
HETATM   24  C9  UNL     1     -31.835  10.937 -52.245  1.00  0.00     0.051 A 
HETATM   25  C13 UNL     1     -32.409   8.983 -51.047  1.00  0.00     0.078 A 
HETATM   26  C10 UNL     1     -31.300  10.188 -53.274  1.00  0.00     0.014 A 
HETATM   27 BR1  UNL     1     -30.536  11.054 -54.804  1.00  0.00    -0.051 Br
HETATM   28  C11 UNL     1     -31.321   8.813 -53.186  1.00  0.00     0.040 A 
HETATM   29  C12 UNL     1     -31.876   8.229 -52.073  1.00  0.00     0.041 A 
HETATM   30 BR2  UNL     1     -31.912   6.346 -51.935  1.00  0.00    -0.049 Br
HETATM   31  N2  UNL     1     -32.999   8.689 -49.871  1.00  0.00    -0.334 N 
ATOM     32  H2  UNL     1     -33.157   7.741 -49.527  1.00  0.00     0.168 HD
ENDBRANCH  19  20
ENDBRANCH  18  19
ENDBRANCH  17  18
ENDBRANCH   1  17
TORSDOF 8
ENDMDL
