MODEL 1
REMARK VINA RESULT: -7.948695905      0.000      0.000
REMARK  8 active torsions:
REMARK  status: ('A' for Active; 'I' for Inactive)
REMARK    1  A    between atoms: O1_2  and  C2_3 
REMARK    2  A    between atoms: C6_8  and  S1_9 
REMARK    3  A    between atoms: S1_9  and  C7_10 
REMARK    4  A    between atoms: C7_10  and  C8_11 
REMARK    5  A    between atoms: C8_11  and  C9_12 
REMARK    6  A    between atoms: C9_12  and  N1_13 
REMARK    7  A    between atoms: C12_16  and  C13_17 
REMARK    8  A    between atoms: C13_17  and  N2_18 
ROOT
HETATM    1  C7  UNL     1     -35.817  12.053 -49.187  1.00  0.00     0.085 C 
ENDROOT
BRANCH   1   2
HETATM    2  S1  UNL     1     -34.281  11.822 -48.279  1.00  0.00    -0.127 SA
BRANCH   2   3
HETATM    3  C6  UNL     1     -33.204  10.690 -49.140  1.00  0.00     0.028 A 
HETATM    4  C5  UNL     1     -32.888  10.768 -50.475  1.00  0.00     0.012 A 
HETATM    5  C4  UNL     1     -33.261  11.648 -51.476  1.00  0.00     0.037 A 
HETATM    6  C22 UNL     1     -32.026   9.731 -50.819  1.00  0.00     0.064 A 
HETATM    7  C3  UNL     1     -32.778  11.479 -52.754  1.00  0.00     0.046 A 
HETATM    8  C2  UNL     1     -31.929  10.459 -53.094  1.00  0.00     0.105 A 
HETATM    9 BR1  UNL     1     -33.306  12.700 -54.099  1.00  0.00    -0.048 Br
HETATM   10  C23 UNL     1     -31.547   9.572 -52.113  1.00  0.00     0.073 A 
HETATM   11 BR2  UNL     1     -30.370   8.117 -52.474  1.00  0.00    -0.046 Br
HETATM   12  N3  UNL     1     -31.833   9.037 -49.671  1.00  0.00    -0.363 N 
HETATM   13  C21 UNL     1     -32.523   9.590 -48.664  1.00  0.00     0.107 A 
ATOM     14  H3  UNL     1     -31.244   8.209 -49.585  1.00  0.00     0.165 HD
BRANCH   8  15
HETATM   15  O1  UNL     1     -31.458  10.311 -54.387  1.00  0.00    -0.353 OA
HETATM   16  C1  UNL     1     -30.330  11.010 -54.891  1.00  0.00     0.210 C 
ENDBRANCH   8  15
ENDBRANCH   2   3
ENDBRANCH   1   2
BRANCH   1  17
HETATM   17  C8  UNL     1     -36.591  13.279 -48.745  1.00  0.00     0.055 C 
BRANCH  17  18
HETATM   18  C9  UNL     1     -37.863  13.318 -49.559  1.00  0.00     0.059 C 
BRANCH  18  19
HETATM   19  N1  UNL     1     -37.965  14.411 -50.432  1.00  0.00    -0.393 N 
HETATM   20  C10 UNL     1     -38.130  14.162 -51.807  1.00  0.00     0.122 C 
HETATM   21  C11 UNL     1     -36.726  13.975 -52.423  1.00  0.00     0.029 C 
HETATM   22  C12 UNL     1     -35.811  15.010 -51.903  1.00  0.00     0.027 C 
HETATM   23  C19 UNL     1     -36.598  16.179 -51.265  1.00  0.00     0.029 C 
HETATM   24  C20 UNL     1     -37.358  15.637 -50.077  1.00  0.00     0.122 C 
BRANCH  22  25
HETATM   25  C13 UNL     1     -34.701  15.514 -52.734  1.00  0.00     0.062 C 
BRANCH  25  26
HETATM   26  N2  UNL     1     -33.540  16.027 -52.198  1.00  0.00    -0.393 N 
HETATM   27  C14 UNL     1     -32.905  15.616 -51.034  1.00  0.00     0.122 C 
HETATM   28  C15 UNL     1     -31.525  15.049 -51.422  1.00  0.00     0.020 C 
HETATM   29  C16 UNL     1     -30.665  16.238 -51.762  1.00  0.00     0.003 C 
HETATM   30  C17 UNL     1     -31.466  17.319 -52.402  1.00  0.00     0.020 C 
HETATM   31  C18 UNL     1     -32.723  16.831 -53.085  1.00  0.00     0.122 C 
ENDBRANCH  25  26
ENDBRANCH  22  25
ENDBRANCH  18  19
ENDBRANCH  17  18
ENDBRANCH   1  17
TORSDOF 8
ENDMDL
MODEL 2
REMARK VINA RESULT: -7.459581463      1.875      2.829
REMARK  8 active torsions:
REMARK  status: ('A' for Active; 'I' for Inactive)
REMARK    1  A    between atoms: O1_2  and  C2_3 
REMARK    2  A    between atoms: C6_8  and  S1_9 
REMARK    3  A    between atoms: S1_9  and  C7_10 
REMARK    4  A    between atoms: C7_10  and  C8_11 
REMARK    5  A    between atoms: C8_11  and  C9_12 
REMARK    6  A    between atoms: C9_12  and  N1_13 
REMARK    7  A    between atoms: C12_16  and  C13_17 
REMARK    8  A    between atoms: C13_17  and  N2_18 
ROOT
HETATM    1  C7  UNL     1     -37.102  12.396 -47.540  1.00  0.00     0.085 C 
ENDROOT
BRANCH   1   2
HETATM    2  S1  UNL     1     -35.367  12.090 -47.175  1.00  0.00    -0.127 SA
BRANCH   2   3
HETATM    3  C6  UNL     1     -34.455  11.758 -48.672  1.00  0.00     0.028 A 
HETATM    4  C5  UNL     1     -33.572  10.719 -48.839  1.00  0.00     0.012 A 
HETATM    5  C4  UNL     1     -33.147   9.705 -47.998  1.00  0.00     0.037 A 
HETATM    6  C22 UNL     1     -33.039  10.754 -50.124  1.00  0.00     0.064 A 
HETATM    7  C3  UNL     1     -32.231   8.780 -48.445  1.00  0.00     0.046 A 
HETATM    8  C2  UNL     1     -31.705   8.813 -49.710  1.00  0.00     0.105 A 
HETATM    9 BR1  UNL     1     -31.672   7.407 -47.271  1.00  0.00    -0.048 Br
HETATM   10  C23 UNL     1     -32.115   9.815 -50.562  1.00  0.00     0.073 A 
HETATM   11 BR2  UNL     1     -31.449   9.955 -52.343  1.00  0.00    -0.046 Br
HETATM   12  N3  UNL     1     -33.617  11.827 -50.717  1.00  0.00    -0.363 N 
HETATM   13  C21 UNL     1     -34.460  12.436 -49.872  1.00  0.00     0.107 A 
ATOM     14  H3  UNL     1     -33.436  12.129 -51.674  1.00  0.00     0.165 HD
BRANCH   8  15
HETATM   15  O1  UNL     1     -30.785   7.871 -50.135  1.00  0.00    -0.353 OA
HETATM   16  C1  UNL     1     -29.381   8.073 -50.087  1.00  0.00     0.210 C 
ENDBRANCH   8  15
ENDBRANCH   2   3
ENDBRANCH   1   2
BRANCH   1  17
HETATM   17  C8  UNL     1     -37.335  13.705 -48.268  1.00  0.00     0.055 C 
BRANCH  17  18
HETATM   18  C9  UNL     1     -38.025  13.373 -49.570  1.00  0.00     0.059 C 
BRANCH  18  19
HETATM   19  N1  UNL     1     -38.072  14.427 -50.493  1.00  0.00    -0.393 N 
HETATM   20  C10 UNL     1     -38.215  14.121 -51.859  1.00  0.00     0.122 C 
HETATM   21  C11 UNL     1     -36.805  13.860 -52.433  1.00  0.00     0.029 C 
HETATM   22  C12 UNL     1     -35.868  14.888 -51.938  1.00  0.00     0.027 C 
HETATM   23  C19 UNL     1     -36.629  16.110 -51.373  1.00  0.00     0.029 C 
HETATM   24  C20 UNL     1     -37.432  15.648 -50.179  1.00  0.00     0.122 C 
BRANCH  22  25
HETATM   25  C13 UNL     1     -34.724  15.317 -52.765  1.00  0.00     0.062 C 
BRANCH  25  26
HETATM   26  N2  UNL     1     -33.604  15.920 -52.235  1.00  0.00    -0.393 N 
HETATM   27  C14 UNL     1     -32.978  15.610 -51.036  1.00  0.00     0.122 C 
HETATM   28  C15 UNL     1     -31.563  15.093 -51.358  1.00  0.00     0.020 C 
HETATM   29  C16 UNL     1     -30.754  16.302 -51.749  1.00  0.00     0.003 C 
HETATM   30  C17 UNL     1     -31.592  17.303 -52.471  1.00  0.00     0.020 C 
HETATM   31  C18 UNL     1     -32.806  16.712 -53.151  1.00  0.00     0.122 C 
ENDBRANCH  25  26
ENDBRANCH  22  25
ENDBRANCH  18  19
ENDBRANCH  17  18
ENDBRANCH   1  17
TORSDOF 8
ENDMDL
MODEL 3
REMARK VINA RESULT: -7.391785597      1.486      2.368
REMARK  8 active torsions:
REMARK  status: ('A' for Active; 'I' for Inactive)
REMARK    1  A    between atoms: O1_2  and  C2_3 
REMARK    2  A    between atoms: C6_8  and  S1_9 
REMARK    3  A    between atoms: S1_9  and  C7_10 
REMARK    4  A    between atoms: C7_10  and  C8_11 
REMARK    5  A    between atoms: C8_11  and  C9_12 
REMARK    6  A    between atoms: C9_12  and  N1_13 
REMARK    7  A    between atoms: C12_16  and  C13_17 
REMARK    8  A    between atoms: C13_17  and  N2_18 
ROOT
HETATM    1  C7  UNL     1     -36.310  12.002 -48.555  1.00  0.00     0.085 C 
ENDROOT
BRANCH   1   2
HETATM    2  S1  UNL     1     -34.539  11.747 -48.359  1.00  0.00    -0.127 SA
BRANCH   2   3
HETATM    3  C6  UNL     1     -33.747  11.576 -49.947  1.00  0.00     0.028 A 
HETATM    4  C5  UNL     1     -32.839  10.595 -50.270  1.00  0.00     0.012 A 
HETATM    5  C4  UNL     1     -32.302   9.542 -49.551  1.00  0.00     0.037 A 
HETATM    6  C22 UNL     1     -32.420  10.754 -51.587  1.00  0.00     0.064 A 
HETATM    7  C3  UNL     1     -31.390   8.698 -50.145  1.00  0.00     0.046 A 
HETATM    8  C2  UNL     1     -30.977   8.853 -51.441  1.00  0.00     0.105 A 
HETATM    9 BR1  UNL     1     -30.677   7.268 -49.134  1.00  0.00    -0.048 Br
HETATM   10  C23 UNL     1     -31.499   9.896 -52.174  1.00  0.00     0.073 A 
HETATM   11 BR2  UNL     1     -30.995  10.204 -53.986  1.00  0.00    -0.046 Br
HETATM   12  N3  UNL     1     -33.091  11.840 -52.043  1.00  0.00    -0.363 N 
HETATM   13  C21 UNL     1     -33.882  12.342 -51.085  1.00  0.00     0.107 A 
ATOM     14  H3  UNL     1     -33.005  12.223 -52.984  1.00  0.00     0.165 HD
BRANCH   8  15
HETATM   15  O1  UNL     1     -30.059   7.991 -52.015  1.00  0.00    -0.353 OA
HETATM   16  C1  UNL     1     -30.418   6.963 -52.925  1.00  0.00     0.210 C 
ENDBRANCH   8  15
ENDBRANCH   2   3
ENDBRANCH   1   2
BRANCH   1  17
HETATM   17  C8  UNL     1     -36.690  13.463 -48.691  1.00  0.00     0.055 C 
BRANCH  17  18
HETATM   18  C9  UNL     1     -37.951  13.518 -49.521  1.00  0.00     0.059 C 
BRANCH  18  19
HETATM   19  N1  UNL     1     -38.011  14.590 -50.423  1.00  0.00    -0.393 N 
HETATM   20  C10 UNL     1     -38.194  14.312 -51.790  1.00  0.00     0.122 C 
HETATM   21  C11 UNL     1     -36.803  14.047 -52.407  1.00  0.00     0.029 C 
HETATM   22  C12 UNL     1     -35.841  15.056 -51.919  1.00  0.00     0.027 C 
HETATM   23  C19 UNL     1     -36.574  16.275 -51.310  1.00  0.00     0.029 C 
HETATM   24  C20 UNL     1     -37.349  15.798 -50.104  1.00  0.00     0.122 C 
BRANCH  22  25
HETATM   25  C13 UNL     1     -34.715  15.489 -52.768  1.00  0.00     0.062 C 
BRANCH  25  26
HETATM   26  N2  UNL     1     -33.573  16.065 -52.257  1.00  0.00    -0.393 N 
HETATM   27  C14 UNL     1     -32.946  15.754 -51.058  1.00  0.00     0.122 C 
HETATM   28  C15 UNL     1     -31.550  15.189 -51.385  1.00  0.00     0.020 C 
HETATM   29  C16 UNL     1     -30.709  16.368 -51.801  1.00  0.00     0.003 C 
HETATM   30  C17 UNL     1     -31.523  17.382 -52.530  1.00  0.00     0.020 C 
HETATM   31  C18 UNL     1     -32.759  16.819 -53.191  1.00  0.00     0.122 C 
ENDBRANCH  25  26
ENDBRANCH  22  25
ENDBRANCH  18  19
ENDBRANCH  17  18
ENDBRANCH   1  17
TORSDOF 8
ENDMDL
MODEL 4
REMARK VINA RESULT: -7.273013873      1.027      1.470
REMARK  8 active torsions:
REMARK  status: ('A' for Active; 'I' for Inactive)
REMARK    1  A    between atoms: O1_2  and  C2_3 
REMARK    2  A    between atoms: C6_8  and  S1_9 
REMARK    3  A    between atoms: S1_9  and  C7_10 
REMARK    4  A    between atoms: C7_10  and  C8_11 
REMARK    5  A    between atoms: C8_11  and  C9_12 
REMARK    6  A    between atoms: C9_12  and  N1_13 
REMARK    7  A    between atoms: C12_16  and  C13_17 
REMARK    8  A    between atoms: C13_17  and  N2_18 
ROOT
HETATM    1  C7  UNL     1     -37.362  11.207 -48.794  1.00  0.00     0.085 C 
ENDROOT
BRANCH   1   2
HETATM    2  S1  UNL     1     -35.850  11.905 -48.114  1.00  0.00    -0.127 SA
BRANCH   2   3
HETATM    3  C6  UNL     1     -34.455  10.849 -48.460  1.00  0.00     0.028 A 
HETATM    4  C5  UNL     1     -33.746  10.844 -49.637  1.00  0.00     0.012 A 
HETATM    5  C4  UNL     1     -33.869  11.573 -50.808  1.00  0.00     0.037 A 
HETATM    6  C22 UNL     1     -32.725   9.901 -49.572  1.00  0.00     0.064 A 
HETATM    7  C3  UNL     1     -32.997  11.351 -51.850  1.00  0.00     0.046 A 
HETATM    8  C2  UNL     1     -31.991  10.423 -51.787  1.00  0.00     0.105 A 
HETATM    9 BR1  UNL     1     -33.191  12.365 -53.435  1.00  0.00    -0.048 Br
HETATM   10  C23 UNL     1     -31.853   9.687 -50.631  1.00  0.00     0.073 A 
HETATM   11 BR2  UNL     1     -30.488   8.371 -50.434  1.00  0.00    -0.046 Br
HETATM   12  N3  UNL     1     -32.836   9.346 -48.340  1.00  0.00    -0.363 N 
HETATM   13  C21 UNL     1     -33.856   9.894 -47.666  1.00  0.00     0.107 A 
ATOM     14  H3  UNL     1     -32.227   8.613 -47.977  1.00  0.00     0.165 HD
BRANCH   8  15
HETATM   15  O1  UNL     1     -31.127  10.220 -52.848  1.00  0.00    -0.353 OA
HETATM   16  C1  UNL     1     -31.383   9.297 -53.897  1.00  0.00     0.210 C 
ENDBRANCH   8  15
ENDBRANCH   2   3
ENDBRANCH   1   2
BRANCH   1  17
HETATM   17  C8  UNL     1     -38.205  12.222 -49.538  1.00  0.00     0.055 C 
BRANCH  17  18
HETATM   18  C9  UNL     1     -37.616  13.584 -49.250  1.00  0.00     0.059 C 
BRANCH  18  19
HETATM   19  N1  UNL     1     -37.922  14.567 -50.203  1.00  0.00    -0.393 N 
HETATM   20  C10 UNL     1     -38.080  14.178 -51.546  1.00  0.00     0.122 C 
HETATM   21  C11 UNL     1     -36.682  14.170 -52.201  1.00  0.00     0.029 C 
HETATM   22  C12 UNL     1     -35.937  15.381 -51.803  1.00  0.00     0.027 C 
HETATM   23  C19 UNL     1     -36.890  16.457 -51.229  1.00  0.00     0.029 C 
HETATM   24  C20 UNL     1     -37.517  15.901 -49.971  1.00  0.00     0.122 C 
BRANCH  22  25
HETATM   25  C13 UNL     1     -34.949  15.987 -52.716  1.00  0.00     0.062 C 
BRANCH  25  26
HETATM   26  N2  UNL     1     -33.589  15.837 -52.550  1.00  0.00    -0.393 N 
HETATM   27  C14 UNL     1     -32.589  16.313 -53.386  1.00  0.00     0.122 C 
HETATM   28  C15 UNL     1     -31.761  17.345 -52.595  1.00  0.00     0.020 C 
HETATM   29  C16 UNL     1     -30.917  16.553 -51.632  1.00  0.00     0.003 C 
HETATM   30  C17 UNL     1     -31.637  15.339 -51.153  1.00  0.00     0.020 C 
HETATM   31  C18 UNL     1     -33.142  15.448 -51.226  1.00  0.00     0.122 C 
ENDBRANCH  25  26
ENDBRANCH  22  25
ENDBRANCH  18  19
ENDBRANCH  17  18
ENDBRANCH   1  17
TORSDOF 8
ENDMDL
MODEL 5
REMARK VINA RESULT: -7.270079625      1.556      2.604
REMARK  8 active torsions:
REMARK  status: ('A' for Active; 'I' for Inactive)
REMARK    1  A    between atoms: O1_2  and  C2_3 
REMARK    2  A    between atoms: C6_8  and  S1_9 
REMARK    3  A    between atoms: S1_9  and  C7_10 
REMARK    4  A    between atoms: C7_10  and  C8_11 
REMARK    5  A    between atoms: C8_11  and  C9_12 
REMARK    6  A    between atoms: C9_12  and  N1_13 
REMARK    7  A    between atoms: C12_16  and  C13_17 
REMARK    8  A    between atoms: C13_17  and  N2_18 
ROOT
HETATM    1  C7  UNL     1     -36.415  11.985 -47.675  1.00  0.00     0.085 C 
ENDROOT
BRANCH   1   2
HETATM    2  S1  UNL     1     -34.630  11.771 -47.585  1.00  0.00    -0.127 SA
BRANCH   2   3
HETATM    3  C6  UNL     1     -33.923  11.674 -49.220  1.00  0.00     0.028 A 
HETATM    4  C5  UNL     1     -33.067  10.687 -49.647  1.00  0.00     0.012 A 
HETATM    5  C4  UNL     1     -32.532   9.574 -49.022  1.00  0.00     0.037 A 
HETATM    6  C22 UNL     1     -32.708  10.915 -50.973  1.00  0.00     0.064 A 
HETATM    7  C3  UNL     1     -31.680   8.742 -49.712  1.00  0.00     0.046 A 
HETATM    8  C2  UNL     1     -31.326   8.964 -51.017  1.00  0.00     0.105 A 
HETATM    9 BR1  UNL     1     -30.967   7.229 -48.828  1.00  0.00    -0.048 Br
HETATM   10  C23 UNL     1     -31.847  10.066 -51.656  1.00  0.00     0.073 A 
HETATM   11 BR2  UNL     1     -31.423  10.471 -53.470  1.00  0.00    -0.046 Br
HETATM   12  N3  UNL     1     -33.362  12.048 -51.326  1.00  0.00    -0.363 N 
HETATM   13  C21 UNL     1     -34.088  12.513 -50.300  1.00  0.00     0.107 A 
ATOM     14  H3  UNL     1     -33.310  12.486 -52.246  1.00  0.00     0.165 HD
BRANCH   8  15
HETATM   15  O1  UNL     1     -30.468   8.111 -51.688  1.00  0.00    -0.353 OA
HETATM   16  C1  UNL     1     -30.911   6.997 -52.448  1.00  0.00     0.210 C 
ENDBRANCH   8  15
ENDBRANCH   2   3
ENDBRANCH   1   2
BRANCH   1  17
HETATM   17  C8  UNL     1     -36.826  13.324 -48.251  1.00  0.00     0.055 C 
BRANCH  17  18
HETATM   18  C9  UNL     1     -37.534  13.047 -49.557  1.00  0.00     0.059 C 
BRANCH  18  19
HETATM   19  N1  UNL     1     -37.883  14.192 -50.288  1.00  0.00    -0.393 N 
HETATM   20  C10 UNL     1     -38.065  14.075 -51.678  1.00  0.00     0.122 C 
HETATM   21  C11 UNL     1     -36.683  14.232 -52.349  1.00  0.00     0.029 C 
HETATM   22  C12 UNL     1     -35.954  15.358 -51.731  1.00  0.00     0.027 C 
HETATM   23  C19 UNL     1     -36.915  16.274 -50.936  1.00  0.00     0.029 C 
HETATM   24  C20 UNL     1     -37.499  15.464 -49.802  1.00  0.00     0.122 C 
BRANCH  22  25
HETATM   25  C13 UNL     1     -35.001  16.157 -52.525  1.00  0.00     0.062 C 
BRANCH  25  26
HETATM   26  N2  UNL     1     -33.636  15.982 -52.449  1.00  0.00    -0.393 N 
HETATM   27  C14 UNL     1     -32.694  16.356 -53.397  1.00  0.00     0.122 C 
HETATM   28  C15 UNL     1     -31.783  17.427 -52.764  1.00  0.00     0.020 C 
HETATM   29  C16 UNL     1     -30.885  16.696 -51.801  1.00  0.00     0.003 C 
HETATM   30  C17 UNL     1     -31.593  15.548 -51.166  1.00  0.00     0.020 C 
HETATM   31  C18 UNL     1     -33.097  15.695 -51.134  1.00  0.00     0.122 C 
ENDBRANCH  25  26
ENDBRANCH  22  25
ENDBRANCH  18  19
ENDBRANCH  17  18
ENDBRANCH   1  17
TORSDOF 8
ENDMDL
