MODEL 1
REMARK VINA RESULT: -11.034170739      0.000      0.000
REMARK  12 active torsions:
REMARK  status: ('A' for Active; 'I' for Inactive)
REMARK    1  A    between atoms: C2_5  and  N2_6 
REMARK    2  A    between atoms: N2_6  and  C3_8 
REMARK    3  A    between atoms: C3_8  and  C4_9 
REMARK    4  A    between atoms: C4_9  and  N3_10 
REMARK    5  A    between atoms: C6_15  and  N5_16 
REMARK    6  A    between atoms: N5_16  and  C7_18 
REMARK    7  A    between atoms: C7_18  and  C8_19 
REMARK    8  A    between atoms: C8_19  and  C9_20 
REMARK    9  A    between atoms: C9_20  and  C10_21 
REMARK   10  A    between atoms: N7_30  and  C17_32 
REMARK   11  A    between atoms: C17_32  and  C18_33 
REMARK   12  A    between atoms: C18_33  and  C19_34 
ROOT
HETATM    1  N3  UNL     1      20.833  47.947  45.111  1.00  0.00    -0.224 N 
ATOM      2  H3  UNL     1      21.440  47.919  45.929  1.00  0.00     0.177 HD
HETATM    3  C5  UNL     1      20.241  46.853  44.737  1.00  0.00     0.707 A 
HETATM    4  N4  UNL     1      20.479  45.732  45.480  1.00  0.00    -0.022 N 
ATOM      5  H4  UNL     1      21.102  45.786  46.286  1.00  0.00     0.203 HD
HETATM    6  C6  UNL     1      19.909  44.564  45.168  1.00  0.00     0.707 A 
HETATM    7  N6  UNL     1      19.080  44.450  44.112  1.00  0.00    -0.022 N 
ATOM      8  H6  UNL     1      18.646  43.557  43.877  1.00  0.00     0.203 HD
HETATM    9  C16 UNL     1      18.843  45.549  43.379  1.00  0.00     0.707 A 
HETATM   10  N7  UNL     1      18.073  45.574  42.352  1.00  0.00    -0.225 N 
ATOM     11  H7  UNL     1      17.975  46.471  41.877  1.00  0.00     0.177 HD
HETATM   12  N8  UNL     1      19.424  46.745  43.694  1.00  0.00    -0.022 N 
ATOM     13  H8  UNL     1      19.229  47.566  43.121  1.00  0.00     0.203 HD
ENDROOT
BRANCH   1  14
HETATM   14  C4  UNL     1      20.671  49.182  44.427  1.00  0.00     0.158 C 
BRANCH  14  15
HETATM   15  C3  UNL     1      22.069  49.672  44.047  1.00  0.00     0.158 C 
BRANCH  15  16
HETATM   16  N2  UNL     1      22.598  50.552  45.059  1.00  0.00    -0.224 N 
ATOM     17  H2  UNL     1      22.687  51.541  44.824  1.00  0.00     0.177 HD
BRANCH  16  18
HETATM   18  C2  UNL     1      22.966  50.184  46.238  1.00  0.00     0.680 A 
HETATM   19  N1  UNL     1      23.487  48.993  46.546  1.00  0.00    -0.154 N 
HETATM   20  C1  UNL     1      23.866  48.635  47.793  1.00  0.00     0.299 A 
ATOM     21  H1  UNL     1      23.606  48.312  45.795  1.00  0.00     0.187 HD
HETATM   22  O1  UNL     1      24.350  47.491  48.002  1.00  0.00    -0.264 OA
HETATM   23  C26 UNL     1      23.721  49.529  48.831  1.00  0.00     0.200 A 
HETATM   24  C25 UNL     1      23.184  50.758  48.521  1.00  0.00     0.154 A 
HETATM   25  F1  UNL     1      24.085  49.225  50.107  1.00  0.00    -0.199 F 
HETATM   26  N9  UNL     1      22.822  51.069  47.271  1.00  0.00    -0.199 N 
ATOM     27  H9  UNL     1      22.429  51.991  47.084  1.00  0.00     0.183 HD
ENDBRANCH  16  18
ENDBRANCH  15  16
ENDBRANCH  14  15
ENDBRANCH   1  14
BRANCH   6  28
HETATM   28  N5  UNL     1      20.139  43.487  45.881  1.00  0.00    -0.225 N 
ATOM     29  H5  UNL     1      19.345  42.951  46.230  1.00  0.00     0.177 HD
BRANCH  28  30
HETATM   30  C7  UNL     1      21.460  43.034  46.187  1.00  0.00     0.138 C 
BRANCH  30  31
HETATM   31  C8  UNL     1      22.297  42.989  44.961  1.00  0.00     0.025 C 
BRANCH  31  32
HETATM   32  C9  UNL     1      23.575  43.735  45.065  1.00  0.00     0.040 C 
BRANCH  32  33
HETATM   33  C10 UNL     1      23.604  44.866  44.110  1.00  0.00    -0.058 A 
HETATM   34  C11 UNL     1      22.786  44.756  42.986  1.00  0.00     0.007 A 
HETATM   35  C12 UNL     1      22.698  45.728  42.016  1.00  0.00     0.001 A 
HETATM   36  C13 UNL     1      23.458  46.876  42.159  1.00  0.00     0.000 A 
HETATM   37  C14 UNL     1      24.265  46.981  43.268  1.00  0.00     0.001 A 
HETATM   38  C15 UNL     1      24.346  46.001  44.236  1.00  0.00     0.007 A 
ENDBRANCH  32  33
ENDBRANCH  31  32
ENDBRANCH  30  31
ENDBRANCH  28  30
ENDBRANCH   6  28
BRANCH  10  39
HETATM   39  C17 UNL     1      17.339  44.476  41.805  1.00  0.00     0.142 C 
BRANCH  39  40
HETATM   40  C18 UNL     1      16.906  44.816  40.405  1.00  0.00     0.058 C 
BRANCH  40  41
HETATM   41  C19 UNL     1      15.794  45.793  40.352  1.00  0.00    -0.057 A 
HETATM   42  C20 UNL     1      14.545  45.386  40.758  1.00  0.00     0.007 A 
HETATM   43  C21 UNL     1      13.489  46.280  40.716  1.00  0.00     0.001 A 
HETATM   44  C22 UNL     1      13.673  47.579  40.270  1.00  0.00     0.000 A 
HETATM   45  C23 UNL     1      14.930  47.986  39.863  1.00  0.00     0.001 A 
HETATM   46  C24 UNL     1      15.976  47.100  39.904  1.00  0.00     0.007 A 
ENDBRANCH  40  41
ENDBRANCH  39  40
ENDBRANCH  10  39
TORSDOF 12
ENDMDL
MODEL 2
REMARK VINA RESULT: -10.875118957      2.429      2.770
REMARK  12 active torsions:
REMARK  status: ('A' for Active; 'I' for Inactive)
REMARK    1  A    between atoms: C2_5  and  N2_6 
REMARK    2  A    between atoms: N2_6  and  C3_8 
REMARK    3  A    between atoms: C3_8  and  C4_9 
REMARK    4  A    between atoms: C4_9  and  N3_10 
REMARK    5  A    between atoms: C6_15  and  N5_16 
REMARK    6  A    between atoms: N5_16  and  C7_18 
REMARK    7  A    between atoms: C7_18  and  C8_19 
REMARK    8  A    between atoms: C8_19  and  C9_20 
REMARK    9  A    between atoms: C9_20  and  C10_21 
REMARK   10  A    between atoms: N7_30  and  C17_32 
REMARK   11  A    between atoms: C17_32  and  C18_33 
REMARK   12  A    between atoms: C18_33  and  C19_34 
ROOT
HETATM    1  N3  UNL     1      21.382  48.525  45.117  1.00  0.00    -0.224 N 
ATOM      2  H3  UNL     1      22.041  48.522  45.895  1.00  0.00     0.177 HD
HETATM    3  C5  UNL     1      20.780  47.418  44.807  1.00  0.00     0.707 A 
HETATM    4  N4  UNL     1      21.079  46.315  45.557  1.00  0.00    -0.022 N 
ATOM      5  H4  UNL     1      21.753  46.395  46.319  1.00  0.00     0.203 HD
HETATM    6  C6  UNL     1      20.504  45.135  45.308  1.00  0.00     0.707 A 
HETATM    7  N6  UNL     1      19.611  44.989  44.310  1.00  0.00    -0.022 N 
ATOM      8  H6  UNL     1      19.173  44.086  44.123  1.00  0.00     0.203 HD
HETATM    9  C16 UNL     1      19.314  46.068  43.570  1.00  0.00     0.707 A 
HETATM   10  N7  UNL     1      18.479  46.063  42.595  1.00  0.00    -0.225 N 
ATOM     11  H7  UNL     1      18.339  46.948  42.108  1.00  0.00     0.177 HD
HETATM   12  N8  UNL     1      19.899  47.277  43.821  1.00  0.00    -0.022 N 
ATOM     13  H8  UNL     1      19.657  48.083  43.244  1.00  0.00     0.203 HD
ENDROOT
BRANCH   1  14
HETATM   14  C4  UNL     1      21.162  49.743  44.419  1.00  0.00     0.158 C 
BRANCH  14  15
HETATM   15  C3  UNL     1      22.430  50.583  44.569  1.00  0.00     0.158 C 
BRANCH  15  16
HETATM   16  N2  UNL     1      22.230  51.653  45.515  1.00  0.00    -0.224 N 
ATOM     17  H2  UNL     1      21.441  51.574  46.155  1.00  0.00     0.177 HD
BRANCH  16  18
HETATM   18  C2  UNL     1      22.975  52.700  45.611  1.00  0.00     0.680 A 
HETATM   19  N1  UNL     1      24.215  52.721  46.108  1.00  0.00    -0.154 N 
HETATM   20  C1  UNL     1      24.975  53.836  46.196  1.00  0.00     0.299 A 
ATOM     21  H1  UNL     1      24.613  51.843  46.443  1.00  0.00     0.187 HD
HETATM   22  O1  UNL     1      26.137  53.773  46.678  1.00  0.00    -0.264 OA
HETATM   23  C26 UNL     1      24.470  55.039  45.753  1.00  0.00     0.200 A 
HETATM   24  C25 UNL     1      23.192  55.025  45.239  1.00  0.00     0.154 A 
HETATM   25  F1  UNL     1      25.188  56.194  45.814  1.00  0.00    -0.199 F 
HETATM   26  N9  UNL     1      22.477  53.896  45.174  1.00  0.00    -0.199 N 
ATOM     27  H9  UNL     1      21.534  53.929  44.786  1.00  0.00     0.183 HD
ENDBRANCH  16  18
ENDBRANCH  15  16
ENDBRANCH  14  15
ENDBRANCH   1  14
BRANCH   6  28
HETATM   28  N5  UNL     1      20.793  44.076  46.027  1.00  0.00    -0.225 N 
ATOM     29  H5  UNL     1      20.392  43.994  46.961  1.00  0.00     0.177 HD
BRANCH  28  30
HETATM   30  C7  UNL     1      21.648  43.034  45.554  1.00  0.00     0.138 C 
BRANCH  30  31
HETATM   31  C8  UNL     1      23.063  43.483  45.537  1.00  0.00     0.025 C 
BRANCH  31  32
HETATM   32  C9  UNL     1      23.677  43.521  44.187  1.00  0.00     0.040 C 
BRANCH  32  33
HETATM   33  C10 UNL     1      23.727  44.908  43.670  1.00  0.00    -0.058 A 
HETATM   34  C11 UNL     1      23.000  45.168  42.509  1.00  0.00     0.007 A 
HETATM   35  C12 UNL     1      22.941  46.409  41.915  1.00  0.00     0.001 A 
HETATM   36  C13 UNL     1      23.636  47.454  42.496  1.00  0.00     0.000 A 
HETATM   37  C14 UNL     1      24.353  47.194  43.641  1.00  0.00     0.001 A 
HETATM   38  C15 UNL     1      24.406  45.947  44.230  1.00  0.00     0.007 A 
ENDBRANCH  32  33
ENDBRANCH  31  32
ENDBRANCH  30  31
ENDBRANCH  28  30
ENDBRANCH   6  28
BRANCH  10  39
HETATM   39  C17 UNL     1      17.724  44.945  42.120  1.00  0.00     0.142 C 
BRANCH  39  40
HETATM   40  C18 UNL     1      17.319  45.189  40.693  1.00  0.00     0.058 C 
BRANCH  40  41
HETATM   41  C19 UNL     1      16.057  45.953  40.559  1.00  0.00    -0.057 A 
HETATM   42  C20 UNL     1      16.112  47.221  40.029  1.00  0.00     0.007 A 
HETATM   43  C21 UNL     1      14.946  47.954  39.895  1.00  0.00     0.001 A 
HETATM   44  C22 UNL     1      13.725  47.430  40.286  1.00  0.00     0.000 A 
HETATM   45  C23 UNL     1      13.673  46.155  40.819  1.00  0.00     0.001 A 
HETATM   46  C24 UNL     1      14.827  45.428  40.952  1.00  0.00     0.007 A 
ENDBRANCH  40  41
ENDBRANCH  39  40
ENDBRANCH  10  39
TORSDOF 12
ENDMDL
MODEL 3
REMARK VINA RESULT: -10.763223111      2.576      2.954
REMARK  12 active torsions:
REMARK  status: ('A' for Active; 'I' for Inactive)
REMARK    1  A    between atoms: C2_5  and  N2_6 
REMARK    2  A    between atoms: N2_6  and  C3_8 
REMARK    3  A    between atoms: C3_8  and  C4_9 
REMARK    4  A    between atoms: C4_9  and  N3_10 
REMARK    5  A    between atoms: C6_15  and  N5_16 
REMARK    6  A    between atoms: N5_16  and  C7_18 
REMARK    7  A    between atoms: C7_18  and  C8_19 
REMARK    8  A    between atoms: C8_19  and  C9_20 
REMARK    9  A    between atoms: C9_20  and  C10_21 
REMARK   10  A    between atoms: N7_30  and  C17_32 
REMARK   11  A    between atoms: C17_32  and  C18_33 
REMARK   12  A    between atoms: C18_33  and  C19_34 
ROOT
HETATM    1  N3  UNL     1      21.367  48.376  45.162  1.00  0.00    -0.224 N 
ATOM      2  H3  UNL     1      22.028  48.346  45.938  1.00  0.00     0.177 HD
HETATM    3  C5  UNL     1      20.751  47.283  44.827  1.00  0.00     0.707 A 
HETATM    4  N4  UNL     1      21.040  46.160  45.550  1.00  0.00    -0.022 N 
ATOM      5  H4  UNL     1      21.716  46.213  46.312  1.00  0.00     0.203 HD
HETATM    6  C6  UNL     1      20.450  44.992  45.275  1.00  0.00     0.707 A 
HETATM    7  N6  UNL     1      19.552  44.880  44.278  1.00  0.00    -0.022 N 
ATOM      8  H6  UNL     1      19.104  43.987  44.071  1.00  0.00     0.203 HD
HETATM    9  C16 UNL     1      19.265  45.980  43.564  1.00  0.00     0.707 A 
HETATM   10  N7  UNL     1      18.428  46.007  42.592  1.00  0.00    -0.225 N 
ATOM     11  H7  UNL     1      18.297  46.905  42.127  1.00  0.00     0.177 HD
HETATM   12  N8  UNL     1      19.866  47.176  43.842  1.00  0.00    -0.022 N 
ATOM     13  H8  UNL     1      19.631  47.998  43.285  1.00  0.00     0.203 HD
ENDROOT
BRANCH   1  14
HETATM   14  C4  UNL     1      21.158  49.612  44.493  1.00  0.00     0.158 C 
BRANCH  14  15
HETATM   15  C3  UNL     1      22.489  50.364  44.514  1.00  0.00     0.158 C 
BRANCH  15  16
HETATM   16  N2  UNL     1      22.584  51.209  45.678  1.00  0.00    -0.224 N 
ATOM     17  H2  UNL     1      22.296  50.814  46.573  1.00  0.00     0.177 HD
BRANCH  16  18
HETATM   18  C2  UNL     1      23.006  52.427  45.672  1.00  0.00     0.680 A 
HETATM   19  N1  UNL     1      22.257  53.502  45.412  1.00  0.00    -0.154 N 
HETATM   20  C1  UNL     1      22.727  54.770  45.415  1.00  0.00     0.299 A 
ATOM     21  H1  UNL     1      21.269  53.358  45.198  1.00  0.00     0.187 HD
HETATM   22  O1  UNL     1      21.955  55.731  45.159  1.00  0.00    -0.264 OA
HETATM   23  C26 UNL     1      24.055  55.001  45.701  1.00  0.00     0.200 A 
HETATM   24  C25 UNL     1      24.834  53.898  45.970  1.00  0.00     0.154 A 
HETATM   25  F1  UNL     1      24.586  56.255  45.720  1.00  0.00    -0.199 F 
HETATM   26  N9  UNL     1      24.324  52.661  45.955  1.00  0.00    -0.199 N 
ATOM     27  H9  UNL     1      24.936  51.871  46.160  1.00  0.00     0.183 HD
ENDBRANCH  16  18
ENDBRANCH  15  16
ENDBRANCH  14  15
ENDBRANCH   1  14
BRANCH   6  28
HETATM   28  N5  UNL     1      20.729  43.914  45.968  1.00  0.00    -0.225 N 
ATOM     29  H5  UNL     1      20.258  43.770  46.861  1.00  0.00     0.177 HD
BRANCH  28  30
HETATM   30  C7  UNL     1      21.668  42.933  45.522  1.00  0.00     0.138 C 
BRANCH  30  31
HETATM   31  C8  UNL     1      23.052  43.471  45.570  1.00  0.00     0.025 C 
BRANCH  31  32
HETATM   32  C9  UNL     1      23.745  43.493  44.260  1.00  0.00     0.040 C 
BRANCH  32  33
HETATM   33  C10 UNL     1      23.754  44.861  43.691  1.00  0.00    -0.058 A 
HETATM   34  C11 UNL     1      22.979  45.068  42.551  1.00  0.00     0.007 A 
HETATM   35  C12 UNL     1      22.878  46.285  41.915  1.00  0.00     0.001 A 
HETATM   36  C13 UNL     1      23.578  47.361  42.431  1.00  0.00     0.000 A 
HETATM   37  C14 UNL     1      24.342  47.153  43.556  1.00  0.00     0.001 A 
HETATM   38  C15 UNL     1      24.437  45.929  44.187  1.00  0.00     0.007 A 
ENDBRANCH  32  33
ENDBRANCH  31  32
ENDBRANCH  30  31
ENDBRANCH  28  30
ENDBRANCH   6  28
BRANCH  10  39
HETATM   39  C17 UNL     1      17.658  44.910  42.093  1.00  0.00     0.142 C 
BRANCH  39  40
HETATM   40  C18 UNL     1      17.273  45.181  40.666  1.00  0.00     0.058 C 
BRANCH  40  41
HETATM   41  C19 UNL     1      16.012  45.946  40.530  1.00  0.00    -0.057 A 
HETATM   42  C20 UNL     1      16.065  47.204  39.978  1.00  0.00     0.007 A 
HETATM   43  C21 UNL     1      14.901  47.939  39.841  1.00  0.00     0.001 A 
HETATM   44  C22 UNL     1      13.681  47.425  40.253  1.00  0.00     0.000 A 
HETATM   45  C23 UNL     1      13.630  46.160  40.808  1.00  0.00     0.001 A 
HETATM   46  C24 UNL     1      14.784  45.432  40.944  1.00  0.00     0.007 A 
ENDBRANCH  40  41
ENDBRANCH  39  40
ENDBRANCH  10  39
TORSDOF 12
ENDMDL
MODEL 4
REMARK VINA RESULT: -10.589412626      2.382      7.501
REMARK  12 active torsions:
REMARK  status: ('A' for Active; 'I' for Inactive)
REMARK    1  A    between atoms: C2_5  and  N2_6 
REMARK    2  A    between atoms: N2_6  and  C3_8 
REMARK    3  A    between atoms: C3_8  and  C4_9 
REMARK    4  A    between atoms: C4_9  and  N3_10 
REMARK    5  A    between atoms: C6_15  and  N5_16 
REMARK    6  A    between atoms: N5_16  and  C7_18 
REMARK    7  A    between atoms: C7_18  and  C8_19 
REMARK    8  A    between atoms: C8_19  and  C9_20 
REMARK    9  A    between atoms: C9_20  and  C10_21 
REMARK   10  A    between atoms: N7_30  and  C17_32 
REMARK   11  A    between atoms: C17_32  and  C18_33 
REMARK   12  A    between atoms: C18_33  and  C19_34 
ROOT
HETATM    1  N3  UNL     1      20.710  42.618  45.609  1.00  0.00    -0.224 N 
ATOM      2  H3  UNL     1      20.232  41.729  45.469  1.00  0.00     0.177 HD
HETATM    3  C5  UNL     1      20.156  43.702  45.156  1.00  0.00     0.707 A 
HETATM    4  N4  UNL     1      18.957  43.566  44.516  1.00  0.00    -0.022 N 
ATOM      5  H4  UNL     1      18.544  42.639  44.415  1.00  0.00     0.203 HD
HETATM    6  C6  UNL     1      18.315  44.629  44.020  1.00  0.00     0.707 A 
HETATM    7  N6  UNL     1      18.828  45.870  44.133  1.00  0.00    -0.022 N 
ATOM      8  H6  UNL     1      18.335  46.679  43.753  1.00  0.00     0.203 HD
HETATM    9  C16 UNL     1      20.006  46.008  44.759  1.00  0.00     0.707 A 
HETATM   10  N7  UNL     1      20.598  47.134  44.934  1.00  0.00    -0.225 N 
ATOM     11  H7  UNL     1      21.492  47.108  45.426  1.00  0.00     0.177 HD
HETATM   12  N8  UNL     1      20.665  44.924  45.268  1.00  0.00    -0.022 N 
ATOM     13  H8  UNL     1      21.560  45.055  45.740  1.00  0.00     0.203 HD
ENDROOT
BRANCH   1  14
HETATM   14  C4  UNL     1      21.956  42.620  46.293  1.00  0.00     0.158 C 
BRANCH  14  15
HETATM   15  C3  UNL     1      23.052  42.530  45.230  1.00  0.00     0.158 C 
BRANCH  15  16
HETATM   16  N2  UNL     1      23.884  43.706  45.248  1.00  0.00    -0.224 N 
ATOM     17  H2  UNL     1      24.590  43.774  45.981  1.00  0.00     0.177 HD
BRANCH  16  18
HETATM   18  C2  UNL     1      23.803  44.679  44.406  1.00  0.00     0.680 A 
HETATM   19  N1  UNL     1      23.240  44.607  43.197  1.00  0.00    -0.154 N 
HETATM   20  C1  UNL     1      23.168  45.647  42.334  1.00  0.00     0.299 A 
ATOM     21  H1  UNL     1      22.841  43.715  42.905  1.00  0.00     0.187 HD
HETATM   22  O1  UNL     1      22.620  45.498  41.210  1.00  0.00    -0.264 OA
HETATM   23  C26 UNL     1      23.696  46.866  42.695  1.00  0.00     0.200 A 
HETATM   24  C25 UNL     1      24.279  46.948  43.940  1.00  0.00     0.154 A 
HETATM   25  F1  UNL     1      23.653  47.949  41.870  1.00  0.00    -0.199 F 
HETATM   26  N9  UNL     1      24.328  45.892  44.760  1.00  0.00    -0.199 N 
ATOM     27  H9  UNL     1      24.768  45.994  45.674  1.00  0.00     0.183 HD
ENDBRANCH  16  18
ENDBRANCH  15  16
ENDBRANCH  14  15
ENDBRANCH   1  14
BRANCH   6  28
HETATM   28  N5  UNL     1      17.164  44.498  43.404  1.00  0.00    -0.225 N 
ATOM     29  H5  UNL     1      16.386  45.092  43.690  1.00  0.00     0.177 HD
BRANCH  28  30
HETATM   30  C7  UNL     1      16.958  43.556  42.350  1.00  0.00     0.138 C 
BRANCH  30  31
HETATM   31  C8  UNL     1      16.992  44.233  41.028  1.00  0.00     0.025 C 
BRANCH  31  32
HETATM   32  C9  UNL     1      16.999  45.714  41.098  1.00  0.00     0.040 C 
BRANCH  32  33
HETATM   33  C10 UNL     1      15.671  46.266  40.744  1.00  0.00    -0.058 A 
HETATM   34  C11 UNL     1      15.663  47.455  40.016  1.00  0.00     0.007 A 
HETATM   35  C12 UNL     1      14.509  48.083  39.605  1.00  0.00     0.001 A 
HETATM   36  C13 UNL     1      13.292  47.508  39.929  1.00  0.00     0.000 A 
HETATM   37  C14 UNL     1      13.304  46.335  40.647  1.00  0.00     0.001 A 
HETATM   38  C15 UNL     1      14.467  45.713  41.054  1.00  0.00     0.007 A 
ENDBRANCH  32  33
ENDBRANCH  31  32
ENDBRANCH  30  31
ENDBRANCH  28  30
ENDBRANCH   6  28
BRANCH  10  39
HETATM   39  C17 UNL     1      20.136  48.419  44.512  1.00  0.00     0.142 C 
BRANCH  39  40
HETATM   40  C18 UNL     1      21.285  49.192  43.925  1.00  0.00     0.058 C 
BRANCH  40  41
HETATM   41  C19 UNL     1      22.072  49.938  44.933  1.00  0.00    -0.057 A 
HETATM   42  C20 UNL     1      22.288  51.282  44.732  1.00  0.00     0.007 A 
HETATM   43  C21 UNL     1      23.022  52.000  45.659  1.00  0.00     0.001 A 
HETATM   44  C22 UNL     1      23.542  51.385  46.787  1.00  0.00     0.000 A 
HETATM   45  C23 UNL     1      23.324  50.036  46.986  1.00  0.00     0.001 A 
HETATM   46  C24 UNL     1      22.598  49.323  46.067  1.00  0.00     0.007 A 
ENDBRANCH  40  41
ENDBRANCH  39  40
ENDBRANCH  10  39
TORSDOF 12
ENDMDL
MODEL 5
REMARK VINA RESULT: -10.360504532      3.551      8.337
REMARK  12 active torsions:
REMARK  status: ('A' for Active; 'I' for Inactive)
REMARK    1  A    between atoms: C2_5  and  N2_6 
REMARK    2  A    between atoms: N2_6  and  C3_8 
REMARK    3  A    between atoms: C3_8  and  C4_9 
REMARK    4  A    between atoms: C4_9  and  N3_10 
REMARK    5  A    between atoms: C6_15  and  N5_16 
REMARK    6  A    between atoms: N5_16  and  C7_18 
REMARK    7  A    between atoms: C7_18  and  C8_19 
REMARK    8  A    between atoms: C8_19  and  C9_20 
REMARK    9  A    between atoms: C9_20  and  C10_21 
REMARK   10  A    between atoms: N7_30  and  C17_32 
REMARK   11  A    between atoms: C17_32  and  C18_33 
REMARK   12  A    between atoms: C18_33  and  C19_34 
ROOT
HETATM    1  N3  UNL     1      17.657  44.820  43.874  1.00  0.00    -0.224 N 
ATOM      2  H3  UNL     1      17.018  45.603  43.733  1.00  0.00     0.177 HD
HETATM    3  C5  UNL     1      18.865  45.069  44.279  1.00  0.00     0.707 A 
HETATM    4  N4  UNL     1      19.195  46.379  44.487  1.00  0.00    -0.022 N 
ATOM      5  H4  UNL     1      18.497  47.104  44.320  1.00  0.00     0.203 HD
HETATM    6  C6  UNL     1      20.416  46.725  44.906  1.00  0.00     0.707 A 
HETATM    7  N6  UNL     1      21.365  45.797  45.137  1.00  0.00    -0.022 N 
ATOM      8  H6  UNL     1      22.296  46.065  45.457  1.00  0.00     0.203 HD
HETATM    9  C16 UNL     1      21.047  44.509  44.933  1.00  0.00     0.707 A 
HETATM   10  N7  UNL     1      21.857  43.532  45.119  1.00  0.00    -0.225 N 
ATOM     11  H7  UNL     1      21.497  42.597  44.928  1.00  0.00     0.177 HD
HETATM   12  N8  UNL     1      19.799  44.151  44.505  1.00  0.00    -0.022 N 
ATOM     13  H8  UNL     1      19.582  43.166  44.357  1.00  0.00     0.203 HD
ENDROOT
BRANCH   1  14
HETATM   14  C4  UNL     1      17.186  43.504  43.621  1.00  0.00     0.158 C 
BRANCH  14  15
HETATM   15  C3  UNL     1      16.894  43.412  42.123  1.00  0.00     0.158 C 
BRANCH  15  16
HETATM   16  N2  UNL     1      15.584  43.933  41.821  1.00  0.00    -0.224 N 
ATOM     17  H2  UNL     1      14.778  43.380  42.111  1.00  0.00     0.177 HD
BRANCH  16  18
HETATM   18  C2  UNL     1      15.356  45.045  41.211  1.00  0.00     0.680 A 
HETATM   19  N1  UNL     1      14.148  45.581  41.012  1.00  0.00    -0.154 N 
HETATM   20  C1  UNL     1      13.939  46.753  40.370  1.00  0.00     0.299 A 
ATOM     21  H1  UNL     1      13.335  45.077  41.365  1.00  0.00     0.187 HD
HETATM   22  O1  UNL     1      12.768  47.192  40.222  1.00  0.00    -0.264 OA
HETATM   23  C26 UNL     1      15.014  47.462  39.881  1.00  0.00     0.200 A 
HETATM   24  C25 UNL     1      16.262  46.915  40.082  1.00  0.00     0.154 A 
HETATM   25  F1  UNL     1      14.866  48.646  39.227  1.00  0.00    -0.199 F 
HETATM   26  N9  UNL     1      16.421  45.752  40.723  1.00  0.00    -0.199 N 
ATOM     27  H9  UNL     1      17.362  45.381  40.852  1.00  0.00     0.183 HD
ENDBRANCH  16  18
ENDBRANCH  15  16
ENDBRANCH  14  15
ENDBRANCH   1  14
BRANCH   6  28
HETATM   28  N5  UNL     1      20.732  47.983  45.103  1.00  0.00    -0.225 N 
ATOM     29  H5  UNL     1      20.719  48.347  46.056  1.00  0.00     0.177 HD
BRANCH  28  30
HETATM   30  C7  UNL     1      21.094  48.862  44.037  1.00  0.00     0.138 C 
BRANCH  30  31
HETATM   31  C8  UNL     1      21.620  50.145  44.570  1.00  0.00     0.025 C 
BRANCH  31  32
HETATM   32  C9  UNL     1      23.071  50.132  44.878  1.00  0.00     0.040 C 
BRANCH  32  33
HETATM   33  C10 UNL     1      23.307  49.736  46.285  1.00  0.00    -0.058 A 
HETATM   34  C11 UNL     1      23.178  50.737  47.246  1.00  0.00     0.007 A 
HETATM   35  C12 UNL     1      23.357  50.521  48.594  1.00  0.00     0.001 A 
HETATM   36  C13 UNL     1      23.681  49.246  49.021  1.00  0.00     0.000 A 
HETATM   37  C14 UNL     1      23.809  48.260  48.071  1.00  0.00     0.001 A 
HETATM   38  C15 UNL     1      23.627  48.486  46.722  1.00  0.00     0.007 A 
ENDBRANCH  32  33
ENDBRANCH  31  32
ENDBRANCH  30  31
ENDBRANCH  28  30
ENDBRANCH   6  28
BRANCH  10  39
HETATM   39  C17 UNL     1      23.213  43.616  45.565  1.00  0.00     0.142 C 
BRANCH  39  40
HETATM   40  C18 UNL     1      24.128  43.665  44.372  1.00  0.00     0.058 C 
BRANCH  40  41
HETATM   41  C19 UNL     1      23.966  44.889  43.555  1.00  0.00    -0.057 A 
HETATM   42  C20 UNL     1      24.522  46.061  44.013  1.00  0.00     0.007 A 
HETATM   43  C21 UNL     1      24.384  47.218  43.268  1.00  0.00     0.001 A 
HETATM   44  C22 UNL     1      23.694  47.214  42.066  1.00  0.00     0.000 A 
HETATM   45  C23 UNL     1      23.136  46.035  41.608  1.00  0.00     0.001 A 
HETATM   46  C24 UNL     1      23.273  44.888  42.346  1.00  0.00     0.007 A 
ENDBRANCH  40  41
ENDBRANCH  39  40
ENDBRANCH  10  39
TORSDOF 12
ENDMDL
