MODEL 1
REMARK VINA RESULT: -9.296685820      0.000      0.000
REMARK  13 active torsions:
REMARK  status: ('A' for Active; 'I' for Inactive)
REMARK    1  A    between atoms: C2_2  and  C3_4 
REMARK    2  A    between atoms: C3_4  and  C4_5 
REMARK    3  A    between atoms: C4_5  and  C5_6 
REMARK    4  A    between atoms: N3_12  and  C8_13 
REMARK    5  A    between atoms: C8_13  and  C9_14 
REMARK    6  A    between atoms: C9_14  and  N4_15 
REMARK    7  A    between atoms: N4_15  and  C10_17 
REMARK    8  A    between atoms: C11_20  and  N6_21 
REMARK    9  A    between atoms: N6_21  and  C12_23 
REMARK   10  A    between atoms: C12_23  and  C13_24 
REMARK   11  A    between atoms: C19_32  and  N8_33 
REMARK   12  A    between atoms: N8_33  and  C20_35 
REMARK   13  A    between atoms: C20_35  and  C21_36 
ROOT
HETATM    1  C10 UNL     1      20.458  44.561  44.376  1.00  0.00     0.707 A 
HETATM    2  N5  UNL     1      20.440  45.781  44.932  1.00  0.00    -0.022 N 
ATOM      3  H5  UNL     1      20.971  45.962  45.784  1.00  0.00     0.203 HD
HETATM    4  C11 UNL     1      19.711  46.781  44.357  1.00  0.00     0.707 A 
HETATM    5  N7  UNL     1      19.019  46.528  43.236  1.00  0.00    -0.022 N 
ATOM      6  H7  UNL     1      18.472  47.269  42.797  1.00  0.00     0.203 HD
HETATM    7  C19 UNL     1      19.043  45.307  42.691  1.00  0.00     0.707 A 
HETATM    8  N9  UNL     1      19.751  44.309  43.236  1.00  0.00    -0.022 N 
ATOM      9  H9  UNL     1      19.761  43.383  42.808  1.00  0.00     0.203 HD
ENDROOT
BRANCH   1  10
HETATM   10  N4  UNL     1      21.155  43.616  44.910  1.00  0.00    -0.224 N 
ATOM     11  H4  UNL     1      20.686  42.757  45.196  1.00  0.00     0.177 HD
BRANCH  10  12
HETATM   12  C9  UNL     1      22.577  43.737  45.114  1.00  0.00     0.158 C 
BRANCH  12  13
HETATM   13  C8  UNL     1      23.325  43.700  43.792  1.00  0.00     0.148 C 
BRANCH  13  14
HETATM   14  N3  UNL     1      23.592  45.067  43.369  1.00  0.00    -0.326 N 
HETATM   15  C5  UNL     1      24.364  46.040  44.099  1.00  0.00     0.107 C 
HETATM   16  C6  UNL     1      24.805  47.008  43.055  1.00  0.00     0.149 C 
HETATM   17  N2  UNL     1      23.768  46.968  42.057  1.00  0.00    -0.341 N 
HETATM   18  C7  UNL     1      23.151  45.694  42.173  1.00  0.00     0.318 C 
ATOM     19  H2  UNL     1      23.525  47.707  41.398  1.00  0.00     0.164 HD
HETATM   20  O1  UNL     1      22.341  45.168  41.369  1.00  0.00    -0.247 OA
BRANCH  15  21
HETATM   21  C4  UNL     1      23.476  46.644  45.169  1.00  0.00     0.032 C 
BRANCH  21  22
HETATM   22  C3  UNL     1      24.239  47.539  46.079  1.00  0.00     0.055 C 
BRANCH  22  23
HETATM   23  C2  UNL     1      23.366  48.048  47.154  1.00  0.00     0.015 C 
HETATM   24  C1  UNL     1      23.868  48.757  48.125  1.00  0.00     0.035 C 
HETATM   25  N1  UNL     1      21.994  47.756  47.105  1.00  0.00    -0.108 NA
ENDBRANCH  22  23
ENDBRANCH  21  22
ENDBRANCH  15  21
ENDBRANCH  13  14
ENDBRANCH  12  13
ENDBRANCH  10  12
ENDBRANCH   1  10
BRANCH   4  26
HETATM   26  N6  UNL     1      19.733  47.936  44.938  1.00  0.00    -0.221 N 
ATOM     27  H6  UNL     1      19.668  48.009  45.954  1.00  0.00     0.178 HD
BRANCH  26  28
HETATM   28  C12 UNL     1      19.849  49.108  44.132  1.00  0.00     0.176 C 
BRANCH  28  29
HETATM   29  C13 UNL     1      21.104  49.866  44.384  1.00  0.00    -0.040 A 
HETATM   30  C14 UNL     1      22.326  49.550  43.865  1.00  0.00     0.009 A 
HETATM   31  C15 UNL     1      23.448  50.322  44.151  1.00  0.00     0.001 A 
HETATM   32  C16 UNL     1      23.330  51.425  44.966  1.00  0.00     0.000 A 
HETATM   33  C17 UNL     1      22.092  51.765  45.503  1.00  0.00     0.001 A 
HETATM   34  C18 UNL     1      21.013  50.977  45.198  1.00  0.00     0.009 A 
ENDBRANCH  28  29
ENDBRANCH  26  28
ENDBRANCH   4  26
BRANCH   7  35
HETATM   35  N8  UNL     1      18.381  45.085  41.625  1.00  0.00    -0.221 N 
ATOM     36  H8  UNL     1      18.835  45.398  40.766  1.00  0.00     0.178 HD
BRANCH  35  37
HETATM   37  C20 UNL     1      17.121  44.476  41.443  1.00  0.00     0.179 C 
BRANCH  37  38
HETATM   38  C21 UNL     1      16.113  45.472  40.960  1.00  0.00    -0.001 A 
HETATM   39  C22 UNL     1      16.460  46.704  40.450  1.00  0.00     0.012 A 
HETATM   40  C23 UNL     1      15.526  47.616  40.012  1.00  0.00     0.001 A 
HETATM   41  C24 UNL     1      14.187  47.288  40.086  1.00  0.00     0.003 A 
HETATM   42  C25 UNL     1      13.806  46.052  40.596  1.00  0.00     0.043 A 
HETATM   43  C26 UNL     1      14.755  45.167  41.021  1.00  0.00     0.124 A 
HETATM   44  F1  UNL     1      14.382  43.967  41.510  1.00  0.00    -0.205 F 
ENDBRANCH  37  38
ENDBRANCH  35  37
ENDBRANCH   7  35
TORSDOF 13
ENDMDL
MODEL 2
REMARK VINA RESULT: -9.153617112      1.515      5.928
REMARK  13 active torsions:
REMARK  status: ('A' for Active; 'I' for Inactive)
REMARK    1  A    between atoms: C2_2  and  C3_4 
REMARK    2  A    between atoms: C3_4  and  C4_5 
REMARK    3  A    between atoms: C4_5  and  C5_6 
REMARK    4  A    between atoms: N3_12  and  C8_13 
REMARK    5  A    between atoms: C8_13  and  C9_14 
REMARK    6  A    between atoms: C9_14  and  N4_15 
REMARK    7  A    between atoms: N4_15  and  C10_17 
REMARK    8  A    between atoms: C11_20  and  N6_21 
REMARK    9  A    between atoms: N6_21  and  C12_23 
REMARK   10  A    between atoms: C12_23  and  C13_24 
REMARK   11  A    between atoms: C19_32  and  N8_33 
REMARK   12  A    between atoms: N8_33  and  C20_35 
REMARK   13  A    between atoms: C20_35  and  C21_36 
ROOT
HETATM    1  C10 UNL     1      20.441  44.546  44.397  1.00  0.00     0.707 A 
HETATM    2  N5  UNL     1      19.699  44.294  43.309  1.00  0.00    -0.022 N 
ATOM      3  H5  UNL     1      19.680  43.356  42.910  1.00  0.00     0.203 HD
HETATM    4  C11 UNL     1      18.969  45.294  42.737  1.00  0.00     0.707 A 
HETATM    5  N7  UNL     1      19.002  46.523  43.274  1.00  0.00    -0.022 N 
ATOM      6  H7  UNL     1      18.459  47.277  42.854  1.00  0.00     0.203 HD
HETATM    7  C19 UNL     1      19.747  46.763  44.359  1.00  0.00     0.707 A 
HETATM    8  N9  UNL     1      20.472  45.799  44.940  1.00  0.00    -0.022 N 
ATOM      9  H9  UNL     1      21.035  45.995  45.767  1.00  0.00     0.203 HD
ENDROOT
BRANCH   1  10
HETATM   10  N4  UNL     1      21.123  43.601  44.948  1.00  0.00    -0.224 N 
ATOM     11  H4  UNL     1      20.661  42.716  45.161  1.00  0.00     0.177 HD
BRANCH  10  12
HETATM   12  C9  UNL     1      22.519  43.755  45.273  1.00  0.00     0.158 C 
BRANCH  12  13
HETATM   13  C8  UNL     1      23.390  43.607  44.037  1.00  0.00     0.148 C 
BRANCH  13  14
HETATM   14  N3  UNL     1      23.776  44.934  43.578  1.00  0.00    -0.326 N 
HETATM   15  C5  UNL     1      24.511  45.909  44.342  1.00  0.00     0.107 C 
HETATM   16  C6  UNL     1      25.119  46.793  43.307  1.00  0.00     0.149 C 
HETATM   17  N2  UNL     1      24.202  46.745  42.198  1.00  0.00    -0.341 N 
HETATM   18  C7  UNL     1      23.509  45.511  42.308  1.00  0.00     0.318 C 
ATOM     19  H2  UNL     1      24.076  47.455  41.478  1.00  0.00     0.164 HD
HETATM   20  O1  UNL     1      22.768  44.978  41.443  1.00  0.00    -0.247 OA
BRANCH  15  21
HETATM   21  C4  UNL     1      23.541  46.616  45.268  1.00  0.00     0.032 C 
BRANCH  21  22
HETATM   22  C3  UNL     1      24.237  47.566  46.175  1.00  0.00     0.055 C 
BRANCH  22  23
HETATM   23  C2  UNL     1      23.286  48.148  47.140  1.00  0.00     0.015 C 
HETATM   24  C1  UNL     1      23.682  49.062  47.980  1.00  0.00     0.035 C 
HETATM   25  N1  UNL     1      21.955  47.702  47.130  1.00  0.00    -0.108 NA
ENDBRANCH  22  23
ENDBRANCH  21  22
ENDBRANCH  15  21
ENDBRANCH  13  14
ENDBRANCH  12  13
ENDBRANCH  10  12
ENDBRANCH   1  10
BRANCH   4  26
HETATM   26  N6  UNL     1      18.272  44.992  41.689  1.00  0.00    -0.221 N 
ATOM     27  H6  UNL     1      18.683  45.050  40.757  1.00  0.00     0.178 HD
BRANCH  26  28
HETATM   28  C12 UNL     1      16.919  44.575  41.862  1.00  0.00     0.176 C 
BRANCH  28  29
HETATM   29  C13 UNL     1      15.940  45.492  41.220  1.00  0.00    -0.040 A 
HETATM   30  C14 UNL     1      14.583  45.364  41.293  1.00  0.00     0.009 A 
HETATM   31  C15 UNL     1      13.741  46.276  40.664  1.00  0.00     0.001 A 
HETATM   32  C16 UNL     1      14.279  47.328  39.958  1.00  0.00     0.000 A 
HETATM   33  C17 UNL     1      15.660  47.479  39.873  1.00  0.00     0.001 A 
HETATM   34  C18 UNL     1      16.453  46.557  40.507  1.00  0.00     0.009 A 
ENDBRANCH  28  29
ENDBRANCH  26  28
ENDBRANCH   4  26
BRANCH   7  35
HETATM   35  N8  UNL     1      19.766  47.936  44.857  1.00  0.00    -0.221 N 
ATOM     36  H8  UNL     1      19.791  47.968  45.877  1.00  0.00     0.178 HD
BRANCH  35  37
HETATM   37  C20 UNL     1      19.757  49.197  44.224  1.00  0.00     0.179 C 
BRANCH  37  38
HETATM   38  C21 UNL     1      21.041  49.925  44.470  1.00  0.00    -0.001 A 
HETATM   39  C22 UNL     1      21.135  51.021  45.301  1.00  0.00     0.012 A 
HETATM   40  C23 UNL     1      22.320  51.689  45.518  1.00  0.00     0.001 A 
HETATM   41  C24 UNL     1      23.461  51.247  44.881  1.00  0.00     0.003 A 
HETATM   42  C25 UNL     1      23.398  50.143  44.037  1.00  0.00     0.043 A 
HETATM   43  C26 UNL     1      22.210  49.501  43.841  1.00  0.00     0.124 A 
HETATM   44  F1  UNL     1      22.153  48.428  43.027  1.00  0.00    -0.205 F 
ENDBRANCH  37  38
ENDBRANCH  35  37
ENDBRANCH   7  35
TORSDOF 13
ENDMDL
MODEL 3
REMARK VINA RESULT: -9.027203133      1.706      3.944
REMARK  13 active torsions:
REMARK  status: ('A' for Active; 'I' for Inactive)
REMARK    1  A    between atoms: C2_2  and  C3_4 
REMARK    2  A    between atoms: C3_4  and  C4_5 
REMARK    3  A    between atoms: C4_5  and  C5_6 
REMARK    4  A    between atoms: N3_12  and  C8_13 
REMARK    5  A    between atoms: C8_13  and  C9_14 
REMARK    6  A    between atoms: C9_14  and  N4_15 
REMARK    7  A    between atoms: N4_15  and  C10_17 
REMARK    8  A    between atoms: C11_20  and  N6_21 
REMARK    9  A    between atoms: N6_21  and  C12_23 
REMARK   10  A    between atoms: C12_23  and  C13_24 
REMARK   11  A    between atoms: C19_32  and  N8_33 
REMARK   12  A    between atoms: N8_33  and  C20_35 
REMARK   13  A    between atoms: C20_35  and  C21_36 
ROOT
HETATM    1  C10 UNL     1      19.059  46.082  43.624  1.00  0.00     0.707 A 
HETATM    2  N5  UNL     1      19.526  45.183  44.503  1.00  0.00    -0.022 N 
ATOM      3  H5  UNL     1      20.141  45.481  45.260  1.00  0.00     0.203 HD
HETATM    4  C11 UNL     1      19.178  43.870  44.384  1.00  0.00     0.707 A 
HETATM    5  N7  UNL     1      18.367  43.492  43.384  1.00  0.00    -0.022 N 
ATOM      6  H7  UNL     1      18.099  42.513  43.288  1.00  0.00     0.203 HD
HETATM    7  C19 UNL     1      17.907  44.397  42.513  1.00  0.00     0.707 A 
HETATM    8  N9  UNL     1      18.235  45.692  42.608  1.00  0.00    -0.022 N 
ATOM      9  H9  UNL     1      17.876  46.372  41.936  1.00  0.00     0.203 HD
ENDROOT
BRANCH   1  10
HETATM   10  N4  UNL     1      19.376  47.326  43.739  1.00  0.00    -0.224 N 
ATOM     11  H4  UNL     1      19.130  47.971  42.988  1.00  0.00     0.177 HD
BRANCH  10  12
HETATM   12  C9  UNL     1      20.068  47.835  44.897  1.00  0.00     0.158 C 
BRANCH  12  13
HETATM   13  C8  UNL     1      21.040  48.938  44.515  1.00  0.00     0.148 C 
BRANCH  13  14
HETATM   14  N3  UNL     1      22.395  48.479  44.785  1.00  0.00    -0.326 N 
HETATM   15  C5  UNL     1      22.859  47.903  46.021  1.00  0.00     0.107 C 
HETATM   16  C6  UNL     1      24.062  47.117  45.623  1.00  0.00     0.149 C 
HETATM   17  N2  UNL     1      24.591  47.811  44.479  1.00  0.00    -0.341 N 
HETATM   18  C7  UNL     1      23.501  48.508  43.894  1.00  0.00     0.318 C 
ATOM     19  H2  UNL     1      25.558  47.804  44.153  1.00  0.00     0.164 HD
HETATM   20  O1  UNL     1      23.476  49.072  42.771  1.00  0.00    -0.247 OA
BRANCH  15  21
HETATM   21  C4  UNL     1      23.150  49.032  46.990  1.00  0.00     0.032 C 
BRANCH  21  22
HETATM   22  C3  UNL     1      23.771  48.534  48.247  1.00  0.00     0.055 C 
BRANCH  22  23
HETATM   23  C2  UNL     1      23.258  49.285  49.408  1.00  0.00     0.015 C 
HETATM   24  C1  UNL     1      23.582  50.536  49.574  1.00  0.00     0.035 C 
HETATM   25  N1  UNL     1      22.417  48.628  50.319  1.00  0.00    -0.108 NA
ENDBRANCH  22  23
ENDBRANCH  21  22
ENDBRANCH  15  21
ENDBRANCH  13  14
ENDBRANCH  12  13
ENDBRANCH  10  12
ENDBRANCH   1  10
BRANCH   4  26
HETATM   26  N6  UNL     1      19.659  43.049  45.262  1.00  0.00    -0.221 N 
ATOM     27  H6  UNL     1      19.221  42.141  45.419  1.00  0.00     0.178 HD
BRANCH  26  28
HETATM   28  C12 UNL     1      20.812  43.439  46.005  1.00  0.00     0.176 C 
BRANCH  28  29
HETATM   29  C13 UNL     1      21.996  43.708  45.145  1.00  0.00    -0.040 A 
HETATM   30  C14 UNL     1      21.972  44.428  43.985  1.00  0.00     0.009 A 
HETATM   31  C15 UNL     1      23.133  44.636  43.246  1.00  0.00     0.001 A 
HETATM   32  C16 UNL     1      24.327  44.113  43.687  1.00  0.00     0.000 A 
HETATM   33  C17 UNL     1      24.373  43.379  44.868  1.00  0.00     0.001 A 
HETATM   34  C18 UNL     1      23.207  43.196  45.565  1.00  0.00     0.009 A 
ENDBRANCH  28  29
ENDBRANCH  26  28
ENDBRANCH   4  26
BRANCH   7  35
HETATM   35  N8  UNL     1      17.137  44.021  41.570  1.00  0.00    -0.221 N 
ATOM     36  H8  UNL     1      16.568  43.201  41.782  1.00  0.00     0.178 HD
BRANCH  35  37
HETATM   37  C20 UNL     1      16.944  44.559  40.279  1.00  0.00     0.179 C 
BRANCH  37  38
HETATM   38  C21 UNL     1      15.874  45.605  40.293  1.00  0.00    -0.001 A 
HETATM   39  C22 UNL     1      16.107  46.922  39.957  1.00  0.00     0.012 A 
HETATM   40  C23 UNL     1      15.117  47.879  39.977  1.00  0.00     0.001 A 
HETATM   41  C24 UNL     1      13.840  47.511  40.348  1.00  0.00     0.003 A 
HETATM   42  C25 UNL     1      13.574  46.190  40.691  1.00  0.00     0.043 A 
HETATM   43  C26 UNL     1      14.574  45.263  40.662  1.00  0.00     0.124 A 
HETATM   44  F1  UNL     1      14.312  43.981  40.991  1.00  0.00    -0.205 F 
ENDBRANCH  37  38
ENDBRANCH  35  37
ENDBRANCH   7  35
TORSDOF 13
ENDMDL
MODEL 4
REMARK VINA RESULT: -8.939131203      3.183      7.092
REMARK  13 active torsions:
REMARK  status: ('A' for Active; 'I' for Inactive)
REMARK    1  A    between atoms: C2_2  and  C3_4 
REMARK    2  A    between atoms: C3_4  and  C4_5 
REMARK    3  A    between atoms: C4_5  and  C5_6 
REMARK    4  A    between atoms: N3_12  and  C8_13 
REMARK    5  A    between atoms: C8_13  and  C9_14 
REMARK    6  A    between atoms: C9_14  and  N4_15 
REMARK    7  A    between atoms: N4_15  and  C10_17 
REMARK    8  A    between atoms: C11_20  and  N6_21 
REMARK    9  A    between atoms: N6_21  and  C12_23 
REMARK   10  A    between atoms: C12_23  and  C13_24 
REMARK   11  A    between atoms: C19_32  and  N8_33 
REMARK   12  A    between atoms: N8_33  and  C20_35 
REMARK   13  A    between atoms: C20_35  and  C21_36 
ROOT
HETATM    1  C10 UNL     1      21.066  49.687  44.618  1.00  0.00     0.707 A 
HETATM    2  N5  UNL     1      21.426  50.977  44.698  1.00  0.00    -0.022 N 
ATOM      3  H5  UNL     1      20.781  51.706  44.393  1.00  0.00     0.203 HD
HETATM    4  C11 UNL     1      22.654  51.313  45.187  1.00  0.00     0.707 A 
HETATM    5  N7  UNL     1      23.491  50.343  45.585  1.00  0.00    -0.022 N 
ATOM      6  H7  UNL     1      24.411  50.585  45.953  1.00  0.00     0.203 HD
HETATM    7  C19 UNL     1      23.123  49.060  45.500  1.00  0.00     0.707 A 
HETATM    8  N9  UNL     1      21.923  48.704  45.024  1.00  0.00    -0.022 N 
ATOM      9  H9  UNL     1      21.655  47.722  44.966  1.00  0.00     0.203 HD
ENDROOT
BRANCH   1  10
HETATM   10  N4  UNL     1      19.902  49.365  44.168  1.00  0.00    -0.224 N 
ATOM     11  H4  UNL     1      19.352  50.068  43.674  1.00  0.00     0.177 HD
BRANCH  10  12
HETATM   12  C9  UNL     1      19.354  48.044  44.341  1.00  0.00     0.158 C 
BRANCH  12  13
HETATM   13  C8  UNL     1      20.231  46.995  43.677  1.00  0.00     0.148 C 
BRANCH  13  14
HETATM   14  N3  UNL     1      20.034  45.724  44.358  1.00  0.00    -0.326 N 
HETATM   15  C5  UNL     1      19.470  44.534  43.775  1.00  0.00     0.107 C 
HETATM   16  C6  UNL     1      19.992  43.430  44.631  1.00  0.00     0.149 C 
HETATM   17  N2  UNL     1      20.171  44.027  45.929  1.00  0.00    -0.341 N 
HETATM   18  C7  UNL     1      20.356  45.417  45.707  1.00  0.00     0.318 C 
ATOM     19  H2  UNL     1      20.165  43.546  46.828  1.00  0.00     0.164 HD
HETATM   20  O1  UNL     1      20.745  46.273  46.542  1.00  0.00    -0.247 OA
BRANCH  15  21
HETATM   21  C4  UNL     1      17.960  44.668  43.789  1.00  0.00     0.032 C 
BRANCH  21  22
HETATM   22  C3  UNL     1      17.324  43.857  42.717  1.00  0.00     0.055 C 
BRANCH  22  23
HETATM   23  C2  UNL     1      16.965  44.710  41.569  1.00  0.00     0.015 C 
HETATM   24  C1  UNL     1      15.781  45.252  41.500  1.00  0.00     0.035 C 
HETATM   25  N1  UNL     1      17.921  44.928  40.565  1.00  0.00    -0.108 NA
ENDBRANCH  22  23
ENDBRANCH  21  22
ENDBRANCH  15  21
ENDBRANCH  13  14
ENDBRANCH  12  13
ENDBRANCH  10  12
ENDBRANCH   1  10
BRANCH   4  26
HETATM   26  N6  UNL     1      22.944  52.573  45.240  1.00  0.00    -0.221 N 
ATOM     27  H6  UNL     1      22.466  53.242  44.636  1.00  0.00     0.178 HD
BRANCH  26  28
HETATM   28  C12 UNL     1      23.944  53.009  46.159  1.00  0.00     0.176 C 
BRANCH  28  29
HETATM   29  C13 UNL     1      24.596  54.282  45.749  1.00  0.00    -0.040 A 
HETATM   30  C14 UNL     1      25.936  54.532  45.820  1.00  0.00     0.009 A 
HETATM   31  C15 UNL     1      26.460  55.753  45.407  1.00  0.00     0.001 A 
HETATM   32  C16 UNL     1      25.621  56.727  44.917  1.00  0.00     0.000 A 
HETATM   33  C17 UNL     1      24.252  56.491  44.834  1.00  0.00     0.001 A 
HETATM   34  C18 UNL     1      23.777  55.275  45.252  1.00  0.00     0.009 A 
ENDBRANCH  28  29
ENDBRANCH  26  28
ENDBRANCH   4  26
BRANCH   7  35
HETATM   35  N8  UNL     1      23.930  48.152  45.885  1.00  0.00    -0.221 N 
ATOM     36  H8  UNL     1      23.863  47.910  46.873  1.00  0.00     0.178 HD
BRANCH  35  37
HETATM   37  C20 UNL     1      24.902  47.428  45.161  1.00  0.00     0.179 C 
BRANCH  37  38
HETATM   38  C21 UNL     1      24.256  46.548  44.136  1.00  0.00    -0.001 A 
HETATM   39  C22 UNL     1      23.918  45.235  44.381  1.00  0.00     0.012 A 
HETATM   40  C23 UNL     1      23.330  44.430  43.430  1.00  0.00     0.001 A 
HETATM   41  C24 UNL     1      23.065  44.956  42.182  1.00  0.00     0.003 A 
HETATM   42  C25 UNL     1      23.394  46.278  41.906  1.00  0.00     0.043 A 
HETATM   43  C26 UNL     1      23.977  47.052  42.868  1.00  0.00     0.124 A 
HETATM   44  F1  UNL     1      24.290  48.336  42.598  1.00  0.00    -0.205 F 
ENDBRANCH  37  38
ENDBRANCH  35  37
ENDBRANCH   7  35
TORSDOF 13
ENDMDL
MODEL 5
REMARK VINA RESULT: -8.924758631      2.427      6.526
REMARK  13 active torsions:
REMARK  status: ('A' for Active; 'I' for Inactive)
REMARK    1  A    between atoms: C2_2  and  C3_4 
REMARK    2  A    between atoms: C3_4  and  C4_5 
REMARK    3  A    between atoms: C4_5  and  C5_6 
REMARK    4  A    between atoms: N3_12  and  C8_13 
REMARK    5  A    between atoms: C8_13  and  C9_14 
REMARK    6  A    between atoms: C9_14  and  N4_15 
REMARK    7  A    between atoms: N4_15  and  C10_17 
REMARK    8  A    between atoms: C11_20  and  N6_21 
REMARK    9  A    between atoms: N6_21  and  C12_23 
REMARK   10  A    between atoms: C12_23  and  C13_24 
REMARK   11  A    between atoms: C19_32  and  N8_33 
REMARK   12  A    between atoms: N8_33  and  C20_35 
REMARK   13  A    between atoms: C20_35  and  C21_36 
ROOT
HETATM    1  C10 UNL     1      19.028  46.183  43.581  1.00  0.00     0.707 A 
HETATM    2  N5  UNL     1      18.273  45.806  42.538  1.00  0.00    -0.022 N 
ATOM      3  H5  UNL     1      17.967  46.496  41.854  1.00  0.00     0.203 HD
HETATM    4  C11 UNL     1      17.917  44.497  42.394  1.00  0.00     0.707 A 
HETATM    5  N7  UNL     1      18.330  43.599  43.302  1.00  0.00    -0.022 N 
ATOM      6  H7  UNL     1      18.071  42.618  43.202  1.00  0.00     0.203 HD
HETATM    7  C19 UNL     1      19.081  43.987  44.338  1.00  0.00     0.707 A 
HETATM    8  N9  UNL     1      19.445  45.266  44.502  1.00  0.00    -0.022 N 
ATOM      9  H9  UNL     1      20.019  45.547  45.297  1.00  0.00     0.203 HD
ENDROOT
BRANCH   1  10
HETATM   10  N4  UNL     1      19.377  47.417  43.715  1.00  0.00    -0.224 N 
ATOM     11  H4  UNL     1      19.158  48.077  42.968  1.00  0.00     0.177 HD
BRANCH  10  12
HETATM   12  C9  UNL     1      20.066  47.894  44.887  1.00  0.00     0.158 C 
BRANCH  12  13
HETATM   13  C8  UNL     1      21.045  49.001  44.536  1.00  0.00     0.148 C 
BRANCH  13  14
HETATM   14  N3  UNL     1      22.396  48.530  44.803  1.00  0.00    -0.326 N 
HETATM   15  C5  UNL     1      22.856  47.942  46.034  1.00  0.00     0.107 C 
HETATM   16  C6  UNL     1      24.053  47.150  45.631  1.00  0.00     0.149 C 
HETATM   17  N2  UNL     1      24.588  47.850  44.492  1.00  0.00    -0.341 N 
HETATM   18  C7  UNL     1      23.503  48.559  43.913  1.00  0.00     0.318 C 
ATOM     19  H2  UNL     1      25.555  47.838  44.167  1.00  0.00     0.164 HD
HETATM   20  O1  UNL     1      23.483  49.131  42.794  1.00  0.00    -0.247 OA
BRANCH  15  21
HETATM   21  C4  UNL     1      23.154  49.061  47.013  1.00  0.00     0.032 C 
BRANCH  21  22
HETATM   22  C3  UNL     1      23.773  48.549  48.264  1.00  0.00     0.055 C 
BRANCH  22  23
HETATM   23  C2  UNL     1      23.260  49.289  49.433  1.00  0.00     0.015 C 
HETATM   24  C1  UNL     1      23.598  50.533  49.620  1.00  0.00     0.035 C 
HETATM   25  N1  UNL     1      22.403  48.628  50.327  1.00  0.00    -0.108 NA
ENDBRANCH  22  23
ENDBRANCH  21  22
ENDBRANCH  15  21
ENDBRANCH  13  14
ENDBRANCH  12  13
ENDBRANCH  10  12
ENDBRANCH   1  10
BRANCH   4  26
HETATM   26  N6  UNL     1      17.189  44.193  41.369  1.00  0.00    -0.221 N 
ATOM     27  H6  UNL     1      16.689  43.304  41.332  1.00  0.00     0.178 HD
BRANCH  26  28
HETATM   28  C12 UNL     1      17.100  45.123  40.290  1.00  0.00     0.176 C 
BRANCH  28  29
HETATM   29  C13 UNL     1      15.830  45.899  40.295  1.00  0.00    -0.040 A 
HETATM   30  C14 UNL     1      14.619  45.413  40.693  1.00  0.00     0.009 A 
HETATM   31  C15 UNL     1      13.482  46.216  40.671  1.00  0.00     0.001 A 
HETATM   32  C16 UNL     1      13.574  47.520  40.243  1.00  0.00     0.000 A 
HETATM   33  C17 UNL     1      14.801  48.036  39.835  1.00  0.00     0.001 A 
HETATM   34  C18 UNL     1      15.896  47.211  39.872  1.00  0.00     0.009 A 
ENDBRANCH  28  29
ENDBRANCH  26  28
ENDBRANCH   4  26
BRANCH   7  35
HETATM   35  N8  UNL     1      19.466  43.121  45.190  1.00  0.00    -0.221 N 
ATOM     36  H8  UNL     1      18.866  42.299  45.266  1.00  0.00     0.178 HD
BRANCH  35  37
HETATM   37  C20 UNL     1      20.590  43.117  46.044  1.00  0.00     0.179 C 
BRANCH  37  38
HETATM   38  C21 UNL     1      21.833  43.469  45.290  1.00  0.00    -0.001 A 
HETATM   39  C22 UNL     1      21.823  44.225  44.138  1.00  0.00     0.012 A 
HETATM   40  C23 UNL     1      22.972  44.540  43.447  1.00  0.00     0.001 A 
HETATM   41  C24 UNL     1      24.184  44.083  43.924  1.00  0.00     0.003 A 
HETATM   42  C25 UNL     1      24.226  43.318  45.084  1.00  0.00     0.043 A 
HETATM   43  C26 UNL     1      23.071  43.022  45.748  1.00  0.00     0.124 A 
HETATM   44  F1  UNL     1      23.115  42.285  46.877  1.00  0.00    -0.205 F 
ENDBRANCH  37  38
ENDBRANCH  35  37
ENDBRANCH   7  35
TORSDOF 13
ENDMDL
