MODEL 1
REMARK VINA RESULT: -7.656384410      0.000      0.000
REMARK  15 active torsions:
REMARK  status: ('A' for Active; 'I' for Inactive)
REMARK    1  A    between atoms: N1_2  and  C3_4 
REMARK    2  A    between atoms: C3_4  and  N2_6 
REMARK    3  A    between atoms: N2_6  and  C4_8 
REMARK    4  A    between atoms: C5_11  and  N4_12 
REMARK    5  A    between atoms: C8_21  and  C9_22 
REMARK    6  A    between atoms: C9_22  and  C10_23 
REMARK    7  A    between atoms: C10_23  and  N7_24 
REMARK    8  A    between atoms: C10_23  and  C11_28 
REMARK       I    between atoms: C11_28  and  N8_30 
REMARK    9  A    between atoms: N8_30  and  C13_32 
REMARK   10  A    between atoms: C13_32  and  C14_33 
REMARK   11  A    between atoms: C14_33  and  C15_34 
REMARK   12  A    between atoms: C15_34  and  C16_35 
REMARK   13  A    between atoms: C16_35  and  C17_36 
REMARK   14  A    between atoms: C17_36  and  C18_37 
REMARK   15  A    between atoms: C18_37  and  C19_38 
ROOT
HETATM    1  C4  UNL     1      22.450  45.683  44.177  1.00  0.00     0.137 A 
HETATM    2  N3  UNL     1      23.765  45.888  44.087  1.00  0.00    -0.176 N 
ATOM      3  H3  UNL     1      24.114  46.751  43.669  1.00  0.00     0.186 HD
HETATM    4  C5  UNL     1      24.634  44.970  44.542  1.00  0.00     0.679 A 
HETATM    5  N5  UNL     1      24.216  43.821  45.100  1.00  0.00    -0.176 N 
ATOM      6  H5  UNL     1      24.891  43.136  45.439  1.00  0.00     0.186 HD
HETATM    7  C6  UNL     1      22.895  43.588  45.204  1.00  0.00     0.135 A 
HETATM    8  N6  UNL     1      22.204  42.529  45.702  1.00  0.00    -0.351 N 
ATOM      9  H6  UNL     1      22.611  41.688  46.112  1.00  0.00     0.166 HD
HETATM   10  C7  UNL     1      20.904  42.781  45.562  1.00  0.00     0.098 A 
HETATM   11  C8  UNL     1      20.708  44.034  44.960  1.00  0.00    -0.022 A 
HETATM   12  C20 UNL     1      21.958  44.521  44.742  1.00  0.00     0.061 A 
ENDROOT
BRANCH  11  13
HETATM   13  C9  UNL     1      19.422  44.628  44.697  1.00  0.00     0.083 C 
BRANCH  13  14
HETATM   14  C10 UNL     1      18.498  43.864  43.762  1.00  0.00     0.279 C 
BRANCH  14  15
HETATM   15  N7  UNL     1      17.218  43.841  44.425  1.00  0.00    -0.066 N 
ATOM     16  H73 UNL     1      17.161  44.464  45.230  1.00  0.00     0.275 HD
ATOM     17  H72 UNL     1      16.468  44.275  43.886  1.00  0.00     0.275 HD
ATOM     18  H71 UNL     1      17.047  42.861  44.650  1.00  0.00     0.275 HD
ENDBRANCH  14  15
BRANCH  14  19
HETATM   19  C11 UNL     1      18.366  44.516  42.461  1.00  0.00     0.250 C 
HETATM   20  O1  UNL     1      19.305  45.318  42.137  1.00  0.00    -0.271 OA
HETATM   21  N8  UNL     1      17.323  44.352  41.536  1.00  0.00    -0.355 N 
HETATM   22  C12 UNL     1      16.152  43.510  41.716  1.00  0.00     0.152 C 
BRANCH  21  23
HETATM   23  C13 UNL     1      17.391  45.050  40.234  1.00  0.00     0.125 C 
BRANCH  23  24
HETATM   24  C14 UNL     1      16.135  45.856  39.937  1.00  0.00     0.020 C 
BRANCH  24  25
HETATM   25  C15 UNL     1      16.282  47.312  40.069  1.00  0.00     0.002 C 
BRANCH  25  26
HETATM   26  C16 UNL     1      15.140  48.222  39.881  1.00  0.00     0.000 C 
BRANCH  26  27
HETATM   27  C17 UNL     1      13.870  48.087  40.609  1.00  0.00     0.001 C 
BRANCH  27  28
HETATM   28  C18 UNL     1      12.734  47.559  39.831  1.00  0.00     0.011 C 
BRANCH  28  29
HETATM   29  C19 UNL     1      13.063  47.597  38.306  1.00  0.00     0.085 C 
HETATM   30 BR1  UNL     1      11.521  48.243  37.335  1.00  0.00    -0.097 Br
ENDBRANCH  28  29
ENDBRANCH  27  28
ENDBRANCH  26  27
ENDBRANCH  25  26
ENDBRANCH  24  25
ENDBRANCH  23  24
ENDBRANCH  21  23
ENDBRANCH  14  19
ENDBRANCH  13  14
ENDBRANCH  11  13
BRANCH   1  31
HETATM   31  N2  UNL     1      21.588  46.537  43.725  1.00  0.00    -0.318 N 
ATOM     32  H2  UNL     1      21.038  46.290  42.902  1.00  0.00     0.170 HD
BRANCH  31  33
HETATM   33  C3  UNL     1      21.381  47.801  44.331  1.00  0.00     0.174 C 
HETATM   34  S1  UNL     1      19.847  48.298  44.538  1.00  0.00    -0.041 SA
BRANCH  33  35
HETATM   35  N1  UNL     1      22.431  48.644  44.764  1.00  0.00    -0.367 N 
HETATM   36  C1  UNL     1      22.813  48.734  46.150  1.00  0.00     0.151 C 
HETATM   37  C2  UNL     1      23.181  49.471  43.812  1.00  0.00     0.151 C 
ENDBRANCH  33  35
ENDBRANCH  31  33
ENDBRANCH   1  31
BRANCH   4  38
HETATM   38  N4  UNL     1      25.904  45.243  44.420  1.00  0.00    -0.234 N 
ATOM     39  H42 UNL     1      26.311  45.476  43.515  1.00  0.00     0.174 HD
ATOM     40  H41 UNL     1      26.469  45.211  45.269  1.00  0.00     0.174 HD
ENDBRANCH   4  38
TORSDOF 15
ENDMDL
MODEL 2
REMARK VINA RESULT: -7.488840450      1.607      2.221
REMARK  15 active torsions:
REMARK  status: ('A' for Active; 'I' for Inactive)
REMARK    1  A    between atoms: N1_2  and  C3_4 
REMARK    2  A    between atoms: C3_4  and  N2_6 
REMARK    3  A    between atoms: N2_6  and  C4_8 
REMARK    4  A    between atoms: C5_11  and  N4_12 
REMARK    5  A    between atoms: C8_21  and  C9_22 
REMARK    6  A    between atoms: C9_22  and  C10_23 
REMARK    7  A    between atoms: C10_23  and  N7_24 
REMARK    8  A    between atoms: C10_23  and  C11_28 
REMARK       I    between atoms: C11_28  and  N8_30 
REMARK    9  A    between atoms: N8_30  and  C13_32 
REMARK   10  A    between atoms: C13_32  and  C14_33 
REMARK   11  A    between atoms: C14_33  and  C15_34 
REMARK   12  A    between atoms: C15_34  and  C16_35 
REMARK   13  A    between atoms: C16_35  and  C17_36 
REMARK   14  A    between atoms: C17_36  and  C18_37 
REMARK   15  A    between atoms: C18_37  and  C19_38 
ROOT
HETATM    1  C4  UNL     1      23.643  46.803  44.506  1.00  0.00     0.137 A 
HETATM    2  N3  UNL     1      24.962  46.971  44.404  1.00  0.00    -0.176 N 
ATOM      3  H3  UNL     1      25.343  47.908  44.273  1.00  0.00     0.186 HD
HETATM    4  C5  UNL     1      25.794  45.918  44.471  1.00  0.00     0.679 A 
HETATM    5  N5  UNL     1      25.333  44.667  44.643  1.00  0.00    -0.176 N 
ATOM      6  H5  UNL     1      25.980  43.880  44.691  1.00  0.00     0.186 HD
HETATM    7  C6  UNL     1      24.006  44.469  44.750  1.00  0.00     0.135 A 
HETATM    8  N6  UNL     1      23.276  43.335  44.913  1.00  0.00    -0.351 N 
ATOM      9  H6  UNL     1      23.650  42.389  44.994  1.00  0.00     0.166 HD
HETATM   10  C7  UNL     1      21.989  43.673  44.950  1.00  0.00     0.098 A 
HETATM   11  C8  UNL     1      21.842  45.063  44.811  1.00  0.00    -0.022 A 
HETATM   12  C20 UNL     1      23.108  45.541  44.685  1.00  0.00     0.061 A 
ENDROOT
BRANCH  11  13
HETATM   13  C9  UNL     1      20.584  45.764  44.844  1.00  0.00     0.083 C 
BRANCH  13  14
HETATM   14  C10 UNL     1      19.854  45.914  43.519  1.00  0.00     0.279 C 
BRANCH  14  15
HETATM   15  N7  UNL     1      20.810  45.530  42.509  1.00  0.00    -0.066 N 
ATOM     16  H73 UNL     1      21.124  46.305  41.926  1.00  0.00     0.275 HD
ATOM     17  H72 UNL     1      21.726  45.284  42.884  1.00  0.00     0.275 HD
ATOM     18  H71 UNL     1      20.364  44.777  41.987  1.00  0.00     0.275 HD
ENDBRANCH  14  15
BRANCH  14  19
HETATM   19  C11 UNL     1      18.678  45.050  43.435  1.00  0.00     0.250 C 
HETATM   20  O1  UNL     1      18.402  44.375  44.482  1.00  0.00    -0.271 OA
HETATM   21  N8  UNL     1      17.825  44.888  42.331  1.00  0.00    -0.355 N 
HETATM   22  C12 UNL     1      17.972  45.541  41.041  1.00  0.00     0.152 C 
BRANCH  21  23
HETATM   23  C13 UNL     1      16.640  44.012  42.452  1.00  0.00     0.125 C 
BRANCH  23  24
HETATM   24  C14 UNL     1      15.877  43.879  41.143  1.00  0.00     0.020 C 
BRANCH  24  25
HETATM   25  C15 UNL     1      14.527  44.460  41.146  1.00  0.00     0.002 C 
BRANCH  25  26
HETATM   26  C16 UNL     1      14.317  45.917  41.109  1.00  0.00     0.000 C 
BRANCH  26  27
HETATM   27  C17 UNL     1      15.157  46.836  40.330  1.00  0.00     0.001 C 
BRANCH  27  28
HETATM   28  C18 UNL     1      14.442  47.887  39.583  1.00  0.00     0.011 C 
BRANCH  28  29
HETATM   29  C19 UNL     1      12.911  47.585  39.562  1.00  0.00     0.085 C 
HETATM   30 BR1  UNL     1      12.204  47.981  37.807  1.00  0.00    -0.097 Br
ENDBRANCH  28  29
ENDBRANCH  27  28
ENDBRANCH  26  27
ENDBRANCH  25  26
ENDBRANCH  24  25
ENDBRANCH  23  24
ENDBRANCH  21  23
ENDBRANCH  14  19
ENDBRANCH  13  14
ENDBRANCH  11  13
BRANCH   1  31
HETATM   31  N2  UNL     1      22.815  47.794  44.419  1.00  0.00    -0.318 N 
ATOM     32  H2  UNL     1      22.181  47.837  43.620  1.00  0.00     0.170 HD
BRANCH  31  33
HETATM   33  C3  UNL     1      22.756  48.822  45.393  1.00  0.00     0.174 C 
HETATM   34  S1  UNL     1      23.185  48.448  46.915  1.00  0.00    -0.041 SA
BRANCH  33  35
HETATM   35  N1  UNL     1      22.347  50.147  45.111  1.00  0.00    -0.367 N 
HETATM   36  C1  UNL     1      21.224  50.431  44.254  1.00  0.00     0.151 C 
HETATM   37  C2  UNL     1      23.057  51.297  45.682  1.00  0.00     0.151 C 
ENDBRANCH  33  35
ENDBRANCH  31  33
ENDBRANCH   1  31
BRANCH   4  38
HETATM   38  N4  UNL     1      27.071  46.162  44.364  1.00  0.00    -0.234 N 
ATOM     39  H42 UNL     1      27.643  46.361  45.183  1.00  0.00     0.174 HD
ATOM     40  H41 UNL     1      27.469  46.146  43.425  1.00  0.00     0.174 HD
ENDBRANCH   4  38
TORSDOF 15
ENDMDL
MODEL 3
REMARK VINA RESULT: -7.380824765      1.436      1.782
REMARK  15 active torsions:
REMARK  status: ('A' for Active; 'I' for Inactive)
REMARK    1  A    between atoms: N1_2  and  C3_4 
REMARK    2  A    between atoms: C3_4  and  N2_6 
REMARK    3  A    between atoms: N2_6  and  C4_8 
REMARK    4  A    between atoms: C5_11  and  N4_12 
REMARK    5  A    between atoms: C8_21  and  C9_22 
REMARK    6  A    between atoms: C9_22  and  C10_23 
REMARK    7  A    between atoms: C10_23  and  N7_24 
REMARK    8  A    between atoms: C10_23  and  C11_28 
REMARK       I    between atoms: C11_28  and  N8_30 
REMARK    9  A    between atoms: N8_30  and  C13_32 
REMARK   10  A    between atoms: C13_32  and  C14_33 
REMARK   11  A    between atoms: C14_33  and  C15_34 
REMARK   12  A    between atoms: C15_34  and  C16_35 
REMARK   13  A    between atoms: C16_35  and  C17_36 
REMARK   14  A    between atoms: C17_36  and  C18_37 
REMARK   15  A    between atoms: C18_37  and  C19_38 
ROOT
HETATM    1  C4  UNL     1      23.812  46.616  44.583  1.00  0.00     0.137 A 
HETATM    2  N3  UNL     1      25.095  46.946  44.429  1.00  0.00    -0.176 N 
ATOM      3  H3  UNL     1      25.354  47.927  44.321  1.00  0.00     0.186 HD
HETATM    4  C5  UNL     1      26.049  46.000  44.415  1.00  0.00     0.679 A 
HETATM    5  N5  UNL     1      25.750  44.697  44.555  1.00  0.00    -0.176 N 
ATOM      6  H5  UNL     1      26.488  43.993  44.541  1.00  0.00     0.186 HD
HETATM    7  C6  UNL     1      24.463  44.335  44.713  1.00  0.00     0.135 A 
HETATM    8  N6  UNL     1      23.883  43.116  44.861  1.00  0.00    -0.351 N 
ATOM      9  H6  UNL     1      24.370  42.220  44.885  1.00  0.00     0.166 HD
HETATM   10  C7  UNL     1      22.568  43.293  44.969  1.00  0.00     0.098 A 
HETATM   11  C8  UNL     1      22.249  44.659  44.895  1.00  0.00    -0.022 A 
HETATM   12  C20 UNL     1      23.441  45.292  44.733  1.00  0.00     0.061 A 
ENDROOT
BRANCH  11  13
HETATM   13  C9  UNL     1      20.920  45.201  45.014  1.00  0.00     0.083 C 
BRANCH  13  14
HETATM   14  C10 UNL     1      19.809  44.439  44.309  1.00  0.00     0.279 C 
BRANCH  14  15
HETATM   15  N7  UNL     1      18.860  44.102  45.341  1.00  0.00    -0.066 N 
ATOM     16  H73 UNL     1      18.638  43.108  45.387  1.00  0.00     0.275 HD
ATOM     17  H72 UNL     1      19.235  44.184  46.287  1.00  0.00     0.275 HD
ATOM     18  H71 UNL     1      18.050  44.697  45.168  1.00  0.00     0.275 HD
ENDBRANCH  14  15
BRANCH  14  19
HETATM   19  C11 UNL     1      19.152  45.244  43.282  1.00  0.00     0.250 C 
HETATM   20  O1  UNL     1      19.680  46.379  43.035  1.00  0.00    -0.271 OA
HETATM   21  N8  UNL     1      18.008  44.901  42.542  1.00  0.00    -0.355 N 
HETATM   22  C12 UNL     1      17.243  43.674  42.681  1.00  0.00     0.152 C 
BRANCH  21  23
HETATM   23  C13 UNL     1      17.519  45.821  41.493  1.00  0.00     0.125 C 
BRANCH  23  24
HETATM   24  C14 UNL     1      16.978  45.086  40.276  1.00  0.00     0.020 C 
BRANCH  24  25
HETATM   25  C15 UNL     1      15.733  45.633  39.720  1.00  0.00     0.002 C 
BRANCH  25  26
HETATM   26  C16 UNL     1      15.341  47.035  39.941  1.00  0.00     0.000 C 
BRANCH  26  27
HETATM   27  C17 UNL     1      14.118  47.430  40.652  1.00  0.00     0.001 C 
BRANCH  27  28
HETATM   28  C18 UNL     1      12.891  47.496  39.837  1.00  0.00     0.011 C 
BRANCH  28  29
HETATM   29  C19 UNL     1      13.252  47.771  38.343  1.00  0.00     0.085 C 
HETATM   30 BR1  UNL     1      11.632  48.109  37.345  1.00  0.00    -0.097 Br
ENDBRANCH  28  29
ENDBRANCH  27  28
ENDBRANCH  26  27
ENDBRANCH  25  26
ENDBRANCH  24  25
ENDBRANCH  23  24
ENDBRANCH  21  23
ENDBRANCH  14  19
ENDBRANCH  13  14
ENDBRANCH  11  13
BRANCH   1  31
HETATM   31  N2  UNL     1      22.867  47.501  44.575  1.00  0.00    -0.318 N 
ATOM     32  H2  UNL     1      22.126  47.422  43.879  1.00  0.00     0.170 HD
BRANCH  31  33
HETATM   33  C3  UNL     1      22.826  48.576  45.498  1.00  0.00     0.174 C 
HETATM   34  S1  UNL     1      23.281  48.276  47.030  1.00  0.00    -0.041 SA
BRANCH  33  35
HETATM   35  N1  UNL     1      22.415  49.886  45.158  1.00  0.00    -0.367 N 
HETATM   36  C1  UNL     1      21.376  50.131  44.190  1.00  0.00     0.151 C 
HETATM   37  C2  UNL     1      23.036  51.061  45.780  1.00  0.00     0.151 C 
ENDBRANCH  33  35
ENDBRANCH  31  33
ENDBRANCH   1  31
BRANCH   4  38
HETATM   38  N4  UNL     1      27.280  46.401  44.261  1.00  0.00    -0.234 N 
ATOM     39  H42 UNL     1      27.637  46.679  43.348  1.00  0.00     0.174 HD
ATOM     40  H41 UNL     1      27.869  46.422  45.094  1.00  0.00     0.174 HD
ENDBRANCH   4  38
TORSDOF 15
ENDMDL
MODEL 4
REMARK VINA RESULT: -7.339601355      1.862      2.404
REMARK  15 active torsions:
REMARK  status: ('A' for Active; 'I' for Inactive)
REMARK    1  A    between atoms: N1_2  and  C3_4 
REMARK    2  A    between atoms: C3_4  and  N2_6 
REMARK    3  A    between atoms: N2_6  and  C4_8 
REMARK    4  A    between atoms: C5_11  and  N4_12 
REMARK    5  A    between atoms: C8_21  and  C9_22 
REMARK    6  A    between atoms: C9_22  and  C10_23 
REMARK    7  A    between atoms: C10_23  and  N7_24 
REMARK    8  A    between atoms: C10_23  and  C11_28 
REMARK       I    between atoms: C11_28  and  N8_30 
REMARK    9  A    between atoms: N8_30  and  C13_32 
REMARK   10  A    between atoms: C13_32  and  C14_33 
REMARK   11  A    between atoms: C14_33  and  C15_34 
REMARK   12  A    between atoms: C15_34  and  C16_35 
REMARK   13  A    between atoms: C16_35  and  C17_36 
REMARK   14  A    between atoms: C17_36  and  C18_37 
REMARK   15  A    between atoms: C18_37  and  C19_38 
ROOT
HETATM    1  C4  UNL     1      24.132  46.800  44.545  1.00  0.00     0.137 A 
HETATM    2  N3  UNL     1      25.431  47.062  44.403  1.00  0.00    -0.176 N 
ATOM      3  H3  UNL     1      25.744  48.028  44.311  1.00  0.00     0.186 HD
HETATM    4  C5  UNL     1      26.333  46.065  44.380  1.00  0.00     0.679 A 
HETATM    5  N5  UNL     1      25.963  44.779  44.499  1.00  0.00    -0.176 N 
ATOM      6  H5  UNL     1      26.661  44.036  44.479  1.00  0.00     0.186 HD
HETATM    7  C6  UNL     1      24.657  44.485  44.644  1.00  0.00     0.135 A 
HETATM    8  N6  UNL     1      24.011  43.297  44.771  1.00  0.00    -0.351 N 
ATOM      9  H6  UNL     1      24.448  42.376  44.785  1.00  0.00     0.166 HD
HETATM   10  C7  UNL     1      22.707  43.545  44.875  1.00  0.00     0.098 A 
HETATM   11  C8  UNL     1      22.463  44.927  44.819  1.00  0.00    -0.022 A 
HETATM   12  C20 UNL     1      23.688  45.496  44.673  1.00  0.00     0.061 A 
ENDROOT
BRANCH  11  13
HETATM   13  C9  UNL     1      21.164  45.538  44.939  1.00  0.00     0.083 C 
BRANCH  13  14
HETATM   14  C10 UNL     1      19.971  44.687  44.533  1.00  0.00     0.279 C 
BRANCH  14  15
HETATM   15  N7  UNL     1      19.140  44.608  45.709  1.00  0.00    -0.066 N 
ATOM     16  H73 UNL     1      18.345  45.246  45.693  1.00  0.00     0.275 HD
ATOM     17  H72 UNL     1      18.599  43.745  45.772  1.00  0.00     0.275 HD
ATOM     18  H71 UNL     1      19.770  44.756  46.496  1.00  0.00     0.275 HD
ENDBRANCH  14  15
BRANCH  14  19
HETATM   19  C11 UNL     1      19.214  45.284  43.435  1.00  0.00     0.250 C 
HETATM   20  O1  UNL     1      19.610  46.430  43.038  1.00  0.00    -0.271 OA
HETATM   21  N8  UNL     1      18.105  44.731  42.774  1.00  0.00    -0.355 N 
HETATM   22  C12 UNL     1      17.482  43.455  43.083  1.00  0.00     0.152 C 
BRANCH  21  23
HETATM   23  C13 UNL     1      17.502  45.457  41.636  1.00  0.00     0.125 C 
BRANCH  23  24
HETATM   24  C14 UNL     1      17.341  44.581  40.404  1.00  0.00     0.020 C 
BRANCH  24  25
HETATM   25  C15 UNL     1      15.954  44.353  39.977  1.00  0.00     0.002 C 
BRANCH  25  26
HETATM   26  C16 UNL     1      14.828  44.480  40.917  1.00  0.00     0.000 C 
BRANCH  26  27
HETATM   27  C17 UNL     1      14.286  45.771  41.361  1.00  0.00     0.001 C 
BRANCH  27  28
HETATM   28  C18 UNL     1      13.326  46.416  40.446  1.00  0.00     0.011 C 
BRANCH  28  29
HETATM   29  C19 UNL     1      13.650  47.937  40.311  1.00  0.00     0.085 C 
HETATM   30 BR1  UNL     1      15.510  48.155  39.832  1.00  0.00    -0.097 Br
ENDBRANCH  28  29
ENDBRANCH  27  28
ENDBRANCH  26  27
ENDBRANCH  25  26
ENDBRANCH  24  25
ENDBRANCH  23  24
ENDBRANCH  21  23
ENDBRANCH  14  19
ENDBRANCH  13  14
ENDBRANCH  11  13
BRANCH   1  31
HETATM   31  N2  UNL     1      23.237  47.735  44.545  1.00  0.00    -0.318 N 
ATOM     32  H2  UNL     1      22.565  47.773  43.777  1.00  0.00     0.170 HD
BRANCH  31  33
HETATM   33  C3  UNL     1      23.156  48.709  45.571  1.00  0.00     0.174 C 
HETATM   34  S1  UNL     1      23.476  48.233  47.092  1.00  0.00    -0.041 SA
BRANCH  33  35
HETATM   35  N1  UNL     1      22.816  50.063  45.342  1.00  0.00    -0.367 N 
HETATM   36  C1  UNL     1      22.132  50.484  44.146  1.00  0.00     0.151 C 
HETATM   37  C2  UNL     1      23.150  51.105  46.321  1.00  0.00     0.151 C 
ENDBRANCH  33  35
ENDBRANCH  31  33
ENDBRANCH   1  31
BRANCH   4  38
HETATM   38  N4  UNL     1      27.585  46.401  44.239  1.00  0.00    -0.234 N 
ATOM     39  H42 UNL     1      28.329  45.884  44.706  1.00  0.00     0.174 HD
ATOM     40  H41 UNL     1      27.786  47.204  43.641  1.00  0.00     0.174 HD
ENDBRANCH   4  38
TORSDOF 15
ENDMDL
MODEL 5
REMARK VINA RESULT: -7.122508850      2.151      3.576
REMARK  15 active torsions:
REMARK  status: ('A' for Active; 'I' for Inactive)
REMARK    1  A    between atoms: N1_2  and  C3_4 
REMARK    2  A    between atoms: C3_4  and  N2_6 
REMARK    3  A    between atoms: N2_6  and  C4_8 
REMARK    4  A    between atoms: C5_11  and  N4_12 
REMARK    5  A    between atoms: C8_21  and  C9_22 
REMARK    6  A    between atoms: C9_22  and  C10_23 
REMARK    7  A    between atoms: C10_23  and  N7_24 
REMARK    8  A    between atoms: C10_23  and  C11_28 
REMARK       I    between atoms: C11_28  and  N8_30 
REMARK    9  A    between atoms: N8_30  and  C13_32 
REMARK   10  A    between atoms: C13_32  and  C14_33 
REMARK   11  A    between atoms: C14_33  and  C15_34 
REMARK   12  A    between atoms: C15_34  and  C16_35 
REMARK   13  A    between atoms: C16_35  and  C17_36 
REMARK   14  A    between atoms: C17_36  and  C18_37 
REMARK   15  A    between atoms: C18_37  and  C19_38 
ROOT
HETATM    1  C4  UNL     1      23.999  47.272  45.019  1.00  0.00     0.137 A 
HETATM    2  N3  UNL     1      25.263  47.002  45.345  1.00  0.00    -0.176 N 
ATOM      3  H3  UNL     1      25.599  47.214  46.285  1.00  0.00     0.186 HD
HETATM    4  C5  UNL     1      26.099  46.452  44.448  1.00  0.00     0.679 A 
HETATM    5  N5  UNL     1      25.697  46.157  43.201  1.00  0.00    -0.176 N 
ATOM      6  H5  UNL     1      26.347  45.741  42.533  1.00  0.00     0.186 HD
HETATM    7  C6  UNL     1      24.426  46.418  42.844  1.00  0.00     0.135 A 
HETATM    8  N6  UNL     1      23.765  46.239  41.671  1.00  0.00    -0.351 N 
ATOM      9  H6  UNL     1      24.157  45.841  40.818  1.00  0.00     0.166 HD
HETATM   10  C7  UNL     1      22.516  46.672  41.829  1.00  0.00     0.098 A 
HETATM   11  C8  UNL     1      22.325  47.154  43.135  1.00  0.00    -0.022 A 
HETATM   12  C20 UNL     1      23.525  46.990  43.752  1.00  0.00     0.061 A 
ENDROOT
BRANCH  11  13
HETATM   13  C9  UNL     1      21.079  47.661  43.650  1.00  0.00     0.083 C 
BRANCH  13  14
HETATM   14  C10 UNL     1      20.299  46.740  44.575  1.00  0.00     0.279 C 
BRANCH  14  15
HETATM   15  N7  UNL     1      19.357  47.591  45.257  1.00  0.00    -0.066 N 
ATOM     16  H73 UNL     1      19.743  48.056  46.078  1.00  0.00     0.275 HD
ATOM     17  H72 UNL     1      19.119  48.439  44.741  1.00  0.00     0.275 HD
ATOM     18  H71 UNL     1      18.554  46.997  45.462  1.00  0.00     0.275 HD
ENDBRANCH  14  15
BRANCH  14  19
HETATM   19  C11 UNL     1      19.581  45.700  43.842  1.00  0.00     0.250 C 
HETATM   20  O1  UNL     1      19.092  46.044  42.714  1.00  0.00    -0.271 OA
HETATM   21  N8  UNL     1      19.374  44.370  44.245  1.00  0.00    -0.355 N 
HETATM   22  C12 UNL     1      19.823  43.783  45.496  1.00  0.00     0.152 C 
BRANCH  21  23
HETATM   23  C13 UNL     1      18.672  43.438  43.338  1.00  0.00     0.125 C 
BRANCH  23  24
HETATM   24  C14 UNL     1      17.208  43.799  43.147  1.00  0.00     0.020 C 
BRANCH  24  25
HETATM   25  C15 UNL     1      16.794  44.009  41.753  1.00  0.00     0.002 C 
BRANCH  25  26
HETATM   26  C16 UNL     1      15.435  44.464  41.413  1.00  0.00     0.000 C 
BRANCH  26  27
HETATM   27  C17 UNL     1      15.068  45.880  41.272  1.00  0.00     0.001 C 
BRANCH  27  28
HETATM   28  C18 UNL     1      15.905  46.675  40.354  1.00  0.00     0.011 C 
BRANCH  28  29
HETATM   29  C19 UNL     1      15.084  47.872  39.778  1.00  0.00     0.085 C 
HETATM   30 BR1  UNL     1      13.197  47.467  39.892  1.00  0.00    -0.097 Br
ENDBRANCH  28  29
ENDBRANCH  27  28
ENDBRANCH  26  27
ENDBRANCH  25  26
ENDBRANCH  24  25
ENDBRANCH  23  24
ENDBRANCH  21  23
ENDBRANCH  14  19
ENDBRANCH  13  14
ENDBRANCH  11  13
BRANCH   1  31
HETATM   31  N2  UNL     1      23.176  47.824  45.853  1.00  0.00    -0.318 N 
ATOM     32  H2  UNL     1      22.396  47.273  46.212  1.00  0.00     0.170 HD
BRANCH  31  33
HETATM   33  C3  UNL     1      23.320  49.166  46.285  1.00  0.00     0.174 C 
HETATM   34  S1  UNL     1      23.237  50.337  45.160  1.00  0.00    -0.041 SA
BRANCH  33  35
HETATM   35  N1  UNL     1      23.529  49.537  47.635  1.00  0.00    -0.367 N 
HETATM   36  C1  UNL     1      23.361  50.895  48.085  1.00  0.00     0.151 C 
HETATM   37  C2  UNL     1      23.929  48.546  48.640  1.00  0.00     0.151 C 
ENDBRANCH  33  35
ENDBRANCH  31  33
ENDBRANCH   1  31
BRANCH   4  38
HETATM   38  N4  UNL     1      27.320  46.217  44.842  1.00  0.00    -0.234 N 
ATOM     39  H42 UNL     1      27.827  46.881  45.426  1.00  0.00     0.174 HD
ATOM     40  H41 UNL     1      27.744  45.340  44.538  1.00  0.00     0.174 HD
ENDBRANCH   4  38
TORSDOF 15
ENDMDL
