MODEL 1
REMARK VINA RESULT: -10.243817719      0.000      0.000
REMARK  11 active torsions:
REMARK  status: ('A' for Active; 'I' for Inactive)
REMARK    1  A    between atoms: C2_2  and  C3_3 
REMARK    2  A    between atoms: C6_6  and  S1_7 
REMARK    3  A    between atoms: S1_7  and  N1_10 
REMARK    4  A    between atoms: N1_10  and  C7_12 
REMARK    5  A    between atoms: C7_12  and  C8_13 
REMARK    6  A    between atoms: C15_20  and  C16_21 
REMARK    7  A    between atoms: C16_21  and  N2_22 
REMARK    8  A    between atoms: N2_22  and  C17_23 
REMARK       I    between atoms: N2_22  and  C21_31 
REMARK    9  A    between atoms: C17_23  and  C18_24 
REMARK   10  A    between atoms: C18_24  and  C19_25 
REMARK   11  A    between atoms: C19_25  and  N3_26 
ROOT
HETATM    1  C8  UNL     1      23.605  47.809  43.737  1.00  0.00    -0.000 A 
HETATM    2  C9  UNL     1      24.876  47.464  44.101  1.00  0.00     0.013 A 
HETATM    3  C10 UNL     1      25.103  46.186  44.503  1.00  0.00     0.013 A 
HETATM    4  C11 UNL     1      24.099  45.212  44.556  1.00  0.00    -0.022 A 
HETATM    5  C12 UNL     1      24.408  43.930  44.937  1.00  0.00     0.012 A 
HETATM    6  C13 UNL     1      23.415  42.995  44.937  1.00  0.00     0.002 A 
HETATM    7  C14 UNL     1      22.144  43.347  44.562  1.00  0.00     0.010 A 
HETATM    8  C15 UNL     1      21.798  44.618  44.177  1.00  0.00    -0.026 A 
HETATM    9  C22 UNL     1      22.808  45.607  44.171  1.00  0.00     0.021 A 
HETATM   10  C23 UNL     1      22.562  46.888  43.770  1.00  0.00     0.136 A 
HETATM   11  F1  UNL     1      21.324  47.279  43.423  1.00  0.00    -0.205 F 
ENDROOT
BRANCH   8  12
HETATM   12  C16 UNL     1      20.458  45.010  43.791  1.00  0.00     0.165 C 
BRANCH  12  13
HETATM   13  N2  UNL     1      19.500  44.530  44.832  1.00  0.00    -0.352 N 
HETATM   14  C21 UNL     1      19.836  44.599  46.203  1.00  0.00     0.184 C 
HETATM   15  N6  UNL     1      19.967  43.630  47.007  1.00  0.00    -0.374 N 
HETATM   16  N7  UNL     1      20.063  45.930  46.706  1.00  0.00    -0.064 NA
ATOM     17  H62 UNL     1      19.806  42.688  46.651  1.00  0.00     0.158 HD
ATOM     18  H61 UNL     1      20.210  43.680  47.996  1.00  0.00     0.158 HD
BRANCH  13  19
HETATM   19  C17 UNL     1      18.229  44.023  44.420  1.00  0.00     0.127 C 
BRANCH  19  20
HETATM   20  C18 UNL     1      17.930  43.816  42.995  1.00  0.00     0.039 C 
BRANCH  20  21
HETATM   21  C19 UNL     1      16.845  44.634  42.380  1.00  0.00     0.123 C 
BRANCH  21  22
HETATM   22  N3  UNL     1      16.170  43.874  41.328  1.00  0.00    -0.367 N 
HETATM   23  C20 UNL     1      16.512  43.883  40.101  1.00  0.00     0.196 C 
HETATM   24  N4  UNL     1      15.846  43.148  39.113  1.00  0.00    -0.067 NA
HETATM   25  N5  UNL     1      17.627  44.678  39.689  1.00  0.00    -0.067 NA
ATOM     26  H3  UNL     1      15.373  43.298  41.595  1.00  0.00     0.161 HD
ENDBRANCH  21  22
ENDBRANCH  20  21
ENDBRANCH  19  20
ENDBRANCH  13  19
ENDBRANCH  12  13
ENDBRANCH   8  12
BRANCH   1  27
HETATM   27  C7  UNL     1      23.265  49.202  43.308  1.00  0.00     0.174 C 
BRANCH  27  28
HETATM   28  N1  UNL     1      23.856  50.097  44.307  1.00  0.00    -0.311 N 
ATOM     29  H1  UNL     1      24.849  50.309  44.404  1.00  0.00     0.172 HD
BRANCH  28  30
HETATM   30  S1  UNL     1      22.584  50.730  45.293  1.00  0.00     0.259 S 
HETATM   31  O1  UNL     1      21.302  50.066  44.865  1.00  0.00    -0.201 OA
HETATM   32  O2  UNL     1      22.488  52.209  45.205  1.00  0.00    -0.201 OA
BRANCH  30  33
HETATM   33  C6  UNL     1      22.962  50.204  46.941  1.00  0.00     0.079 A 
HETATM   34  C5  UNL     1      23.251  48.905  47.240  1.00  0.00     0.026 A 
HETATM   35  C4  UNL     1      23.548  48.589  48.568  1.00  0.00     0.009 A 
HETATM   36  C3  UNL     1      23.553  49.541  49.557  1.00  0.00    -0.058 A 
HETATM   37  C25 UNL     1      23.254  50.858  49.226  1.00  0.00     0.009 A 
HETATM   38  C24 UNL     1      22.962  51.184  47.928  1.00  0.00     0.026 A 
BRANCH  36  39
HETATM   39  C2  UNL     1      23.881  49.128  50.940  1.00  0.00     0.034 C 
HETATM   40  C1  UNL     1      23.489  50.132  51.979  1.00  0.00     0.010 C 
ENDBRANCH  36  39
ENDBRANCH  30  33
ENDBRANCH  28  30
ENDBRANCH  27  28
ENDBRANCH   1  27
TORSDOF 11
ENDMDL
MODEL 2
REMARK VINA RESULT: -10.023998140      2.706      3.529
REMARK  11 active torsions:
REMARK  status: ('A' for Active; 'I' for Inactive)
REMARK    1  A    between atoms: C2_2  and  C3_3 
REMARK    2  A    between atoms: C6_6  and  S1_7 
REMARK    3  A    between atoms: S1_7  and  N1_10 
REMARK    4  A    between atoms: N1_10  and  C7_12 
REMARK    5  A    between atoms: C7_12  and  C8_13 
REMARK    6  A    between atoms: C15_20  and  C16_21 
REMARK    7  A    between atoms: C16_21  and  N2_22 
REMARK    8  A    between atoms: N2_22  and  C17_23 
REMARK       I    between atoms: N2_22  and  C21_31 
REMARK    9  A    between atoms: C17_23  and  C18_24 
REMARK   10  A    between atoms: C18_24  and  C19_25 
REMARK   11  A    between atoms: C19_25  and  N3_26 
ROOT
HETATM    1  C8  UNL     1      22.342  48.952  44.438  1.00  0.00    -0.000 A 
HETATM    2  C9  UNL     1      23.687  48.906  44.674  1.00  0.00     0.013 A 
HETATM    3  C10 UNL     1      24.296  47.691  44.676  1.00  0.00     0.013 A 
HETATM    4  C11 UNL     1      23.611  46.493  44.444  1.00  0.00    -0.022 A 
HETATM    5  C12 UNL     1      24.298  45.304  44.425  1.00  0.00     0.012 A 
HETATM    6  C13 UNL     1      23.607  44.159  44.153  1.00  0.00     0.002 A 
HETATM    7  C14 UNL     1      22.259  44.216  43.909  1.00  0.00     0.010 A 
HETATM    8  C15 UNL     1      21.539  45.383  43.922  1.00  0.00    -0.026 A 
HETATM    9  C22 UNL     1      22.230  46.585  44.203  1.00  0.00     0.021 A 
HETATM   10  C23 UNL     1      21.603  47.796  44.203  1.00  0.00     0.136 A 
HETATM   11  F1  UNL     1      20.278  47.889  43.996  1.00  0.00    -0.205 F 
ENDROOT
BRANCH   8  12
HETATM   12  C16 UNL     1      20.114  45.459  43.678  1.00  0.00     0.165 C 
BRANCH  12  13
HETATM   13  N2  UNL     1      19.409  44.632  44.704  1.00  0.00    -0.352 N 
HETATM   14  C21 UNL     1      19.897  44.562  46.028  1.00  0.00     0.184 C 
HETATM   15  N6  UNL     1      20.317  43.533  46.634  1.00  0.00    -0.374 N 
HETATM   16  N7  UNL     1      19.920  45.818  46.733  1.00  0.00    -0.064 NA
ATOM     17  H62 UNL     1      20.300  42.643  46.135  1.00  0.00     0.158 HD
ATOM     18  H61 UNL     1      20.669  43.483  47.590  1.00  0.00     0.158 HD
BRANCH  13  19
HETATM   19  C17 UNL     1      18.221  43.933  44.329  1.00  0.00     0.127 C 
BRANCH  19  20
HETATM   20  C18 UNL     1      17.853  43.782  42.913  1.00  0.00     0.039 C 
BRANCH  20  21
HETATM   21  C19 UNL     1      16.705  44.582  42.397  1.00  0.00     0.123 C 
BRANCH  21  22
HETATM   22  N3  UNL     1      16.021  43.857  41.327  1.00  0.00    -0.367 N 
HETATM   23  C20 UNL     1      16.394  43.848  40.109  1.00  0.00     0.196 C 
HETATM   24  N4  UNL     1      15.719  43.147  39.104  1.00  0.00    -0.067 NA
HETATM   25  N5  UNL     1      17.558  44.587  39.727  1.00  0.00    -0.067 NA
ATOM     26  H3  UNL     1      15.189  43.321  41.573  1.00  0.00     0.161 HD
ENDBRANCH  21  22
ENDBRANCH  20  21
ENDBRANCH  19  20
ENDBRANCH  13  19
ENDBRANCH  12  13
ENDBRANCH   8  12
BRANCH   1  27
HETATM   27  C7  UNL     1      21.590  50.246  44.445  1.00  0.00     0.174 C 
BRANCH  27  28
HETATM   28  N1  UNL     1      22.599  51.309  44.471  1.00  0.00    -0.311 N 
ATOM     29  H1  UNL     1      23.258  51.523  43.723  1.00  0.00     0.172 HD
BRANCH  28  30
HETATM   30  S1  UNL     1      22.481  52.136  45.984  1.00  0.00     0.259 S 
HETATM   31  O1  UNL     1      23.030  51.223  47.048  1.00  0.00    -0.201 OA
HETATM   32  O2  UNL     1      21.088  52.555  46.289  1.00  0.00    -0.201 OA
BRANCH  30  33
HETATM   33  C6  UNL     1      23.557  53.535  45.839  1.00  0.00     0.079 A 
HETATM   34  C5  UNL     1      24.843  53.510  46.293  1.00  0.00     0.026 A 
HETATM   35  C4  UNL     1      25.620  54.659  46.123  1.00  0.00     0.009 A 
HETATM   36  C3  UNL     1      25.123  55.788  45.523  1.00  0.00    -0.058 A 
HETATM   37  C25 UNL     1      23.808  55.789  45.069  1.00  0.00     0.009 A 
HETATM   38  C24 UNL     1      23.034  54.669  45.227  1.00  0.00     0.026 A 
BRANCH  36  39
HETATM   39  C2  UNL     1      26.009  56.966  45.376  1.00  0.00     0.034 C 
HETATM   40  C1  UNL     1      27.467  56.636  45.437  1.00  0.00     0.010 C 
ENDBRANCH  36  39
ENDBRANCH  30  33
ENDBRANCH  28  30
ENDBRANCH  27  28
ENDBRANCH   1  27
TORSDOF 11
ENDMDL
MODEL 3
REMARK VINA RESULT: -10.005707995      3.412      8.919
REMARK  11 active torsions:
REMARK  status: ('A' for Active; 'I' for Inactive)
REMARK    1  A    between atoms: C2_2  and  C3_3 
REMARK    2  A    between atoms: C6_6  and  S1_7 
REMARK    3  A    between atoms: S1_7  and  N1_10 
REMARK    4  A    between atoms: N1_10  and  C7_12 
REMARK    5  A    between atoms: C7_12  and  C8_13 
REMARK    6  A    between atoms: C15_20  and  C16_21 
REMARK    7  A    between atoms: C16_21  and  N2_22 
REMARK    8  A    between atoms: N2_22  and  C17_23 
REMARK       I    between atoms: N2_22  and  C21_31 
REMARK    9  A    between atoms: C17_23  and  C18_24 
REMARK   10  A    between atoms: C18_24  and  C19_25 
REMARK   11  A    between atoms: C19_25  and  N3_26 
ROOT
HETATM    1  C8  UNL     1      20.883  44.651  45.295  1.00  0.00    -0.000 A 
HETATM    2  C9  UNL     1      21.714  43.583  45.480  1.00  0.00     0.013 A 
HETATM    3  C10 UNL     1      23.029  43.733  45.168  1.00  0.00     0.013 A 
HETATM    4  C11 UNL     1      23.566  44.927  44.674  1.00  0.00    -0.022 A 
HETATM    5  C12 UNL     1      24.911  45.017  44.415  1.00  0.00     0.012 A 
HETATM    6  C13 UNL     1      25.409  46.209  43.975  1.00  0.00     0.002 A 
HETATM    7  C14 UNL     1      24.569  47.278  43.800  1.00  0.00     0.010 A 
HETATM    8  C15 UNL     1      23.221  47.225  44.046  1.00  0.00    -0.026 A 
HETATM    9  C22 UNL     1      22.678  46.001  44.501  1.00  0.00     0.021 A 
HETATM   10  C23 UNL     1      21.354  45.866  44.803  1.00  0.00     0.136 A 
HETATM   11  F1  UNL     1      20.495  46.882  44.618  1.00  0.00    -0.205 F 
ENDROOT
BRANCH   8  12
HETATM   12  C16 UNL     1      22.318  48.341  43.855  1.00  0.00     0.165 C 
BRANCH  12  13
HETATM   13  N2  UNL     1      22.501  49.304  44.982  1.00  0.00    -0.352 N 
HETATM   14  C21 UNL     1      21.935  50.598  44.920  1.00  0.00     0.184 C 
HETATM   15  N6  UNL     1      22.553  51.703  44.919  1.00  0.00    -0.374 N 
HETATM   16  N7  UNL     1      20.497  50.627  44.835  1.00  0.00    -0.064 NA
ATOM     17  H62 UNL     1      23.572  51.682  44.979  1.00  0.00     0.158 HD
ATOM     18  H61 UNL     1      22.144  52.636  44.875  1.00  0.00     0.158 HD
BRANCH  13  19
HETATM   19  C17 UNL     1      23.239  48.887  46.132  1.00  0.00     0.127 C 
BRANCH  19  20
HETATM   20  C18 UNL     1      23.142  49.631  47.396  1.00  0.00     0.039 C 
BRANCH  20  21
HETATM   21  C19 UNL     1      23.404  48.895  48.667  1.00  0.00     0.123 C 
BRANCH  21  22
HETATM   22  N3  UNL     1      23.664  49.836  49.755  1.00  0.00    -0.367 N 
HETATM   23  C20 UNL     1      23.151  49.751  50.918  1.00  0.00     0.196 C 
HETATM   24  N4  UNL     1      23.415  50.668  51.943  1.00  0.00    -0.067 NA
HETATM   25  N5  UNL     1      22.257  48.675  51.214  1.00  0.00    -0.067 NA
ATOM     26  H3  UNL     1      24.299  50.612  49.571  1.00  0.00     0.161 HD
ENDBRANCH  21  22
ENDBRANCH  20  21
ENDBRANCH  19  20
ENDBRANCH  13  19
ENDBRANCH  12  13
ENDBRANCH   8  12
BRANCH   1  27
HETATM   27  C7  UNL     1      19.417  44.563  45.586  1.00  0.00     0.174 C 
BRANCH  27  28
HETATM   28  N1  UNL     1      18.732  45.167  44.441  1.00  0.00    -0.311 N 
ATOM     29  H1  UNL     1      18.727  46.159  44.205  1.00  0.00     0.172 HD
BRANCH  28  30
HETATM   30  S1  UNL     1      17.935  43.913  43.559  1.00  0.00     0.259 S 
HETATM   31  O1  UNL     1      17.067  43.154  44.528  1.00  0.00    -0.201 OA
HETATM   32  O2  UNL     1      18.894  43.014  42.866  1.00  0.00    -0.201 OA
BRANCH  30  33
HETATM   33  C6  UNL     1      16.883  44.746  42.404  1.00  0.00     0.079 A 
HETATM   34  C5  UNL     1      15.609  44.331  42.152  1.00  0.00     0.026 A 
HETATM   35  C4  UNL     1      14.851  45.061  41.231  1.00  0.00     0.009 A 
HETATM   36  C3  UNL     1      15.355  46.164  40.590  1.00  0.00    -0.058 A 
HETATM   37  C25 UNL     1      16.658  46.567  40.864  1.00  0.00     0.009 A 
HETATM   38  C24 UNL     1      17.413  45.862  41.765  1.00  0.00     0.026 A 
BRANCH  36  39
HETATM   39  C2  UNL     1      14.490  46.887  39.631  1.00  0.00     0.034 C 
HETATM   40  C1  UNL     1      13.343  47.603  40.273  1.00  0.00     0.010 C 
ENDBRANCH  36  39
ENDBRANCH  30  33
ENDBRANCH  28  30
ENDBRANCH  27  28
ENDBRANCH   1  27
TORSDOF 11
ENDMDL
MODEL 4
REMARK VINA RESULT: -9.982171024      3.463      9.101
REMARK  11 active torsions:
REMARK  status: ('A' for Active; 'I' for Inactive)
REMARK    1  A    between atoms: C2_2  and  C3_3 
REMARK    2  A    between atoms: C6_6  and  S1_7 
REMARK    3  A    between atoms: S1_7  and  N1_10 
REMARK    4  A    between atoms: N1_10  and  C7_12 
REMARK    5  A    between atoms: C7_12  and  C8_13 
REMARK    6  A    between atoms: C15_20  and  C16_21 
REMARK    7  A    between atoms: C16_21  and  N2_22 
REMARK    8  A    between atoms: N2_22  and  C17_23 
REMARK       I    between atoms: N2_22  and  C21_31 
REMARK    9  A    between atoms: C17_23  and  C18_24 
REMARK   10  A    between atoms: C18_24  and  C19_25 
REMARK   11  A    between atoms: C19_25  and  N3_26 
ROOT
HETATM    1  C8  UNL     1      20.875  45.308  44.698  1.00  0.00    -0.000 A 
HETATM    2  C9  UNL     1      21.729  44.519  43.980  1.00  0.00     0.013 A 
HETATM    3  C10 UNL     1      22.756  45.119  43.323  1.00  0.00     0.013 A 
HETATM    4  C11 UNL     1      22.980  46.501  43.353  1.00  0.00    -0.022 A 
HETATM    5  C12 UNL     1      24.060  47.034  42.695  1.00  0.00     0.012 A 
HETATM    6  C13 UNL     1      24.274  48.379  42.781  1.00  0.00     0.002 A 
HETATM    7  C14 UNL     1      23.417  49.162  43.511  1.00  0.00     0.010 A 
HETATM    8  C15 UNL     1      22.327  48.665  44.180  1.00  0.00    -0.026 A 
HETATM    9  C22 UNL     1      22.081  47.275  44.106  1.00  0.00     0.021 A 
HETATM   10  C23 UNL     1      21.041  46.688  44.766  1.00  0.00     0.136 A 
HETATM   11  F1  UNL     1      20.164  47.426  45.469  1.00  0.00    -0.205 F 
ENDROOT
BRANCH   8  12
HETATM   12  C16 UNL     1      21.406  49.480  44.945  1.00  0.00     0.165 C 
BRANCH  12  13
HETATM   13  N2  UNL     1      22.188  50.313  45.907  1.00  0.00    -0.352 N 
HETATM   14  C21 UNL     1      22.192  51.722  45.798  1.00  0.00     0.184 C 
HETATM   15  N6  UNL     1      23.188  52.468  45.564  1.00  0.00    -0.374 N 
HETATM   16  N7  UNL     1      20.904  52.347  45.961  1.00  0.00    -0.064 NA
ATOM     17  H62 UNL     1      24.100  52.026  45.448  1.00  0.00     0.158 HD
ATOM     18  H61 UNL     1      23.190  53.485  45.486  1.00  0.00     0.158 HD
BRANCH  13  19
HETATM   19  C17 UNL     1      22.915  49.663  46.951  1.00  0.00     0.127 C 
BRANCH  19  20
HETATM   20  C18 UNL     1      23.207  50.362  48.210  1.00  0.00     0.039 C 
BRANCH  20  21
HETATM   21  C19 UNL     1      23.865  49.593  49.305  1.00  0.00     0.123 C 
BRANCH  21  22
HETATM   22  N3  UNL     1      22.868  48.847  50.072  1.00  0.00    -0.367 N 
HETATM   23  C20 UNL     1      22.631  49.026  51.311  1.00  0.00     0.196 C 
HETATM   24  N4  UNL     1      21.672  48.295  52.022  1.00  0.00    -0.067 NA
HETATM   25  N5  UNL     1      23.369  50.016  52.031  1.00  0.00    -0.067 NA
ATOM     26  H3  UNL     1      22.327  48.135  49.583  1.00  0.00     0.161 HD
ENDBRANCH  21  22
ENDBRANCH  20  21
ENDBRANCH  19  20
ENDBRANCH  13  19
ENDBRANCH  12  13
ENDBRANCH   8  12
BRANCH   1  27
HETATM   27  C7  UNL     1      19.703  44.731  45.428  1.00  0.00     0.174 C 
BRANCH  27  28
HETATM   28  N1  UNL     1      18.507  45.211  44.731  1.00  0.00    -0.311 N 
ATOM     29  H1  UNL     1      18.096  46.140  44.824  1.00  0.00     0.172 HD
BRANCH  28  30
HETATM   30  S1  UNL     1      17.911  43.936  43.727  1.00  0.00     0.259 S 
HETATM   31  O1  UNL     1      17.018  43.068  44.574  1.00  0.00    -0.201 OA
HETATM   32  O2  UNL     1      19.008  43.149  43.107  1.00  0.00    -0.201 OA
BRANCH  30  33
HETATM   33  C6  UNL     1      16.915  44.732  42.499  1.00  0.00     0.079 A 
HETATM   34  C5  UNL     1      15.659  44.298  42.191  1.00  0.00     0.026 A 
HETATM   35  C4  UNL     1      14.945  44.998  41.215  1.00  0.00     0.009 A 
HETATM   36  C3  UNL     1      15.472  46.091  40.575  1.00  0.00    -0.058 A 
HETATM   37  C25 UNL     1      16.754  46.514  40.907  1.00  0.00     0.009 A 
HETATM   38  C24 UNL     1      17.467  45.838  41.862  1.00  0.00     0.026 A 
BRANCH  36  39
HETATM   39  C2  UNL     1      14.651  46.783  39.555  1.00  0.00     0.034 C 
HETATM   40  C1  UNL     1      13.422  47.433  40.107  1.00  0.00     0.010 C 
ENDBRANCH  36  39
ENDBRANCH  30  33
ENDBRANCH  28  30
ENDBRANCH  27  28
ENDBRANCH   1  27
TORSDOF 11
ENDMDL
MODEL 5
REMARK VINA RESULT: -9.412153550      2.952      3.873
REMARK  11 active torsions:
REMARK  status: ('A' for Active; 'I' for Inactive)
REMARK    1  A    between atoms: C2_2  and  C3_3 
REMARK    2  A    between atoms: C6_6  and  S1_7 
REMARK    3  A    between atoms: S1_7  and  N1_10 
REMARK    4  A    between atoms: N1_10  and  C7_12 
REMARK    5  A    between atoms: C7_12  and  C8_13 
REMARK    6  A    between atoms: C15_20  and  C16_21 
REMARK    7  A    between atoms: C16_21  and  N2_22 
REMARK    8  A    between atoms: N2_22  and  C17_23 
REMARK       I    between atoms: N2_22  and  C21_31 
REMARK    9  A    between atoms: C17_23  and  C18_24 
REMARK   10  A    between atoms: C18_24  and  C19_25 
REMARK   11  A    between atoms: C19_25  and  N3_26 
ROOT
HETATM    1  C8  UNL     1      22.063  49.303  44.199  1.00  0.00    -0.000 A 
HETATM    2  C9  UNL     1      23.156  49.442  43.391  1.00  0.00     0.013 A 
HETATM    3  C10 UNL     1      23.745  48.316  42.911  1.00  0.00     0.013 A 
HETATM    4  C11 UNL     1      23.282  47.027  43.201  1.00  0.00    -0.022 A 
HETATM    5  C12 UNL     1      23.906  45.935  42.651  1.00  0.00     0.012 A 
HETATM    6  C13 UNL     1      23.403  44.696  42.920  1.00  0.00     0.002 A 
HETATM    7  C14 UNL     1      22.301  44.565  43.725  1.00  0.00     0.010 A 
HETATM    8  C15 UNL     1      21.653  45.632  44.294  1.00  0.00    -0.026 A 
HETATM    9  C22 UNL     1      22.155  46.928  44.033  1.00  0.00     0.021 A 
HETATM   10  C23 UNL     1      21.555  48.049  44.529  1.00  0.00     0.136 A 
HETATM   11  F1  UNL     1      20.491  47.960  45.344  1.00  0.00    -0.205 F 
ENDROOT
BRANCH   8  12
HETATM   12  C16 UNL     1      20.496  45.511  45.157  1.00  0.00     0.165 C 
BRANCH  12  13
HETATM   13  N2  UNL     1      20.078  44.077  45.198  1.00  0.00    -0.352 N 
HETATM   14  C21 UNL     1      20.693  43.176  46.096  1.00  0.00     0.184 C 
HETATM   15  N6  UNL     1      21.372  42.149  45.802  1.00  0.00    -0.374 N 
HETATM   16  N7  UNL     1      20.522  43.497  47.490  1.00  0.00    -0.064 NA
ATOM     17  H62 UNL     1      21.493  41.921  44.814  1.00  0.00     0.158 HD
ATOM     18  H61 UNL     1      21.815  41.498  46.450  1.00  0.00     0.158 HD
BRANCH  13  19
HETATM   19  C17 UNL     1      19.031  43.639  44.330  1.00  0.00     0.127 C 
BRANCH  19  20
HETATM   20  C18 UNL     1      18.188  44.611  43.619  1.00  0.00     0.039 C 
BRANCH  20  21
HETATM   21  C19 UNL     1      17.259  44.101  42.571  1.00  0.00     0.123 C 
BRANCH  21  22
HETATM   22  N3  UNL     1      16.490  45.203  41.993  1.00  0.00    -0.367 N 
HETATM   23  C20 UNL     1      16.616  45.618  40.795  1.00  0.00     0.196 C 
HETATM   24  N4  UNL     1      15.869  46.678  40.267  1.00  0.00    -0.067 NA
HETATM   25  N5  UNL     1      17.564  44.987  39.929  1.00  0.00    -0.067 NA
ATOM     26  H3  UNL     1      15.807  45.670  42.588  1.00  0.00     0.161 HD
ENDBRANCH  21  22
ENDBRANCH  20  21
ENDBRANCH  19  20
ENDBRANCH  13  19
ENDBRANCH  12  13
ENDBRANCH   8  12
BRANCH   1  27
HETATM   27  C7  UNL     1      21.371  50.490  44.793  1.00  0.00     0.174 C 
BRANCH  27  28
HETATM   28  N1  UNL     1      22.294  51.619  44.646  1.00  0.00    -0.311 N 
ATOM     29  H1  UNL     1      22.759  51.901  43.783  1.00  0.00     0.172 HD
BRANCH  28  30
HETATM   30  S1  UNL     1      22.458  52.392  46.184  1.00  0.00     0.259 S 
HETATM   31  O1  UNL     1      23.080  51.398  47.130  1.00  0.00    -0.201 OA
HETATM   32  O2  UNL     1      21.161  52.898  46.701  1.00  0.00    -0.201 OA
BRANCH  30  33
HETATM   33  C6  UNL     1      23.609  53.712  45.926  1.00  0.00     0.079 A 
HETATM   34  C5  UNL     1      24.933  53.590  46.231  1.00  0.00     0.026 A 
HETATM   35  C4  UNL     1      25.766  54.684  45.980  1.00  0.00     0.009 A 
HETATM   36  C3  UNL     1      25.288  55.853  45.445  1.00  0.00    -0.058 A 
HETATM   37  C25 UNL     1      23.934  55.952  45.142  1.00  0.00     0.009 A 
HETATM   38  C24 UNL     1      23.104  54.887  45.381  1.00  0.00     0.026 A 
BRANCH  36  39
HETATM   39  C2  UNL     1      26.234  56.966  45.205  1.00  0.00     0.034 C 
HETATM   40  C1  UNL     1      27.663  56.612  45.471  1.00  0.00     0.010 C 
ENDBRANCH  36  39
ENDBRANCH  30  33
ENDBRANCH  28  30
ENDBRANCH  27  28
ENDBRANCH   1  27
TORSDOF 11
ENDMDL
