MODEL 1
REMARK VINA RESULT: -8.914237307      0.000      0.000
REMARK  14 active torsions:
REMARK  status: ('A' for Active; 'I' for Inactive)
REMARK    1  A    between atoms: C3_3  and  C4_5 
REMARK    2  A    between atoms: C4_5  and  N2_9 
REMARK    3  A    between atoms: C5_11  and  N3_12 
REMARK    4  A    between atoms: C5_11  and  C15_27 
REMARK    5  A    between atoms: N3_12  and  C6_14 
REMARK    6  A    between atoms: C6_14  and  C7_15 
REMARK       I    between atoms: C7_15  and  N4_17 
REMARK    7  A    between atoms: N4_17  and  C8_19 
REMARK    8  A    between atoms: C8_19  and  C9_20 
REMARK    9  A    between atoms: C15_27  and  N6_29 
REMARK       I    between atoms: N6_29  and  C17_31 
REMARK   10  A    between atoms: C17_31  and  C18_33 
REMARK   11  A    between atoms: C18_33  and  C19_34 
REMARK   12  A    between atoms: C19_34  and  C20_35 
REMARK   13  A    between atoms: C19_34  and  C24_39 
REMARK   14  A    between atoms: C20_35  and  C21_36 
ROOT
HETATM    1  N2  UNL     1      22.751  47.228  43.509  1.00  0.00    -0.330 N 
ATOM      2  H2  UNL     1      23.114  48.037  43.004  1.00  0.00     0.168 HD
HETATM    3  C5  UNL     1      21.792  47.457  44.317  1.00  0.00     0.102 C 
ENDROOT
BRANCH   3   4
HETATM    4  N3  UNL     1      21.214  46.420  45.064  1.00  0.00    -0.369 N 
ATOM      5  H3  UNL     1      21.833  45.933  45.711  1.00  0.00     0.161 HD
BRANCH   4   6
HETATM    6  C6  UNL     1      19.862  45.968  45.024  1.00  0.00     0.223 C 
BRANCH   6   7
HETATM    7  C7  UNL     1      19.401  45.395  43.759  1.00  0.00     0.235 C 
HETATM    8  O1  UNL     1      20.174  45.306  42.789  1.00  0.00    -0.272 OA
HETATM    9  N4  UNL     1      18.065  44.913  43.571  1.00  0.00    -0.358 N 
ATOM     10  H4  UNL     1      17.412  44.977  44.352  1.00  0.00     0.162 HD
BRANCH   9  11
HETATM   11  C8  UNL     1      17.599  44.340  42.325  1.00  0.00     0.156 C 
BRANCH  11  12
HETATM   12  C9  UNL     1      16.603  45.295  41.744  1.00  0.00     0.207 C 
HETATM   13  C10 UNL     1      17.188  46.532  41.163  1.00  0.00     0.037 C 
HETATM   14  C11 UNL     1      16.015  47.121  40.410  1.00  0.00     0.030 C 
HETATM   15  C12 UNL     1      15.301  45.886  39.923  1.00  0.00     0.237 C 
HETATM   16  N5  UNL     1      15.715  44.777  40.769  1.00  0.00    -0.069 N 
HETATM   17  C13 UNL     1      14.495  44.276  41.415  1.00  0.00     0.272 C 
HETATM   18  C14 UNL     1      16.208  43.719  39.953  1.00  0.00     0.272 C 
ENDBRANCH  11  12
ENDBRANCH   9  11
ENDBRANCH   6   7
ENDBRANCH   4   6
ENDBRANCH   3   4
BRANCH   3  19
HETATM   19  C15 UNL     1      21.299  48.868  44.434  1.00  0.00     0.148 C 
HETATM   20  C16 UNL     1      19.809  48.953  44.205  1.00  0.00     0.040 C 
BRANCH  19  21
HETATM   21  N6  UNL     1      21.630  49.511  45.667  1.00  0.00    -0.350 N 
HETATM   22  C17 UNL     1      22.884  50.189  45.803  1.00  0.00     0.219 C 
HETATM   23  O2  UNL     1      23.654  50.202  44.825  1.00  0.00    -0.274 OA
ATOM     24  H6  UNL     1      20.974  49.487  46.449  1.00  0.00     0.163 HD
BRANCH  22  25
HETATM   25  C18 UNL     1      23.211  50.830  47.062  1.00  0.00     0.116 C 
BRANCH  25  26
HETATM   26  C19 UNL     1      23.671  49.861  48.162  1.00  0.00     0.084 C 
BRANCH  26  27
HETATM   27  C20 UNL     1      22.971  50.290  49.399  1.00  0.00     0.018 C 
BRANCH  27  28
HETATM   28  C21 UNL     1      23.427  49.740  50.690  1.00  0.00    -0.022 C 
HETATM   29  C22 UNL     1      23.719  50.956  51.596  1.00  0.00     0.009 C 
HETATM   30  C23 UNL     1      22.486  48.885  51.456  1.00  0.00     0.009 C 
ENDBRANCH  27  28
ENDBRANCH  26  27
BRANCH  26  31
HETATM   31  C24 UNL     1      23.408  48.505  47.689  1.00  0.00     0.235 C 
HETATM   32  N7  UNL     1      24.372  47.757  46.964  1.00  0.00    -0.062 NA
HETATM   33  O3  UNL     1      22.287  47.936  47.913  1.00  0.00    -0.276 OA
ENDBRANCH  26  31
ENDBRANCH  25  26
ENDBRANCH  22  25
ENDBRANCH  19  21
ENDBRANCH   3  19
BRANCH   1  34
HETATM   34  C4  UNL     1      23.367  46.000  43.227  1.00  0.00     0.121 C 
HETATM   35  N1  UNL     1      23.063  45.366  42.119  1.00  0.00    -0.384 N 
ATOM     36  H12 UNL     1      23.511  44.473  41.914  1.00  0.00     0.157 HD
ATOM     37  H11 UNL     1      22.380  45.798  41.496  1.00  0.00     0.157 HD
BRANCH  34  38
HETATM   38  C3  UNL     1      24.331  45.390  44.107  1.00  0.00     0.073 C 
HETATM   39  C2  UNL     1      24.178  44.327  44.849  1.00  0.00    -0.003 C 
HETATM   40  C1  UNL     1      22.927  43.566  44.904  1.00  0.00     0.038 C 
HETATM   41 CL1  UNL     1      25.939  46.159  44.196  1.00  0.00    -0.081 Cl
ENDBRANCH  34  38
ENDBRANCH   1  34
TORSDOF 14
ENDMDL
MODEL 2
REMARK VINA RESULT: -8.428578118      0.961      1.150
REMARK  14 active torsions:
REMARK  status: ('A' for Active; 'I' for Inactive)
REMARK    1  A    between atoms: C3_3  and  C4_5 
REMARK    2  A    between atoms: C4_5  and  N2_9 
REMARK    3  A    between atoms: C5_11  and  N3_12 
REMARK    4  A    between atoms: C5_11  and  C15_27 
REMARK    5  A    between atoms: N3_12  and  C6_14 
REMARK    6  A    between atoms: C6_14  and  C7_15 
REMARK       I    between atoms: C7_15  and  N4_17 
REMARK    7  A    between atoms: N4_17  and  C8_19 
REMARK    8  A    between atoms: C8_19  and  C9_20 
REMARK    9  A    between atoms: C15_27  and  N6_29 
REMARK       I    between atoms: N6_29  and  C17_31 
REMARK   10  A    between atoms: C17_31  and  C18_33 
REMARK   11  A    between atoms: C18_33  and  C19_34 
REMARK   12  A    between atoms: C19_34  and  C20_35 
REMARK   13  A    between atoms: C19_34  and  C24_39 
REMARK   14  A    between atoms: C20_35  and  C21_36 
ROOT
HETATM    1  N2  UNL     1      22.571  47.224  43.363  1.00  0.00    -0.330 N 
ATOM      2  H2  UNL     1      22.906  48.003  42.795  1.00  0.00     0.168 HD
HETATM    3  C5  UNL     1      21.701  47.512  44.250  1.00  0.00     0.102 C 
ENDROOT
BRANCH   3   4
HETATM    4  N3  UNL     1      21.169  46.520  45.088  1.00  0.00    -0.369 N 
ATOM      5  H3  UNL     1      21.818  46.097  45.752  1.00  0.00     0.161 HD
BRANCH   4   6
HETATM    6  C6  UNL     1      19.829  46.035  45.121  1.00  0.00     0.223 C 
BRANCH   6   7
HETATM    7  C7  UNL     1      19.345  45.367  43.913  1.00  0.00     0.235 C 
HETATM    8  O1  UNL     1      20.124  45.117  42.976  1.00  0.00    -0.272 OA
HETATM    9  N4  UNL     1      17.979  44.971  43.744  1.00  0.00    -0.358 N 
ATOM     10  H4  UNL     1      17.320  45.167  44.497  1.00  0.00     0.162 HD
BRANCH   9  11
HETATM   11  C8  UNL     1      17.489  44.305  42.554  1.00  0.00     0.156 C 
BRANCH  11  12
HETATM   12  C9  UNL     1      16.576  45.264  41.854  1.00  0.00     0.207 C 
HETATM   13  C10 UNL     1      17.244  46.467  41.292  1.00  0.00     0.037 C 
HETATM   14  C11 UNL     1      16.162  47.058  40.417  1.00  0.00     0.030 C 
HETATM   15  C12 UNL     1      15.462  45.825  39.904  1.00  0.00     0.237 C 
HETATM   16  N5  UNL     1      15.768  44.735  40.818  1.00  0.00    -0.069 N 
HETATM   17  C13 UNL     1      14.481  44.284  41.364  1.00  0.00     0.272 C 
HETATM   18  C14 UNL     1      16.306  43.639  40.084  1.00  0.00     0.272 C 
ENDBRANCH  11  12
ENDBRANCH   9  11
ENDBRANCH   6   7
ENDBRANCH   4   6
ENDBRANCH   3   4
BRANCH   3  19
HETATM   19  C15 UNL     1      21.260  48.940  44.358  1.00  0.00     0.148 C 
HETATM   20  C16 UNL     1      19.776  49.080  44.118  1.00  0.00     0.040 C 
BRANCH  19  21
HETATM   21  N6  UNL     1      21.606  49.575  45.592  1.00  0.00    -0.350 N 
HETATM   22  C17 UNL     1      22.927  50.095  45.779  1.00  0.00     0.219 C 
HETATM   23  O2  UNL     1      23.742  49.982  44.845  1.00  0.00    -0.274 OA
ATOM     24  H6  UNL     1      20.913  49.657  46.336  1.00  0.00     0.163 HD
BRANCH  22  25
HETATM   25  C18 UNL     1      23.267  50.729  47.039  1.00  0.00     0.116 C 
BRANCH  25  26
HETATM   26  C19 UNL     1      23.725  49.753  48.132  1.00  0.00     0.084 C 
BRANCH  26  27
HETATM   27  C20 UNL     1      22.983  50.140  49.358  1.00  0.00     0.018 C 
BRANCH  27  28
HETATM   28  C21 UNL     1      23.476  49.652  50.661  1.00  0.00    -0.022 C 
HETATM   29  C22 UNL     1      23.790  50.910  51.500  1.00  0.00     0.009 C 
HETATM   30  C23 UNL     1      22.558  48.833  51.492  1.00  0.00     0.009 C 
ENDBRANCH  27  28
ENDBRANCH  26  27
BRANCH  26  31
HETATM   31  C24 UNL     1      23.511  48.400  47.629  1.00  0.00     0.235 C 
HETATM   32  N7  UNL     1      22.261  47.737  47.748  1.00  0.00    -0.062 NA
HETATM   33  O3  UNL     1      24.452  47.755  47.054  1.00  0.00    -0.276 OA
ENDBRANCH  26  31
ENDBRANCH  25  26
ENDBRANCH  22  25
ENDBRANCH  19  21
ENDBRANCH   3  19
BRANCH   1  34
HETATM   34  C4  UNL     1      23.124  45.968  43.072  1.00  0.00     0.121 C 
HETATM   35  N1  UNL     1      23.020  45.486  41.856  1.00  0.00    -0.384 N 
ATOM     36  H12 UNL     1      23.422  44.572  41.645  1.00  0.00     0.157 HD
ATOM     37  H11 UNL     1      22.535  46.051  41.160  1.00  0.00     0.157 HD
BRANCH  34  38
HETATM   38  C3  UNL     1      23.809  45.169  44.056  1.00  0.00     0.073 C 
HETATM   39  C2  UNL     1      24.997  45.365  44.560  1.00  0.00    -0.003 C 
HETATM   40  C1  UNL     1      25.859  46.481  44.163  1.00  0.00     0.038 C 
HETATM   41 CL1  UNL     1      22.937  43.746  44.686  1.00  0.00    -0.081 Cl
ENDBRANCH  34  38
ENDBRANCH   1  34
TORSDOF 14
ENDMDL
MODEL 3
REMARK VINA RESULT: -8.401024231      2.067      8.608
REMARK  14 active torsions:
REMARK  status: ('A' for Active; 'I' for Inactive)
REMARK    1  A    between atoms: C3_3  and  C4_5 
REMARK    2  A    between atoms: C4_5  and  N2_9 
REMARK    3  A    between atoms: C5_11  and  N3_12 
REMARK    4  A    between atoms: C5_11  and  C15_27 
REMARK    5  A    between atoms: N3_12  and  C6_14 
REMARK    6  A    between atoms: C6_14  and  C7_15 
REMARK       I    between atoms: C7_15  and  N4_17 
REMARK    7  A    between atoms: N4_17  and  C8_19 
REMARK    8  A    between atoms: C8_19  and  C9_20 
REMARK    9  A    between atoms: C15_27  and  N6_29 
REMARK       I    between atoms: N6_29  and  C17_31 
REMARK   10  A    between atoms: C17_31  and  C18_33 
REMARK   11  A    between atoms: C18_33  and  C19_34 
REMARK   12  A    between atoms: C19_34  and  C20_35 
REMARK   13  A    between atoms: C19_34  and  C24_39 
REMARK   14  A    between atoms: C20_35  and  C21_36 
ROOT
HETATM    1  N2  UNL     1      22.361  44.241  44.060  1.00  0.00    -0.330 N 
ATOM      2  H2  UNL     1      22.184  43.631  43.262  1.00  0.00     0.168 HD
HETATM    3  C5  UNL     1      21.341  44.566  44.752  1.00  0.00     0.102 C 
ENDROOT
BRANCH   3   4
HETATM    4  N3  UNL     1      21.465  45.401  45.873  1.00  0.00    -0.369 N 
ATOM      5  H3  UNL     1      21.961  45.008  46.673  1.00  0.00     0.161 HD
BRANCH   4   6
HETATM    6  C6  UNL     1      20.979  46.733  46.026  1.00  0.00     0.223 C 
BRANCH   6   7
HETATM    7  C7  UNL     1      21.982  47.797  46.047  1.00  0.00     0.235 C 
HETATM    8  O1  UNL     1      22.637  48.026  47.078  1.00  0.00    -0.272 OA
HETATM    9  N4  UNL     1      22.262  48.617  44.906  1.00  0.00    -0.358 N 
ATOM     10  H4  UNL     1      21.737  48.450  44.047  1.00  0.00     0.162 HD
BRANCH   9  11
HETATM   11  C8  UNL     1      23.256  49.671  44.913  1.00  0.00     0.156 C 
BRANCH  11  12
HETATM   12  C9  UNL     1      22.521  50.973  44.984  1.00  0.00     0.207 C 
HETATM   13  C10 UNL     1      21.042  50.863  44.875  1.00  0.00     0.037 C 
HETATM   14  C11 UNL     1      20.585  52.247  45.279  1.00  0.00     0.030 C 
HETATM   15  C12 UNL     1      21.605  52.625  46.323  1.00  0.00     0.237 C 
HETATM   16  N5  UNL     1      22.779  51.791  46.111  1.00  0.00    -0.069 N 
HETATM   17  C13 UNL     1      23.887  52.710  45.822  1.00  0.00     0.272 C 
HETATM   18  C14 UNL     1      23.109  51.123  47.325  1.00  0.00     0.272 C 
ENDBRANCH  11  12
ENDBRANCH   9  11
ENDBRANCH   6   7
ENDBRANCH   4   6
ENDBRANCH   3   4
BRANCH   3  19
HETATM   19  C15 UNL     1      20.009  44.019  44.334  1.00  0.00     0.148 C 
HETATM   20  C16 UNL     1      19.219  43.523  45.520  1.00  0.00     0.040 C 
BRANCH  19  21
HETATM   21  N6  UNL     1      19.209  44.928  43.573  1.00  0.00    -0.350 N 
HETATM   22  C17 UNL     1      18.122  44.430  42.785  1.00  0.00     0.219 C 
HETATM   23  O2  UNL     1      17.902  43.204  42.792  1.00  0.00    -0.274 OA
ATOM     24  H6  UNL     1      19.411  45.927  43.592  1.00  0.00     0.163 HD
BRANCH  22  25
HETATM   25  C18 UNL     1      17.323  45.361  42.011  1.00  0.00     0.116 C 
BRANCH  25  26
HETATM   26  C19 UNL     1      16.116  44.722  41.307  1.00  0.00     0.084 C 
BRANCH  26  27
HETATM   27  C20 UNL     1      15.028  45.730  41.373  1.00  0.00     0.018 C 
BRANCH  27  28
HETATM   28  C21 UNL     1      14.904  46.702  40.270  1.00  0.00    -0.022 C 
HETATM   29  C22 UNL     1      13.491  47.314  40.393  1.00  0.00     0.009 C 
HETATM   30  C23 UNL     1      15.840  47.854  40.247  1.00  0.00     0.009 C 
ENDBRANCH  27  28
ENDBRANCH  26  27
BRANCH  26  31
HETATM   31  C24 UNL     1      16.554  44.307  39.978  1.00  0.00     0.235 C 
HETATM   32  N7  UNL     1      15.763  43.470  39.148  1.00  0.00    -0.062 NA
HETATM   33  O3  UNL     1      17.679  44.688  39.508  1.00  0.00    -0.276 OA
ENDBRANCH  26  31
ENDBRANCH  25  26
ENDBRANCH  22  25
ENDBRANCH  19  21
ENDBRANCH   3  19
BRANCH   1  34
HETATM   34  C4  UNL     1      23.697  44.618  44.262  1.00  0.00     0.121 C 
HETATM   35  N1  UNL     1      24.478  43.855  44.989  1.00  0.00    -0.384 N 
ATOM     36  H12 UNL     1      25.450  44.129  45.136  1.00  0.00     0.157 HD
ATOM     37  H11 UNL     1      24.078  43.005  45.385  1.00  0.00     0.157 HD
BRANCH  34  38
HETATM   38  C3  UNL     1      24.262  45.820  43.703  1.00  0.00     0.073 C 
HETATM   39  C2  UNL     1      24.092  46.301  42.502  1.00  0.00    -0.003 C 
HETATM   40  C1  UNL     1      23.265  45.641  41.487  1.00  0.00     0.038 C 
HETATM   41 CL1  UNL     1      25.310  46.789  44.773  1.00  0.00    -0.081 Cl
ENDBRANCH  34  38
ENDBRANCH   1  34
TORSDOF 14
ENDMDL
MODEL 4
REMARK VINA RESULT: -8.227265179      1.397      2.074
REMARK  14 active torsions:
REMARK  status: ('A' for Active; 'I' for Inactive)
REMARK    1  A    between atoms: C3_3  and  C4_5 
REMARK    2  A    between atoms: C4_5  and  N2_9 
REMARK    3  A    between atoms: C5_11  and  N3_12 
REMARK    4  A    between atoms: C5_11  and  C15_27 
REMARK    5  A    between atoms: N3_12  and  C6_14 
REMARK    6  A    between atoms: C6_14  and  C7_15 
REMARK       I    between atoms: C7_15  and  N4_17 
REMARK    7  A    between atoms: N4_17  and  C8_19 
REMARK    8  A    between atoms: C8_19  and  C9_20 
REMARK    9  A    between atoms: C15_27  and  N6_29 
REMARK       I    between atoms: N6_29  and  C17_31 
REMARK   10  A    between atoms: C17_31  and  C18_33 
REMARK   11  A    between atoms: C18_33  and  C19_34 
REMARK   12  A    between atoms: C19_34  and  C20_35 
REMARK   13  A    between atoms: C19_34  and  C24_39 
REMARK   14  A    between atoms: C20_35  and  C21_36 
ROOT
HETATM    1  N2  UNL     1      22.933  46.768  43.691  1.00  0.00    -0.330 N 
ATOM      2  H2  UNL     1      23.535  47.556  43.932  1.00  0.00     0.168 HD
HETATM    3  C5  UNL     1      21.678  46.982  43.758  1.00  0.00     0.102 C 
ENDROOT
BRANCH   3   4
HETATM    4  N3  UNL     1      20.756  45.971  43.449  1.00  0.00    -0.369 N 
ATOM      5  H3  UNL     1      20.447  45.925  42.478  1.00  0.00     0.161 HD
BRANCH   4   6
HETATM    6  C6  UNL     1      20.198  45.001  44.333  1.00  0.00     0.223 C 
BRANCH   6   7
HETATM    7  C7  UNL     1      18.829  44.569  44.051  1.00  0.00     0.235 C 
HETATM    8  O1  UNL     1      18.032  44.351  44.980  1.00  0.00    -0.272 OA
HETATM    9  N4  UNL     1      18.338  44.379  42.718  1.00  0.00    -0.358 N 
ATOM     10  H4  UNL     1      18.973  44.549  41.938  1.00  0.00     0.162 HD
BRANCH   9  11
HETATM   11  C8  UNL     1      16.984  43.956  42.427  1.00  0.00     0.156 C 
BRANCH  11  12
HETATM   12  C9  UNL     1      16.284  45.118  41.791  1.00  0.00     0.207 C 
HETATM   13  C10 UNL     1      17.183  46.186  41.281  1.00  0.00     0.037 C 
HETATM   14  C11 UNL     1      16.241  47.033  40.454  1.00  0.00     0.030 C 
HETATM   15  C12 UNL     1      15.299  46.000  39.891  1.00  0.00     0.237 C 
HETATM   16  N5  UNL     1      15.379  44.823  40.743  1.00  0.00    -0.069 N 
HETATM   17  C13 UNL     1      14.030  44.619  41.287  1.00  0.00     0.272 C 
HETATM   18  C14 UNL     1      15.674  43.680  39.945  1.00  0.00     0.272 C 
ENDBRANCH  11  12
ENDBRANCH   9  11
ENDBRANCH   6   7
ENDBRANCH   4   6
ENDBRANCH   3   4
BRANCH   3  19
HETATM   19  C15 UNL     1      21.223  48.350  44.167  1.00  0.00     0.148 C 
HETATM   20  C16 UNL     1      19.859  48.309  44.812  1.00  0.00     0.040 C 
BRANCH  19  21
HETATM   21  N6  UNL     1      22.134  49.047  45.021  1.00  0.00    -0.350 N 
HETATM   22  C17 UNL     1      22.506  48.475  46.281  1.00  0.00     0.219 C 
HETATM   23  O2  UNL     1      22.022  47.371  46.593  1.00  0.00    -0.274 OA
ATOM     24  H6  UNL     1      22.517  49.947  44.735  1.00  0.00     0.163 HD
BRANCH  22  25
HETATM   25  C18 UNL     1      23.425  49.196  47.142  1.00  0.00     0.116 C 
BRANCH  25  26
HETATM   26  C19 UNL     1      22.849  50.490  47.735  1.00  0.00     0.084 C 
BRANCH  26  27
HETATM   27  C20 UNL     1      23.678  50.792  48.930  1.00  0.00     0.018 C 
BRANCH  27  28
HETATM   28  C21 UNL     1      23.106  50.532  50.265  1.00  0.00    -0.022 C 
HETATM   29  C22 UNL     1      22.920  49.001  50.362  1.00  0.00     0.009 C 
HETATM   30  C23 UNL     1      23.908  50.915  51.454  1.00  0.00     0.009 C 
ENDBRANCH  27  28
ENDBRANCH  26  27
BRANCH  26  31
HETATM   31  C24 UNL     1      22.831  51.490  46.672  1.00  0.00     0.235 C 
HETATM   32  N7  UNL     1      21.630  51.895  46.034  1.00  0.00    -0.062 NA
HETATM   33  O3  UNL     1      23.911  52.044  46.272  1.00  0.00    -0.276 OA
ENDBRANCH  26  31
ENDBRANCH  25  26
ENDBRANCH  22  25
ENDBRANCH  19  21
ENDBRANCH   3  19
BRANCH   1  34
HETATM   34  C4  UNL     1      23.589  45.583  43.326  1.00  0.00     0.121 C 
HETATM   35  N1  UNL     1      23.608  45.220  42.066  1.00  0.00    -0.384 N 
ATOM     36  H12 UNL     1      24.085  44.358  41.801  1.00  0.00     0.157 HD
ATOM     37  H11 UNL     1      23.140  45.823  41.390  1.00  0.00     0.157 HD
BRANCH  34  38
HETATM   38  C3  UNL     1      24.249  44.731  44.282  1.00  0.00     0.073 C 
HETATM   39  C2  UNL     1      25.446  44.868  44.783  1.00  0.00    -0.003 C 
HETATM   40  C1  UNL     1      26.346  45.964  44.414  1.00  0.00     0.038 C 
HETATM   41 CL1  UNL     1      23.329  43.321  44.875  1.00  0.00    -0.081 Cl
ENDBRANCH  34  38
ENDBRANCH   1  34
TORSDOF 14
ENDMDL
MODEL 5
REMARK VINA RESULT: -8.220081620      1.271      1.787
REMARK  14 active torsions:
REMARK  status: ('A' for Active; 'I' for Inactive)
REMARK    1  A    between atoms: C3_3  and  C4_5 
REMARK    2  A    between atoms: C4_5  and  N2_9 
REMARK    3  A    between atoms: C5_11  and  N3_12 
REMARK    4  A    between atoms: C5_11  and  C15_27 
REMARK    5  A    between atoms: N3_12  and  C6_14 
REMARK    6  A    between atoms: C6_14  and  C7_15 
REMARK       I    between atoms: C7_15  and  N4_17 
REMARK    7  A    between atoms: N4_17  and  C8_19 
REMARK    8  A    between atoms: C8_19  and  C9_20 
REMARK    9  A    between atoms: C15_27  and  N6_29 
REMARK       I    between atoms: N6_29  and  C17_31 
REMARK   10  A    between atoms: C17_31  and  C18_33 
REMARK   11  A    between atoms: C18_33  and  C19_34 
REMARK   12  A    between atoms: C19_34  and  C20_35 
REMARK   13  A    between atoms: C19_34  and  C24_39 
REMARK   14  A    between atoms: C20_35  and  C21_36 
ROOT
HETATM    1  N2  UNL     1      22.963  46.709  43.738  1.00  0.00    -0.330 N 
ATOM      2  H2  UNL     1      23.551  47.502  43.995  1.00  0.00     0.168 HD
HETATM    3  C5  UNL     1      21.706  46.918  43.745  1.00  0.00     0.102 C 
ENDROOT
BRANCH   3   4
HETATM    4  N3  UNL     1      20.802  45.899  43.407  1.00  0.00    -0.369 N 
ATOM      5  H3  UNL     1      20.521  45.854  42.428  1.00  0.00     0.161 HD
BRANCH   4   6
HETATM    6  C6  UNL     1      20.230  44.920  44.273  1.00  0.00     0.223 C 
BRANCH   6   7
HETATM    7  C7  UNL     1      18.827  44.579  44.037  1.00  0.00     0.235 C 
HETATM    8  O1  UNL     1      18.012  44.575  44.976  1.00  0.00    -0.272 OA
HETATM    9  N4  UNL     1      18.323  44.238  42.740  1.00  0.00    -0.358 N 
ATOM     10  H4  UNL     1      18.972  44.232  41.953  1.00  0.00     0.162 HD
BRANCH   9  11
HETATM   11  C8  UNL     1      16.936  43.902  42.493  1.00  0.00     0.156 C 
BRANCH  11  12
HETATM   12  C9  UNL     1      16.303  45.089  41.834  1.00  0.00     0.207 C 
HETATM   13  C10 UNL     1      17.260  46.110  41.333  1.00  0.00     0.037 C 
HETATM   14  C11 UNL     1      16.375  46.991  40.480  1.00  0.00     0.030 C 
HETATM   15  C12 UNL     1      15.398  45.997  39.907  1.00  0.00     0.237 C 
HETATM   16  N5  UNL     1      15.406  44.826  40.770  1.00  0.00    -0.069 N 
HETATM   17  C13 UNL     1      14.038  44.688  41.288  1.00  0.00     0.272 C 
HETATM   18  C14 UNL     1      15.665  43.663  39.988  1.00  0.00     0.272 C 
ENDBRANCH  11  12
ENDBRANCH   9  11
ENDBRANCH   6   7
ENDBRANCH   4   6
ENDBRANCH   3   4
BRANCH   3  19
HETATM   19  C15 UNL     1      21.227  48.290  44.115  1.00  0.00     0.148 C 
HETATM   20  C16 UNL     1      19.885  48.240  44.803  1.00  0.00     0.040 C 
BRANCH  19  21
HETATM   21  N6  UNL     1      22.145  49.042  44.913  1.00  0.00    -0.350 N 
HETATM   22  C17 UNL     1      22.538  48.551  46.200  1.00  0.00     0.219 C 
HETATM   23  O2  UNL     1      22.065  47.465  46.585  1.00  0.00    -0.274 OA
ATOM     24  H6  UNL     1      22.519  49.925  44.566  1.00  0.00     0.163 HD
BRANCH  22  25
HETATM   25  C18 UNL     1      23.464  49.327  47.002  1.00  0.00     0.116 C 
BRANCH  25  26
HETATM   26  C19 UNL     1      22.845  50.578  47.644  1.00  0.00     0.084 C 
BRANCH  26  27
HETATM   27  C20 UNL     1      23.665  50.864  48.848  1.00  0.00     0.018 C 
BRANCH  27  28
HETATM   28  C21 UNL     1      23.099  50.548  50.174  1.00  0.00    -0.022 C 
HETATM   29  C22 UNL     1      23.014  49.007  50.249  1.00  0.00     0.009 C 
HETATM   30  C23 UNL     1      23.862  50.967  51.376  1.00  0.00     0.009 C 
ENDBRANCH  27  28
ENDBRANCH  26  27
BRANCH  26  31
HETATM   31  C24 UNL     1      22.793  51.616  46.618  1.00  0.00     0.235 C 
HETATM   32  N7  UNL     1      23.944  52.342  46.216  1.00  0.00    -0.062 NA
HETATM   33  O3  UNL     1      21.694  51.909  46.036  1.00  0.00    -0.276 OA
ENDBRANCH  26  31
ENDBRANCH  25  26
ENDBRANCH  22  25
ENDBRANCH  19  21
ENDBRANCH   3  19
BRANCH   1  34
HETATM   34  C4  UNL     1      23.639  45.522  43.419  1.00  0.00     0.121 C 
HETATM   35  N1  UNL     1      23.476  44.987  42.233  1.00  0.00    -0.384 N 
ATOM     36  H12 UNL     1      23.968  44.123  42.001  1.00  0.00     0.157 HD
ATOM     37  H11 UNL     1      22.856  45.463  41.578  1.00  0.00     0.157 HD
BRANCH  34  38
HETATM   38  C3  UNL     1      24.515  44.849  44.345  1.00  0.00     0.073 C 
HETATM   39  C2  UNL     1      24.235  43.837  45.120  1.00  0.00    -0.003 C 
HETATM   40  C1  UNL     1      22.911  43.211  45.170  1.00  0.00     0.038 C 
HETATM   41 CL1  UNL     1      26.191  45.451  44.449  1.00  0.00    -0.081 Cl
ENDBRANCH  34  38
ENDBRANCH   1  34
TORSDOF 14
ENDMDL
