MODEL 1
REMARK VINA RESULT: -7.878577874      0.000      0.000
REMARK  10 active torsions:
REMARK  status: ('A' for Active; 'I' for Inactive)
REMARK    1  A    between atoms: C2_2  and  C3_3 
REMARK    2  A    between atoms: C3_3  and  C4_4 
REMARK    3  A    between atoms: C4_4  and  C5_5 
REMARK    4  A    between atoms: C5_5  and  C6_6 
REMARK    5  A    between atoms: C6_6  and  C7_7 
REMARK    6  A    between atoms: C8_11  and  C9_12 
REMARK    7  A    between atoms: C12_16  and  C13_17 
REMARK    8  A    between atoms: C13_17  and  C14_18 
REMARK    9  A    between atoms: C14_18  and  C15_19 
REMARK   10  A    between atoms: C16_20  and  N2_21 
REMARK       I    between atoms: N4_31  and  C22_32 
ROOT
HETATM    1  C13 UNL     1      24.268  47.323  43.980  1.00  0.00     0.031 C 
ENDROOT
BRANCH   1   2
HETATM    2  C12 UNL     1      23.551  47.651  45.281  1.00  0.00     0.115 C 
HETATM    3  C8  UNL     1      22.900  48.991  45.331  1.00  0.00     0.216 C 
HETATM    4  N1  UNL     1      22.160  49.018  46.594  1.00  0.00    -0.056 N 
HETATM    5  C7  UNL     1      23.017  49.005  47.757  1.00  0.00     0.277 C 
ATOM      6  H12 UNL     1      21.482  48.257  46.634  1.00  0.00     0.278 HD
ATOM      7  H11 UNL     1      21.522  49.813  46.622  1.00  0.00     0.278 HD
HETATM    8  C25 UNL     1      24.133  48.084  47.641  1.00  0.00     0.248 C 
HETATM    9  N7  UNL     1      24.534  47.608  46.374  1.00  0.00    -0.353 N 
HETATM   10  O3  UNL     1      24.761  47.692  48.640  1.00  0.00    -0.271 OA
ATOM     11  H7  UNL     1      25.475  47.246  46.221  1.00  0.00     0.163 HD
BRANCH   3  12
HETATM   12  C9  UNL     1      21.831  49.145  44.262  1.00  0.00     0.055 A 
HETATM   13  C10 UNL     1      20.384  49.288  44.652  1.00  0.00     0.047 A 
HETATM   14  C11 UNL     1      21.113  50.506  44.219  1.00  0.00     0.176 A 
HETATM   15  F1  UNL     1      21.348  51.417  45.213  1.00  0.00    -0.249 F 
ENDBRANCH   3  12
BRANCH   5  16
HETATM   16  C6  UNL     1      23.406  50.459  48.012  1.00  0.00     0.043 C 
BRANCH  16  17
HETATM   17  C5  UNL     1      22.954  50.961  49.313  1.00  0.00     0.002 C 
BRANCH  17  18
HETATM   18  C4  UNL     1      23.716  50.507  50.485  1.00  0.00     0.000 C 
BRANCH  18  19
HETATM   19  C3  UNL     1      23.212  49.581  51.488  1.00  0.00    -0.000 C 
BRANCH  19  20
HETATM   20  C2  UNL     1      22.193  48.567  51.092  1.00  0.00    -0.005 C 
HETATM   21  C1  UNL     1      21.436  48.016  52.265  1.00  0.00     0.005 C 
ENDBRANCH  19  20
ENDBRANCH  18  19
ENDBRANCH  17  18
ENDBRANCH  16  17
ENDBRANCH   5  16
ENDBRANCH   1   2
BRANCH   1  22
HETATM   22  C14 UNL     1      23.780  46.092  43.338  1.00  0.00     0.030 C 
BRANCH  22  23
HETATM   23  C15 UNL     1      22.585  46.192  42.509  1.00  0.00    -0.009 C 
HETATM   24  C16 UNL     1      21.423  45.336  42.548  1.00  0.00     0.093 C 
BRANCH  24  25
HETATM   25  N2  UNL     1      20.580  45.121  43.648  1.00  0.00    -0.292 N 
HETATM   26  C17 UNL     1      20.938  44.458  44.869  1.00  0.00     0.317 C 
HETATM   27  O1  UNL     1      21.845  43.571  45.027  1.00  0.00    -0.262 OA
HETATM   28  C18 UNL     1      20.058  45.002  45.895  1.00  0.00     0.311 C 
HETATM   29  O2  UNL     1      20.041  44.689  47.122  1.00  0.00    -0.262 OA
HETATM   30  N3  UNL     1      19.219  45.963  45.228  1.00  0.00    -0.326 N 
HETATM   31  C19 UNL     1      19.167  45.466  43.863  1.00  0.00     0.118 C 
ATOM     32  H3  UNL     1      18.770  46.792  45.618  1.00  0.00     0.165 HD
HETATM   33  C20 UNL     1      18.638  46.527  42.994  1.00  0.00     0.074 C 
HETATM   34  C24 UNL     1      18.330  44.209  43.891  1.00  0.00     0.074 C 
HETATM   35  C21 UNL     1      18.005  46.063  41.710  1.00  0.00     0.129 C 
HETATM   36  N4  UNL     1      17.281  44.828  41.851  1.00  0.00    -0.356 N 
HETATM   37  C22 UNL     1      15.953  44.618  41.421  1.00  0.00     0.183 C 
HETATM   38  C23 UNL     1      18.001  43.720  42.496  1.00  0.00     0.129 C 
HETATM   39  N5  UNL     1      15.207  43.828  42.114  1.00  0.00    -0.374 N 
HETATM   40  N6  UNL     1      15.378  45.219  40.269  1.00  0.00    -0.064 NA
ATOM     41  H52 UNL     1      15.620  43.397  42.941  1.00  0.00     0.158 HD
ATOM     42  H51 UNL     1      14.247  43.676  41.803  1.00  0.00     0.158 HD
ENDBRANCH  24  25
ENDBRANCH  22  23
ENDBRANCH   1  22
TORSDOF 10
ENDMDL
MODEL 2
REMARK VINA RESULT: -6.768192348      1.590      1.892
REMARK  10 active torsions:
REMARK  status: ('A' for Active; 'I' for Inactive)
REMARK    1  A    between atoms: C2_2  and  C3_3 
REMARK    2  A    between atoms: C3_3  and  C4_4 
REMARK    3  A    between atoms: C4_4  and  C5_5 
REMARK    4  A    between atoms: C5_5  and  C6_6 
REMARK    5  A    between atoms: C6_6  and  C7_7 
REMARK    6  A    between atoms: C8_11  and  C9_12 
REMARK    7  A    between atoms: C12_16  and  C13_17 
REMARK    8  A    between atoms: C13_17  and  C14_18 
REMARK    9  A    between atoms: C14_18  and  C15_19 
REMARK   10  A    between atoms: C16_20  and  N2_21 
REMARK       I    between atoms: N4_31  and  C22_32 
ROOT
HETATM    1  C13 UNL     1      23.345  49.304  44.273  1.00  0.00     0.031 C 
ENDROOT
BRANCH   1   2
HETATM    2  C12 UNL     1      22.790  49.690  45.636  1.00  0.00     0.115 C 
HETATM    3  C8  UNL     1      23.278  50.989  46.181  1.00  0.00     0.216 C 
HETATM    4  N1  UNL     1      22.506  51.215  47.403  1.00  0.00    -0.056 N 
HETATM    5  C7  UNL     1      22.806  50.266  48.451  1.00  0.00     0.277 C 
ATOM      6  H12 UNL     1      21.506  51.230  47.203  1.00  0.00     0.278 HD
ATOM      7  H11 UNL     1      22.625  52.172  47.735  1.00  0.00     0.278 HD
HETATM    8  C25 UNL     1      22.941  48.902  47.972  1.00  0.00     0.248 C 
HETATM    9  N7  UNL     1      23.171  48.648  46.602  1.00  0.00    -0.353 N 
HETATM   10  O3  UNL     1      22.860  47.930  48.743  1.00  0.00    -0.271 OA
ATOM     11  H7  UNL     1      23.588  47.770  46.292  1.00  0.00     0.163 HD
BRANCH   3  12
HETATM   12  C9  UNL     1      22.912  52.157  45.279  1.00  0.00     0.055 A 
HETATM   13  C10 UNL     1      22.368  53.429  45.871  1.00  0.00     0.047 A 
HETATM   14  C11 UNL     1      23.782  53.418  45.424  1.00  0.00     0.176 A 
HETATM   15  F1  UNL     1      24.703  53.481  46.435  1.00  0.00    -0.249 F 
ENDBRANCH   3  12
BRANCH   5  16
HETATM   16  C6  UNL     1      24.029  50.816  49.182  1.00  0.00     0.043 C 
BRANCH  16  17
HETATM   17  C5  UNL     1      23.825  50.956  50.627  1.00  0.00     0.002 C 
BRANCH  17  18
HETATM   18  C4  UNL     1      23.870  49.715  51.412  1.00  0.00     0.000 C 
BRANCH  18  19
HETATM   19  C3  UNL     1      22.745  49.169  52.156  1.00  0.00    -0.000 C 
BRANCH  19  20
HETATM   20  C2  UNL     1      21.757  48.306  51.448  1.00  0.00    -0.005 C 
HETATM   21  C1  UNL     1      20.840  47.581  52.389  1.00  0.00     0.005 C 
ENDBRANCH  19  20
ENDBRANCH  18  19
ENDBRANCH  17  18
ENDBRANCH  16  17
ENDBRANCH   5  16
ENDBRANCH   1   2
BRANCH   1  22
HETATM   22  C14 UNL     1      23.377  47.851  44.046  1.00  0.00     0.030 C 
BRANCH  22  23
HETATM   23  C15 UNL     1      22.439  47.301  43.075  1.00  0.00    -0.009 C 
HETATM   24  C16 UNL     1      21.964  45.939  42.997  1.00  0.00     0.093 C 
BRANCH  24  25
HETATM   25  N2  UNL     1      21.267  45.239  43.992  1.00  0.00    -0.292 N 
HETATM   26  C17 UNL     1      21.820  44.248  44.871  1.00  0.00     0.317 C 
HETATM   27  O1  UNL     1      22.830  43.497  44.647  1.00  0.00    -0.262 OA
HETATM   28  C18 UNL     1      20.995  44.272  46.071  1.00  0.00     0.311 C 
HETATM   29  O2  UNL     1      21.138  43.551  47.103  1.00  0.00    -0.262 OA
HETATM   30  N3  UNL     1      19.992  45.278  45.844  1.00  0.00    -0.326 N 
HETATM   31  C19 UNL     1      19.855  45.286  44.397  1.00  0.00     0.118 C 
ATOM     32  H3  UNL     1      19.497  45.847  46.530  1.00  0.00     0.165 HD
HETATM   33  C20 UNL     1      19.126  46.500  43.998  1.00  0.00     0.074 C 
HETATM   34  C24 UNL     1      19.168  43.996  44.018  1.00  0.00     0.074 C 
HETATM   35  C21 UNL     1      18.419  46.430  42.671  1.00  0.00     0.129 C 
HETATM   36  N4  UNL     1      17.853  45.136  42.400  1.00  0.00    -0.356 N 
HETATM   37  C22 UNL     1      16.520  44.906  42.000  1.00  0.00     0.183 C 
HETATM   38  C23 UNL     1      18.753  43.984  42.562  1.00  0.00     0.129 C 
HETATM   39  N5  UNL     1      15.939  43.829  42.404  1.00  0.00    -0.374 N 
HETATM   40  N6  UNL     1      15.766  45.786  41.176  1.00  0.00    -0.064 NA
ATOM     41  H52 UNL     1      16.480  43.198  42.995  1.00  0.00     0.158 HD
ATOM     42  H51 UNL     1      14.975  43.663  42.114  1.00  0.00     0.158 HD
ENDBRANCH  24  25
ENDBRANCH  22  23
ENDBRANCH   1  22
TORSDOF 10
ENDMDL
MODEL 3
REMARK VINA RESULT: -6.762672830      1.940      2.837
REMARK  10 active torsions:
REMARK  status: ('A' for Active; 'I' for Inactive)
REMARK    1  A    between atoms: C2_2  and  C3_3 
REMARK    2  A    between atoms: C3_3  and  C4_4 
REMARK    3  A    between atoms: C4_4  and  C5_5 
REMARK    4  A    between atoms: C5_5  and  C6_6 
REMARK    5  A    between atoms: C6_6  and  C7_7 
REMARK    6  A    between atoms: C8_11  and  C9_12 
REMARK    7  A    between atoms: C12_16  and  C13_17 
REMARK    8  A    between atoms: C13_17  and  C14_18 
REMARK    9  A    between atoms: C14_18  and  C15_19 
REMARK   10  A    between atoms: C16_20  and  N2_21 
REMARK       I    between atoms: N4_31  and  C22_32 
ROOT
HETATM    1  C13 UNL     1      23.071  47.592  42.236  1.00  0.00     0.031 C 
ENDROOT
BRANCH   1   2
HETATM    2  C12 UNL     1      23.573  48.348  43.457  1.00  0.00     0.115 C 
HETATM    3  C8  UNL     1      24.171  47.504  44.530  1.00  0.00     0.216 C 
HETATM    4  N1  UNL     1      24.711  48.445  45.512  1.00  0.00    -0.056 N 
HETATM    5  C7  UNL     1      23.689  49.203  46.197  1.00  0.00     0.277 C 
ATOM      6  H12 UNL     1      25.396  49.067  45.081  1.00  0.00     0.278 HD
ATOM      7  H11 UNL     1      25.316  47.966  46.179  1.00  0.00     0.278 HD
HETATM    8  C25 UNL     1      22.629  49.666  45.320  1.00  0.00     0.248 C 
HETATM    9  N7  UNL     1      22.438  49.066  44.056  1.00  0.00    -0.353 N 
HETATM   10  O3  UNL     1      21.868  50.592  45.650  1.00  0.00    -0.271 OA
ATOM     11  H7  UNL     1      21.540  49.127  43.575  1.00  0.00     0.163 HD
BRANCH   3  12
HETATM   12  C9  UNL     1      25.386  46.733  44.036  1.00  0.00     0.055 A 
HETATM   13  C10 UNL     1      26.371  46.161  45.020  1.00  0.00     0.047 A 
HETATM   14  C11 UNL     1      25.411  45.232  44.374  1.00  0.00     0.176 A 
HETATM   15  F1  UNL     1      24.458  44.718  45.211  1.00  0.00    -0.249 F 
ENDBRANCH   3  12
BRANCH   5  16
HETATM   16  C6  UNL     1      23.226  48.331  47.362  1.00  0.00     0.043 C 
BRANCH  16  17
HETATM   17  C5  UNL     1      23.708  48.800  48.665  1.00  0.00     0.002 C 
BRANCH  17  18
HETATM   18  C4  UNL     1      23.291  50.152  49.063  1.00  0.00     0.000 C 
BRANCH  18  19
HETATM   19  C3  UNL     1      23.493  50.720  50.386  1.00  0.00    -0.000 C 
BRANCH  19  20
HETATM   20  C2  UNL     1      23.691  49.805  51.547  1.00  0.00    -0.005 C 
HETATM   21  C1  UNL     1      22.489  48.950  51.824  1.00  0.00     0.005 C 
ENDBRANCH  19  20
ENDBRANCH  18  19
ENDBRANCH  17  18
ENDBRANCH  16  17
ENDBRANCH   5  16
ENDBRANCH   1   2
BRANCH   1  22
HETATM   22  C14 UNL     1      21.869  46.787  42.501  1.00  0.00     0.030 C 
BRANCH  22  23
HETATM   23  C15 UNL     1      22.001  45.337  42.430  1.00  0.00    -0.009 C 
HETATM   24  C16 UNL     1      22.075  44.413  43.538  1.00  0.00     0.093 C 
BRANCH  24  25
HETATM   25  N2  UNL     1      21.108  44.225  44.535  1.00  0.00    -0.292 N 
HETATM   26  C17 UNL     1      21.212  43.331  45.653  1.00  0.00     0.317 C 
HETATM   27  O1  UNL     1      21.904  42.258  45.720  1.00  0.00    -0.262 OA
HETATM   28  C18 UNL     1      20.368  43.895  46.698  1.00  0.00     0.311 C 
HETATM   29  O2  UNL     1      20.175  43.418  47.856  1.00  0.00    -0.262 OA
HETATM   30  N3  UNL     1      19.804  45.098  46.146  1.00  0.00    -0.326 N 
HETATM   31  C19 UNL     1      19.779  44.827  44.719  1.00  0.00     0.118 C 
ATOM     32  H3  UNL     1      19.496  45.938  46.637  1.00  0.00     0.165 HD
HETATM   33  C20 UNL     1      19.556  46.092  44.001  1.00  0.00     0.074 C 
HETATM   34  C24 UNL     1      18.708  43.786  44.492  1.00  0.00     0.074 C 
HETATM   35  C21 UNL     1      18.964  45.964  42.623  1.00  0.00     0.129 C 
HETATM   36  N4  UNL     1      17.997  44.904  42.520  1.00  0.00    -0.356 N 
HETATM   37  C22 UNL     1      16.700  45.045  41.983  1.00  0.00     0.183 C 
HETATM   38  C23 UNL     1      18.418  43.586  43.020  1.00  0.00     0.129 C 
HETATM   39  N5  UNL     1      15.749  44.340  42.494  1.00  0.00    -0.374 N 
HETATM   40  N6  UNL     1      16.365  45.916  40.911  1.00  0.00    -0.064 NA
ATOM     41  H52 UNL     1      15.989  43.715  43.263  1.00  0.00     0.158 HD
ATOM     42  H51 UNL     1      14.811  44.442  42.105  1.00  0.00     0.158 HD
ENDBRANCH  24  25
ENDBRANCH  22  23
ENDBRANCH   1  22
TORSDOF 10
ENDMDL
MODEL 4
REMARK VINA RESULT: -6.588249861      2.866      4.818
REMARK  10 active torsions:
REMARK  status: ('A' for Active; 'I' for Inactive)
REMARK    1  A    between atoms: C2_2  and  C3_3 
REMARK    2  A    between atoms: C3_3  and  C4_4 
REMARK    3  A    between atoms: C4_4  and  C5_5 
REMARK    4  A    between atoms: C5_5  and  C6_6 
REMARK    5  A    between atoms: C6_6  and  C7_7 
REMARK    6  A    between atoms: C8_11  and  C9_12 
REMARK    7  A    between atoms: C12_16  and  C13_17 
REMARK    8  A    between atoms: C13_17  and  C14_18 
REMARK    9  A    between atoms: C14_18  and  C15_19 
REMARK   10  A    between atoms: C16_20  and  N2_21 
REMARK       I    between atoms: N4_31  and  C22_32 
ROOT
HETATM    1  C13 UNL     1      23.538  49.823  44.187  1.00  0.00     0.031 C 
ENDROOT
BRANCH   1   2
HETATM    2  C12 UNL     1      22.934  50.004  45.572  1.00  0.00     0.115 C 
HETATM    3  C8  UNL     1      23.243  51.300  46.240  1.00  0.00     0.216 C 
HETATM    4  N1  UNL     1      22.445  51.308  47.467  1.00  0.00    -0.056 N 
HETATM    5  C7  UNL     1      22.866  50.313  48.427  1.00  0.00     0.277 C 
ATOM      6  H12 UNL     1      21.452  51.209  47.254  1.00  0.00     0.278 HD
ATOM      7  H11 UNL     1      22.435  52.237  47.887  1.00  0.00     0.278 HD
HETATM    8  C25 UNL     1      23.183  49.030  47.827  1.00  0.00     0.248 C 
HETATM    9  N7  UNL     1      23.447  48.937  46.444  1.00  0.00    -0.353 N 
HETATM   10  O3  UNL     1      23.229  47.988  48.504  1.00  0.00    -0.271 OA
ATOM     11  H7  UNL     1      23.978  48.154  46.061  1.00  0.00     0.163 HD
BRANCH   3  12
HETATM   12  C9  UNL     1      22.727  52.488  45.444  1.00  0.00     0.055 A 
HETATM   13  C10 UNL     1      22.296  53.745  46.152  1.00  0.00     0.047 A 
HETATM   14  C11 UNL     1      23.611  53.747  45.465  1.00  0.00     0.176 A 
HETATM   15  F1  UNL     1      24.695  53.790  46.301  1.00  0.00    -0.249 F 
ENDBRANCH   3  12
BRANCH   5  16
HETATM   16  C6  UNL     1      24.003  50.950  49.223  1.00  0.00     0.043 C 
BRANCH  16  17
HETATM   17  C5  UNL     1      23.732  51.026  50.662  1.00  0.00     0.002 C 
BRANCH  17  18
HETATM   18  C4  UNL     1      23.873  49.773  51.416  1.00  0.00     0.000 C 
BRANCH  18  19
HETATM   19  C3  UNL     1      22.801  49.135  52.163  1.00  0.00    -0.000 C 
BRANCH  19  20
HETATM   20  C2  UNL     1      21.775  48.342  51.426  1.00  0.00    -0.005 C 
HETATM   21  C1  UNL     1      20.862  47.580  52.341  1.00  0.00     0.005 C 
ENDBRANCH  19  20
ENDBRANCH  18  19
ENDBRANCH  17  18
ENDBRANCH  16  17
ENDBRANCH   5  16
ENDBRANCH   1   2
BRANCH   1  22
HETATM   22  C14 UNL     1      22.972  48.685  43.447  1.00  0.00     0.030 C 
BRANCH  22  23
HETATM   23  C15 UNL     1      21.590  48.317  43.732  1.00  0.00    -0.009 C 
HETATM   24  C16 UNL     1      21.031  46.985  43.757  1.00  0.00     0.093 C 
BRANCH  24  25
HETATM   25  N2  UNL     1      21.431  45.926  44.585  1.00  0.00    -0.292 N 
HETATM   26  C17 UNL     1      20.760  45.485  45.774  1.00  0.00     0.317 C 
HETATM   27  O1  UNL     1      20.018  46.185  46.545  1.00  0.00    -0.262 OA
HETATM   28  C18 UNL     1      21.096  44.076  45.926  1.00  0.00     0.311 C 
HETATM   29  O2  UNL     1      20.709  43.299  46.849  1.00  0.00    -0.262 OA
HETATM   30  N3  UNL     1      21.952  43.751  44.815  1.00  0.00    -0.326 N 
HETATM   31  C19 UNL     1      22.586  45.021  44.505  1.00  0.00     0.118 C 
ATOM     32  H3  UNL     1      22.083  42.849  44.358  1.00  0.00     0.165 HD
HETATM   33  C20 UNL     1      23.218  44.922  43.180  1.00  0.00     0.074 C 
HETATM   34  C24 UNL     1      23.548  45.314  45.632  1.00  0.00     0.074 C 
HETATM   35  C21 UNL     1      24.349  45.882  42.924  1.00  0.00     0.129 C 
HETATM   36  N4  UNL     1      25.161  46.122  44.086  1.00  0.00    -0.356 N 
HETATM   37  C22 UNL     1      26.568  46.027  44.121  1.00  0.00     0.183 C 
HETATM   38  C23 UNL     1      24.445  46.492  45.317  1.00  0.00     0.129 C 
HETATM   39  N5  UNL     1      27.124  45.610  45.207  1.00  0.00    -0.374 N 
HETATM   40  N6  UNL     1      27.422  46.360  43.035  1.00  0.00    -0.064 NA
ATOM     41  H52 UNL     1      26.511  45.371  45.986  1.00  0.00     0.158 HD
ATOM     42  H51 UNL     1      28.142  45.541  45.232  1.00  0.00     0.158 HD
ENDBRANCH  24  25
ENDBRANCH  22  23
ENDBRANCH   1  22
TORSDOF 10
ENDMDL
MODEL 5
REMARK VINA RESULT: -6.558801578      1.972      3.040
REMARK  10 active torsions:
REMARK  status: ('A' for Active; 'I' for Inactive)
REMARK    1  A    between atoms: C2_2  and  C3_3 
REMARK    2  A    between atoms: C3_3  and  C4_4 
REMARK    3  A    between atoms: C4_4  and  C5_5 
REMARK    4  A    between atoms: C5_5  and  C6_6 
REMARK    5  A    between atoms: C6_6  and  C7_7 
REMARK    6  A    between atoms: C8_11  and  C9_12 
REMARK    7  A    between atoms: C12_16  and  C13_17 
REMARK    8  A    between atoms: C13_17  and  C14_18 
REMARK    9  A    between atoms: C14_18  and  C15_19 
REMARK   10  A    between atoms: C16_20  and  N2_21 
REMARK       I    between atoms: N4_31  and  C22_32 
ROOT
HETATM    1  C13 UNL     1      24.878  46.569  45.064  1.00  0.00     0.031 C 
ENDROOT
BRANCH   1   2
HETATM    2  C12 UNL     1      23.938  47.255  46.044  1.00  0.00     0.115 C 
HETATM    3  C8  UNL     1      23.301  48.508  45.548  1.00  0.00     0.216 C 
HETATM    4  N1  UNL     1      22.343  48.895  46.584  1.00  0.00    -0.056 N 
HETATM    5  C7  UNL     1      22.972  49.294  47.822  1.00  0.00     0.277 C 
ATOM      6  H12 UNL     1      21.662  48.152  46.746  1.00  0.00     0.278 HD
ATOM      7  H11 UNL     1      21.716  49.625  46.243  1.00  0.00     0.278 HD
HETATM    8  C25 UNL     1      24.083  48.441  48.205  1.00  0.00     0.248 C 
HETATM    9  N7  UNL     1      24.705  47.610  47.248  1.00  0.00    -0.353 N 
HETATM   10  O3  UNL     1      24.515  48.418  49.371  1.00  0.00    -0.271 OA
ATOM     11  H7  UNL     1      25.655  47.266  47.388  1.00  0.00     0.163 HD
BRANCH   3  12
HETATM   12  C9  UNL     1      22.447  48.261  44.314  1.00  0.00     0.055 A 
HETATM   13  C10 UNL     1      21.841  49.419  43.568  1.00  0.00     0.047 A 
HETATM   14  C11 UNL     1      23.032  48.758  42.981  1.00  0.00     0.176 A 
HETATM   15  F1  UNL     1      24.172  49.515  42.991  1.00  0.00    -0.249 F 
ENDBRANCH   3  12
BRANCH   5  16
HETATM   16  C6  UNL     1      23.320  50.772  47.662  1.00  0.00     0.043 C 
BRANCH  16  17
HETATM   17  C5  UNL     1      22.506  51.454  46.652  1.00  0.00     0.002 C 
BRANCH  17  18
HETATM   18  C4  UNL     1      23.239  52.242  45.651  1.00  0.00     0.000 C 
BRANCH  18  19
HETATM   19  C3  UNL     1      24.005  53.442  45.947  1.00  0.00    -0.000 C 
BRANCH  19  20
HETATM   20  C2  UNL     1      23.495  54.763  45.479  1.00  0.00    -0.005 C 
HETATM   21  C1  UNL     1      24.541  55.838  45.521  1.00  0.00     0.005 C 
ENDBRANCH  19  20
ENDBRANCH  18  19
ENDBRANCH  17  18
ENDBRANCH  16  17
ENDBRANCH   5  16
ENDBRANCH   1   2
BRANCH   1  22
HETATM   22  C14 UNL     1      24.345  45.307  44.529  1.00  0.00     0.030 C 
BRANCH  22  23
HETATM   23  C15 UNL     1      23.249  45.391  43.572  1.00  0.00    -0.009 C 
HETATM   24  C16 UNL     1      22.102  44.519  43.483  1.00  0.00     0.093 C 
BRANCH  24  25
HETATM   25  N2  UNL     1      21.144  44.292  44.482  1.00  0.00    -0.292 N 
HETATM   26  C17 UNL     1      21.269  43.374  45.578  1.00  0.00     0.317 C 
HETATM   27  O1  UNL     1      21.979  42.311  45.616  1.00  0.00    -0.262 OA
HETATM   28  C18 UNL     1      20.423  43.900  46.640  1.00  0.00     0.311 C 
HETATM   29  O2  UNL     1      20.245  43.394  47.788  1.00  0.00    -0.262 OA
HETATM   30  N3  UNL     1      19.836  45.107  46.119  1.00  0.00    -0.326 N 
HETATM   31  C19 UNL     1      19.807  44.867  44.686  1.00  0.00     0.118 C 
ATOM     32  H3  UNL     1      19.517  45.930  46.631  1.00  0.00     0.165 HD
HETATM   33  C20 UNL     1      19.559  46.144  43.999  1.00  0.00     0.074 C 
HETATM   34  C24 UNL     1      18.752  43.815  44.443  1.00  0.00     0.074 C 
HETATM   35  C21 UNL     1      18.960  46.037  42.622  1.00  0.00     0.129 C 
HETATM   36  N4  UNL     1      18.010  44.965  42.500  1.00  0.00    -0.356 N 
HETATM   37  C22 UNL     1      16.707  45.096  41.974  1.00  0.00     0.183 C 
HETATM   38  C23 UNL     1      18.455  43.643  42.967  1.00  0.00     0.129 C 
HETATM   39  N5  UNL     1      15.771  44.364  42.474  1.00  0.00    -0.374 N 
HETATM   40  N6  UNL     1      16.352  45.986  40.924  1.00  0.00    -0.064 NA
ATOM     41  H52 UNL     1      16.027  43.726  43.228  1.00  0.00     0.158 HD
ATOM     42  H51 UNL     1      14.830  44.460  42.094  1.00  0.00     0.158 HD
ENDBRANCH  24  25
ENDBRANCH  22  23
ENDBRANCH   1  22
TORSDOF 10
ENDMDL
