MODEL 1
REMARK VINA RESULT: -2.887314059      0.000      0.000
REMARK  11 active torsions:
REMARK  status: ('A' for Active; 'I' for Inactive)
REMARK    1  A    between atoms: C2_2  and  C3_3 
REMARK    2  A    between atoms: C3_3  and  C5_5 
REMARK    3  A    between atoms: C6_8  and  O1_9 
REMARK    4  A    between atoms: C7_11  and  C8_12 
REMARK    5  A    between atoms: C8_12  and  C9_13 
REMARK    6  A    between atoms: C13_20  and  C14_21 
REMARK    7  A    between atoms: C14_21  and  C15_22 
REMARK    8  A    between atoms: C15_22  and  N3_23 
REMARK    9  A    between atoms: C16_25  and  C17_26 
REMARK   10  A    between atoms: C17_26  and  C18_27 
REMARK   11  A    between atoms: C23_33  and  C24_34 
ROOT
HETATM    1  C5  UNL     1      24.322  47.573  45.375  1.00  0.00     0.083 C 
HETATM    2  N1  UNL     1      23.750  48.901  45.560  1.00  0.00    -0.337 N 
ATOM      3  H1  UNL     1      24.064  49.366  46.411  1.00  0.00     0.167 HD
HETATM    4  C6  UNL     1      22.871  49.652  44.813  1.00  0.00     0.139 C 
HETATM    5  C7  UNL     1      21.428  49.506  44.500  1.00  0.00     0.159 C 
HETATM    6  N2  UNL     1      20.752  48.523  45.297  1.00  0.00    -0.349 N 
ATOM      7  H2  UNL     1      20.839  48.623  46.309  1.00  0.00     0.163 HD
HETATM    8  C12 UNL     1      19.983  47.435  44.841  1.00  0.00     0.222 C 
HETATM    9  O2  UNL     1      19.083  46.922  45.584  1.00  0.00    -0.273 OA
HETATM   10  C13 UNL     1      20.129  46.800  43.506  1.00  0.00     0.084 C 
HETATM   11  C19 UNL     1      20.767  45.449  43.775  1.00  0.00     0.039 C 
HETATM   12  C20 UNL     1      22.264  45.574  43.629  1.00  0.00     0.089 C 
HETATM   13  C21 UNL     1      22.772  44.462  42.761  1.00  0.00     0.028 C 
HETATM   14  C22 UNL     1      23.311  43.400  43.682  1.00  0.00     0.037 C 
HETATM   15  C23 UNL     1      22.894  43.943  45.050  1.00  0.00     0.177 C 
HETATM   16  N5  UNL     1      22.957  45.378  44.932  1.00  0.00    -0.329 N 
HETATM   17  C25 UNL     1      23.445  46.462  45.691  1.00  0.00     0.267 C 
HETATM   18  O4  UNL     1      23.026  46.470  46.918  1.00  0.00    -0.266 OA
ENDROOT
BRANCH  10  19
HETATM   19  C14 UNL     1      18.763  46.737  42.920  1.00  0.00     0.058 C 
BRANCH  19  20
HETATM   20  C15 UNL     1      18.323  45.317  42.571  1.00  0.00     0.061 C 
BRANCH  20  21
HETATM   21  N3  UNL     1      16.941  45.297  42.577  1.00  0.00    -0.382 N 
HETATM   22  C16 UNL     1      16.103  44.892  41.579  1.00  0.00     0.061 C 
ATOM     23  H3  UNL     1      16.493  45.624  43.432  1.00  0.00     0.163 HD
BRANCH  22  24
HETATM   24  C17 UNL     1      15.897  45.607  40.317  1.00  0.00     0.059 C 
BRANCH  24  25
HETATM   25  C18 UNL     1      15.604  47.078  40.425  1.00  0.00     0.119 C 
HETATM   26 CL1  UNL     1      13.860  47.368  40.706  1.00  0.00    -0.130 Cl
ENDBRANCH  24  25
ENDBRANCH  22  24
ENDBRANCH  20  21
ENDBRANCH  19  20
ENDBRANCH  10  19
BRANCH   5  27
HETATM   27  C8  UNL     1      20.668  50.795  44.419  1.00  0.00     0.037 C 
BRANCH  27  28
HETATM   28  C9  UNL     1      20.523  51.683  45.545  1.00  0.00    -0.020 C 
HETATM   29  C10 UNL     1      19.615  52.835  45.563  1.00  0.00     0.009 C 
HETATM   30  C11 UNL     1      21.899  52.179  46.038  1.00  0.00     0.009 C 
ENDBRANCH  27  28
ENDBRANCH   5  27
BRANCH   4  31
HETATM   31  O1  UNL     1      23.308  50.730  44.225  1.00  0.00    -0.348 OA
ATOM     32  H1  UNL     1      23.431  51.516  44.744  1.00  0.00     0.219 HD
ENDBRANCH   4  31
BRANCH  15  33
HETATM   33  C24 UNL     1      23.569  43.284  46.131  1.00  0.00     0.254 C 
HETATM   34  N4  UNL     1      22.958  42.438  47.070  1.00  0.00    -0.060 NA
HETATM   35  O3  UNL     1      24.829  43.454  46.293  1.00  0.00    -0.275 OA
ENDBRANCH  15  33
BRANCH   1  36
HETATM   36  C3  UNL     1      25.169  47.485  44.135  1.00  0.00     0.037 C 
HETATM   37  C4  UNL     1      24.358  47.506  42.890  1.00  0.00     0.016 C 
BRANCH  36  38
HETATM   38  C2  UNL     1      25.751  46.045  44.169  1.00  0.00     0.006 C 
HETATM   39  C1  UNL     1      27.198  46.165  44.507  1.00  0.00     0.006 C 
ENDBRANCH  36  38
ENDBRANCH   1  36
TORSDOF 11
ENDMDL
MODEL 2
REMARK VINA RESULT: -2.708090440      0.891      1.005
REMARK  11 active torsions:
REMARK  status: ('A' for Active; 'I' for Inactive)
REMARK    1  A    between atoms: C2_2  and  C3_3 
REMARK    2  A    between atoms: C3_3  and  C5_5 
REMARK    3  A    between atoms: C6_8  and  O1_9 
REMARK    4  A    between atoms: C7_11  and  C8_12 
REMARK    5  A    between atoms: C8_12  and  C9_13 
REMARK    6  A    between atoms: C13_20  and  C14_21 
REMARK    7  A    between atoms: C14_21  and  C15_22 
REMARK    8  A    between atoms: C15_22  and  N3_23 
REMARK    9  A    between atoms: C16_25  and  C17_26 
REMARK   10  A    between atoms: C17_26  and  C18_27 
REMARK   11  A    between atoms: C23_33  and  C24_34 
ROOT
HETATM    1  C5  UNL     1      24.341  47.581  45.400  1.00  0.00     0.083 C 
HETATM    2  N1  UNL     1      23.775  48.911  45.590  1.00  0.00    -0.337 N 
ATOM      3  H1  UNL     1      24.086  49.370  46.446  1.00  0.00     0.167 HD
HETATM    4  C6  UNL     1      22.903  49.670  44.843  1.00  0.00     0.139 C 
HETATM    5  C7  UNL     1      21.460  49.533  44.522  1.00  0.00     0.159 C 
HETATM    6  N2  UNL     1      20.776  48.549  45.310  1.00  0.00    -0.349 N 
ATOM      7  H2  UNL     1      20.858  48.642  46.322  1.00  0.00     0.163 HD
HETATM    8  C12 UNL     1      20.004  47.467  44.843  1.00  0.00     0.222 C 
HETATM    9  O2  UNL     1      19.098  46.954  45.578  1.00  0.00    -0.273 OA
HETATM   10  C13 UNL     1      20.154  46.840  43.505  1.00  0.00     0.084 C 
HETATM   11  C19 UNL     1      20.784  45.483  43.769  1.00  0.00     0.039 C 
HETATM   12  C20 UNL     1      22.283  45.603  43.632  1.00  0.00     0.089 C 
HETATM   13  C21 UNL     1      22.791  44.494  42.759  1.00  0.00     0.028 C 
HETATM   14  C22 UNL     1      23.320  43.424  43.677  1.00  0.00     0.037 C 
HETATM   15  C23 UNL     1      22.898  43.960  45.045  1.00  0.00     0.177 C 
HETATM   16  N5  UNL     1      22.968  45.395  44.936  1.00  0.00    -0.329 N 
HETATM   17  C25 UNL     1      23.457  46.473  45.705  1.00  0.00     0.267 C 
HETATM   18  O4  UNL     1      23.032  46.475  46.930  1.00  0.00    -0.266 OA
ENDROOT
BRANCH  10  19
HETATM   19  C14 UNL     1      18.791  46.786  42.911  1.00  0.00     0.058 C 
BRANCH  19  20
HETATM   20  C15 UNL     1      18.307  45.363  42.642  1.00  0.00     0.061 C 
BRANCH  20  21
HETATM   21  N3  UNL     1      17.869  45.313  41.332  1.00  0.00    -0.382 N 
HETATM   22  C16 UNL     1      16.811  45.969  40.774  1.00  0.00     0.061 C 
ATOM     23  H3  UNL     1      18.404  44.712  40.705  1.00  0.00     0.163 HD
BRANCH  22  24
HETATM   24  C17 UNL     1      15.403  45.678  41.055  1.00  0.00     0.059 C 
BRANCH  24  25
HETATM   25  C18 UNL     1      15.036  44.225  41.185  1.00  0.00     0.119 C 
HETATM   26 CL1  UNL     1      15.647  43.280  39.794  1.00  0.00    -0.130 Cl
ENDBRANCH  24  25
ENDBRANCH  22  24
ENDBRANCH  20  21
ENDBRANCH  19  20
ENDBRANCH  10  19
BRANCH   5  27
HETATM   27  C8  UNL     1      20.707  50.826  44.445  1.00  0.00     0.037 C 
BRANCH  27  28
HETATM   28  C9  UNL     1      20.556  51.705  45.577  1.00  0.00    -0.020 C 
HETATM   29  C10 UNL     1      19.622  52.835  45.613  1.00  0.00     0.009 C 
HETATM   30  C11 UNL     1      21.927  52.232  46.054  1.00  0.00     0.009 C 
ENDBRANCH  27  28
ENDBRANCH   5  27
BRANCH   4  31
HETATM   31  O1  UNL     1      23.348  50.750  44.264  1.00  0.00    -0.348 OA
ATOM     32  H1  UNL     1      24.199  50.725  43.844  1.00  0.00     0.219 HD
ENDBRANCH   4  31
BRANCH  15  33
HETATM   33  C24 UNL     1      23.564  43.291  46.126  1.00  0.00     0.254 C 
HETATM   34  N4  UNL     1      22.946  42.437  47.052  1.00  0.00    -0.060 NA
HETATM   35  O3  UNL     1      24.823  43.460  46.299  1.00  0.00    -0.275 OA
ENDBRANCH  15  33
BRANCH   1  36
HETATM   36  C3  UNL     1      25.194  47.497  44.164  1.00  0.00     0.037 C 
HETATM   37  C4  UNL     1      24.390  47.536  42.915  1.00  0.00     0.016 C 
BRANCH  36  38
HETATM   38  C2  UNL     1      25.763  46.052  44.188  1.00  0.00     0.006 C 
HETATM   39  C1  UNL     1      27.217  46.158  44.503  1.00  0.00     0.006 C 
ENDBRANCH  36  38
ENDBRANCH   1  36
TORSDOF 11
ENDMDL
MODEL 3
REMARK VINA RESULT: -2.682238831      3.603      7.133
REMARK  11 active torsions:
REMARK  status: ('A' for Active; 'I' for Inactive)
REMARK    1  A    between atoms: C2_2  and  C3_3 
REMARK    2  A    between atoms: C3_3  and  C5_5 
REMARK    3  A    between atoms: C6_8  and  O1_9 
REMARK    4  A    between atoms: C7_11  and  C8_12 
REMARK    5  A    between atoms: C8_12  and  C9_13 
REMARK    6  A    between atoms: C13_20  and  C14_21 
REMARK    7  A    between atoms: C14_21  and  C15_22 
REMARK    8  A    between atoms: C15_22  and  N3_23 
REMARK    9  A    between atoms: C16_25  and  C17_26 
REMARK   10  A    between atoms: C17_26  and  C18_27 
REMARK   11  A    between atoms: C23_33  and  C24_34 
ROOT
HETATM    1  C5  UNL     1      23.177  45.042  43.514  1.00  0.00     0.083 C 
HETATM    2  N1  UNL     1      24.619  45.000  43.720  1.00  0.00    -0.337 N 
ATOM      3  H1  UNL     1      24.996  44.054  43.785  1.00  0.00     0.167 HD
HETATM    4  C6  UNL     1      25.574  45.983  43.845  1.00  0.00     0.139 C 
HETATM    5  C7  UNL     1      25.852  46.998  44.891  1.00  0.00     0.159 C 
HETATM    6  N2  UNL     1      25.136  46.788  46.116  1.00  0.00    -0.349 N 
ATOM      7  H2  UNL     1      25.235  45.868  46.546  1.00  0.00     0.163 HD
HETATM    8  C12 UNL     1      24.311  47.707  46.792  1.00  0.00     0.222 C 
HETATM    9  O2  UNL     1      24.108  47.595  48.045  1.00  0.00    -0.273 OA
HETATM   10  C13 UNL     1      23.623  48.856  46.147  1.00  0.00     0.084 C 
HETATM   11  C19 UNL     1      22.151  48.480  46.130  1.00  0.00     0.039 C 
HETATM   12  C20 UNL     1      21.825  47.831  44.806  1.00  0.00     0.089 C 
HETATM   13  C21 UNL     1      20.588  48.461  44.237  1.00  0.00     0.028 C 
HETATM   14  C22 UNL     1      19.441  47.541  44.563  1.00  0.00     0.037 C 
HETATM   15  C23 UNL     1      20.122  46.515  45.469  1.00  0.00     0.177 C 
HETATM   16  N5  UNL     1      21.471  46.396  44.975  1.00  0.00    -0.329 N 
HETATM   17  C25 UNL     1      22.384  45.360  44.686  1.00  0.00     0.267 C 
HETATM   18  O4  UNL     1      22.551  44.524  45.662  1.00  0.00    -0.266 OA
ENDROOT
BRANCH  10  19
HETATM   19  C14 UNL     1      23.949  50.054  46.966  1.00  0.00     0.058 C 
BRANCH  19  20
HETATM   20  C15 UNL     1      22.714  50.838  47.403  1.00  0.00     0.061 C 
BRANCH  20  21
HETATM   21  N3  UNL     1      22.885  51.178  48.732  1.00  0.00    -0.382 N 
HETATM   22  C16 UNL     1      23.528  50.467  49.704  1.00  0.00     0.061 C 
ATOM     23  H3  UNL     1      22.483  52.069  49.021  1.00  0.00     0.163 HD
BRANCH  22  24
HETATM   24  C17 UNL     1      23.041  49.213  50.284  1.00  0.00     0.059 C 
BRANCH  24  25
HETATM   25  C18 UNL     1      22.719  49.239  51.753  1.00  0.00     0.119 C 
HETATM   26 CL1  UNL     1      21.487  48.007  52.164  1.00  0.00    -0.130 Cl
ENDBRANCH  24  25
ENDBRANCH  22  24
ENDBRANCH  20  21
ENDBRANCH  19  20
ENDBRANCH  10  19
BRANCH   5  27
HETATM   27  C8  UNL     1      27.305  47.283  45.121  1.00  0.00     0.037 C 
BRANCH  27  28
HETATM   28  C9  UNL     1      28.332  46.293  44.917  1.00  0.00    -0.020 C 
HETATM   29  C10 UNL     1      28.159  44.866  45.207  1.00  0.00     0.009 C 
HETATM   30  C11 UNL     1      29.660  46.733  45.572  1.00  0.00     0.009 C 
ENDBRANCH  27  28
ENDBRANCH   5  27
BRANCH   4  31
HETATM   31  O1  UNL     1      26.458  46.124  42.897  1.00  0.00    -0.348 OA
ATOM     32  H1  UNL     1      27.329  46.428  43.125  1.00  0.00     0.219 HD
ENDBRANCH   4  31
BRANCH  15  33
HETATM   33  C24 UNL     1      19.325  45.337  45.661  1.00  0.00     0.254 C 
HETATM   34  N4  UNL     1      18.347  44.869  44.769  1.00  0.00    -0.060 NA
HETATM   35  O3  UNL     1      19.482  44.627  46.716  1.00  0.00    -0.275 OA
ENDBRANCH  15  33
BRANCH   1  36
HETATM   36  C3  UNL     1      22.807  45.684  42.205  1.00  0.00     0.037 C 
HETATM   37  C4  UNL     1      21.366  45.523  41.880  1.00  0.00     0.016 C 
BRANCH  36  38
HETATM   38  C2  UNL     1      23.524  44.815  41.136  1.00  0.00     0.006 C 
HETATM   39  C1  UNL     1      23.306  45.474  39.816  1.00  0.00     0.006 C 
ENDBRANCH  36  38
ENDBRANCH   1  36
TORSDOF 11
ENDMDL
MODEL 4
REMARK VINA RESULT: -2.403967619      3.067      6.282
REMARK  11 active torsions:
REMARK  status: ('A' for Active; 'I' for Inactive)
REMARK    1  A    between atoms: C2_2  and  C3_3 
REMARK    2  A    between atoms: C3_3  and  C5_5 
REMARK    3  A    between atoms: C6_8  and  O1_9 
REMARK    4  A    between atoms: C7_11  and  C8_12 
REMARK    5  A    between atoms: C8_12  and  C9_13 
REMARK    6  A    between atoms: C13_20  and  C14_21 
REMARK    7  A    between atoms: C14_21  and  C15_22 
REMARK    8  A    between atoms: C15_22  and  N3_23 
REMARK    9  A    between atoms: C16_25  and  C17_26 
REMARK   10  A    between atoms: C17_26  and  C18_27 
REMARK   11  A    between atoms: C23_33  and  C24_34 
ROOT
HETATM    1  C5  UNL     1      19.798  47.852  45.563  1.00  0.00     0.083 C 
HETATM    2  N1  UNL     1      18.901  46.799  45.104  1.00  0.00    -0.337 N 
ATOM      3  H1  UNL     1      18.278  46.447  45.831  1.00  0.00     0.167 HD
HETATM    4  C6  UNL     1      18.728  46.185  43.884  1.00  0.00     0.139 C 
HETATM    5  C7  UNL     1      19.576  45.268  43.083  1.00  0.00     0.159 C 
HETATM    6  N2  UNL     1      20.699  44.734  43.799  1.00  0.00    -0.349 N 
ATOM      7  H2  UNL     1      20.492  44.268  44.682  1.00  0.00     0.163 HD
HETATM    8  C12 UNL     1      22.054  44.779  43.419  1.00  0.00     0.222 C 
HETATM    9  O2  UNL     1      22.879  43.913  43.860  1.00  0.00    -0.273 OA
HETATM   10  C13 UNL     1      22.640  45.793  42.505  1.00  0.00     0.084 C 
HETATM   11  C19 UNL     1      23.491  46.685  43.392  1.00  0.00     0.039 C 
HETATM   12  C20 UNL     1      22.669  47.877  43.823  1.00  0.00     0.089 C 
HETATM   13  C21 UNL     1      23.461  49.131  43.598  1.00  0.00     0.028 C 
HETATM   14  C22 UNL     1      24.056  49.515  44.928  1.00  0.00     0.037 C 
HETATM   15  C23 UNL     1      23.679  48.309  45.789  1.00  0.00     0.177 C 
HETATM   16  N5  UNL     1      22.406  47.857  45.287  1.00  0.00    -0.329 N 
HETATM   17  C25 UNL     1      21.166  47.445  45.819  1.00  0.00     0.267 C 
HETATM   18  O4  UNL     1      21.267  46.515  46.717  1.00  0.00    -0.266 OA
ENDROOT
BRANCH  10  19
HETATM   19  C14 UNL     1      23.400  45.038  41.473  1.00  0.00     0.058 C 
BRANCH  19  20
HETATM   20  C15 UNL     1      23.626  45.834  40.189  1.00  0.00     0.061 C 
BRANCH  20  21
HETATM   21  N3  UNL     1      23.204  45.048  39.133  1.00  0.00    -0.382 N 
HETATM   22  C16 UNL     1      23.901  44.709  38.009  1.00  0.00     0.061 C 
ATOM     23  H3  UNL     1      22.257  44.677  39.202  1.00  0.00     0.163 HD
BRANCH  22  24
HETATM   24  C17 UNL     1      24.254  45.636  36.931  1.00  0.00     0.059 C 
BRANCH  24  25
HETATM   25  C18 UNL     1      23.293  45.711  35.776  1.00  0.00     0.119 C 
HETATM   26 CL1  UNL     1      21.607  45.465  36.324  1.00  0.00    -0.130 Cl
ENDBRANCH  24  25
ENDBRANCH  22  24
ENDBRANCH  20  21
ENDBRANCH  19  20
ENDBRANCH  10  19
BRANCH   5  27
HETATM   27  C8  UNL     1      18.825  44.214  42.329  1.00  0.00     0.037 C 
BRANCH  27  28
HETATM   28  C9  UNL     1      17.491  44.422  41.825  1.00  0.00    -0.020 C 
HETATM   29  C10 UNL     1      16.335  43.606  42.213  1.00  0.00     0.009 C 
HETATM   30  C11 UNL     1      17.491  44.508  40.283  1.00  0.00     0.009 C 
ENDBRANCH  27  28
ENDBRANCH   5  27
BRANCH   4  31
HETATM   31  O1  UNL     1      17.622  46.395  43.227  1.00  0.00    -0.348 OA
ATOM     32  H1  UNL     1      17.028  45.667  43.089  1.00  0.00     0.219 HD
ENDBRANCH   4  31
BRANCH  15  33
HETATM   33  C24 UNL     1      23.845  48.563  47.192  1.00  0.00     0.254 C 
HETATM   34  N4  UNL     1      23.314  49.664  47.882  1.00  0.00    -0.060 NA
HETATM   35  O3  UNL     1      24.526  47.749  47.910  1.00  0.00    -0.275 OA
ENDBRANCH  15  33
BRANCH   1  36
HETATM   36  C3  UNL     1      19.561  49.154  44.848  1.00  0.00     0.037 C 
HETATM   37  C4  UNL     1      20.042  49.125  43.442  1.00  0.00     0.016 C 
BRANCH  36  38
HETATM   38  C2  UNL     1      20.523  50.155  45.544  1.00  0.00     0.006 C 
HETATM   39  C1  UNL     1      20.839  51.222  44.552  1.00  0.00     0.006 C 
ENDBRANCH  36  38
ENDBRANCH   1  36
TORSDOF 11
ENDMDL
MODEL 5
REMARK VINA RESULT: -1.723785082      3.544      7.264
REMARK  11 active torsions:
REMARK  status: ('A' for Active; 'I' for Inactive)
REMARK    1  A    between atoms: C2_2  and  C3_3 
REMARK    2  A    between atoms: C3_3  and  C5_5 
REMARK    3  A    between atoms: C6_8  and  O1_9 
REMARK    4  A    between atoms: C7_11  and  C8_12 
REMARK    5  A    between atoms: C8_12  and  C9_13 
REMARK    6  A    between atoms: C13_20  and  C14_21 
REMARK    7  A    between atoms: C14_21  and  C15_22 
REMARK    8  A    between atoms: C15_22  and  N3_23 
REMARK    9  A    between atoms: C16_25  and  C17_26 
REMARK   10  A    between atoms: C17_26  and  C18_27 
REMARK   11  A    between atoms: C23_33  and  C24_34 
ROOT
HETATM    1  C5  UNL     1      20.026  48.264  45.125  1.00  0.00     0.083 C 
HETATM    2  N1  UNL     1      19.076  47.280  44.621  1.00  0.00    -0.337 N 
ATOM      3  H1  UNL     1      18.155  47.342  45.054  1.00  0.00     0.167 HD
HETATM    4  C6  UNL     1      19.175  46.284  43.676  1.00  0.00     0.139 C 
HETATM    5  C7  UNL     1      19.921  45.002  43.630  1.00  0.00     0.159 C 
HETATM    6  N2  UNL     1      20.478  44.604  44.890  1.00  0.00    -0.349 N 
ATOM      7  H2  UNL     1      19.829  44.553  45.676  1.00  0.00     0.163 HD
HETATM    8  C12 UNL     1      21.819  44.274  45.166  1.00  0.00     0.222 C 
HETATM    9  O2  UNL     1      22.110  43.518  46.151  1.00  0.00    -0.273 OA
HETATM   10  C13 UNL     1      22.983  44.747  44.374  1.00  0.00     0.084 C 
HETATM   11  C19 UNL     1      23.688  45.756  45.265  1.00  0.00     0.039 C 
HETATM   12  C20 UNL     1      23.185  47.141  44.933  1.00  0.00     0.089 C 
HETATM   13  C21 UNL     1      24.355  48.062  44.753  1.00  0.00     0.028 C 
HETATM   14  C22 UNL     1      24.514  48.820  46.044  1.00  0.00     0.037 C 
HETATM   15  C23 UNL     1      23.492  48.118  46.939  1.00  0.00     0.177 C 
HETATM   16  N5  UNL     1      22.416  47.727  46.063  1.00  0.00    -0.329 N 
HETATM   17  C25 UNL     1      21.005  47.763  46.070  1.00  0.00     0.267 C 
HETATM   18  O4  UNL     1      20.475  47.245  47.134  1.00  0.00    -0.266 OA
ENDROOT
BRANCH  10  19
HETATM   19  C14 UNL     1      23.788  43.539  44.048  1.00  0.00     0.058 C 
BRANCH  19  20
HETATM   20  C15 UNL     1      25.146  43.513  44.745  1.00  0.00     0.061 C 
BRANCH  20  21
HETATM   21  N3  UNL     1      25.602  44.816  44.816  1.00  0.00    -0.382 N 
HETATM   22  C16 UNL     1      26.799  45.311  44.386  1.00  0.00     0.061 C 
ATOM     23  H3  UNL     1      24.966  45.490  45.242  1.00  0.00     0.163 HD
BRANCH  22  24
HETATM   24  C17 UNL     1      28.095  45.024  45.006  1.00  0.00     0.059 C 
BRANCH  24  25
HETATM   25  C18 UNL     1      29.238  45.914  44.601  1.00  0.00     0.119 C 
HETATM   26 CL1  UNL     1      29.839  46.864  45.994  1.00  0.00    -0.130 Cl
ENDBRANCH  24  25
ENDBRANCH  22  24
ENDBRANCH  20  21
ENDBRANCH  19  20
ENDBRANCH  10  19
BRANCH   5  27
HETATM   27  C8  UNL     1      19.204  43.881  42.942  1.00  0.00     0.037 C 
BRANCH  27  28
HETATM   28  C9  UNL     1      17.821  43.570  43.199  1.00  0.00    -0.020 C 
HETATM   29  C10 UNL     1      16.706  44.095  42.405  1.00  0.00     0.009 C 
HETATM   30  C11 UNL     1      17.471  43.801  44.685  1.00  0.00     0.009 C 
ENDBRANCH  27  28
ENDBRANCH   5  27
BRANCH   4  31
HETATM   31  O1  UNL     1      18.509  46.407  42.562  1.00  0.00    -0.348 OA
ATOM     32  H1  UNL     1      18.579  45.721  41.909  1.00  0.00     0.219 HD
ENDBRANCH   4  31
BRANCH  15  33
HETATM   33  C24 UNL     1      23.208  48.859  48.135  1.00  0.00     0.254 C 
HETATM   34  N4  UNL     1      23.408  50.238  48.297  1.00  0.00    -0.060 NA
HETATM   35  O3  UNL     1      22.735  48.253  49.160  1.00  0.00    -0.275 OA
ENDBRANCH  15  33
BRANCH   1  36
HETATM   36  C3  UNL     1      20.488  49.212  44.052  1.00  0.00     0.037 C 
HETATM   37  C4  UNL     1      21.807  48.830  43.484  1.00  0.00     0.016 C 
BRANCH  36  38
HETATM   38  C2  UNL     1      20.784  50.534  44.809  1.00  0.00     0.006 C 
HETATM   39  C1  UNL     1      22.201  50.896  44.524  1.00  0.00     0.006 C 
ENDBRANCH  36  38
ENDBRANCH   1  36
TORSDOF 11
ENDMDL
