MODEL 1
REMARK VINA RESULT: -9.226598452      0.000      0.000
REMARK  14 active torsions:
REMARK  status: ('A' for Active; 'I' for Inactive)
REMARK    1  A    between atoms: C2_2  and  N1_4 
REMARK    2  A    between atoms: N1_4  and  C4_6 
REMARK    3  A    between atoms: N3_10  and  C6_12 
REMARK    4  A    between atoms: C6_12  and  C7_13 
REMARK    5  A    between atoms: C7_13  and  C8_14 
REMARK    6  A    between atoms: C14_22  and  N5_23 
REMARK       I    between atoms: N5_23  and  C15_25 
REMARK       I    between atoms: C15_25  and  N7_32 
REMARK    7  A    between atoms: N6_26  and  C16_28 
REMARK    8  A    between atoms: C16_28  and  C17_29 
REMARK    9  A    between atoms: C17_29  and  C18_30 
REMARK   10  A    between atoms: N7_32  and  C19_34 
REMARK   11  A    between atoms: C19_34  and  C20_35 
REMARK   12  A    between atoms: C20_35  and  C21_36 
REMARK   13  A    between atoms: C21_36  and  N8_37 
REMARK   14  A    between atoms: N8_37  and  C22_39 
ROOT
HETATM    1  C4  UNL     1      20.685  44.329  45.491  1.00  0.00     0.707 A 
HETATM    2  N2  UNL     1      19.695  44.467  44.577  1.00  0.00    -0.022 N 
ATOM      3  H2  UNL     1      19.160  43.641  44.309  1.00  0.00     0.203 HD
HETATM    4  C5  UNL     1      19.388  45.647  44.008  1.00  0.00     0.707 A 
HETATM    5  N3  UNL     1      18.455  45.818  43.137  1.00  0.00    -0.225 N 
ATOM      6  H3  UNL     1      18.299  46.755  42.765  1.00  0.00     0.177 HD
HETATM    7  N4  UNL     1      20.146  46.713  44.413  1.00  0.00    -0.021 N 
ATOM      8  H4  UNL     1      19.947  47.627  44.006  1.00  0.00     0.203 HD
HETATM    9  C14 UNL     1      21.132  46.625  45.312  1.00  0.00     0.725 A 
HETATM   10  N10 UNL     1      21.395  45.424  45.848  1.00  0.00    -0.021 N 
ATOM     11  H10 UNL     1      22.143  45.334  46.535  1.00  0.00     0.203 HD
ENDROOT
BRANCH   9  12
HETATM   12  N5  UNL     1      21.815  47.687  45.649  1.00  0.00    -0.022 N 
HETATM   13  C15 UNL     1      22.511  48.478  44.729  1.00  0.00     0.688 C 
HETATM   14  N6  UNL     1      23.747  48.287  44.434  1.00  0.00    -0.226 N 
HETATM   15  N7  UNL     1      21.835  49.548  44.081  1.00  0.00    -0.226 N 
ATOM     16  H6  UNL     1      24.213  48.890  43.756  1.00  0.00     0.177 HD
ATOM     17  H7  UNL     1      21.684  49.566  43.073  1.00  0.00     0.177 HD
ATOM     18  H5  UNL     1      21.842  47.952  46.634  1.00  0.00     0.203 HD
BRANCH  14  19
HETATM   19  C16 UNL     1      24.461  47.226  45.064  1.00  0.00     0.139 C 
BRANCH  19  20
HETATM   20  C17 UNL     1      24.799  46.086  44.140  1.00  0.00     0.035 C 
BRANCH  20  21
HETATM   21  C18 UNL     1      24.387  46.513  42.743  1.00  0.00     0.116 C 
HETATM   22 CL1  UNL     1      22.935  45.630  42.280  1.00  0.00    -0.130 Cl
ENDBRANCH  20  21
ENDBRANCH  19  20
ENDBRANCH  14  19
BRANCH  15  23
HETATM   23  C19 UNL     1      21.369  50.627  44.964  1.00  0.00     0.139 C 
BRANCH  23  24
HETATM   24  C20 UNL     1      22.622  51.332  45.442  1.00  0.00     0.040 C 
BRANCH  24  25
HETATM   25  C21 UNL     1      22.623  51.513  46.941  1.00  0.00     0.123 C 
BRANCH  25  26
HETATM   26  N8  UNL     1      23.348  50.403  47.516  1.00  0.00    -0.376 N 
ATOM     27  H8  UNL     1      23.850  49.751  46.914  1.00  0.00     0.161 HD
BRANCH  26  28
HETATM   28  C22 UNL     1      23.358  50.243  48.780  1.00  0.00     0.100 A 
HETATM   29  C23 UNL     1      22.919  49.054  49.312  1.00  0.00     0.048 A 
HETATM   30  C24 UNL     1      22.936  48.896  50.679  1.00  0.00     0.005 A 
HETATM   31  C25 UNL     1      23.379  49.905  51.484  1.00  0.00     0.017 A 
HETATM   32  C26 UNL     1      23.809  51.079  50.899  1.00  0.00     0.089 A 
HETATM   33  N9  UNL     1      23.797  51.242  49.567  1.00  0.00    -0.353 N 
ATOM     34  H9  UNL     1      24.119  52.117  49.153  1.00  0.00     0.166 HD
ENDBRANCH  26  28
ENDBRANCH  25  26
ENDBRANCH  24  25
ENDBRANCH  23  24
ENDBRANCH  15  23
ENDBRANCH   9  12
BRANCH   1  35
HETATM   35  N1  UNL     1      20.918  43.169  45.991  1.00  0.00    -0.221 N 
ATOM     36  H1  UNL     1      20.205  42.766  46.598  1.00  0.00     0.178 HD
BRANCH  35  37
HETATM   37  C2  UNL     1      22.094  42.404  45.763  1.00  0.00     0.091 C 
HETATM   38  C1  UNL     1      22.808  42.261  47.106  1.00  0.00     0.032 C 
HETATM   39  C3  UNL     1      23.061  43.049  44.784  1.00  0.00     0.032 C 
ENDBRANCH  35  37
ENDBRANCH   1  35
BRANCH   5  40
HETATM   40  C6  UNL     1      17.623  44.744  42.667  1.00  0.00     0.142 C 
BRANCH  40  41
HETATM   41  C7  UNL     1      17.296  45.003  41.204  1.00  0.00     0.058 C 
BRANCH  41  42
HETATM   42  C8  UNL     1      16.065  45.783  41.020  1.00  0.00    -0.057 A 
HETATM   43  C9  UNL     1      14.833  45.358  41.440  1.00  0.00     0.007 A 
HETATM   44  C10 UNL     1      13.692  46.127  41.244  1.00  0.00     0.001 A 
HETATM   45  C11 UNL     1      13.768  47.344  40.618  1.00  0.00     0.000 A 
HETATM   46  C12 UNL     1      15.010  47.784  40.187  1.00  0.00     0.001 A 
HETATM   47  C13 UNL     1      16.132  47.021  40.384  1.00  0.00     0.007 A 
ENDBRANCH  41  42
ENDBRANCH  40  41
ENDBRANCH   5  40
TORSDOF 14
ENDMDL
MODEL 2
REMARK VINA RESULT: -9.149356050      2.710      9.694
REMARK  14 active torsions:
REMARK  status: ('A' for Active; 'I' for Inactive)
REMARK    1  A    between atoms: C2_2  and  N1_4 
REMARK    2  A    between atoms: N1_4  and  C4_6 
REMARK    3  A    between atoms: N3_10  and  C6_12 
REMARK    4  A    between atoms: C6_12  and  C7_13 
REMARK    5  A    between atoms: C7_13  and  C8_14 
REMARK    6  A    between atoms: C14_22  and  N5_23 
REMARK       I    between atoms: N5_23  and  C15_25 
REMARK       I    between atoms: C15_25  and  N7_32 
REMARK    7  A    between atoms: N6_26  and  C16_28 
REMARK    8  A    between atoms: C16_28  and  C17_29 
REMARK    9  A    between atoms: C17_29  and  C18_30 
REMARK   10  A    between atoms: N7_32  and  C19_34 
REMARK   11  A    between atoms: C19_34  and  C20_35 
REMARK   12  A    between atoms: C20_35  and  C21_36 
REMARK   13  A    between atoms: C21_36  and  N8_37 
REMARK   14  A    between atoms: N8_37  and  C22_39 
ROOT
HETATM    1  C4  UNL     1      23.241  49.929  47.702  1.00  0.00     0.707 A 
HETATM    2  N2  UNL     1      23.118  51.200  47.248  1.00  0.00    -0.022 N 
ATOM      3  H2  UNL     1      23.370  51.967  47.872  1.00  0.00     0.203 HD
HETATM    4  C5  UNL     1      22.678  51.493  46.011  1.00  0.00     0.707 A 
HETATM    5  N3  UNL     1      22.549  52.687  45.545  1.00  0.00    -0.225 N 
ATOM      6  H3  UNL     1      22.208  52.805  44.591  1.00  0.00     0.177 HD
HETATM    7  N4  UNL     1      22.358  50.416  45.228  1.00  0.00    -0.021 N 
ATOM      8  H4  UNL     1      22.020  50.594  44.282  1.00  0.00     0.203 HD
HETATM    9  C14 UNL     1      22.464  49.146  45.631  1.00  0.00     0.725 A 
HETATM   10  N10 UNL     1      22.908  48.911  46.875  1.00  0.00    -0.021 N 
ATOM     11  H10 UNL     1      22.996  47.950  47.203  1.00  0.00     0.203 HD
ENDROOT
BRANCH   9  12
HETATM   12  N5  UNL     1      22.138  48.169  44.828  1.00  0.00    -0.022 N 
HETATM   13  C15 UNL     1      22.113  46.826  45.220  1.00  0.00     0.688 C 
HETATM   14  N6  UNL     1      23.121  46.040  45.092  1.00  0.00    -0.226 N 
HETATM   15  N7  UNL     1      20.924  46.290  45.787  1.00  0.00    -0.226 N 
ATOM     16  H6  UNL     1      23.056  45.067  45.393  1.00  0.00     0.177 HD
ATOM     17  H7  UNL     1      20.885  45.948  46.747  1.00  0.00     0.177 HD
ATOM     18  H5  UNL     1      21.889  48.397  43.865  1.00  0.00     0.203 HD
BRANCH  14  19
HETATM   19  C16 UNL     1      24.330  46.539  44.525  1.00  0.00     0.139 C 
BRANCH  19  20
HETATM   20  C17 UNL     1      24.393  46.426  43.025  1.00  0.00     0.035 C 
BRANCH  20  21
HETATM   21  C18 UNL     1      23.438  45.315  42.626  1.00  0.00     0.116 C 
HETATM   22 CL1  UNL     1      23.206  45.361  40.881  1.00  0.00    -0.130 Cl
ENDBRANCH  20  21
ENDBRANCH  19  20
ENDBRANCH  14  19
BRANCH  15  23
HETATM   23  C19 UNL     1      19.756  46.263  44.895  1.00  0.00     0.139 C 
BRANCH  23  24
HETATM   24  C20 UNL     1      19.711  44.858  44.326  1.00  0.00     0.040 C 
BRANCH  24  25
HETATM   25  C21 UNL     1      18.297  44.334  44.250  1.00  0.00     0.123 C 
BRANCH  25  26
HETATM   26  N8  UNL     1      18.063  43.902  42.891  1.00  0.00    -0.376 N 
ATOM     27  H8  UNL     1      18.634  43.163  42.482  1.00  0.00     0.161 HD
BRANCH  26  28
HETATM   28  C22 UNL     1      17.138  44.450  42.206  1.00  0.00     0.100 A 
HETATM   29  C23 UNL     1      17.419  45.584  41.481  1.00  0.00     0.048 A 
HETATM   30  C24 UNL     1      16.411  46.165  40.746  1.00  0.00     0.005 A 
HETATM   31  C25 UNL     1      15.160  45.620  40.742  1.00  0.00     0.017 A 
HETATM   32  C26 UNL     1      14.931  44.479  41.486  1.00  0.00     0.089 A 
HETATM   33  N9  UNL     1      15.908  43.906  42.206  1.00  0.00    -0.353 N 
ATOM     34  H9  UNL     1      15.719  43.064  42.750  1.00  0.00     0.166 HD
ENDBRANCH  26  28
ENDBRANCH  25  26
ENDBRANCH  24  25
ENDBRANCH  23  24
ENDBRANCH  15  23
ENDBRANCH   9  12
BRANCH   1  35
HETATM   35  N1  UNL     1      23.670  49.729  48.895  1.00  0.00    -0.221 N 
ATOM     36  H1  UNL     1      24.568  49.257  49.001  1.00  0.00     0.178 HD
BRANCH  35  37
HETATM   37  C2  UNL     1      22.988  50.115  50.082  1.00  0.00     0.091 C 
HETATM   38  C1  UNL     1      23.957  50.963  50.905  1.00  0.00     0.032 C 
HETATM   39  C3  UNL     1      22.547  48.941  50.940  1.00  0.00     0.032 C 
ENDBRANCH  35  37
ENDBRANCH   1  35
BRANCH   5  40
HETATM   40  C6  UNL     1      22.866  53.860  46.312  1.00  0.00     0.142 C 
BRANCH  40  41
HETATM   41  C7  UNL     1      23.200  54.985  45.343  1.00  0.00     0.058 C 
BRANCH  41  42
HETATM   42  C8  UNL     1      24.608  55.396  45.404  1.00  0.00    -0.057 A 
HETATM   43  C9  UNL     1      25.057  56.616  44.972  1.00  0.00     0.007 A 
HETATM   44  C10 UNL     1      26.400  56.966  45.046  1.00  0.00     0.001 A 
HETATM   45  C11 UNL     1      27.323  56.090  45.557  1.00  0.00     0.000 A 
HETATM   46  C12 UNL     1      26.881  54.852  45.997  1.00  0.00     0.001 A 
HETATM   47  C13 UNL     1      25.554  54.514  45.922  1.00  0.00     0.007 A 
ENDBRANCH  41  42
ENDBRANCH  40  41
ENDBRANCH   5  40
TORSDOF 14
ENDMDL
MODEL 3
REMARK VINA RESULT: -8.964984594      0.980      1.298
REMARK  14 active torsions:
REMARK  status: ('A' for Active; 'I' for Inactive)
REMARK    1  A    between atoms: C2_2  and  N1_4 
REMARK    2  A    between atoms: N1_4  and  C4_6 
REMARK    3  A    between atoms: N3_10  and  C6_12 
REMARK    4  A    between atoms: C6_12  and  C7_13 
REMARK    5  A    between atoms: C7_13  and  C8_14 
REMARK    6  A    between atoms: C14_22  and  N5_23 
REMARK       I    between atoms: N5_23  and  C15_25 
REMARK       I    between atoms: C15_25  and  N7_32 
REMARK    7  A    between atoms: N6_26  and  C16_28 
REMARK    8  A    between atoms: C16_28  and  C17_29 
REMARK    9  A    between atoms: C17_29  and  C18_30 
REMARK   10  A    between atoms: N7_32  and  C19_34 
REMARK   11  A    between atoms: C19_34  and  C20_35 
REMARK   12  A    between atoms: C20_35  and  C21_36 
REMARK   13  A    between atoms: C21_36  and  N8_37 
REMARK   14  A    between atoms: N8_37  and  C22_39 
ROOT
HETATM    1  C4  UNL     1      20.669  44.212  45.203  1.00  0.00     0.707 A 
HETATM    2  N2  UNL     1      19.674  44.410  44.305  1.00  0.00    -0.022 N 
ATOM      3  H2  UNL     1      19.121  43.608  44.004  1.00  0.00     0.203 HD
HETATM    4  C5  UNL     1      19.385  45.621  43.794  1.00  0.00     0.707 A 
HETATM    5  N3  UNL     1      18.447  45.849  42.941  1.00  0.00    -0.225 N 
ATOM      6  H3  UNL     1      18.306  46.805  42.614  1.00  0.00     0.177 HD
HETATM    7  N4  UNL     1      20.166  46.652  44.241  1.00  0.00    -0.021 N 
ATOM      8  H4  UNL     1      19.980  47.588  43.879  1.00  0.00     0.203 HD
HETATM    9  C14 UNL     1      21.157  46.505  45.127  1.00  0.00     0.725 A 
HETATM   10  N10 UNL     1      21.402  45.276  45.603  1.00  0.00    -0.021 N 
ATOM     11  H10 UNL     1      22.154  45.140  46.279  1.00  0.00     0.203 HD
ENDROOT
BRANCH   9  12
HETATM   12  N5  UNL     1      21.862  47.537  45.506  1.00  0.00    -0.022 N 
HETATM   13  C15 UNL     1      22.682  48.270  44.640  1.00  0.00     0.688 C 
HETATM   14  N6  UNL     1      23.928  48.008  44.466  1.00  0.00    -0.226 N 
HETATM   15  N7  UNL     1      22.127  49.358  43.913  1.00  0.00    -0.226 N 
ATOM     16  H6  UNL     1      24.486  48.569  43.823  1.00  0.00     0.177 HD
ATOM     17  H7  UNL     1      22.071  49.360  42.894  1.00  0.00     0.177 HD
ATOM     18  H5  UNL     1      21.812  47.824  46.484  1.00  0.00     0.203 HD
BRANCH  14  19
HETATM   19  C16 UNL     1      24.522  46.926  45.179  1.00  0.00     0.139 C 
BRANCH  19  20
HETATM   20  C17 UNL     1      25.267  45.954  44.303  1.00  0.00     0.035 C 
BRANCH  20  21
HETATM   21  C18 UNL     1      26.744  46.275  44.446  1.00  0.00     0.116 C 
HETATM   22 CL1  UNL     1      27.608  44.804  44.883  1.00  0.00    -0.130 Cl
ENDBRANCH  20  21
ENDBRANCH  19  20
ENDBRANCH  14  19
BRANCH  15  23
HETATM   23  C19 UNL     1      21.640  50.480  44.728  1.00  0.00     0.139 C 
BRANCH  23  24
HETATM   24  C20 UNL     1      22.882  51.143  45.291  1.00  0.00     0.040 C 
BRANCH  24  25
HETATM   25  C21 UNL     1      22.773  51.355  46.782  1.00  0.00     0.123 C 
BRANCH  25  26
HETATM   26  N8  UNL     1      23.362  50.207  47.433  1.00  0.00    -0.376 N 
ATOM     27  H8  UNL     1      23.766  49.454  46.876  1.00  0.00     0.161 HD
BRANCH  26  28
HETATM   28  C22 UNL     1      23.374  50.140  48.705  1.00  0.00     0.100 A 
HETATM   29  C23 UNL     1      22.961  48.984  49.323  1.00  0.00     0.048 A 
HETATM   30  C24 UNL     1      22.980  48.927  50.698  1.00  0.00     0.005 A 
HETATM   31  C25 UNL     1      23.400  50.001  51.426  1.00  0.00     0.017 A 
HETATM   32  C26 UNL     1      23.806  51.139  50.757  1.00  0.00     0.089 A 
HETATM   33  N9  UNL     1      23.791  51.203  49.416  1.00  0.00    -0.353 N 
ATOM     34  H9  UNL     1      24.094  52.052  48.939  1.00  0.00     0.166 HD
ENDBRANCH  26  28
ENDBRANCH  25  26
ENDBRANCH  24  25
ENDBRANCH  23  24
ENDBRANCH  15  23
ENDBRANCH   9  12
BRANCH   1  35
HETATM   35  N1  UNL     1      20.884  43.026  45.646  1.00  0.00    -0.221 N 
ATOM     36  H1  UNL     1      20.099  42.530  46.068  1.00  0.00     0.178 HD
BRANCH  35  37
HETATM   37  C2  UNL     1      22.134  42.351  45.595  1.00  0.00     0.091 C 
HETATM   38  C1  UNL     1      22.580  42.114  47.037  1.00  0.00     0.032 C 
HETATM   39  C3  UNL     1      23.224  43.139  44.890  1.00  0.00     0.032 C 
ENDBRANCH  35  37
ENDBRANCH   1  35
BRANCH   5  40
HETATM   40  C6  UNL     1      17.592  44.813  42.429  1.00  0.00     0.142 C 
BRANCH  40  41
HETATM   41  C7  UNL     1      17.260  45.143  40.981  1.00  0.00     0.058 C 
BRANCH  41  42
HETATM   42  C8  UNL     1      16.021  45.918  40.838  1.00  0.00    -0.057 A 
HETATM   43  C9  UNL     1      15.971  47.163  40.269  1.00  0.00     0.007 A 
HETATM   44  C10 UNL     1      14.777  47.864  40.154  1.00  0.00     0.001 A 
HETATM   45  C11 UNL     1      13.603  47.325  40.614  1.00  0.00     0.000 A 
HETATM   46  C12 UNL     1      13.641  46.066  41.192  1.00  0.00     0.001 A 
HETATM   47  C13 UNL     1      14.823  45.380  41.302  1.00  0.00     0.007 A 
ENDBRANCH  41  42
ENDBRANCH  40  41
ENDBRANCH   5  40
TORSDOF 14
ENDMDL
MODEL 4
REMARK VINA RESULT: -8.904639445      2.881      9.742
REMARK  14 active torsions:
REMARK  status: ('A' for Active; 'I' for Inactive)
REMARK    1  A    between atoms: C2_2  and  N1_4 
REMARK    2  A    between atoms: N1_4  and  C4_6 
REMARK    3  A    between atoms: N3_10  and  C6_12 
REMARK    4  A    between atoms: C6_12  and  C7_13 
REMARK    5  A    between atoms: C7_13  and  C8_14 
REMARK    6  A    between atoms: C14_22  and  N5_23 
REMARK       I    between atoms: N5_23  and  C15_25 
REMARK       I    between atoms: C15_25  and  N7_32 
REMARK    7  A    between atoms: N6_26  and  C16_28 
REMARK    8  A    between atoms: C16_28  and  C17_29 
REMARK    9  A    between atoms: C17_29  and  C18_30 
REMARK   10  A    between atoms: N7_32  and  C19_34 
REMARK   11  A    between atoms: C19_34  and  C20_35 
REMARK   12  A    between atoms: C20_35  and  C21_36 
REMARK   13  A    between atoms: C21_36  and  N8_37 
REMARK   14  A    between atoms: N8_37  and  C22_39 
ROOT
HETATM    1  C4  UNL     1      23.303  49.871  47.670  1.00  0.00     0.707 A 
HETATM    2  N2  UNL     1      23.183  51.140  47.213  1.00  0.00    -0.022 N 
ATOM      3  H2  UNL     1      23.419  51.910  47.841  1.00  0.00     0.203 HD
HETATM    4  C5  UNL     1      22.764  51.431  45.968  1.00  0.00     0.707 A 
HETATM    5  N3  UNL     1      22.637  52.623  45.498  1.00  0.00    -0.225 N 
ATOM      6  H3  UNL     1      22.313  52.738  44.538  1.00  0.00     0.177 HD
HETATM    7  N4  UNL     1      22.463  50.352  45.181  1.00  0.00    -0.021 N 
ATOM      8  H4  UNL     1      22.141  50.526  44.229  1.00  0.00     0.203 HD
HETATM    9  C14 UNL     1      22.567  49.082  45.587  1.00  0.00     0.725 A 
HETATM   10  N10 UNL     1      22.990  48.851  46.839  1.00  0.00    -0.021 N 
ATOM     11  H10 UNL     1      23.077  47.890  47.169  1.00  0.00     0.203 HD
ENDROOT
BRANCH   9  12
HETATM   12  N5  UNL     1      22.260  48.103  44.778  1.00  0.00    -0.022 N 
HETATM   13  C15 UNL     1      22.185  46.765  45.184  1.00  0.00     0.688 C 
HETATM   14  N6  UNL     1      23.181  45.956  45.116  1.00  0.00    -0.226 N 
HETATM   15  N7  UNL     1      20.958  46.263  45.695  1.00  0.00    -0.226 N 
ATOM     16  H6  UNL     1      23.079  44.989  45.424  1.00  0.00     0.177 HD
ATOM     17  H7  UNL     1      20.862  45.933  46.656  1.00  0.00     0.177 HD
ATOM     18  H5  UNL     1      22.066  48.325  43.802  1.00  0.00     0.203 HD
BRANCH  14  19
HETATM   19  C16 UNL     1      24.428  46.421  44.606  1.00  0.00     0.139 C 
BRANCH  19  20
HETATM   20  C17 UNL     1      25.509  45.373  44.590  1.00  0.00     0.035 C 
BRANCH  20  21
HETATM   21  C18 UNL     1      26.831  46.107  44.453  1.00  0.00     0.116 C 
HETATM   22 CL1  UNL     1      28.145  44.989  44.807  1.00  0.00    -0.130 Cl
ENDBRANCH  20  21
ENDBRANCH  19  20
ENDBRANCH  14  19
BRANCH  15  23
HETATM   23  C19 UNL     1      19.836  46.250  44.746  1.00  0.00     0.139 C 
BRANCH  23  24
HETATM   24  C20 UNL     1      19.770  44.832  44.213  1.00  0.00     0.040 C 
BRANCH  24  25
HETATM   25  C21 UNL     1      18.358  44.298  44.226  1.00  0.00     0.123 C 
BRANCH  25  26
HETATM   26  N8  UNL     1      18.045  43.854  42.887  1.00  0.00    -0.376 N 
ATOM     27  H8  UNL     1      18.541  43.061  42.480  1.00  0.00     0.161 HD
BRANCH  26  28
HETATM   28  C22 UNL     1      17.145  44.457  42.217  1.00  0.00     0.100 A 
HETATM   29  C23 UNL     1      17.472  45.602  41.529  1.00  0.00     0.048 A 
HETATM   30  C24 UNL     1      16.489  46.243  40.809  1.00  0.00     0.005 A 
HETATM   31  C25 UNL     1      15.219  45.747  40.785  1.00  0.00     0.017 A 
HETATM   32  C26 UNL     1      14.943  44.594  41.492  1.00  0.00     0.089 A 
HETATM   33  N9  UNL     1      15.895  43.962  42.197  1.00  0.00    -0.353 N 
ATOM     34  H9  UNL     1      15.672  43.111  42.713  1.00  0.00     0.166 HD
ENDBRANCH  26  28
ENDBRANCH  25  26
ENDBRANCH  24  25
ENDBRANCH  23  24
ENDBRANCH  15  23
ENDBRANCH   9  12
BRANCH   1  35
HETATM   35  N1  UNL     1      23.711  49.674  48.871  1.00  0.00    -0.221 N 
ATOM     36  H1  UNL     1      24.593  49.177  48.995  1.00  0.00     0.178 HD
BRANCH  35  37
HETATM   37  C2  UNL     1      23.027  50.097  50.044  1.00  0.00     0.091 C 
HETATM   38  C1  UNL     1      23.992  50.977  50.838  1.00  0.00     0.032 C 
HETATM   39  C3  UNL     1      22.592  48.951  50.942  1.00  0.00     0.032 C 
ENDBRANCH  35  37
ENDBRANCH   1  35
BRANCH   5  40
HETATM   40  C6  UNL     1      22.934  53.799  46.269  1.00  0.00     0.142 C 
BRANCH  40  41
HETATM   41  C7  UNL     1      23.281  54.924  45.306  1.00  0.00     0.058 C 
BRANCH  41  42
HETATM   42  C8  UNL     1      24.681  55.356  45.408  1.00  0.00    -0.057 A 
HETATM   43  C9  UNL     1      25.118  56.596  45.023  1.00  0.00     0.007 A 
HETATM   44  C10 UNL     1      26.452  56.966  45.134  1.00  0.00     0.001 A 
HETATM   45  C11 UNL     1      27.380  56.090  45.636  1.00  0.00     0.000 A 
HETATM   46  C12 UNL     1      26.951  54.832  46.028  1.00  0.00     0.001 A 
HETATM   47  C13 UNL     1      25.632  54.474  45.916  1.00  0.00     0.007 A 
ENDBRANCH  41  42
ENDBRANCH  40  41
ENDBRANCH   5  40
TORSDOF 14
ENDMDL
MODEL 5
REMARK VINA RESULT: -8.818830590      2.931      4.101
REMARK  14 active torsions:
REMARK  status: ('A' for Active; 'I' for Inactive)
REMARK    1  A    between atoms: C2_2  and  N1_4 
REMARK    2  A    between atoms: N1_4  and  C4_6 
REMARK    3  A    between atoms: N3_10  and  C6_12 
REMARK    4  A    between atoms: C6_12  and  C7_13 
REMARK    5  A    between atoms: C7_13  and  C8_14 
REMARK    6  A    between atoms: C14_22  and  N5_23 
REMARK       I    between atoms: N5_23  and  C15_25 
REMARK       I    between atoms: C15_25  and  N7_32 
REMARK    7  A    between atoms: N6_26  and  C16_28 
REMARK    8  A    between atoms: C16_28  and  C17_29 
REMARK    9  A    between atoms: C17_29  and  C18_30 
REMARK   10  A    between atoms: N7_32  and  C19_34 
REMARK   11  A    between atoms: C19_34  and  C20_35 
REMARK   12  A    between atoms: C20_35  and  C21_36 
REMARK   13  A    between atoms: C21_36  and  N8_37 
REMARK   14  A    between atoms: N8_37  and  C22_39 
ROOT
HETATM    1  C4  UNL     1      21.417  45.918  42.935  1.00  0.00     0.707 A 
HETATM    2  N2  UNL     1      20.179  45.370  42.932  1.00  0.00    -0.022 N 
ATOM      3  H2  UNL     1      19.992  44.589  42.302  1.00  0.00     0.203 HD
HETATM    4  C5  UNL     1      19.184  45.810  43.725  1.00  0.00     0.707 A 
HETATM    5  N3  UNL     1      17.996  45.314  43.751  1.00  0.00    -0.225 N 
ATOM      6  H3  UNL     1      17.311  45.719  44.390  1.00  0.00     0.177 HD
HETATM    7  N4  UNL     1      19.504  46.860  44.544  1.00  0.00    -0.021 N 
ATOM      8  H4  UNL     1      18.779  47.225  45.161  1.00  0.00     0.203 HD
HETATM    9  C14 UNL     1      20.711  47.433  44.582  1.00  0.00     0.725 A 
HETATM   10  N10 UNL     1      21.665  46.953  43.770  1.00  0.00    -0.021 N 
ATOM     11  H10 UNL     1      22.593  47.375  43.783  1.00  0.00     0.203 HD
ENDROOT
BRANCH   9  12
HETATM   12  N5  UNL     1      20.942  48.433  45.390  1.00  0.00    -0.022 N 
HETATM   13  C15 UNL     1      22.043  49.288  45.261  1.00  0.00     0.688 C 
HETATM   14  N6  UNL     1      23.160  49.086  45.862  1.00  0.00    -0.226 N 
HETATM   15  N7  UNL     1      21.936  50.437  44.431  1.00  0.00    -0.226 N 
ATOM     16  H6  UNL     1      23.936  49.737  45.737  1.00  0.00     0.177 HD
ATOM     17  H7  UNL     1      22.504  50.559  43.593  1.00  0.00     0.177 HD
ATOM     18  H5  UNL     1      20.287  48.599  46.153  1.00  0.00     0.203 HD
BRANCH  14  19
HETATM   19  C16 UNL     1      23.306  47.946  46.704  1.00  0.00     0.139 C 
BRANCH  19  20
HETATM   20  C17 UNL     1      23.965  48.244  48.025  1.00  0.00     0.035 C 
BRANCH  20  21
HETATM   21  C18 UNL     1      23.300  49.491  48.578  1.00  0.00     0.116 C 
HETATM   22 CL1  UNL     1      23.323  49.420  50.337  1.00  0.00    -0.130 Cl
ENDBRANCH  20  21
ENDBRANCH  19  20
ENDBRANCH  14  19
BRANCH  15  23
HETATM   23  C19 UNL     1      20.951  51.439  44.864  1.00  0.00     0.139 C 
BRANCH  23  24
HETATM   24  C20 UNL     1      21.599  52.174  46.021  1.00  0.00     0.040 C 
BRANCH  24  25
HETATM   25  C21 UNL     1      22.964  52.703  45.649  1.00  0.00     0.123 C 
BRANCH  25  26
HETATM   26  N8  UNL     1      22.889  54.146  45.646  1.00  0.00    -0.376 N 
ATOM     27  H8  UNL     1      21.983  54.612  45.687  1.00  0.00     0.161 HD
BRANCH  26  28
HETATM   28  C22 UNL     1      23.961  54.833  45.590  1.00  0.00     0.100 A 
HETATM   29  C23 UNL     1      25.152  54.251  45.954  1.00  0.00     0.048 A 
HETATM   30  C24 UNL     1      26.302  55.006  45.888  1.00  0.00     0.005 A 
HETATM   31  C25 UNL     1      26.251  56.303  45.471  1.00  0.00     0.017 A 
HETATM   32  C26 UNL     1      25.029  56.839  45.117  1.00  0.00     0.089 A 
HETATM   33  N9  UNL     1      23.903  56.111  45.177  1.00  0.00    -0.353 N 
ATOM     34  H9  UNL     1      23.009  56.525  44.912  1.00  0.00     0.166 HD
ENDBRANCH  26  28
ENDBRANCH  25  26
ENDBRANCH  24  25
ENDBRANCH  23  24
ENDBRANCH  15  23
ENDBRANCH   9  12
BRANCH   1  35
HETATM   35  N1  UNL     1      22.314  45.441  42.150  1.00  0.00    -0.221 N 
ATOM     36  H1  UNL     1      22.035  45.217  41.195  1.00  0.00     0.178 HD
BRANCH  35  37
HETATM   37  C2  UNL     1      23.669  45.202  42.510  1.00  0.00     0.091 C 
HETATM   38  C1  UNL     1      23.657  44.283  43.731  1.00  0.00     0.032 C 
HETATM   39  C3  UNL     1      24.433  46.462  42.878  1.00  0.00     0.032 C 
ENDBRANCH  35  37
ENDBRANCH   1  35
BRANCH   5  40
HETATM   40  C6  UNL     1      17.593  44.214  42.918  1.00  0.00     0.142 C 
BRANCH  40  41
HETATM   41  C7  UNL     1      17.496  44.715  41.484  1.00  0.00     0.058 C 
BRANCH  41  42
HETATM   42  C8  UNL     1      16.272  45.483  41.226  1.00  0.00    -0.057 A 
HETATM   43  C9  UNL     1      15.022  45.056  41.591  1.00  0.00     0.007 A 
HETATM   44  C10 UNL     1      13.887  45.813  41.326  1.00  0.00     0.001 A 
HETATM   45  C11 UNL     1      13.987  47.020  40.683  1.00  0.00     0.000 A 
HETATM   46  C12 UNL     1      15.246  47.462  40.307  1.00  0.00     0.001 A 
HETATM   47  C13 UNL     1      16.361  46.710  40.572  1.00  0.00     0.007 A 
ENDBRANCH  41  42
ENDBRANCH  40  41
ENDBRANCH   5  40
TORSDOF 14
ENDMDL
