MODEL 1
REMARK VINA RESULT: -8.302075524      0.000      0.000
REMARK  15 active torsions:
REMARK  status: ('A' for Active; 'I' for Inactive)
REMARK    1  A    between atoms: C2_2  and  N1_3 
REMARK    2  A    between atoms: C2_2  and  C26_43 
REMARK       I    between atoms: N1_3  and  C3_5 
REMARK    3  A    between atoms: C3_5  and  C4_7 
REMARK    4  A    between atoms: N2_14  and  C10_15 
REMARK    5  A    between atoms: C10_15  and  O2_16 
REMARK    6  A    between atoms: C10_15  and  C11_18 
REMARK    7  A    between atoms: C11_18  and  N3_19 
REMARK    8  A    between atoms: C11_18  and  C23_40 
REMARK       I    between atoms: N3_19  and  C12_21 
REMARK    9  A    between atoms: C12_21  and  C13_23 
REMARK   10  A    between atoms: C13_23  and  N4_24 
REMARK   11  A    between atoms: C13_23  and  C20_37 
REMARK       I    between atoms: N4_24  and  C14_26 
REMARK   12  A    between atoms: C14_26  and  C15_28 
REMARK   13  A    between atoms: C15_28  and  C16_29 
REMARK   14  A    between atoms: C16_29  and  C19_32 
REMARK   15  A    between atoms: C19_32  and  N5_33 
ROOT
HETATM    1  C11 UNL     1      21.495  45.320  44.889  1.00  0.00     0.163 C 
ENDROOT
BRANCH   1   2
HETATM    2  C10 UNL     1      21.313  46.504  45.689  1.00  0.00     0.142 C 
BRANCH   2   3
HETATM    3  N2  UNL     1      21.829  47.807  45.596  1.00  0.00    -0.325 N 
HETATM    4  C4  UNL     1      23.194  48.101  45.975  1.00  0.00     0.201 C 
HETATM    5  C5  UNL     1      23.657  49.129  45.059  1.00  0.00     0.115 C 
HETATM    6 CL1  UNL     1      22.975  50.340  46.261  1.00  0.00    -0.122 Cl
HETATM    7  C6  UNL     1      23.719  50.146  44.117  1.00  0.00     0.026 C 
HETATM    8  C7  UNL     1      22.284  50.666  43.834  1.00  0.00     0.030 C 
HETATM    9  C8  UNL     1      21.137  50.033  44.473  1.00  0.00    -0.009 C 
HETATM   10  C9  UNL     1      20.878  48.765  45.040  1.00  0.00     0.090 C 
BRANCH   4  11
HETATM   11  C3  UNL     1      23.510  48.350  47.387  1.00  0.00     0.243 C 
HETATM   12  N1  UNL     1      22.761  49.018  48.377  1.00  0.00    -0.345 N 
ATOM     13  H1  UNL     1      21.844  49.403  48.146  1.00  0.00     0.163 HD
HETATM   14  O1  UNL     1      24.638  47.930  47.875  1.00  0.00    -0.271 OA
BRANCH  12  15
HETATM   15  C2  UNL     1      23.279  49.160  49.708  1.00  0.00     0.181 C 
HETATM   16  C1  UNL     1      22.252  48.746  50.778  1.00  0.00     0.043 C 
BRANCH  15  17
HETATM   17  C26 UNL     1      23.729  50.504  50.075  1.00  0.00     0.196 C 
HETATM   18  O5  UNL     1      24.216  51.274  49.219  1.00  0.00    -0.646 OA
HETATM   19  O6  UNL     1      23.623  50.938  51.376  1.00  0.00    -0.646 OA
ENDBRANCH  15  17
ENDBRANCH  12  15
ENDBRANCH   4  11
ENDBRANCH   2   3
BRANCH   2  20
HETATM   20  O2  UNL     1      20.494  46.341  46.709  1.00  0.00    -0.348 OA
ATOM     21  H2  UNL     1      19.983  45.541  46.655  1.00  0.00     0.219 HD
ENDBRANCH   2  20
ENDBRANCH   1   2
BRANCH   1  22
HETATM   22  N3  UNL     1      20.182  44.937  44.293  1.00  0.00    -0.347 N 
HETATM   23  C12 UNL     1      19.871  45.344  42.972  1.00  0.00     0.241 C 
HETATM   24  O3  UNL     1      20.729  46.023  42.350  1.00  0.00    -0.271 OA
ATOM     25  H3  UNL     1      19.514  44.388  44.832  1.00  0.00     0.163 HD
BRANCH  23  26
HETATM   26  C13 UNL     1      18.608  45.026  42.262  1.00  0.00     0.180 C 
BRANCH  26  27
HETATM   27  N4  UNL     1      17.803  46.221  42.075  1.00  0.00    -0.347 N 
HETATM   28  C14 UNL     1      17.155  46.512  40.838  1.00  0.00     0.219 C 
HETATM   29  O4  UNL     1      17.307  45.673  39.902  1.00  0.00    -0.274 OA
ATOM     30  H4  UNL     1      17.697  46.872  42.853  1.00  0.00     0.163 HD
BRANCH  28  31
HETATM   31  C15 UNL     1      16.345  47.703  40.605  1.00  0.00     0.113 C 
BRANCH  31  32
HETATM   32  C16 UNL     1      14.862  47.497  40.594  1.00  0.00    -0.016 C 
HETATM   33  C17 UNL     1      14.218  48.839  40.986  1.00  0.00     0.017 C 
HETATM   34  C18 UNL     1      14.306  47.053  39.274  1.00  0.00     0.017 C 
BRANCH  32  35
HETATM   35  C19 UNL     1      14.402  46.530  41.672  1.00  0.00     0.238 C 
BRANCH  35  36
HETATM   36  N5  UNL     1      13.709  45.396  41.091  1.00  0.00    -0.079 N 
ATOM     37  H53 UNL     1      13.940  44.527  41.571  1.00  0.00     0.274 HD
ATOM     38  H52 UNL     1      12.709  45.422  41.293  1.00  0.00     0.274 HD
ATOM     39  H51 UNL     1      13.889  45.333  40.089  1.00  0.00     0.274 HD
ENDBRANCH  35  36
ENDBRANCH  32  35
ENDBRANCH  31  32
ENDBRANCH  28  31
ENDBRANCH  26  27
BRANCH  26  40
HETATM   40  C20 UNL     1      17.843  43.980  43.053  1.00  0.00     0.009 C 
HETATM   41  C21 UNL     1      16.543  43.639  42.364  1.00  0.00     0.012 C 
HETATM   42  C22 UNL     1      17.487  44.510  44.432  1.00  0.00     0.012 C 
ENDBRANCH  26  40
ENDBRANCH  23  26
ENDBRANCH   1  22
BRANCH   1  43
HETATM   43  C23 UNL     1      21.686  44.064  45.814  1.00  0.00     0.008 C 
HETATM   44  C24 UNL     1      20.438  43.323  46.067  1.00  0.00     0.012 C 
HETATM   45  C25 UNL     1      22.824  43.209  45.361  1.00  0.00     0.012 C 
ENDBRANCH   1  43
TORSDOF 15
ENDMDL
MODEL 2
REMARK VINA RESULT: -7.288452347      1.782      2.601
REMARK  15 active torsions:
REMARK  status: ('A' for Active; 'I' for Inactive)
REMARK    1  A    between atoms: C2_2  and  N1_3 
REMARK    2  A    between atoms: C2_2  and  C26_43 
REMARK       I    between atoms: N1_3  and  C3_5 
REMARK    3  A    between atoms: C3_5  and  C4_7 
REMARK    4  A    between atoms: N2_14  and  C10_15 
REMARK    5  A    between atoms: C10_15  and  O2_16 
REMARK    6  A    between atoms: C10_15  and  C11_18 
REMARK    7  A    between atoms: C11_18  and  N3_19 
REMARK    8  A    between atoms: C11_18  and  C23_40 
REMARK       I    between atoms: N3_19  and  C12_21 
REMARK    9  A    between atoms: C12_21  and  C13_23 
REMARK   10  A    between atoms: C13_23  and  N4_24 
REMARK   11  A    between atoms: C13_23  and  C20_37 
REMARK       I    between atoms: N4_24  and  C14_26 
REMARK   12  A    between atoms: C14_26  and  C15_28 
REMARK   13  A    between atoms: C15_28  and  C16_29 
REMARK   14  A    between atoms: C16_29  and  C19_32 
REMARK   15  A    between atoms: C19_32  and  N5_33 
ROOT
HETATM    1  C11 UNL     1      22.518  46.797  43.682  1.00  0.00     0.163 C 
ENDROOT
BRANCH   1   2
HETATM    2  C10 UNL     1      22.860  47.419  44.936  1.00  0.00     0.142 C 
BRANCH   2   3
HETATM    3  N2  UNL     1      22.677  48.718  45.437  1.00  0.00    -0.325 N 
HETATM    4  C4  UNL     1      23.695  49.362  46.238  1.00  0.00     0.201 C 
HETATM    5  C5  UNL     1      23.654  50.773  45.889  1.00  0.00     0.115 C 
HETATM    6 CL1  UNL     1      22.390  50.941  47.211  1.00  0.00    -0.122 Cl
HETATM    7  C6  UNL     1      23.272  52.016  45.407  1.00  0.00     0.026 C 
HETATM    8  C7  UNL     1      21.787  51.952  44.956  1.00  0.00     0.030 C 
HETATM    9  C8  UNL     1      21.058  50.692  45.012  1.00  0.00    -0.009 C 
HETATM   10  C9  UNL     1      21.417  49.325  45.018  1.00  0.00     0.090 C 
BRANCH   4  11
HETATM   11  C3  UNL     1      23.755  49.089  47.679  1.00  0.00     0.243 C 
HETATM   12  N1  UNL     1      23.166  49.782  48.756  1.00  0.00    -0.345 N 
ATOM     13  H1  UNL     1      22.587  50.602  48.575  1.00  0.00     0.163 HD
HETATM   14  O1  UNL     1      24.445  48.077  48.111  1.00  0.00    -0.271 OA
BRANCH  12  15
HETATM   15  C2  UNL     1      23.375  49.339  50.106  1.00  0.00     0.181 C 
HETATM   16  C1  UNL     1      22.149  48.600  50.670  1.00  0.00     0.043 C 
BRANCH  15  17
HETATM   17  C26 UNL     1      23.700  50.387  51.074  1.00  0.00     0.196 C 
HETATM   18  O5  UNL     1      24.177  51.481  50.702  1.00  0.00    -0.646 OA
HETATM   19  O6  UNL     1      23.484  50.179  52.417  1.00  0.00    -0.646 OA
ENDBRANCH  15  17
ENDBRANCH  12  15
ENDBRANCH   4  11
ENDBRANCH   2   3
BRANCH   2  20
HETATM   20  O2  UNL     1      23.456  46.611  45.789  1.00  0.00    -0.348 OA
ATOM     21  H2  UNL     1      24.127  46.071  45.388  1.00  0.00     0.219 HD
ENDBRANCH   2  20
ENDBRANCH   1   2
BRANCH   1  22
HETATM   22  N3  UNL     1      21.732  45.559  43.959  1.00  0.00    -0.347 N 
HETATM   23  C12 UNL     1      20.320  45.592  43.854  1.00  0.00     0.241 C 
HETATM   24  O3  UNL     1      19.781  46.682  43.528  1.00  0.00    -0.271 OA
ATOM     25  H3  UNL     1      22.208  44.697  44.223  1.00  0.00     0.163 HD
BRANCH  23  26
HETATM   26  C13 UNL     1      19.425  44.435  44.095  1.00  0.00     0.180 C 
BRANCH  26  27
HETATM   27  N4  UNL     1      18.044  44.774  43.795  1.00  0.00    -0.347 N 
HETATM   28  C14 UNL     1      17.379  44.286  42.632  1.00  0.00     0.219 C 
HETATM   29  O4  UNL     1      18.047  43.531  41.868  1.00  0.00    -0.274 OA
ATOM     30  H4  UNL     1      17.534  45.382  44.437  1.00  0.00     0.163 HD
BRANCH  28  31
HETATM   31  C15 UNL     1      15.998  44.609  42.289  1.00  0.00     0.113 C 
BRANCH  31  32
HETATM   32  C16 UNL     1      15.803  45.421  41.046  1.00  0.00    -0.016 C 
HETATM   33  C17 UNL     1      14.369  45.978  41.093  1.00  0.00     0.017 C 
HETATM   34  C18 UNL     1      16.766  46.560  40.890  1.00  0.00     0.017 C 
BRANCH  32  35
HETATM   35  C19 UNL     1      15.836  44.573  39.786  1.00  0.00     0.238 C 
BRANCH  35  36
HETATM   36  N5  UNL     1      15.450  43.204  40.072  1.00  0.00    -0.079 N 
ATOM     37  H53 UNL     1      14.558  43.160  40.565  1.00  0.00     0.274 HD
ATOM     38  H52 UNL     1      15.183  42.703  39.225  1.00  0.00     0.274 HD
ATOM     39  H51 UNL     1      16.187  42.716  40.582  1.00  0.00     0.274 HD
ENDBRANCH  35  36
ENDBRANCH  32  35
ENDBRANCH  31  32
ENDBRANCH  28  31
ENDBRANCH  26  27
BRANCH  26  40
HETATM   40  C20 UNL     1      19.567  43.989  45.540  1.00  0.00     0.009 C 
HETATM   41  C21 UNL     1      19.758  45.182  46.447  1.00  0.00     0.012 C 
HETATM   42  C22 UNL     1      20.791  43.106  45.707  1.00  0.00     0.012 C 
ENDBRANCH  26  40
ENDBRANCH  23  26
ENDBRANCH   1  22
BRANCH   1  43
HETATM   43  C23 UNL     1      23.785  46.112  43.053  1.00  0.00     0.008 C 
HETATM   44  C24 UNL     1      23.553  45.569  41.702  1.00  0.00     0.012 C 
HETATM   45  C25 UNL     1      24.997  46.977  43.165  1.00  0.00     0.012 C 
ENDBRANCH   1  43
TORSDOF 15
ENDMDL
MODEL 3
REMARK VINA RESULT: -7.279498593      0.906      1.297
REMARK  15 active torsions:
REMARK  status: ('A' for Active; 'I' for Inactive)
REMARK    1  A    between atoms: C2_2  and  N1_3 
REMARK    2  A    between atoms: C2_2  and  C26_43 
REMARK       I    between atoms: N1_3  and  C3_5 
REMARK    3  A    between atoms: C3_5  and  C4_7 
REMARK    4  A    between atoms: N2_14  and  C10_15 
REMARK    5  A    between atoms: C10_15  and  O2_16 
REMARK    6  A    between atoms: C10_15  and  C11_18 
REMARK    7  A    between atoms: C11_18  and  N3_19 
REMARK    8  A    between atoms: C11_18  and  C23_40 
REMARK       I    between atoms: N3_19  and  C12_21 
REMARK    9  A    between atoms: C12_21  and  C13_23 
REMARK   10  A    between atoms: C13_23  and  N4_24 
REMARK   11  A    between atoms: C13_23  and  C20_37 
REMARK       I    between atoms: N4_24  and  C14_26 
REMARK   12  A    between atoms: C14_26  and  C15_28 
REMARK   13  A    between atoms: C15_28  and  C16_29 
REMARK   14  A    between atoms: C16_29  and  C19_32 
REMARK   15  A    between atoms: C19_32  and  N5_33 
ROOT
HETATM    1  C11 UNL     1      22.251  45.685  44.543  1.00  0.00     0.163 C 
ENDROOT
BRANCH   1   2
HETATM    2  C10 UNL     1      21.905  46.682  45.524  1.00  0.00     0.142 C 
BRANCH   2   3
HETATM    3  N2  UNL     1      22.189  48.053  45.632  1.00  0.00    -0.325 N 
HETATM    4  C4  UNL     1      23.466  48.517  46.127  1.00  0.00     0.201 C 
HETATM    5  C5  UNL     1      23.776  49.726  45.382  1.00  0.00     0.115 C 
HETATM    6 CL1  UNL     1      22.849  50.627  46.686  1.00  0.00    -0.122 Cl
HETATM    7  C6  UNL     1      23.695  50.858  44.585  1.00  0.00     0.026 C 
HETATM    8  C7  UNL     1      22.202  51.163  44.285  1.00  0.00     0.030 C 
HETATM    9  C8  UNL     1      21.160  50.264  44.766  1.00  0.00    -0.009 C 
HETATM   10  C9  UNL     1      21.107  48.905  45.148  1.00  0.00     0.090 C 
BRANCH   4  11
HETATM   11  C3  UNL     1      23.681  48.619  47.576  1.00  0.00     0.243 C 
HETATM   12  N1  UNL     1      22.888  49.233  48.567  1.00  0.00    -0.345 N 
ATOM     13  H1  UNL     1      22.012  49.686  48.306  1.00  0.00     0.163 HD
HETATM   14  O1  UNL     1      24.746  48.097  48.104  1.00  0.00    -0.271 OA
BRANCH  12  15
HETATM   15  C2  UNL     1      23.306  49.225  49.940  1.00  0.00     0.181 C 
HETATM   16  C1  UNL     1      22.209  48.689  50.877  1.00  0.00     0.043 C 
BRANCH  15  17
HETATM   17  C26 UNL     1      23.713  50.519  50.488  1.00  0.00     0.196 C 
HETATM   18  O5  UNL     1      23.492  50.809  51.684  1.00  0.00    -0.646 OA
HETATM   19  O6  UNL     1      24.347  51.441  49.687  1.00  0.00    -0.646 OA
ENDBRANCH  15  17
ENDBRANCH  12  15
ENDBRANCH   4  11
ENDBRANCH   2   3
BRANCH   2  20
HETATM   20  O2  UNL     1      21.169  46.224  46.517  1.00  0.00    -0.348 OA
ATOM     21  H2  UNL     1      21.097  45.276  46.524  1.00  0.00     0.219 HD
ENDBRANCH   2  20
ENDBRANCH   1   2
BRANCH   1  22
HETATM   22  N3  UNL     1      21.020  44.926  44.177  1.00  0.00    -0.347 N 
HETATM   23  C12 UNL     1      19.967  45.589  43.501  1.00  0.00     0.241 C 
HETATM   24  O3  UNL     1      20.117  46.811  43.236  1.00  0.00    -0.271 OA
ATOM     25  H3  UNL     1      20.938  43.937  44.412  1.00  0.00     0.163 HD
BRANCH  23  26
HETATM   26  C13 UNL     1      18.698  44.952  43.075  1.00  0.00     0.180 C 
BRANCH  26  27
HETATM   27  N4  UNL     1      17.833  45.909  42.408  1.00  0.00    -0.347 N 
HETATM   28  C14 UNL     1      17.428  45.748  41.050  1.00  0.00     0.219 C 
HETATM   29  O4  UNL     1      17.853  44.720  40.446  1.00  0.00    -0.274 OA
ATOM     30  H4  UNL     1      17.504  46.724  42.927  1.00  0.00     0.163 HD
BRANCH  28  31
HETATM   31  C15 UNL     1      16.569  46.690  40.340  1.00  0.00     0.113 C 
BRANCH  31  32
HETATM   32  C16 UNL     1      15.097  46.421  40.415  1.00  0.00    -0.016 C 
HETATM   33  C17 UNL     1      14.644  46.798  41.837  1.00  0.00     0.017 C 
HETATM   34  C18 UNL     1      14.275  47.182  39.419  1.00  0.00     0.017 C 
BRANCH  32  35
HETATM   35  C19 UNL     1      14.770  44.942  40.296  1.00  0.00     0.238 C 
BRANCH  35  36
HETATM   36  N5  UNL     1      14.491  44.366  41.597  1.00  0.00    -0.079 N 
ATOM     37  H53 UNL     1      14.486  43.346  41.564  1.00  0.00     0.274 HD
ATOM     38  H52 UNL     1      15.272  44.495  42.241  1.00  0.00     0.274 HD
ATOM     39  H51 UNL     1      13.621  44.735  41.981  1.00  0.00     0.274 HD
ENDBRANCH  35  36
ENDBRANCH  32  35
ENDBRANCH  31  32
ENDBRANCH  28  31
ENDBRANCH  26  27
BRANCH  26  40
HETATM   40  C20 UNL     1      18.007  44.359  44.291  1.00  0.00     0.009 C 
HETATM   41  C21 UNL     1      19.019  43.745  45.230  1.00  0.00     0.012 C 
HETATM   42  C22 UNL     1      17.057  43.249  43.876  1.00  0.00     0.012 C 
ENDBRANCH  26  40
ENDBRANCH  23  26
ENDBRANCH   1  22
BRANCH   1  43
HETATM   43  C23 UNL     1      23.038  44.507  45.222  1.00  0.00     0.008 C 
HETATM   44  C24 UNL     1      22.255  43.263  45.336  1.00  0.00     0.012 C 
HETATM   45  C25 UNL     1      24.392  44.323  44.619  1.00  0.00     0.012 C 
ENDBRANCH   1  43
TORSDOF 15
ENDMDL
MODEL 4
REMARK VINA RESULT: -7.185578822      2.670      4.431
REMARK  15 active torsions:
REMARK  status: ('A' for Active; 'I' for Inactive)
REMARK    1  A    between atoms: C2_2  and  N1_3 
REMARK    2  A    between atoms: C2_2  and  C26_43 
REMARK       I    between atoms: N1_3  and  C3_5 
REMARK    3  A    between atoms: C3_5  and  C4_7 
REMARK    4  A    between atoms: N2_14  and  C10_15 
REMARK    5  A    between atoms: C10_15  and  O2_16 
REMARK    6  A    between atoms: C10_15  and  C11_18 
REMARK    7  A    between atoms: C11_18  and  N3_19 
REMARK    8  A    between atoms: C11_18  and  C23_40 
REMARK       I    between atoms: N3_19  and  C12_21 
REMARK    9  A    between atoms: C12_21  and  C13_23 
REMARK   10  A    between atoms: C13_23  and  N4_24 
REMARK   11  A    between atoms: C13_23  and  C20_37 
REMARK       I    between atoms: N4_24  and  C14_26 
REMARK   12  A    between atoms: C14_26  and  C15_28 
REMARK   13  A    between atoms: C15_28  and  C16_29 
REMARK   14  A    between atoms: C16_29  and  C19_32 
REMARK   15  A    between atoms: C19_32  and  N5_33 
ROOT
HETATM    1  C11 UNL     1      22.402  48.453  44.815  1.00  0.00     0.163 C 
ENDROOT
BRANCH   1   2
HETATM    2  C10 UNL     1      22.398  48.411  46.256  1.00  0.00     0.142 C 
BRANCH   2   3
HETATM    3  N2  UNL     1      23.001  49.218  47.234  1.00  0.00    -0.325 N 
HETATM    4  C4  UNL     1      22.665  50.619  47.360  1.00  0.00     0.201 C 
HETATM    5  C5  UNL     1      22.714  50.923  48.780  1.00  0.00     0.115 C 
HETATM    6 CL1  UNL     1      24.495  51.289  48.518  1.00  0.00    -0.122 Cl
HETATM    7  C6  UNL     1      22.956  50.877  50.145  1.00  0.00     0.026 C 
HETATM    8  C7  UNL     1      23.950  49.723  50.448  1.00  0.00     0.030 C 
HETATM    9  C8  UNL     1      24.410  48.853  49.373  1.00  0.00    -0.009 C 
HETATM   10  C9  UNL     1      23.919  48.485  48.100  1.00  0.00     0.090 C 
BRANCH   4  11
HETATM   11  C3  UNL     1      23.338  51.600  46.500  1.00  0.00     0.243 C 
HETATM   12  N1  UNL     1      23.857  52.873  46.814  1.00  0.00    -0.345 N 
ATOM     13  H1  UNL     1      23.797  53.222  47.771  1.00  0.00     0.163 HD
HETATM   14  O1  UNL     1      23.514  51.335  45.240  1.00  0.00    -0.271 OA
BRANCH  12  15
HETATM   15  C2  UNL     1      24.469  53.680  45.796  1.00  0.00     0.181 C 
HETATM   16  C1  UNL     1      25.866  54.176  46.211  1.00  0.00     0.043 C 
BRANCH  15  17
HETATM   17  C26 UNL     1      23.718  54.869  45.392  1.00  0.00     0.196 C 
HETATM   18  O5  UNL     1      22.472  54.841  45.297  1.00  0.00    -0.646 OA
HETATM   19  O6  UNL     1      24.380  56.041  45.107  1.00  0.00    -0.646 OA
ENDBRANCH  15  17
ENDBRANCH  12  15
ENDBRANCH   4  11
ENDBRANCH   2   3
BRANCH   2  20
HETATM   20  O2  UNL     1      21.684  47.426  46.761  1.00  0.00    -0.348 OA
ATOM     21  H2  UNL     1      20.800  47.387  46.414  1.00  0.00     0.219 HD
ENDBRANCH   2  20
ENDBRANCH   1   2
BRANCH   1  22
HETATM   22  N3  UNL     1      21.970  47.121  44.296  1.00  0.00    -0.347 N 
HETATM   23  C12 UNL     1      20.601  46.897  44.007  1.00  0.00     0.241 C 
HETATM   24  O3  UNL     1      19.796  47.844  44.205  1.00  0.00    -0.271 OA
ATOM     25  H3  UNL     1      22.655  46.380  44.152  1.00  0.00     0.163 HD
BRANCH  23  26
HETATM   26  C13 UNL     1      20.043  45.627  43.482  1.00  0.00     0.180 C 
BRANCH  26  27
HETATM   27  N4  UNL     1      18.619  45.753  43.224  1.00  0.00    -0.347 N 
HETATM   28  C14 UNL     1      17.835  44.661  42.749  1.00  0.00     0.219 C 
HETATM   29  O4  UNL     1      18.437  43.562  42.568  1.00  0.00    -0.274 OA
ATOM     30  H4  UNL     1      18.165  46.652  43.387  1.00  0.00     0.163 HD
BRANCH  28  31
HETATM   31  C15 UNL     1      16.406  44.746  42.469  1.00  0.00     0.113 C 
BRANCH  31  32
HETATM   32  C16 UNL     1      16.033  45.166  41.081  1.00  0.00    -0.016 C 
HETATM   33  C17 UNL     1      14.495  45.163  41.008  1.00  0.00     0.017 C 
HETATM   34  C18 UNL     1      16.539  46.520  40.684  1.00  0.00     0.017 C 
BRANCH  32  35
HETATM   35  C19 UNL     1      16.461  44.153  40.032  1.00  0.00     0.238 C 
BRANCH  35  36
HETATM   36  N5  UNL     1      15.495  43.076  39.926  1.00  0.00    -0.079 N 
ATOM     37  H53 UNL     1      14.882  43.039  40.740  1.00  0.00     0.274 HD
ATOM     38  H52 UNL     1      14.793  43.270  39.212  1.00  0.00     0.274 HD
ATOM     39  H51 UNL     1      15.961  42.184  39.764  1.00  0.00     0.274 HD
ENDBRANCH  35  36
ENDBRANCH  32  35
ENDBRANCH  31  32
ENDBRANCH  28  31
ENDBRANCH  26  27
BRANCH  26  40
HETATM   40  C20 UNL     1      20.312  44.516  44.481  1.00  0.00     0.009 C 
HETATM   41  C21 UNL     1      19.789  44.891  45.847  1.00  0.00     0.012 C 
HETATM   42  C22 UNL     1      21.806  44.281  44.628  1.00  0.00     0.012 C 
ENDBRANCH  26  40
ENDBRANCH  23  26
ENDBRANCH   1  22
BRANCH   1  43
HETATM   43  C23 UNL     1      23.877  48.426  44.275  1.00  0.00     0.008 C 
HETATM   44  C24 UNL     1      24.645  47.247  44.715  1.00  0.00     0.012 C 
HETATM   45  C25 UNL     1      23.935  48.679  42.804  1.00  0.00     0.012 C 
ENDBRANCH   1  43
TORSDOF 15
ENDMDL
MODEL 5
REMARK VINA RESULT: -7.182118379      2.552      4.591
REMARK  15 active torsions:
REMARK  status: ('A' for Active; 'I' for Inactive)
REMARK    1  A    between atoms: C2_2  and  N1_3 
REMARK    2  A    between atoms: C2_2  and  C26_43 
REMARK       I    between atoms: N1_3  and  C3_5 
REMARK    3  A    between atoms: C3_5  and  C4_7 
REMARK    4  A    between atoms: N2_14  and  C10_15 
REMARK    5  A    between atoms: C10_15  and  O2_16 
REMARK    6  A    between atoms: C10_15  and  C11_18 
REMARK    7  A    between atoms: C11_18  and  N3_19 
REMARK    8  A    between atoms: C11_18  and  C23_40 
REMARK       I    between atoms: N3_19  and  C12_21 
REMARK    9  A    between atoms: C12_21  and  C13_23 
REMARK   10  A    between atoms: C13_23  and  N4_24 
REMARK   11  A    between atoms: C13_23  and  C20_37 
REMARK       I    between atoms: N4_24  and  C14_26 
REMARK   12  A    between atoms: C14_26  and  C15_28 
REMARK   13  A    between atoms: C15_28  and  C16_29 
REMARK   14  A    between atoms: C16_29  and  C19_32 
REMARK   15  A    between atoms: C19_32  and  N5_33 
ROOT
HETATM    1  C11 UNL     1      21.590  48.094  45.629  1.00  0.00     0.163 C 
ENDROOT
BRANCH   1   2
HETATM    2  C10 UNL     1      22.806  48.170  46.398  1.00  0.00     0.142 C 
BRANCH   2   3
HETATM    3  N2  UNL     1      23.260  49.070  47.376  1.00  0.00    -0.325 N 
HETATM    4  C4  UNL     1      22.796  50.439  47.408  1.00  0.00     0.201 C 
HETATM    5  C5  UNL     1      22.712  50.807  48.812  1.00  0.00     0.115 C 
HETATM    6 CL1  UNL     1      24.469  51.320  48.660  1.00  0.00    -0.122 Cl
HETATM    7  C6  UNL     1      22.853  50.841  50.191  1.00  0.00     0.026 C 
HETATM    8  C7  UNL     1      23.918  49.795  50.620  1.00  0.00     0.030 C 
HETATM    9  C8  UNL     1      24.531  48.925  49.625  1.00  0.00    -0.009 C 
HETATM   10  C9  UNL     1      24.171  48.460  48.341  1.00  0.00     0.090 C 
BRANCH   4  11
HETATM   11  C3  UNL     1      23.444  51.439  46.551  1.00  0.00     0.243 C 
HETATM   12  N1  UNL     1      23.735  52.795  46.804  1.00  0.00    -0.345 N 
ATOM     13  H1  UNL     1      23.493  53.205  47.706  1.00  0.00     0.163 HD
HETATM   14  O1  UNL     1      23.832  51.105  45.357  1.00  0.00    -0.271 OA
BRANCH  12  15
HETATM   15  C2  UNL     1      24.370  53.601  45.800  1.00  0.00     0.181 C 
HETATM   16  C1  UNL     1      25.767  54.077  46.236  1.00  0.00     0.043 C 
BRANCH  15  17
HETATM   17  C26 UNL     1      23.639  54.802  45.394  1.00  0.00     0.196 C 
HETATM   18  O5  UNL     1      22.390  54.809  45.349  1.00  0.00    -0.646 OA
HETATM   19  O6  UNL     1      24.323  55.947  45.054  1.00  0.00    -0.646 OA
ENDBRANCH  15  17
ENDBRANCH  12  15
ENDBRANCH   4  11
ENDBRANCH   2   3
BRANCH   2  20
HETATM   20  O2  UNL     1      23.662  47.201  46.144  1.00  0.00    -0.348 OA
ATOM     21  H2  UNL     1      23.242  46.383  45.904  1.00  0.00     0.219 HD
ENDBRANCH   2  20
ENDBRANCH   1   2
BRANCH   1  22
HETATM   22  N3  UNL     1      21.566  46.794  44.897  1.00  0.00    -0.347 N 
HETATM   23  C12 UNL     1      20.389  46.006  44.913  1.00  0.00     0.241 C 
HETATM   24  O3  UNL     1      19.399  46.442  45.557  1.00  0.00    -0.271 OA
ATOM     25  H3  UNL     1      22.391  46.475  44.389  1.00  0.00     0.163 HD
BRANCH  23  26
HETATM   26  C13 UNL     1      20.232  44.702  44.224  1.00  0.00     0.180 C 
BRANCH  26  27
HETATM   27  N4  UNL     1      18.829  44.403  43.992  1.00  0.00    -0.347 N 
HETATM   28  C14 UNL     1      18.164  44.778  42.787  1.00  0.00     0.219 C 
HETATM   29  O4  UNL     1      18.856  45.382  41.917  1.00  0.00    -0.274 OA
ATOM     30  H4  UNL     1      18.303  43.909  44.713  1.00  0.00     0.163 HD
BRANCH  28  31
HETATM   31  C15 UNL     1      16.756  44.505  42.517  1.00  0.00     0.113 C 
BRANCH  31  32
HETATM   32  C16 UNL     1      16.236  44.983  41.196  1.00  0.00    -0.016 C 
HETATM   33  C17 UNL     1      14.701  44.894  41.259  1.00  0.00     0.017 C 
HETATM   34  C18 UNL     1      16.632  46.386  40.844  1.00  0.00     0.017 C 
BRANCH  32  35
HETATM   35  C19 UNL     1      16.621  44.061  40.052  1.00  0.00     0.238 C 
BRANCH  35  36
HETATM   36  N5  UNL     1      15.577  43.087  39.797  1.00  0.00    -0.079 N 
ATOM     37  H53 UNL     1      14.799  43.190  40.449  1.00  0.00     0.274 HD
ATOM     38  H52 UNL     1      15.079  43.287  38.930  1.00  0.00     0.274 HD
ATOM     39  H51 UNL     1      15.953  42.139  39.806  1.00  0.00     0.274 HD
ENDBRANCH  35  36
ENDBRANCH  32  35
ENDBRANCH  31  32
ENDBRANCH  28  31
ENDBRANCH  26  27
BRANCH  26  40
HETATM   40  C20 UNL     1      20.882  43.615  45.062  1.00  0.00     0.009 C 
HETATM   41  C21 UNL     1      20.369  43.662  46.482  1.00  0.00     0.012 C 
HETATM   42  C22 UNL     1      22.385  43.820  45.128  1.00  0.00     0.012 C 
ENDBRANCH  26  40
ENDBRANCH  23  26
ENDBRANCH   1  22
BRANCH   1  43
HETATM   43  C23 UNL     1      21.678  49.043  44.380  1.00  0.00     0.008 C 
HETATM   44  C24 UNL     1      22.294  48.409  43.200  1.00  0.00     0.012 C 
HETATM   45  C25 UNL     1      20.374  49.717  44.101  1.00  0.00     0.012 C 
ENDBRANCH   1  43
TORSDOF 15
ENDMDL
