MODEL 1
REMARK VINA RESULT: -11.768116516      0.000      0.000
REMARK  11 active torsions:
REMARK  status: ('A' for Active; 'I' for Inactive)
REMARK    1  A    between atoms: C3_5  and  N2_6 
REMARK    2  A    between atoms: C4_8  and  C5_9 
REMARK    3  A    between atoms: C5_9  and  C6_10 
REMARK    4  A    between atoms: C12_18  and  N4_19 
REMARK    5  A    between atoms: C13_21  and  C14_22 
REMARK    6  A    between atoms: C19_27  and  C20_28 
REMARK    7  A    between atoms: N5_29  and  C21_31 
REMARK    8  A    between atoms: C21_31  and  C22_32 
REMARK    9  A    between atoms: C22_32  and  N6_33 
REMARK   10  A    between atoms: N6_33  and  S1_35 
REMARK   11  A    between atoms: S1_35  and  C23_38 
ROOT
HETATM    1  C14 UNL     1      22.134  46.015  43.887  1.00  0.00    -0.009 A 
HETATM    2  C15 UNL     1      23.441  45.494  43.725  1.00  0.00     0.013 A 
HETATM    3  C16 UNL     1      23.754  44.273  44.319  1.00  0.00     0.001 A 
HETATM    4  C17 UNL     1      22.812  43.596  45.032  1.00  0.00     0.001 A 
HETATM    5  C18 UNL     1      21.520  44.096  45.192  1.00  0.00     0.013 A 
HETATM    6  C19 UNL     1      21.200  45.290  44.629  1.00  0.00    -0.009 A 
ENDROOT
BRANCH   1   7
HETATM    7  C13 UNL     1      21.705  47.383  43.573  1.00  0.00     0.118 C 
HETATM    8  N4  UNL     1      22.233  48.583  43.859  1.00  0.00    -0.200 N 
ATOM      9  H4  UNL     1      22.614  48.951  42.987  1.00  0.00     0.183 HD
BRANCH   8  10
HETATM   10  C12 UNL     1      22.453  49.436  44.732  1.00  0.00     0.698 A 
HETATM   11  N3  UNL     1      22.484  50.840  44.597  1.00  0.00    -0.022 N 
HETATM   12  C3  UNL     1      22.860  51.766  45.611  1.00  0.00     0.698 A 
ATOM     13  H3  UNL     1      22.213  51.226  43.693  1.00  0.00     0.203 HD
HETATM   14  N1  UNL     1      23.257  51.242  46.908  1.00  0.00    -0.176 N 
HETATM   15  C2  UNL     1      23.249  49.849  47.112  1.00  0.00     0.127 A 
ATOM     16  H1  UNL     1      23.538  51.874  47.658  1.00  0.00     0.185 HD
HETATM   17  C1  UNL     1      23.593  49.314  48.304  1.00  0.00     0.064 C 
HETATM   18  N7  UNL     1      22.852  48.924  46.054  1.00  0.00    -0.176 N 
ATOM     19  H7  UNL     1      22.850  47.920  46.232  1.00  0.00     0.185 HD
BRANCH  12  20
HETATM   20  N2  UNL     1      22.731  52.964  45.564  1.00  0.00    -0.204 N 
HETATM   21  C4  UNL     1      22.632  54.211  46.026  1.00  0.00     0.083 C 
ATOM     22  H2  UNL     1      22.645  53.116  44.559  1.00  0.00     0.183 HD
BRANCH  21  23
HETATM   23  C5  UNL     1      23.269  55.187  45.057  1.00  0.00     0.083 C 
BRANCH  23  24
HETATM   24  C6  UNL     1      24.716  55.456  45.199  1.00  0.00    -0.053 A 
HETATM   25  C7  UNL     1      25.649  54.618  45.790  1.00  0.00     0.007 A 
HETATM   26  C8  UNL     1      26.958  55.004  45.907  1.00  0.00     0.001 A 
HETATM   27  C9  UNL     1      27.414  56.233  45.454  1.00  0.00     0.000 A 
HETATM   28  C10 UNL     1      26.490  57.082  44.869  1.00  0.00     0.001 A 
HETATM   29  C11 UNL     1      25.183  56.690  44.750  1.00  0.00     0.007 A 
ENDBRANCH  23  24
ENDBRANCH  21  23
ENDBRANCH  12  20
ENDBRANCH   8  10
ENDBRANCH   1   7
BRANCH   6  30
HETATM   30  C20 UNL     1      19.758  45.755  44.683  1.00  0.00     0.099 C 
HETATM   31  N5  UNL     1      18.916  44.688  44.752  1.00  0.00    -0.376 N 
ATOM     32  H5  UNL     1      18.955  44.267  45.680  1.00  0.00     0.164 HD
BRANCH  31  33
HETATM   33  C21 UNL     1      18.027  44.000  43.956  1.00  0.00     0.080 C 
BRANCH  33  34
HETATM   34  C22 UNL     1      17.594  44.691  42.657  1.00  0.00     0.176 C 
BRANCH  34  35
HETATM   35  N6  UNL     1      17.111  43.747  41.707  1.00  0.00    -0.311 N 
ATOM     36  H6  UNL     1      17.055  42.749  41.906  1.00  0.00     0.172 HD
BRANCH  35  37
HETATM   37  S1  UNL     1      16.635  44.408  40.211  1.00  0.00     0.259 S 
HETATM   38  O1  UNL     1      17.957  44.790  39.509  1.00  0.00    -0.201 OA
HETATM   39  O2  UNL     1      15.929  43.477  39.335  1.00  0.00    -0.201 OA
BRANCH  37  40
HETATM   40  C23 UNL     1      15.747  45.893  40.382  1.00  0.00     0.079 A 
HETATM   41  C24 UNL     1      16.248  47.118  40.093  1.00  0.00     0.028 A 
HETATM   42  C25 UNL     1      15.428  48.236  40.223  1.00  0.00     0.044 A 
HETATM   43  C26 UNL     1      14.127  48.139  40.637  1.00  0.00     0.116 A 
HETATM   44  F1  UNL     1      13.311  49.214  40.763  1.00  0.00    -0.206 F 
HETATM   45  C27 UNL     1      13.588  46.896  40.937  1.00  0.00     0.044 A 
HETATM   46  C28 UNL     1      14.409  45.802  40.802  1.00  0.00     0.028 A 
ENDBRANCH  37  40
ENDBRANCH  35  37
ENDBRANCH  34  35
ENDBRANCH  33  34
ENDBRANCH  31  33
ENDBRANCH   6  30
TORSDOF 11
ENDMDL
MODEL 2
REMARK VINA RESULT: -11.736895396      0.098      1.078
REMARK  11 active torsions:
REMARK  status: ('A' for Active; 'I' for Inactive)
REMARK    1  A    between atoms: C3_5  and  N2_6 
REMARK    2  A    between atoms: C4_8  and  C5_9 
REMARK    3  A    between atoms: C5_9  and  C6_10 
REMARK    4  A    between atoms: C12_18  and  N4_19 
REMARK    5  A    between atoms: C13_21  and  C14_22 
REMARK    6  A    between atoms: C19_27  and  C20_28 
REMARK    7  A    between atoms: N5_29  and  C21_31 
REMARK    8  A    between atoms: C21_31  and  C22_32 
REMARK    9  A    between atoms: C22_32  and  N6_33 
REMARK   10  A    between atoms: N6_33  and  S1_35 
REMARK   11  A    between atoms: S1_35  and  C23_38 
ROOT
HETATM    1  C14 UNL     1      22.111  46.023  43.879  1.00  0.00    -0.009 A 
HETATM    2  C15 UNL     1      23.416  45.496  43.729  1.00  0.00     0.013 A 
HETATM    3  C16 UNL     1      23.716  44.270  44.320  1.00  0.00     0.001 A 
HETATM    4  C17 UNL     1      22.762  43.594  45.019  1.00  0.00     0.001 A 
HETATM    5  C18 UNL     1      21.472  44.101  45.168  1.00  0.00     0.013 A 
HETATM    6  C19 UNL     1      21.165  45.299  44.608  1.00  0.00    -0.009 A 
ENDROOT
BRANCH   1   7
HETATM    7  C13 UNL     1      21.693  47.394  43.568  1.00  0.00     0.118 C 
HETATM    8  N4  UNL     1      22.228  48.591  43.860  1.00  0.00    -0.200 N 
ATOM      9  H4  UNL     1      22.615  48.958  42.992  1.00  0.00     0.183 HD
BRANCH   8  10
HETATM   10  C12 UNL     1      22.450  49.439  44.738  1.00  0.00     0.698 A 
HETATM   11  N3  UNL     1      22.497  50.843  44.607  1.00  0.00    -0.022 N 
HETATM   12  C3  UNL     1      22.874  51.762  45.625  1.00  0.00     0.698 A 
ATOM     13  H3  UNL     1      22.236  51.234  43.701  1.00  0.00     0.203 HD
HETATM   14  N1  UNL     1      23.257  51.231  46.924  1.00  0.00    -0.176 N 
HETATM   15  C2  UNL     1      23.232  49.838  47.124  1.00  0.00     0.127 A 
ATOM     16  H1  UNL     1      23.538  51.858  47.677  1.00  0.00     0.185 HD
HETATM   17  C1  UNL     1      23.562  49.296  48.318  1.00  0.00     0.064 C 
HETATM   18  N7  UNL     1      22.834  48.920  46.061  1.00  0.00    -0.176 N 
ATOM     19  H7  UNL     1      22.821  47.915  46.236  1.00  0.00     0.185 HD
BRANCH  12  20
HETATM   20  N2  UNL     1      22.757  52.961  45.580  1.00  0.00    -0.204 N 
HETATM   21  C4  UNL     1      22.713  54.213  46.040  1.00  0.00     0.083 C 
ATOM     22  H2  UNL     1      22.592  53.109  44.585  1.00  0.00     0.183 HD
BRANCH  21  23
HETATM   23  C5  UNL     1      23.282  55.174  45.015  1.00  0.00     0.083 C 
BRANCH  23  24
HETATM   24  C6  UNL     1      24.687  55.606  45.179  1.00  0.00    -0.053 A 
HETATM   25  C7  UNL     1      25.224  56.815  44.766  1.00  0.00     0.007 A 
HETATM   26  C8  UNL     1      26.558  57.079  44.930  1.00  0.00     0.001 A 
HETATM   27  C9  UNL     1      27.430  56.165  45.503  1.00  0.00     0.000 A 
HETATM   28  C10 UNL     1      26.908  54.950  45.913  1.00  0.00     0.001 A 
HETATM   29  C11 UNL     1      25.572  54.694  45.751  1.00  0.00     0.007 A 
ENDBRANCH  23  24
ENDBRANCH  21  23
ENDBRANCH  12  20
ENDBRANCH   8  10
ENDBRANCH   1   7
BRANCH   6  30
HETATM   30  C20 UNL     1      19.724  45.772  44.648  1.00  0.00     0.099 C 
HETATM   31  N5  UNL     1      18.877  44.710  44.741  1.00  0.00    -0.376 N 
ATOM     32  H5  UNL     1      18.914  44.311  45.678  1.00  0.00     0.164 HD
BRANCH  31  33
HETATM   33  C21 UNL     1      17.987  44.009  43.959  1.00  0.00     0.080 C 
BRANCH  33  34
HETATM   34  C22 UNL     1      17.524  44.690  42.666  1.00  0.00     0.176 C 
BRANCH  34  35
HETATM   35  N6  UNL     1      17.149  43.732  41.683  1.00  0.00    -0.311 N 
ATOM     36  H6  UNL     1      17.196  42.727  41.851  1.00  0.00     0.172 HD
BRANCH  35  37
HETATM   37  S1  UNL     1      16.615  44.385  40.203  1.00  0.00     0.259 S 
HETATM   38  O1  UNL     1      17.901  44.879  39.503  1.00  0.00    -0.201 OA
HETATM   39  O2  UNL     1      15.975  43.422  39.312  1.00  0.00    -0.201 OA
BRANCH  37  40
HETATM   40  C23 UNL     1      15.620  45.797  40.409  1.00  0.00     0.079 A 
HETATM   41  C24 UNL     1      14.368  45.778  40.924  1.00  0.00     0.028 A 
HETATM   42  C25 UNL     1      13.682  46.980  41.087  1.00  0.00     0.044 A 
HETATM   43  C26 UNL     1      14.233  48.183  40.741  1.00  0.00     0.116 A 
HETATM   44  F1  UNL     1      13.584  49.363  40.898  1.00  0.00    -0.206 F 
HETATM   45  C27 UNL     1      15.515  48.231  40.213  1.00  0.00     0.044 A 
HETATM   46  C28 UNL     1      16.180  47.038  40.059  1.00  0.00     0.028 A 
ENDBRANCH  37  40
ENDBRANCH  35  37
ENDBRANCH  34  35
ENDBRANCH  33  34
ENDBRANCH  31  33
ENDBRANCH   6  30
TORSDOF 11
ENDMDL
MODEL 3
REMARK VINA RESULT: -10.839161844      1.217      1.722
REMARK  11 active torsions:
REMARK  status: ('A' for Active; 'I' for Inactive)
REMARK    1  A    between atoms: C3_5  and  N2_6 
REMARK    2  A    between atoms: C4_8  and  C5_9 
REMARK    3  A    between atoms: C5_9  and  C6_10 
REMARK    4  A    between atoms: C12_18  and  N4_19 
REMARK    5  A    between atoms: C13_21  and  C14_22 
REMARK    6  A    between atoms: C19_27  and  C20_28 
REMARK    7  A    between atoms: N5_29  and  C21_31 
REMARK    8  A    between atoms: C21_31  and  C22_32 
REMARK    9  A    between atoms: C22_32  and  N6_33 
REMARK   10  A    between atoms: N6_33  and  S1_35 
REMARK   11  A    between atoms: S1_35  and  C23_38 
ROOT
HETATM    1  C14 UNL     1      21.950  47.842  43.538  1.00  0.00    -0.009 A 
HETATM    2  C15 UNL     1      23.285  47.927  43.077  1.00  0.00     0.013 A 
HETATM    3  C16 UNL     1      23.913  46.768  42.626  1.00  0.00     0.001 A 
HETATM    4  C17 UNL     1      23.244  45.581  42.625  1.00  0.00     0.001 A 
HETATM    5  C18 UNL     1      21.926  45.487  43.071  1.00  0.00     0.013 A 
HETATM    6  C19 UNL     1      21.302  46.605  43.523  1.00  0.00    -0.009 A 
ENDROOT
BRANCH   1   7
HETATM    7  C13 UNL     1      21.228  48.877  44.287  1.00  0.00     0.118 C 
HETATM    8  N4  UNL     1      21.554  50.131  44.640  1.00  0.00    -0.200 N 
ATOM      9  H4  UNL     1      20.995  50.754  44.058  1.00  0.00     0.183 HD
BRANCH   8  10
HETATM   10  C12 UNL     1      22.246  50.853  45.373  1.00  0.00     0.698 A 
HETATM   11  N3  UNL     1      22.879  52.073  45.055  1.00  0.00    -0.022 N 
HETATM   12  C3  UNL     1      23.761  52.800  45.903  1.00  0.00     0.698 A 
ATOM     13  H3  UNL     1      22.688  52.469  44.135  1.00  0.00     0.203 HD
HETATM   14  N1  UNL     1      24.056  52.254  47.219  1.00  0.00    -0.176 N 
HETATM   15  C2  UNL     1      23.457  51.039  47.602  1.00  0.00     0.127 A 
ATOM     16  H1  UNL     1      24.687  52.744  47.853  1.00  0.00     0.185 HD
HETATM   17  C1  UNL     1      23.686  50.500  48.820  1.00  0.00     0.064 C 
HETATM   18  N7  UNL     1      22.551  50.319  46.712  1.00  0.00    -0.176 N 
ATOM     19  H7  UNL     1      22.128  49.443  47.018  1.00  0.00     0.185 HD
BRANCH  12  20
HETATM   20  N2  UNL     1      24.172  53.917  45.712  1.00  0.00    -0.204 N 
HETATM   21  C4  UNL     1      24.524  55.168  46.013  1.00  0.00     0.083 C 
ATOM     22  H2  UNL     1      24.373  53.888  44.713  1.00  0.00     0.183 HD
BRANCH  21  23
HETATM   23  C5  UNL     1      25.707  55.602  45.169  1.00  0.00     0.083 C 
BRANCH  23  24
HETATM   24  C6  UNL     1      27.060  55.447  45.745  1.00  0.00    -0.053 A 
HETATM   25  C7  UNL     1      27.516  54.363  46.479  1.00  0.00     0.007 A 
HETATM   26  C8  UNL     1      28.782  54.358  47.004  1.00  0.00     0.001 A 
HETATM   27  C9  UNL     1      29.658  55.421  46.839  1.00  0.00     0.000 A 
HETATM   28  C10 UNL     1      29.211  56.513  46.116  1.00  0.00     0.001 A 
HETATM   29  C11 UNL     1      27.947  56.510  45.588  1.00  0.00     0.007 A 
ENDBRANCH  23  24
ENDBRANCH  21  23
ENDBRANCH  12  20
ENDBRANCH   8  10
ENDBRANCH   1   7
BRANCH   6  30
HETATM   30  C20 UNL     1      19.826  46.525  43.867  1.00  0.00     0.099 C 
HETATM   31  N5  UNL     1      19.460  45.233  44.091  1.00  0.00    -0.376 N 
ATOM     32  H5  UNL     1      19.825  44.914  44.989  1.00  0.00     0.164 HD
BRANCH  31  33
HETATM   33  C21 UNL     1      18.749  44.224  43.481  1.00  0.00     0.080 C 
BRANCH  33  34
HETATM   34  C22 UNL     1      17.483  44.639  42.722  1.00  0.00     0.176 C 
BRANCH  34  35
HETATM   35  N6  UNL     1      17.153  43.694  41.711  1.00  0.00    -0.311 N 
ATOM     36  H6  UNL     1      17.202  42.687  41.865  1.00  0.00     0.172 HD
BRANCH  35  37
HETATM   37  S1  UNL     1      16.672  44.367  40.222  1.00  0.00     0.259 S 
HETATM   38  O1  UNL     1      17.992  44.762  39.522  1.00  0.00    -0.201 OA
HETATM   39  O2  UNL     1      15.969  43.441  39.338  1.00  0.00    -0.201 OA
BRANCH  37  40
HETATM   40  C23 UNL     1      15.777  45.846  40.409  1.00  0.00     0.079 A 
HETATM   41  C24 UNL     1      16.275  47.077  40.141  1.00  0.00     0.028 A 
HETATM   42  C25 UNL     1      15.449  48.190  40.283  1.00  0.00     0.044 A 
HETATM   43  C26 UNL     1      14.146  48.082  40.686  1.00  0.00     0.116 A 
HETATM   44  F1  UNL     1      13.325  49.151  40.822  1.00  0.00    -0.206 F 
HETATM   45  C27 UNL     1      13.611  46.833  40.965  1.00  0.00     0.044 A 
HETATM   46  C28 UNL     1      14.436  45.744  40.819  1.00  0.00     0.028 A 
ENDBRANCH  37  40
ENDBRANCH  35  37
ENDBRANCH  34  35
ENDBRANCH  33  34
ENDBRANCH  31  33
ENDBRANCH   6  30
TORSDOF 11
ENDMDL
MODEL 4
REMARK VINA RESULT: -10.826673753      1.429      2.070
REMARK  11 active torsions:
REMARK  status: ('A' for Active; 'I' for Inactive)
REMARK    1  A    between atoms: C3_5  and  N2_6 
REMARK    2  A    between atoms: C4_8  and  C5_9 
REMARK    3  A    between atoms: C5_9  and  C6_10 
REMARK    4  A    between atoms: C12_18  and  N4_19 
REMARK    5  A    between atoms: C13_21  and  C14_22 
REMARK    6  A    between atoms: C19_27  and  C20_28 
REMARK    7  A    between atoms: N5_29  and  C21_31 
REMARK    8  A    between atoms: C21_31  and  C22_32 
REMARK    9  A    between atoms: C22_32  and  N6_33 
REMARK   10  A    between atoms: N6_33  and  S1_35 
REMARK   11  A    between atoms: S1_35  and  C23_38 
ROOT
HETATM    1  C14 UNL     1      23.128  46.632  44.291  1.00  0.00    -0.009 A 
HETATM    2  C15 UNL     1      23.661  47.552  43.356  1.00  0.00     0.013 A 
HETATM    3  C16 UNL     1      23.838  47.140  42.037  1.00  0.00     0.001 A 
HETATM    4  C17 UNL     1      23.493  45.877  41.661  1.00  0.00     0.001 A 
HETATM    5  C18 UNL     1      22.961  44.965  42.571  1.00  0.00     0.013 A 
HETATM    6  C19 UNL     1      22.791  45.346  43.863  1.00  0.00    -0.009 A 
ENDROOT
BRANCH   1   7
HETATM    7  C13 UNL     1      23.122  46.789  45.750  1.00  0.00     0.118 C 
HETATM    8  N4  UNL     1      22.697  47.779  46.550  1.00  0.00    -0.200 N 
ATOM      9  H4  UNL     1      21.846  47.445  47.003  1.00  0.00     0.183 HD
BRANCH   8  10
HETATM   10  C12 UNL     1      22.898  48.928  46.974  1.00  0.00     0.698 A 
HETATM   11  N3  UNL     1      23.105  50.110  46.233  1.00  0.00    -0.022 N 
HETATM   12  C3  UNL     1      23.451  51.381  46.772  1.00  0.00     0.698 A 
ATOM     13  H3  UNL     1      22.998  50.049  45.220  1.00  0.00     0.203 HD
HETATM   14  N1  UNL     1      23.617  51.495  48.212  1.00  0.00    -0.176 N 
HETATM   15  C2  UNL     1      23.424  50.353  49.013  1.00  0.00     0.127 A 
ATOM     16  H1  UNL     1      23.869  52.388  48.635  1.00  0.00     0.185 HD
HETATM   17  C1  UNL     1      23.550  50.411  50.357  1.00  0.00     0.064 C 
HETATM   18  N7  UNL     1      23.064  49.064  48.430  1.00  0.00    -0.176 N 
ATOM     19  H7  UNL     1      22.926  48.254  49.035  1.00  0.00     0.185 HD
BRANCH  12  20
HETATM   20  N2  UNL     1      23.465  52.428  46.174  1.00  0.00    -0.204 N 
HETATM   21  C4  UNL     1      23.039  53.373  45.335  1.00  0.00     0.083 C 
ATOM     22  H2  UNL     1      24.329  52.844  46.521  1.00  0.00     0.183 HD
BRANCH  21  23
HETATM   23  C5  UNL     1      23.402  54.749  45.859  1.00  0.00     0.083 C 
BRANCH  23  24
HETATM   24  C6  UNL     1      24.733  55.291  45.509  1.00  0.00    -0.053 A 
HETATM   25  C7  UNL     1      25.956  54.775  45.907  1.00  0.00     0.007 A 
HETATM   26  C8  UNL     1      27.124  55.399  45.558  1.00  0.00     0.001 A 
HETATM   27  C9  UNL     1      27.147  56.564  44.806  1.00  0.00     0.000 A 
HETATM   28  C10 UNL     1      25.932  57.094  44.409  1.00  0.00     0.001 A 
HETATM   29  C11 UNL     1      24.767  56.463  44.756  1.00  0.00     0.007 A 
ENDBRANCH  23  24
ENDBRANCH  21  23
ENDBRANCH  12  20
ENDBRANCH   8  10
ENDBRANCH   1   7
BRANCH   6  30
HETATM   30  C20 UNL     1      22.078  44.401  44.812  1.00  0.00     0.099 C 
HETATM   31  N5  UNL     1      20.759  44.308  44.487  1.00  0.00    -0.376 N 
ATOM     32  H5  UNL     1      20.643  43.757  43.636  1.00  0.00     0.164 HD
BRANCH  31  33
HETATM   33  C21 UNL     1      19.533  44.728  44.952  1.00  0.00     0.080 C 
BRANCH  33  34
HETATM   34  C22 UNL     1      18.304  43.982  44.419  1.00  0.00     0.176 C 
BRANCH  34  35
HETATM   35  N6  UNL     1      17.384  44.875  43.802  1.00  0.00    -0.311 N 
ATOM     36  H6  UNL     1      16.796  45.513  44.338  1.00  0.00     0.172 HD
BRANCH  35  37
HETATM   37  S1  UNL     1      17.337  44.802  42.101  1.00  0.00     0.259 S 
HETATM   38  O1  UNL     1      18.626  45.519  41.639  1.00  0.00    -0.201 OA
HETATM   39  O2  UNL     1      17.368  43.451  41.551  1.00  0.00    -0.201 OA
BRANCH  37  40
HETATM   40  C23 UNL     1      16.022  45.718  41.424  1.00  0.00     0.079 A 
HETATM   41  C24 UNL     1      14.717  45.375  41.538  1.00  0.00     0.028 A 
HETATM   42  C25 UNL     1      13.744  46.212  40.994  1.00  0.00     0.044 A 
HETATM   43  C26 UNL     1      14.065  47.372  40.344  1.00  0.00     0.116 A 
HETATM   44  F1  UNL     1      13.134  48.203  39.815  1.00  0.00    -0.206 F 
HETATM   45  C27 UNL     1      15.395  47.747  40.214  1.00  0.00     0.044 A 
HETATM   46  C28 UNL     1      16.343  46.913  40.757  1.00  0.00     0.028 A 
ENDBRANCH  37  40
ENDBRANCH  35  37
ENDBRANCH  34  35
ENDBRANCH  33  34
ENDBRANCH  31  33
ENDBRANCH   6  30
TORSDOF 11
ENDMDL
MODEL 5
REMARK VINA RESULT: -10.779953780      1.284      1.879
REMARK  11 active torsions:
REMARK  status: ('A' for Active; 'I' for Inactive)
REMARK    1  A    between atoms: C3_5  and  N2_6 
REMARK    2  A    between atoms: C4_8  and  C5_9 
REMARK    3  A    between atoms: C5_9  and  C6_10 
REMARK    4  A    between atoms: C12_18  and  N4_19 
REMARK    5  A    between atoms: C13_21  and  C14_22 
REMARK    6  A    between atoms: C19_27  and  C20_28 
REMARK    7  A    between atoms: N5_29  and  C21_31 
REMARK    8  A    between atoms: C21_31  and  C22_32 
REMARK    9  A    between atoms: C22_32  and  N6_33 
REMARK   10  A    between atoms: N6_33  and  S1_35 
REMARK   11  A    between atoms: S1_35  and  C23_38 
ROOT
HETATM    1  C14 UNL     1      23.106  46.667  44.262  1.00  0.00    -0.009 A 
HETATM    2  C15 UNL     1      23.796  47.471  43.323  1.00  0.00     0.013 A 
HETATM    3  C16 UNL     1      23.876  47.039  42.001  1.00  0.00     0.001 A 
HETATM    4  C17 UNL     1      23.288  45.869  41.625  1.00  0.00     0.001 A 
HETATM    5  C18 UNL     1      22.600  45.073  42.539  1.00  0.00     0.013 A 
HETATM    6  C19 UNL     1      22.521  45.472  43.835  1.00  0.00    -0.009 A 
ENDROOT
BRANCH   1   7
HETATM    7  C13 UNL     1      23.147  46.816  45.721  1.00  0.00     0.118 C 
HETATM    8  N4  UNL     1      22.724  47.789  46.542  1.00  0.00    -0.200 N 
ATOM      9  H4  UNL     1      21.899  47.431  47.022  1.00  0.00     0.183 HD
BRANCH   8  10
HETATM   10  C12 UNL     1      22.912  48.940  46.967  1.00  0.00     0.698 A 
HETATM   11  N3  UNL     1      23.117  50.123  46.227  1.00  0.00    -0.022 N 
HETATM   12  C3  UNL     1      23.445  51.398  46.768  1.00  0.00     0.698 A 
ATOM     13  H3  UNL     1      23.021  50.060  45.213  1.00  0.00     0.203 HD
HETATM   14  N1  UNL     1      23.594  51.515  48.210  1.00  0.00    -0.176 N 
HETATM   15  C2  UNL     1      23.402  50.372  49.010  1.00  0.00     0.127 A 
ATOM     16  H1  UNL     1      23.833  52.411  48.635  1.00  0.00     0.185 HD
HETATM   17  C1  UNL     1      23.511  50.434  50.355  1.00  0.00     0.064 C 
HETATM   18  N7  UNL     1      23.059  49.079  48.425  1.00  0.00    -0.176 N 
ATOM     19  H7  UNL     1      22.921  48.269  49.029  1.00  0.00     0.185 HD
BRANCH  12  20
HETATM   20  N2  UNL     1      23.458  52.444  46.169  1.00  0.00    -0.204 N 
HETATM   21  C4  UNL     1      23.063  53.362  45.286  1.00  0.00     0.083 C 
ATOM     22  H2  UNL     1      24.255  52.911  46.600  1.00  0.00     0.183 HD
BRANCH  21  23
HETATM   23  C5  UNL     1      23.287  54.757  45.835  1.00  0.00     0.083 C 
BRANCH  23  24
HETATM   24  C6  UNL     1      24.577  55.417  45.540  1.00  0.00    -0.053 A 
HETATM   25  C7  UNL     1      24.748  56.607  44.852  1.00  0.00     0.007 A 
HETATM   26  C8  UNL     1      26.004  57.093  44.597  1.00  0.00     0.001 A 
HETATM   27  C9  UNL     1      27.152  56.429  45.002  1.00  0.00     0.000 A 
HETATM   28  C10 UNL     1      26.995  55.234  45.683  1.00  0.00     0.001 A 
HETATM   29  C11 UNL     1      25.738  54.756  45.940  1.00  0.00     0.007 A 
ENDBRANCH  23  24
ENDBRANCH  21  23
ENDBRANCH  12  20
ENDBRANCH   8  10
ENDBRANCH   1   7
BRANCH   6  30
HETATM   30  C20 UNL     1      21.649  44.680  44.789  1.00  0.00     0.099 C 
HETATM   31  N5  UNL     1      20.409  44.495  44.257  1.00  0.00    -0.376 N 
ATOM     32  H5  UNL     1      20.446  43.807  43.506  1.00  0.00     0.164 HD
BRANCH  31  33
HETATM   33  C21 UNL     1      19.120  44.951  44.421  1.00  0.00     0.080 C 
BRANCH  33  34
HETATM   34  C22 UNL     1      18.098  44.515  43.365  1.00  0.00     0.176 C 
BRANCH  34  35
HETATM   35  N6  UNL     1      18.112  45.388  42.241  1.00  0.00    -0.311 N 
ATOM     36  H6  UNL     1      18.732  46.196  42.182  1.00  0.00     0.172 HD
BRANCH  35  37
HETATM   37  S1  UNL     1      17.018  44.985  40.999  1.00  0.00     0.259 S 
HETATM   38  O1  UNL     1      17.863  45.007  39.706  1.00  0.00    -0.201 OA
HETATM   39  O2  UNL     1      16.433  43.653  41.115  1.00  0.00    -0.201 OA
BRANCH  37  40
HETATM   40  C23 UNL     1      15.782  46.188  40.773  1.00  0.00     0.079 A 
HETATM   41  C24 UNL     1      15.997  47.407  40.221  1.00  0.00     0.028 A 
HETATM   42  C25 UNL     1      14.920  48.273  40.047  1.00  0.00     0.044 A 
HETATM   43  C26 UNL     1      13.647  47.933  40.417  1.00  0.00     0.116 A 
HETATM   44  F1  UNL     1      12.585  48.759  40.249  1.00  0.00    -0.206 F 
HETATM   45  C27 UNL     1      13.399  46.691  40.983  1.00  0.00     0.044 A 
HETATM   46  C28 UNL     1      14.471  45.846  41.147  1.00  0.00     0.028 A 
ENDBRANCH  37  40
ENDBRANCH  35  37
ENDBRANCH  34  35
ENDBRANCH  33  34
ENDBRANCH  31  33
ENDBRANCH   6  30
TORSDOF 11
ENDMDL
