MODEL 1
REMARK VINA RESULT: -8.896775614      0.000      0.000
REMARK  15 active torsions:
REMARK  status: ('A' for Active; 'I' for Inactive)
REMARK    1  A    between atoms: C3_5  and  N2_6 
REMARK    2  A    between atoms: C4_11  and  C5_12 
REMARK    3  A    between atoms: C5_12  and  C6_13 
REMARK    4  A    between atoms: C6_13  and  C7_14 
REMARK       I    between atoms: C7_14  and  N4_16 
REMARK    5  A    between atoms: N4_16  and  C8_18 
REMARK    6  A    between atoms: C8_18  and  C10_20 
REMARK    7  A    between atoms: C10_20  and  C11_21 
REMARK    8  A    between atoms: C11_21  and  C12_22 
REMARK    9  A    between atoms: C12_22  and  N5_23 
REMARK   10  A    between atoms: C16_27  and  C17_28 
REMARK   11  A    between atoms: C17_28  and  O2_29 
REMARK   12  A    between atoms: C17_28  and  N6_31 
REMARK   13  A    between atoms: C21_35  and  C22_36 
REMARK   14  A    between atoms: C22_36  and  C23_37 
REMARK   15  A    between atoms: C29_44  and  N7_45 
ROOT
HETATM    1  N5  UNL     1      21.339  44.219  45.359  1.00  0.00     0.101 N 
HETATM    2  C13 UNL     1      20.840  42.898  45.393  1.00  0.00     0.273 C 
HETATM    3  C14 UNL     1      21.843  41.991  46.085  1.00  0.00     0.033 C 
HETATM    4  C15 UNL     1      23.028  42.856  46.310  1.00  0.00     0.046 C 
HETATM    5  C16 UNL     1      22.676  44.258  45.808  1.00  0.00     0.296 C 
ENDROOT
BRANCH   1   6
HETATM    6  C12 UNL     1      20.504  45.247  45.847  1.00  0.00     0.273 C 
BRANCH   6   7
HETATM    7  C11 UNL     1      19.417  45.738  44.978  1.00  0.00     0.032 C 
BRANCH   7   8
HETATM    8  C10 UNL     1      18.412  44.707  44.605  1.00  0.00     0.026 C 
BRANCH   8   9
HETATM    9  C8  UNL     1      18.215  44.765  43.066  1.00  0.00     0.080 C 
HETATM   10  C9  UNL     1      19.123  45.814  42.498  1.00  0.00     0.032 C 
BRANCH   9  11
HETATM   11  N4  UNL     1      16.827  45.094  42.832  1.00  0.00    -0.357 N 
HETATM   12  C7  UNL     1      16.259  44.730  41.589  1.00  0.00     0.218 C 
HETATM   13  O1  UNL     1      16.945  44.134  40.693  1.00  0.00    -0.274 OA
ATOM     14  H4  UNL     1      16.274  45.573  43.542  1.00  0.00     0.162 HD
BRANCH  12  15
HETATM   15  C6  UNL     1      14.848  45.028  41.292  1.00  0.00     0.109 C 
BRANCH  15  16
HETATM   16  C5  UNL     1      14.494  46.445  41.735  1.00  0.00     0.069 C 
BRANCH  16  17
HETATM   17  C4  UNL     1      14.152  47.203  40.517  1.00  0.00     0.049 A 
HETATM   18  C2  UNL     1      14.908  48.111  39.819  1.00  0.00     0.045 A 
HETATM   19  C1  UNL     1      16.306  48.512  40.201  1.00  0.00     0.071 C 
HETATM   20  N1  UNL     1      14.214  48.574  38.767  1.00  0.00    -0.194 N 
HETATM   21  C3  UNL     1      13.016  47.962  38.789  1.00  0.00     0.676 A 
ATOM     22  H1  UNL     1      14.534  49.258  38.081  1.00  0.00     0.184 HD
HETATM   23  N3  UNL     1      12.967  47.134  39.838  1.00  0.00    -0.194 N 
ATOM     24  H3  UNL     1      12.173  46.546  40.091  1.00  0.00     0.184 HD
BRANCH  21  25
HETATM   25  N2  UNL     1      12.055  48.129  37.949  1.00  0.00    -0.234 N 
ATOM     26  H22 UNL     1      12.025  47.711  37.019  1.00  0.00     0.174 HD
ATOM     27  H21 UNL     1      11.214  48.687  38.093  1.00  0.00     0.174 HD
ENDBRANCH  21  25
ENDBRANCH  16  17
ENDBRANCH  15  16
ENDBRANCH  12  15
ENDBRANCH   9  11
ENDBRANCH   8   9
ENDBRANCH   7   8
ENDBRANCH   6   7
ENDBRANCH   1   6
BRANCH   5  28
HETATM   28  C17 UNL     1      23.722  44.649  44.869  1.00  0.00     0.149 C 
BRANCH  28  29
HETATM   29  O2  UNL     1      24.815  43.931  44.987  1.00  0.00    -0.348 OA
ATOM     30  H2  UNL     1      25.014  43.425  44.209  1.00  0.00     0.219 HD
ENDBRANCH  28  29
BRANCH  28  31
HETATM   31  N6  UNL     1      23.801  45.630  43.873  1.00  0.00    -0.336 N 
HETATM   32  C18 UNL     1      23.188  45.409  42.588  1.00  0.00     0.127 C 
HETATM   33  C19 UNL     1      23.654  46.479  41.593  1.00  0.00     0.020 C 
HETATM   34  C20 UNL     1      23.375  47.837  42.138  1.00  0.00     0.010 C 
HETATM   35  C21 UNL     1      23.832  48.073  43.552  1.00  0.00     0.040 C 
HETATM   36  C29 UNL     1      24.507  46.884  44.111  1.00  0.00     0.289 C 
BRANCH  35  37
HETATM   37  C22 UNL     1      22.623  48.554  44.312  1.00  0.00     0.047 C 
BRANCH  37  38
HETATM   38  C23 UNL     1      22.859  49.463  45.412  1.00  0.00    -0.056 A 
HETATM   39  C24 UNL     1      22.849  50.817  45.254  1.00  0.00     0.007 A 
HETATM   40  C25 UNL     1      23.076  51.650  46.317  1.00  0.00     0.002 A 
HETATM   41  C26 UNL     1      23.320  51.119  47.562  1.00  0.00     0.024 A 
HETATM   42  C27 UNL     1      23.343  49.747  47.783  1.00  0.00     0.034 A 
HETATM   43 CL1  UNL     1      23.656  49.099  49.378  1.00  0.00    -0.084 Cl
HETATM   44  C28 UNL     1      23.107  48.960  46.678  1.00  0.00     0.031 A 
ENDBRANCH  37  38
ENDBRANCH  35  37
BRANCH  36  45
HETATM   45  N7  UNL     1      25.847  46.687  43.526  1.00  0.00    -0.058 N 
ATOM     46  H73 UNL     1      26.060  45.715  43.301  1.00  0.00     0.276 HD
ATOM     47  H72 UNL     1      25.941  47.050  42.578  1.00  0.00     0.276 HD
ATOM     48  H71 UNL     1      26.493  47.106  44.195  1.00  0.00     0.276 HD
ENDBRANCH  36  45
ENDBRANCH  28  31
ENDBRANCH   5  28
TORSDOF 15
ENDMDL
MODEL 2
REMARK VINA RESULT: -8.282542423      0.768      1.339
REMARK  15 active torsions:
REMARK  status: ('A' for Active; 'I' for Inactive)
REMARK    1  A    between atoms: C3_5  and  N2_6 
REMARK    2  A    between atoms: C4_11  and  C5_12 
REMARK    3  A    between atoms: C5_12  and  C6_13 
REMARK    4  A    between atoms: C6_13  and  C7_14 
REMARK       I    between atoms: C7_14  and  N4_16 
REMARK    5  A    between atoms: N4_16  and  C8_18 
REMARK    6  A    between atoms: C8_18  and  C10_20 
REMARK    7  A    between atoms: C10_20  and  C11_21 
REMARK    8  A    between atoms: C11_21  and  C12_22 
REMARK    9  A    between atoms: C12_22  and  N5_23 
REMARK   10  A    between atoms: C16_27  and  C17_28 
REMARK   11  A    between atoms: C17_28  and  O2_29 
REMARK   12  A    between atoms: C17_28  and  N6_31 
REMARK   13  A    between atoms: C21_35  and  C22_36 
REMARK   14  A    between atoms: C22_36  and  C23_37 
REMARK   15  A    between atoms: C29_44  and  N7_45 
ROOT
HETATM    1  N5  UNL     1      21.347  44.176  45.432  1.00  0.00     0.101 N 
HETATM    2  C13 UNL     1      20.861  42.850  45.457  1.00  0.00     0.273 C 
HETATM    3  C14 UNL     1      21.876  41.947  46.139  1.00  0.00     0.033 C 
HETATM    4  C15 UNL     1      23.053  42.823  46.367  1.00  0.00     0.046 C 
HETATM    5  C16 UNL     1      22.684  44.225  45.876  1.00  0.00     0.296 C 
ENDROOT
BRANCH   1   6
HETATM    6  C12 UNL     1      20.503  45.192  45.931  1.00  0.00     0.273 C 
BRANCH   6   7
HETATM    7  C11 UNL     1      19.434  45.707  45.054  1.00  0.00     0.032 C 
BRANCH   7   8
HETATM    8  C10 UNL     1      18.445  44.684  44.620  1.00  0.00     0.026 C 
BRANCH   8   9
HETATM    9  C8  UNL     1      18.386  44.703  43.069  1.00  0.00     0.080 C 
HETATM   10  C9  UNL     1      19.201  45.855  42.564  1.00  0.00     0.032 C 
BRANCH   9  11
HETATM   11  N4  UNL     1      16.995  44.846  42.702  1.00  0.00    -0.357 N 
HETATM   12  C7  UNL     1      16.643  44.656  41.347  1.00  0.00     0.218 C 
HETATM   13  O1  UNL     1      17.519  44.370  40.465  1.00  0.00    -0.274 OA
ATOM     14  H4  UNL     1      16.289  45.078  43.401  1.00  0.00     0.162 HD
BRANCH  12  15
HETATM   15  C6  UNL     1      15.242  44.778  40.910  1.00  0.00     0.109 C 
BRANCH  15  16
HETATM   16  C5  UNL     1      14.566  45.958  41.604  1.00  0.00     0.069 C 
BRANCH  16  17
HETATM   17  C4  UNL     1      14.882  47.161  40.810  1.00  0.00     0.049 A 
HETATM   18  C2  UNL     1      14.056  47.920  40.019  1.00  0.00     0.045 A 
HETATM   19  C1  UNL     1      12.592  47.638  39.816  1.00  0.00     0.071 C 
HETATM   20  N1  UNL     1      14.748  48.930  39.468  1.00  0.00    -0.194 N 
HETATM   21  C3  UNL     1      16.015  48.819  39.906  1.00  0.00     0.676 A 
ATOM     22  H1  UNL     1      14.384  49.644  38.838  1.00  0.00     0.184 HD
HETATM   23  N3  UNL     1      16.107  47.758  40.715  1.00  0.00    -0.194 N 
ATOM     24  H3  UNL     1      16.957  47.445  41.185  1.00  0.00     0.184 HD
BRANCH  21  25
HETATM   25  N2  UNL     1      16.998  49.595  39.610  1.00  0.00    -0.234 N 
ATOM     26  H22 UNL     1      16.977  50.611  39.699  1.00  0.00     0.174 HD
ATOM     27  H21 UNL     1      17.911  49.310  39.255  1.00  0.00     0.174 HD
ENDBRANCH  21  25
ENDBRANCH  16  17
ENDBRANCH  15  16
ENDBRANCH  12  15
ENDBRANCH   9  11
ENDBRANCH   8   9
ENDBRANCH   7   8
ENDBRANCH   6   7
ENDBRANCH   1   6
BRANCH   5  28
HETATM   28  C17 UNL     1      23.723  44.634  44.937  1.00  0.00     0.149 C 
BRANCH  28  29
HETATM   29  O2  UNL     1      24.842  43.961  45.081  1.00  0.00    -0.348 OA
ATOM     30  H2  UNL     1      25.615  44.509  45.037  1.00  0.00     0.219 HD
ENDBRANCH  28  29
BRANCH  28  31
HETATM   31  N6  UNL     1      23.774  45.595  43.919  1.00  0.00    -0.336 N 
HETATM   32  C18 UNL     1      23.134  45.343  42.653  1.00  0.00     0.127 C 
HETATM   33  C19 UNL     1      23.571  46.394  41.626  1.00  0.00     0.020 C 
HETATM   34  C20 UNL     1      23.296  47.761  42.149  1.00  0.00     0.010 C 
HETATM   35  C21 UNL     1      23.783  48.030  43.547  1.00  0.00     0.040 C 
HETATM   36  C29 UNL     1      24.478  46.856  44.116  1.00  0.00     0.289 C 
BRANCH  35  37
HETATM   37  C22 UNL     1      22.589  48.520  44.323  1.00  0.00     0.047 C 
BRANCH  37  38
HETATM   38  C23 UNL     1      22.846  49.441  45.409  1.00  0.00    -0.056 A 
HETATM   39  C24 UNL     1      22.904  50.790  45.223  1.00  0.00     0.007 A 
HETATM   40  C25 UNL     1      23.149  51.634  46.273  1.00  0.00     0.002 A 
HETATM   41  C26 UNL     1      23.341  51.119  47.535  1.00  0.00     0.024 A 
HETATM   42  C27 UNL     1      23.294  49.753  47.784  1.00  0.00     0.034 A 
HETATM   43 CL1  UNL     1      23.542  49.126  49.399  1.00  0.00    -0.084 Cl
HETATM   44  C28 UNL     1      23.043  48.954  46.690  1.00  0.00     0.031 A 
ENDBRANCH  37  38
ENDBRANCH  35  37
BRANCH  36  45
HETATM   45  N7  UNL     1      25.806  46.655  43.505  1.00  0.00    -0.058 N 
ATOM     46  H73 UNL     1      26.574  46.662  44.176  1.00  0.00     0.276 HD
ATOM     47  H72 UNL     1      25.961  45.708  43.159  1.00  0.00     0.276 HD
ATOM     48  H71 UNL     1      25.879  47.375  42.786  1.00  0.00     0.276 HD
ENDBRANCH  36  45
ENDBRANCH  28  31
ENDBRANCH   5  28
TORSDOF 15
ENDMDL
MODEL 3
REMARK VINA RESULT: -8.193557644      0.675      1.193
REMARK  15 active torsions:
REMARK  status: ('A' for Active; 'I' for Inactive)
REMARK    1  A    between atoms: C3_5  and  N2_6 
REMARK    2  A    between atoms: C4_11  and  C5_12 
REMARK    3  A    between atoms: C5_12  and  C6_13 
REMARK    4  A    between atoms: C6_13  and  C7_14 
REMARK       I    between atoms: C7_14  and  N4_16 
REMARK    5  A    between atoms: N4_16  and  C8_18 
REMARK    6  A    between atoms: C8_18  and  C10_20 
REMARK    7  A    between atoms: C10_20  and  C11_21 
REMARK    8  A    between atoms: C11_21  and  C12_22 
REMARK    9  A    between atoms: C12_22  and  N5_23 
REMARK   10  A    between atoms: C16_27  and  C17_28 
REMARK   11  A    between atoms: C17_28  and  O2_29 
REMARK   12  A    between atoms: C17_28  and  N6_31 
REMARK   13  A    between atoms: C21_35  and  C22_36 
REMARK   14  A    between atoms: C22_36  and  C23_37 
REMARK   15  A    between atoms: C29_44  and  N7_45 
ROOT
HETATM    1  N5  UNL     1      21.331  44.393  45.434  1.00  0.00     0.101 N 
HETATM    2  C13 UNL     1      20.744  43.108  45.441  1.00  0.00     0.273 C 
HETATM    3  C14 UNL     1      21.702  42.113  46.074  1.00  0.00     0.033 C 
HETATM    4  C15 UNL     1      22.949  42.889  46.291  1.00  0.00     0.046 C 
HETATM    5  C16 UNL     1      22.678  44.327  45.844  1.00  0.00     0.296 C 
ENDROOT
BRANCH   1   6
HETATM    6  C12 UNL     1      20.580  45.457  45.979  1.00  0.00     0.273 C 
BRANCH   6   7
HETATM    7  C11 UNL     1      19.942  46.411  45.051  1.00  0.00     0.032 C 
BRANCH   7   8
HETATM    8  C10 UNL     1      19.954  45.987  43.625  1.00  0.00     0.026 C 
BRANCH   8   9
HETATM    9  C8  UNL     1      18.546  45.433  43.280  1.00  0.00     0.080 C 
HETATM   10  C9  UNL     1      18.619  43.939  43.184  1.00  0.00     0.032 C 
BRANCH   9  11
HETATM   11  N4  UNL     1      18.163  46.018  42.014  1.00  0.00    -0.357 N 
HETATM   12  C7  UNL     1      17.080  45.438  41.314  1.00  0.00     0.218 C 
HETATM   13  O1  UNL     1      16.456  44.425  41.775  1.00  0.00    -0.274 OA
ATOM     14  H4  UNL     1      18.659  46.826  41.638  1.00  0.00     0.162 HD
BRANCH  12  15
HETATM   15  C6  UNL     1      16.635  45.993  40.026  1.00  0.00     0.109 C 
BRANCH  15  16
HETATM   16  C5  UNL     1      16.248  47.461  40.180  1.00  0.00     0.069 C 
BRANCH  16  17
HETATM   17  C4  UNL     1      14.821  47.569  39.820  1.00  0.00     0.049 A 
HETATM   18  C2  UNL     1      13.714  47.187  40.537  1.00  0.00     0.045 A 
HETATM   19  C1  UNL     1      13.772  46.554  41.900  1.00  0.00     0.071 C 
HETATM   20  N1  UNL     1      12.600  47.461  39.840  1.00  0.00    -0.194 N 
HETATM   21  C3  UNL     1      12.991  48.019  38.681  1.00  0.00     0.676 A 
ATOM     22  H1  UNL     1      11.640  47.281  40.134  1.00  0.00     0.184 HD
HETATM   23  N3  UNL     1      14.326  48.090  38.657  1.00  0.00    -0.194 N 
ATOM     24  H3  UNL     1      14.885  48.471  37.894  1.00  0.00     0.184 HD
BRANCH  21  25
HETATM   25  N2  UNL     1      12.224  48.428  37.730  1.00  0.00    -0.234 N 
ATOM     26  H22 UNL     1      12.069  49.408  37.498  1.00  0.00     0.174 HD
ATOM     27  H21 UNL     1      11.681  47.843  37.096  1.00  0.00     0.174 HD
ENDBRANCH  21  25
ENDBRANCH  16  17
ENDBRANCH  15  16
ENDBRANCH  12  15
ENDBRANCH   9  11
ENDBRANCH   8   9
ENDBRANCH   7   8
ENDBRANCH   6   7
ENDBRANCH   1   6
BRANCH   5  28
HETATM   28  C17 UNL     1      23.722  44.678  44.887  1.00  0.00     0.149 C 
BRANCH  28  29
HETATM   29  O2  UNL     1      24.806  43.949  45.016  1.00  0.00    -0.348 OA
ATOM     30  H2  UNL     1      25.506  44.399  45.472  1.00  0.00     0.219 HD
ENDBRANCH  28  29
BRANCH  28  31
HETATM   31  N6  UNL     1      23.807  45.632  43.864  1.00  0.00    -0.336 N 
HETATM   32  C18 UNL     1      23.203  45.373  42.582  1.00  0.00     0.127 C 
HETATM   33  C19 UNL     1      23.674  46.416  41.560  1.00  0.00     0.020 C 
HETATM   34  C20 UNL     1      23.389  47.788  42.065  1.00  0.00     0.010 C 
HETATM   35  C21 UNL     1      23.836  48.064  43.475  1.00  0.00     0.040 C 
HETATM   36  C29 UNL     1      24.509  46.892  44.072  1.00  0.00     0.289 C 
BRANCH  35  37
HETATM   37  C22 UNL     1      22.622  48.565  44.212  1.00  0.00     0.047 C 
BRANCH  37  38
HETATM   38  C23 UNL     1      22.852  49.469  45.317  1.00  0.00    -0.056 A 
HETATM   39  C24 UNL     1      22.846  50.824  45.164  1.00  0.00     0.007 A 
HETATM   40  C25 UNL     1      23.068  51.652  46.232  1.00  0.00     0.002 A 
HETATM   41  C26 UNL     1      23.301  51.116  47.477  1.00  0.00     0.024 A 
HETATM   42  C27 UNL     1      23.319  49.744  47.693  1.00  0.00     0.034 A 
HETATM   43 CL1  UNL     1      23.619  49.089  49.288  1.00  0.00    -0.084 Cl
HETATM   44  C28 UNL     1      23.089  48.960  46.583  1.00  0.00     0.031 A 
ENDBRANCH  37  38
ENDBRANCH  35  37
BRANCH  36  45
HETATM   45  N7  UNL     1      25.854  46.681  43.502  1.00  0.00    -0.058 N 
ATOM     46  H73 UNL     1      26.108  45.699  43.398  1.00  0.00     0.276 HD
ATOM     47  H72 UNL     1      25.927  46.926  42.515  1.00  0.00     0.276 HD
ATOM     48  H71 UNL     1      26.484  47.209  44.106  1.00  0.00     0.276 HD
ENDBRANCH  36  45
ENDBRANCH  28  31
ENDBRANCH   5  28
TORSDOF 15
ENDMDL
MODEL 4
REMARK VINA RESULT: -7.973368853      1.317      1.636
REMARK  15 active torsions:
REMARK  status: ('A' for Active; 'I' for Inactive)
REMARK    1  A    between atoms: C3_5  and  N2_6 
REMARK    2  A    between atoms: C4_11  and  C5_12 
REMARK    3  A    between atoms: C5_12  and  C6_13 
REMARK    4  A    between atoms: C6_13  and  C7_14 
REMARK       I    between atoms: C7_14  and  N4_16 
REMARK    5  A    between atoms: N4_16  and  C8_18 
REMARK    6  A    between atoms: C8_18  and  C10_20 
REMARK    7  A    between atoms: C10_20  and  C11_21 
REMARK    8  A    between atoms: C11_21  and  C12_22 
REMARK    9  A    between atoms: C12_22  and  N5_23 
REMARK   10  A    between atoms: C16_27  and  C17_28 
REMARK   11  A    between atoms: C17_28  and  O2_29 
REMARK   12  A    between atoms: C17_28  and  N6_31 
REMARK   13  A    between atoms: C21_35  and  C22_36 
REMARK   14  A    between atoms: C22_36  and  C23_37 
REMARK   15  A    between atoms: C29_44  and  N7_45 
ROOT
HETATM    1  N5  UNL     1      19.934  43.859  44.719  1.00  0.00     0.101 N 
HETATM    2  C13 UNL     1      20.599  42.614  44.653  1.00  0.00     0.273 C 
HETATM    3  C14 UNL     1      21.635  42.529  45.762  1.00  0.00     0.033 C 
HETATM    4  C15 UNL     1      21.627  43.880  46.378  1.00  0.00     0.046 C 
HETATM    5  C16 UNL     1      20.551  44.703  45.665  1.00  0.00     0.296 C 
ENDROOT
BRANCH   1   6
HETATM    6  C12 UNL     1      18.523  43.846  44.744  1.00  0.00     0.273 C 
BRANCH   6   7
HETATM    7  C11 UNL     1      17.800  44.835  43.922  1.00  0.00     0.032 C 
BRANCH   7   8
HETATM    8  C10 UNL     1      18.347  45.018  42.551  1.00  0.00     0.026 C 
BRANCH   8   9
HETATM    9  C8  UNL     1      17.223  44.677  41.537  1.00  0.00     0.080 C 
HETATM   10  C9  UNL     1      17.708  44.980  40.151  1.00  0.00     0.032 C 
BRANCH   9  11
HETATM   11  N4  UNL     1      16.083  45.496  41.882  1.00  0.00    -0.357 N 
HETATM   12  C7  UNL     1      14.818  45.122  41.374  1.00  0.00     0.218 C 
HETATM   13  O1  UNL     1      14.677  44.095  40.629  1.00  0.00    -0.274 OA
ATOM     14  H4  UNL     1      16.188  46.320  42.474  1.00  0.00     0.162 HD
BRANCH  12  15
HETATM   15  C6  UNL     1      13.616  45.908  41.696  1.00  0.00     0.109 C 
BRANCH  15  16
HETATM   16  C5  UNL     1      13.929  47.402  41.665  1.00  0.00     0.069 C 
BRANCH  16  17
HETATM   17  C4  UNL     1      13.720  47.856  40.277  1.00  0.00     0.049 A 
HETATM   18  C2  UNL     1      14.584  48.519  39.442  1.00  0.00     0.045 A 
HETATM   19  C1  UNL     1      15.983  48.919  39.823  1.00  0.00     0.071 C 
HETATM   20  N1  UNL     1      13.993  48.748  38.258  1.00  0.00    -0.194 N 
HETATM   21  C3  UNL     1      12.754  48.232  38.334  1.00  0.00     0.676 A 
ATOM     22  H1  UNL     1      14.405  49.223  37.455  1.00  0.00     0.184 HD
HETATM   23  N3  UNL     1      12.578  47.692  39.544  1.00  0.00    -0.194 N 
ATOM     24  H3  UNL     1      11.727  47.231  39.869  1.00  0.00     0.184 HD
BRANCH  21  25
HETATM   25  N2  UNL     1      11.861  48.242  37.406  1.00  0.00    -0.234 N 
ATOM     26  H22 UNL     1      10.984  48.760  37.456  1.00  0.00     0.174 HD
ATOM     27  H21 UNL     1      11.907  47.747  36.516  1.00  0.00     0.174 HD
ENDBRANCH  21  25
ENDBRANCH  16  17
ENDBRANCH  15  16
ENDBRANCH  12  15
ENDBRANCH   9  11
ENDBRANCH   8   9
ENDBRANCH   7   8
ENDBRANCH   6   7
ENDBRANCH   1   6
BRANCH   5  28
HETATM   28  C17 UNL     1      21.191  45.929  45.202  1.00  0.00     0.149 C 
BRANCH  28  29
HETATM   29  O2  UNL     1      20.804  46.995  45.864  1.00  0.00    -0.348 OA
ATOM     30  H2  UNL     1      20.575  47.722  45.299  1.00  0.00     0.219 HD
ENDBRANCH  28  29
BRANCH  28  31
HETATM   31  N6  UNL     1      22.129  46.204  44.199  1.00  0.00    -0.336 N 
HETATM   32  C18 UNL     1      21.837  45.879  42.826  1.00  0.00     0.127 C 
HETATM   33  C19 UNL     1      23.108  46.001  41.975  1.00  0.00     0.020 C 
HETATM   34  C20 UNL     1      23.697  47.360  42.134  1.00  0.00     0.010 C 
HETATM   35  C21 UNL     1      23.860  47.834  43.552  1.00  0.00     0.040 C 
HETATM   36  C29 UNL     1      23.415  46.811  44.522  1.00  0.00     0.289 C 
BRANCH  35  37
HETATM   37  C22 UNL     1      23.157  49.163  43.637  1.00  0.00     0.047 C 
BRANCH  37  38
HETATM   38  C23 UNL     1      23.172  49.832  44.919  1.00  0.00    -0.056 A 
HETATM   39  C24 UNL     1      22.891  51.160  45.052  1.00  0.00     0.007 A 
HETATM   40  C25 UNL     1      22.914  51.763  46.282  1.00  0.00     0.002 A 
HETATM   41  C26 UNL     1      23.224  51.025  47.400  1.00  0.00     0.024 A 
HETATM   42  C27 UNL     1      23.519  49.669  47.326  1.00  0.00     0.034 A 
HETATM   43 CL1  UNL     1      23.911  48.754  48.766  1.00  0.00    -0.084 Cl
HETATM   44  C28 UNL     1      23.480  49.117  46.064  1.00  0.00     0.031 A 
ENDBRANCH  37  38
ENDBRANCH  35  37
BRANCH  36  45
HETATM   45  N7  UNL     1      24.363  45.684  44.606  1.00  0.00    -0.058 N 
ATOM     46  H73 UNL     1      24.567  45.248  43.706  1.00  0.00     0.276 HD
ATOM     47  H72 UNL     1      25.320  45.964  44.820  1.00  0.00     0.276 HD
ATOM     48  H71 UNL     1      23.956  45.046  45.290  1.00  0.00     0.276 HD
ENDBRANCH  36  45
ENDBRANCH  28  31
ENDBRANCH   5  28
TORSDOF 15
ENDMDL
MODEL 5
REMARK VINA RESULT: -7.920440255      1.445      2.107
REMARK  15 active torsions:
REMARK  status: ('A' for Active; 'I' for Inactive)
REMARK    1  A    between atoms: C3_5  and  N2_6 
REMARK    2  A    between atoms: C4_11  and  C5_12 
REMARK    3  A    between atoms: C5_12  and  C6_13 
REMARK    4  A    between atoms: C6_13  and  C7_14 
REMARK       I    between atoms: C7_14  and  N4_16 
REMARK    5  A    between atoms: N4_16  and  C8_18 
REMARK    6  A    between atoms: C8_18  and  C10_20 
REMARK    7  A    between atoms: C10_20  and  C11_21 
REMARK    8  A    between atoms: C11_21  and  C12_22 
REMARK    9  A    between atoms: C12_22  and  N5_23 
REMARK   10  A    between atoms: C16_27  and  C17_28 
REMARK   11  A    between atoms: C17_28  and  O2_29 
REMARK   12  A    between atoms: C17_28  and  N6_31 
REMARK   13  A    between atoms: C21_35  and  C22_36 
REMARK   14  A    between atoms: C22_36  and  C23_37 
REMARK   15  A    between atoms: C29_44  and  N7_45 
ROOT
HETATM    1  N5  UNL     1      21.141  44.058  45.384  1.00  0.00     0.101 N 
HETATM    2  C13 UNL     1      20.910  42.665  45.404  1.00  0.00     0.273 C 
HETATM    3  C14 UNL     1      22.163  41.946  45.875  1.00  0.00     0.033 C 
HETATM    4  C15 UNL     1      23.186  43.018  45.978  1.00  0.00     0.046 C 
HETATM    5  C16 UNL     1      22.501  44.340  45.629  1.00  0.00     0.296 C 
ENDROOT
BRANCH   1   6
HETATM    6  C12 UNL     1      20.217  44.884  46.060  1.00  0.00     0.273 C 
BRANCH   6   7
HETATM    7  C11 UNL     1      20.305  46.343  45.859  1.00  0.00     0.032 C 
BRANCH   7   8
HETATM    8  C10 UNL     1      19.550  46.850  44.682  1.00  0.00     0.026 C 
BRANCH   8   9
HETATM    9  C8  UNL     1      19.545  45.737  43.600  1.00  0.00     0.080 C 
HETATM   10  C9  UNL     1      20.586  46.053  42.570  1.00  0.00     0.032 C 
BRANCH   9  11
HETATM   11  N4  UNL     1      18.222  45.723  43.018  1.00  0.00    -0.357 N 
HETATM   12  C7  UNL     1      17.649  44.470  42.700  1.00  0.00     0.218 C 
HETATM   13  O1  UNL     1      18.274  43.379  42.914  1.00  0.00    -0.274 OA
ATOM     14  H4  UNL     1      17.716  46.591  42.841  1.00  0.00     0.162 HD
BRANCH  12  15
HETATM   15  C6  UNL     1      16.301  44.387  42.114  1.00  0.00     0.109 C 
BRANCH  15  16
HETATM   16  C5  UNL     1      16.343  44.718  40.624  1.00  0.00     0.069 C 
BRANCH  16  17
HETATM   17  C4  UNL     1      15.913  46.122  40.484  1.00  0.00     0.049 A 
HETATM   18  C2  UNL     1      14.674  46.675  40.694  1.00  0.00     0.045 A 
HETATM   19  C1  UNL     1      13.467  45.893  41.134  1.00  0.00     0.071 C 
HETATM   20  N1  UNL     1      14.713  47.994  40.448  1.00  0.00    -0.194 N 
HETATM   21  C3  UNL     1      15.974  48.286  40.082  1.00  0.00     0.676 A 
ATOM     22  H1  UNL     1      13.935  48.650  40.524  1.00  0.00     0.184 HD
HETATM   23  N3  UNL     1      16.705  47.168  40.101  1.00  0.00    -0.194 N 
ATOM     24  H3  UNL     1      17.696  47.105  39.866  1.00  0.00     0.184 HD
BRANCH  21  25
HETATM   25  N2  UNL     1      16.429  49.447  39.762  1.00  0.00    -0.234 N 
ATOM     26  H22 UNL     1      15.848  50.231  39.464  1.00  0.00     0.174 HD
ATOM     27  H21 UNL     1      17.407  49.736  39.760  1.00  0.00     0.174 HD
ENDBRANCH  21  25
ENDBRANCH  16  17
ENDBRANCH  15  16
ENDBRANCH  12  15
ENDBRANCH   9  11
ENDBRANCH   8   9
ENDBRANCH   7   8
ENDBRANCH   6   7
ENDBRANCH   1   6
BRANCH   5  28
HETATM   28  C17 UNL     1      23.291  44.962  44.572  1.00  0.00     0.149 C 
BRANCH  28  29
HETATM   29  O2  UNL     1      23.775  44.096  43.712  1.00  0.00    -0.348 OA
ATOM     30  H2  UNL     1      24.185  44.506  42.960  1.00  0.00     0.219 HD
ENDBRANCH  28  29
BRANCH  28  31
HETATM   31  N6  UNL     1      23.641  46.289  44.288  1.00  0.00    -0.336 N 
HETATM   32  C18 UNL     1      23.144  46.929  43.096  1.00  0.00     0.127 C 
HETATM   33  C19 UNL     1      23.887  48.250  42.861  1.00  0.00     0.020 C 
HETATM   34  C20 UNL     1      23.779  49.116  44.068  1.00  0.00     0.010 C 
HETATM   35  C21 UNL     1      24.110  48.449  45.375  1.00  0.00     0.040 C 
HETATM   36  C29 UNL     1      24.514  47.041  45.181  1.00  0.00     0.289 C 
BRANCH  35  37
HETATM   37  C22 UNL     1      22.922  48.668  46.275  1.00  0.00     0.047 C 
BRANCH  37  38
HETATM   38  C23 UNL     1      23.140  49.454  47.469  1.00  0.00    -0.056 A 
HETATM   39  C24 UNL     1      23.557  50.752  47.422  1.00  0.00     0.007 A 
HETATM   40  C25 UNL     1      23.754  51.469  48.572  1.00  0.00     0.002 A 
HETATM   41  C26 UNL     1      23.532  50.877  49.794  1.00  0.00     0.024 A 
HETATM   42  C27 UNL     1      23.107  49.558  49.904  1.00  0.00     0.034 A 
HETATM   43 CL1  UNL     1      22.832  48.831  51.472  1.00  0.00    -0.084 Cl
HETATM   44  C28 UNL     1      22.925  48.888  48.714  1.00  0.00     0.031 A 
ENDBRANCH  37  38
ENDBRANCH  35  37
BRANCH  36  45
HETATM   45  N7  UNL     1      25.859  46.932  44.584  1.00  0.00    -0.058 N 
ATOM     46  H73 UNL     1      26.404  46.144  44.935  1.00  0.00     0.276 HD
ATOM     47  H72 UNL     1      25.854  46.645  43.605  1.00  0.00     0.276 HD
ATOM     48  H71 UNL     1      26.295  47.839  44.746  1.00  0.00     0.276 HD
ENDBRANCH  36  45
ENDBRANCH  28  31
ENDBRANCH   5  28
TORSDOF 15
ENDMDL
