MODEL 1
REMARK VINA RESULT: -5.303492608      0.000      0.000
REMARK  12 active torsions:
REMARK  status: ('A' for Active; 'I' for Inactive)
REMARK    1  A    between atoms: C2_2  and  C4_4 
REMARK    2  A    between atoms: C4_4  and  C5_5 
REMARK    3  A    between atoms: C7_10  and  C8_11 
REMARK    4  A    between atoms: C8_11  and  C9_12 
REMARK    5  A    between atoms: C12_17  and  C13_18 
REMARK    6  A    between atoms: C13_18  and  C14_19 
REMARK    7  A    between atoms: C14_19  and  C15_20 
REMARK    8  A    between atoms: C15_20  and  N3_21 
REMARK    9  A    between atoms: C18_28  and  O2_29 
REMARK   10  A    between atoms: C19_31  and  C20_32 
REMARK   11  A    between atoms: C20_32  and  C21_33 
REMARK   12  A    between atoms: C24_36  and  O3_37 
ROOT
HETATM    1  C5  UNL     1      23.667  44.644  44.429  1.00  0.00     0.177 C 
HETATM    2  N1  UNL     1      23.234  45.342  43.279  1.00  0.00    -0.346 N 
ATOM      3  H1  UNL     1      24.014  45.699  42.726  1.00  0.00     0.163 HD
HETATM    4  C6  UNL     1      22.000  45.659  42.720  1.00  0.00     0.240 C 
HETATM    5  O1  UNL     1      21.939  45.874  41.443  1.00  0.00    -0.271 OA
HETATM    6  C7  UNL     1      20.669  45.803  43.374  1.00  0.00     0.171 C 
HETATM    7  N2  UNL     1      20.679  46.985  44.117  1.00  0.00    -0.389 N 
ATOM      8  H2  UNL     1      20.243  46.967  45.039  1.00  0.00     0.156 HD
HETATM    9  C12 UNL     1      21.239  48.183  43.693  1.00  0.00     0.181 C 
HETATM   10  N6  UNL     1      22.645  48.422  43.728  1.00  0.00    -0.344 N 
HETATM   11  C17 UNL     1      23.108  49.148  42.489  1.00  0.00     0.154 C 
HETATM   12  C18 UNL     1      23.673  48.161  44.608  1.00  0.00     0.163 C 
HETATM   13  C19 UNL     1      23.815  47.781  46.013  1.00  0.00     0.067 C 
HETATM   14  N7  UNL     1      24.442  46.455  46.153  1.00  0.00    -0.325 N 
ATOM     15  H7  UNL     1      24.774  46.253  47.096  1.00  0.00     0.169 HD
HETATM   16  C27 UNL     1      24.663  45.440  45.256  1.00  0.00     0.244 C 
HETATM   17  O4  UNL     1      25.865  45.078  45.058  1.00  0.00    -0.271 OA
ENDROOT
BRANCH  13  18
HETATM   18  C20 UNL     1      22.747  48.080  46.971  1.00  0.00     0.100 C 
BRANCH  18  19
HETATM   19  C21 UNL     1      23.187  49.042  48.049  1.00  0.00    -0.051 A 
HETATM   20  C22 UNL     1      23.673  50.279  47.663  1.00  0.00     0.010 A 
HETATM   21  C23 UNL     1      24.096  51.247  48.548  1.00  0.00     0.039 A 
HETATM   22  C24 UNL     1      24.014  50.924  49.887  1.00  0.00     0.087 A 
HETATM   23  C25 UNL     1      23.532  49.691  50.322  1.00  0.00     0.067 A 
HETATM   24 CL1  UNL     1      23.434  49.307  52.011  1.00  0.00    -0.081 Cl
HETATM   25  C26 UNL     1      23.129  48.779  49.381  1.00  0.00     0.034 A 
BRANCH  22  26
HETATM   26  O3  UNL     1      24.407  51.807  50.874  1.00  0.00    -0.359 OA
ATOM     27  H3  UNL     1      24.601  52.717  50.683  1.00  0.00     0.217 HD
ENDBRANCH  22  26
ENDBRANCH  18  19
ENDBRANCH  13  18
BRANCH  12  28
HETATM   28  O2  UNL     1      24.892  48.277  44.055  1.00  0.00    -0.345 OA
ATOM     29  H2  UNL     1      25.372  49.040  44.356  1.00  0.00     0.219 HD
ENDBRANCH  12  28
BRANCH   9  30
HETATM   30  C13 UNL     1      20.514  49.329  44.421  1.00  0.00     0.048 C 
BRANCH  30  31
HETATM   31  C14 UNL     1      21.181  50.664  44.186  1.00  0.00     0.023 C 
BRANCH  31  32
HETATM   32  C15 UNL     1      21.686  51.240  45.520  1.00  0.00     0.122 C 
BRANCH  32  33
HETATM   33  N3  UNL     1      22.214  52.567  45.335  1.00  0.00    -0.367 N 
HETATM   34  C16 UNL     1      21.600  53.563  45.875  1.00  0.00     0.196 C 
HETATM   35  N4  UNL     1      22.135  54.867  45.683  1.00  0.00    -0.067 NA
HETATM   36  N5  UNL     1      20.413  53.398  46.652  1.00  0.00    -0.067 NA
ATOM     37  H3  UNL     1      23.060  52.717  44.785  1.00  0.00     0.161 HD
ENDBRANCH  32  33
ENDBRANCH  31  32
ENDBRANCH  30  31
ENDBRANCH   9  30
BRANCH   1  38
HETATM   38  C4  UNL     1      22.606  44.055  45.320  1.00  0.00     0.038 C 
BRANCH  38  39
HETATM   39  C2  UNL     1      23.011  42.637  45.772  1.00  0.00    -0.020 C 
HETATM   40  C1  UNL     1      23.652  42.718  47.152  1.00  0.00     0.009 C 
HETATM   41  C3  UNL     1      21.785  41.761  45.930  1.00  0.00     0.009 C 
ENDBRANCH  38  39
ENDBRANCH   1  38
BRANCH   6  42
HETATM   42  C8  UNL     1      19.571  45.582  42.366  1.00  0.00     0.038 C 
BRANCH  42  43
HETATM   43  C9  UNL     1      18.234  45.205  42.896  1.00  0.00    -0.020 C 
HETATM   44  C10 UNL     1      18.187  44.247  44.027  1.00  0.00     0.009 C 
HETATM   45  C11 UNL     1      17.323  44.660  41.788  1.00  0.00     0.009 C 
ENDBRANCH  42  43
ENDBRANCH   6  42
TORSDOF 12
ENDMDL
MODEL 2
REMARK VINA RESULT: -3.934262862      0.891      1.296
REMARK  12 active torsions:
REMARK  status: ('A' for Active; 'I' for Inactive)
REMARK    1  A    between atoms: C2_2  and  C4_4 
REMARK    2  A    between atoms: C4_4  and  C5_5 
REMARK    3  A    between atoms: C7_10  and  C8_11 
REMARK    4  A    between atoms: C8_11  and  C9_12 
REMARK    5  A    between atoms: C12_17  and  C13_18 
REMARK    6  A    between atoms: C13_18  and  C14_19 
REMARK    7  A    between atoms: C14_19  and  C15_20 
REMARK    8  A    between atoms: C15_20  and  N3_21 
REMARK    9  A    between atoms: C18_28  and  O2_29 
REMARK   10  A    between atoms: C19_31  and  C20_32 
REMARK   11  A    between atoms: C20_32  and  C21_33 
REMARK   12  A    between atoms: C24_36  and  O3_37 
ROOT
HETATM    1  C5  UNL     1      23.497  44.501  44.354  1.00  0.00     0.177 C 
HETATM    2  N1  UNL     1      23.058  45.255  43.243  1.00  0.00    -0.346 N 
ATOM      3  H1  UNL     1      23.834  45.596  42.675  1.00  0.00     0.163 HD
HETATM    4  C6  UNL     1      21.821  45.643  42.737  1.00  0.00     0.240 C 
HETATM    5  O1  UNL     1      21.727  45.902  41.470  1.00  0.00    -0.271 OA
HETATM    6  C7  UNL     1      20.520  45.823  43.440  1.00  0.00     0.171 C 
HETATM    7  N2  UNL     1      20.607  46.978  44.219  1.00  0.00    -0.389 N 
ATOM      8  H2  UNL     1      20.201  46.949  45.155  1.00  0.00     0.156 HD
HETATM    9  C12 UNL     1      21.205  48.164  43.814  1.00  0.00     0.181 C 
HETATM   10  N6  UNL     1      22.621  48.341  43.809  1.00  0.00    -0.344 N 
HETATM   11  C17 UNL     1      23.074  49.087  42.577  1.00  0.00     0.154 C 
HETATM   12  C18 UNL     1      23.665  48.007  44.644  1.00  0.00     0.163 C 
HETATM   13  C19 UNL     1      23.836  47.575  46.031  1.00  0.00     0.067 C 
HETATM   14  N7  UNL     1      24.408  46.220  46.107  1.00  0.00    -0.325 N 
ATOM     15  H7  UNL     1      24.762  45.973  47.031  1.00  0.00     0.169 HD
HETATM   16  C27 UNL     1      24.555  45.227  45.172  1.00  0.00     0.244 C 
HETATM   17  O4  UNL     1      25.732  44.820  44.921  1.00  0.00    -0.271 OA
ENDROOT
BRANCH  13  18
HETATM   18  C20 UNL     1      22.814  47.889  47.034  1.00  0.00     0.100 C 
BRANCH  18  19
HETATM   19  C21 UNL     1      23.253  48.972  47.990  1.00  0.00    -0.051 A 
HETATM   20  C22 UNL     1      23.143  48.729  49.348  1.00  0.00     0.010 A 
HETATM   21  C23 UNL     1      23.518  49.630  50.321  1.00  0.00     0.039 A 
HETATM   22  C24 UNL     1      24.028  50.831  49.873  1.00  0.00     0.087 A 
HETATM   23  C25 UNL     1      24.158  51.120  48.516  1.00  0.00     0.067 A 
HETATM   24 CL1  UNL     1      24.805  52.635  47.974  1.00  0.00    -0.081 Cl
HETATM   25  C26 UNL     1      23.763  50.172  47.607  1.00  0.00     0.034 A 
BRANCH  22  26
HETATM   26  O3  UNL     1      24.440  51.818  50.748  1.00  0.00    -0.359 OA
ATOM     27  H3  UNL     1      25.359  52.010  50.889  1.00  0.00     0.217 HD
ENDBRANCH  22  26
ENDBRANCH  18  19
ENDBRANCH  13  18
BRANCH  12  28
HETATM   28  O2  UNL     1      24.868  48.089  44.053  1.00  0.00    -0.345 OA
ATOM     29  H2  UNL     1      24.969  48.861  43.509  1.00  0.00     0.219 HD
ENDBRANCH  12  28
BRANCH   9  30
HETATM   30  C13 UNL     1      20.555  49.315  44.603  1.00  0.00     0.048 C 
BRANCH  30  31
HETATM   31  C14 UNL     1      21.185  50.651  44.281  1.00  0.00     0.023 C 
BRANCH  31  32
HETATM   32  C15 UNL     1      21.884  51.215  45.529  1.00  0.00     0.122 C 
BRANCH  32  33
HETATM   33  N3  UNL     1      22.337  52.562  45.294  1.00  0.00    -0.367 N 
HETATM   34  C16 UNL     1      21.664  53.542  45.791  1.00  0.00     0.196 C 
HETATM   35  N4  UNL     1      22.127  54.866  45.550  1.00  0.00    -0.067 NA
HETATM   36  N5  UNL     1      20.483  53.342  46.567  1.00  0.00    -0.067 NA
ATOM     37  H3  UNL     1      23.178  52.738  44.743  1.00  0.00     0.161 HD
ENDBRANCH  32  33
ENDBRANCH  31  32
ENDBRANCH  30  31
ENDBRANCH   9  30
BRANCH   1  38
HETATM   38  C4  UNL     1      22.441  43.930  45.262  1.00  0.00     0.038 C 
BRANCH  38  39
HETATM   39  C2  UNL     1      22.894  42.565  45.819  1.00  0.00    -0.020 C 
HETATM   40  C1  UNL     1      23.655  42.785  47.121  1.00  0.00     0.009 C 
HETATM   41  C3  UNL     1      21.693  41.713  46.174  1.00  0.00     0.009 C 
ENDBRANCH  38  39
ENDBRANCH   1  38
BRANCH   6  42
HETATM   42  C8  UNL     1      19.381  45.683  42.464  1.00  0.00     0.038 C 
BRANCH  42  43
HETATM   43  C9  UNL     1      18.399  44.598  42.724  1.00  0.00    -0.020 C 
HETATM   44  C10 UNL     1      17.052  44.726  42.116  1.00  0.00     0.009 C 
HETATM   45  C11 UNL     1      18.209  44.358  44.227  1.00  0.00     0.009 C 
ENDBRANCH  42  43
ENDBRANCH   6  42
TORSDOF 12
ENDMDL
MODEL 3
REMARK VINA RESULT: -3.511843584      2.753      5.785
REMARK  12 active torsions:
REMARK  status: ('A' for Active; 'I' for Inactive)
REMARK    1  A    between atoms: C2_2  and  C4_4 
REMARK    2  A    between atoms: C4_4  and  C5_5 
REMARK    3  A    between atoms: C7_10  and  C8_11 
REMARK    4  A    between atoms: C8_11  and  C9_12 
REMARK    5  A    between atoms: C12_17  and  C13_18 
REMARK    6  A    between atoms: C13_18  and  C14_19 
REMARK    7  A    between atoms: C14_19  and  C15_20 
REMARK    8  A    between atoms: C15_20  and  N3_21 
REMARK    9  A    between atoms: C18_28  and  O2_29 
REMARK   10  A    between atoms: C19_31  and  C20_32 
REMARK   11  A    between atoms: C20_32  and  C21_33 
REMARK   12  A    between atoms: C24_36  and  O3_37 
ROOT
HETATM    1  C5  UNL     1      24.644  47.039  45.682  1.00  0.00     0.177 C 
HETATM    2  N1  UNL     1      24.330  45.918  44.881  1.00  0.00    -0.346 N 
ATOM      3  H1  UNL     1      24.990  45.793  44.113  1.00  0.00     0.163 HD
HETATM    4  C6  UNL     1      23.336  44.944  44.888  1.00  0.00     0.240 C 
HETATM    5  O1  UNL     1      23.592  43.799  44.338  1.00  0.00    -0.271 OA
HETATM    6  C7  UNL     1      21.957  44.997  45.449  1.00  0.00     0.171 C 
HETATM    7  N2  UNL     1      21.190  45.827  44.629  1.00  0.00    -0.389 N 
ATOM      8  H2  UNL     1      20.543  46.472  45.083  1.00  0.00     0.156 HD
HETATM    9  C12 UNL     1      21.243  45.838  43.242  1.00  0.00     0.181 C 
HETATM   10  N6  UNL     1      22.291  46.488  42.524  1.00  0.00    -0.344 N 
HETATM   11  C17 UNL     1      22.737  45.662  41.342  1.00  0.00     0.154 C 
HETATM   12  C18 UNL     1      22.986  47.673  42.640  1.00  0.00     0.163 C 
HETATM   13  C19 UNL     1      22.832  48.945  43.344  1.00  0.00     0.067 C 
HETATM   14  N7  UNL     1      23.913  49.155  44.322  1.00  0.00    -0.325 N 
ATOM     15  H7  UNL     1      23.983  50.114  44.661  1.00  0.00     0.169 HD
HETATM   16  C27 UNL     1      24.846  48.305  44.863  1.00  0.00     0.244 C 
HETATM   17  O4  UNL     1      26.072  48.578  44.679  1.00  0.00    -0.271 OA
ENDROOT
BRANCH  13  18
HETATM   18  C20 UNL     1      21.503  49.401  43.763  1.00  0.00     0.100 C 
BRANCH  18  19
HETATM   19  C21 UNL     1      21.549  50.715  44.507  1.00  0.00    -0.051 A 
HETATM   20  C22 UNL     1      20.351  51.292  44.887  1.00  0.00     0.010 A 
HETATM   21  C23 UNL     1      20.259  52.481  45.578  1.00  0.00     0.039 A 
HETATM   22  C24 UNL     1      21.453  53.099  45.888  1.00  0.00     0.087 A 
HETATM   23  C25 UNL     1      22.683  52.554  45.526  1.00  0.00     0.067 A 
HETATM   24 CL1  UNL     1      24.173  53.345  45.929  1.00  0.00    -0.081 Cl
HETATM   25  C26 UNL     1      22.694  51.367  44.839  1.00  0.00     0.034 A 
BRANCH  22  26
HETATM   26  O3  UNL     1      21.496  54.295  46.577  1.00  0.00    -0.359 OA
ATOM     27  H3  UNL     1      21.680  55.118  46.141  1.00  0.00     0.217 HD
ENDBRANCH  22  26
ENDBRANCH  18  19
ENDBRANCH  13  18
BRANCH  12  28
HETATM   28  O2  UNL     1      24.121  47.698  41.922  1.00  0.00    -0.345 OA
ATOM     29  H2  UNL     1      24.799  48.239  42.307  1.00  0.00     0.219 HD
ENDBRANCH  12  28
BRANCH   9  30
HETATM   30  C13 UNL     1      19.886  46.345  42.720  1.00  0.00     0.048 C 
BRANCH  30  31
HETATM   31  C14 UNL     1      18.850  45.245  42.668  1.00  0.00     0.023 C 
BRANCH  31  32
HETATM   32  C15 UNL     1      17.736  45.621  41.676  1.00  0.00     0.122 C 
BRANCH  32  33
HETATM   33  N3  UNL     1      17.364  44.485  40.873  1.00  0.00    -0.367 N 
HETATM   34  C16 UNL     1      16.410  44.612  40.017  1.00  0.00     0.196 C 
HETATM   35  N4  UNL     1      16.056  43.480  39.231  1.00  0.00    -0.067 NA
HETATM   36  N5  UNL     1      15.704  45.840  39.836  1.00  0.00    -0.067 NA
ATOM     37  H3  UNL     1      17.849  43.593  40.980  1.00  0.00     0.161 HD
ENDBRANCH  32  33
ENDBRANCH  31  32
ENDBRANCH  30  31
ENDBRANCH   9  30
BRANCH   1  38
HETATM   38  C4  UNL     1      23.748  47.320  46.858  1.00  0.00     0.038 C 
BRANCH  38  39
HETATM   39  C2  UNL     1      24.191  48.614  47.573  1.00  0.00    -0.020 C 
HETATM   40  C1  UNL     1      22.991  49.542  47.713  1.00  0.00     0.009 C 
HETATM   41  C3  UNL     1      24.651  48.308  48.983  1.00  0.00     0.009 C 
ENDBRANCH  38  39
ENDBRANCH   1  38
BRANCH   6  42
HETATM   42  C8  UNL     1      21.465  43.604  45.744  1.00  0.00     0.038 C 
BRANCH  42  43
HETATM   43  C9  UNL     1      20.084  43.475  46.281  1.00  0.00    -0.020 C 
HETATM   44  C10 UNL     1      18.957  43.640  45.331  1.00  0.00     0.009 C 
HETATM   45  C11 UNL     1      19.846  44.432  47.455  1.00  0.00     0.009 C 
ENDBRANCH  42  43
ENDBRANCH   6  42
TORSDOF 12
ENDMDL
MODEL 4
REMARK VINA RESULT: -2.940468383      3.059      6.813
REMARK  12 active torsions:
REMARK  status: ('A' for Active; 'I' for Inactive)
REMARK    1  A    between atoms: C2_2  and  C4_4 
REMARK    2  A    between atoms: C4_4  and  C5_5 
REMARK    3  A    between atoms: C7_10  and  C8_11 
REMARK    4  A    between atoms: C8_11  and  C9_12 
REMARK    5  A    between atoms: C12_17  and  C13_18 
REMARK    6  A    between atoms: C13_18  and  C14_19 
REMARK    7  A    between atoms: C14_19  and  C15_20 
REMARK    8  A    between atoms: C15_20  and  N3_21 
REMARK    9  A    between atoms: C18_28  and  O2_29 
REMARK   10  A    between atoms: C19_31  and  C20_32 
REMARK   11  A    between atoms: C20_32  and  C21_33 
REMARK   12  A    between atoms: C24_36  and  O3_37 
ROOT
HETATM    1  C5  UNL     1      24.375  45.276  44.448  1.00  0.00     0.177 C 
HETATM    2  N1  UNL     1      24.136  46.113  45.561  1.00  0.00    -0.346 N 
ATOM      3  H1  UNL     1      23.949  45.583  46.412  1.00  0.00     0.163 HD
HETATM    4  C6  UNL     1      24.094  47.488  45.773  1.00  0.00     0.240 C 
HETATM    5  O1  UNL     1      24.333  47.934  46.967  1.00  0.00    -0.271 OA
HETATM    6  C7  UNL     1      23.805  48.590  44.814  1.00  0.00     0.171 C 
HETATM    7  N2  UNL     1      22.442  48.557  44.516  1.00  0.00    -0.389 N 
ATOM      8  H2  UNL     1      22.166  48.711  43.546  1.00  0.00     0.156 HD
HETATM    9  C12 UNL     1      21.434  48.329  45.443  1.00  0.00     0.181 C 
HETATM   10  N6  UNL     1      21.123  47.022  45.927  1.00  0.00    -0.344 N 
HETATM   11  C17 UNL     1      20.842  47.041  47.410  1.00  0.00     0.154 C 
HETATM   12  C18 UNL     1      21.013  45.763  45.378  1.00  0.00     0.163 C 
HETATM   13  C19 UNL     1      20.881  45.179  44.044  1.00  0.00     0.067 C 
HETATM   14  N7  UNL     1      22.044  44.341  43.704  1.00  0.00    -0.325 N 
ATOM     15  H7  UNL     1      21.894  43.733  42.900  1.00  0.00     0.169 HD
HETATM   16  C27 UNL     1      23.292  44.224  44.265  1.00  0.00     0.244 C 
HETATM   17  O4  UNL     1      23.636  43.084  44.708  1.00  0.00    -0.271 OA
ENDROOT
BRANCH  13  18
HETATM   18  C20 UNL     1      20.329  45.972  42.942  1.00  0.00     0.100 C 
BRANCH  18  19
HETATM   19  C21 UNL     1      18.922  45.558  42.578  1.00  0.00    -0.051 A 
HETATM   20  C22 UNL     1      18.367  44.478  43.241  1.00  0.00     0.010 A 
HETATM   21  C23 UNL     1      17.092  44.009  43.009  1.00  0.00     0.039 A 
HETATM   22  C24 UNL     1      16.362  44.683  42.051  1.00  0.00     0.087 A 
HETATM   23  C25 UNL     1      16.880  45.775  41.358  1.00  0.00     0.067 A 
HETATM   24 CL1  UNL     1      15.943  46.610  40.161  1.00  0.00    -0.081 Cl
HETATM   25  C26 UNL     1      18.157  46.183  41.645  1.00  0.00     0.034 A 
BRANCH  22  26
HETATM   26  O3  UNL     1      15.072  44.311  41.725  1.00  0.00    -0.359 OA
ATOM     27  H3  UNL     1      14.341  44.474  42.309  1.00  0.00     0.217 HD
ENDBRANCH  22  26
ENDBRANCH  18  19
ENDBRANCH  13  18
BRANCH  12  28
HETATM   28  O2  UNL     1      21.029  44.780  46.293  1.00  0.00    -0.345 OA
ATOM     29  H2  UNL     1      20.349  44.130  46.161  1.00  0.00     0.219 HD
ENDBRANCH  12  28
BRANCH   9  30
HETATM   30  C13 UNL     1      20.148  48.990  44.917  1.00  0.00     0.048 C 
BRANCH  30  31
HETATM   31  C14 UNL     1      20.416  50.344  44.300  1.00  0.00     0.023 C 
BRANCH  31  32
HETATM   32  C15 UNL     1      19.946  51.456  45.253  1.00  0.00     0.122 C 
BRANCH  32  33
HETATM   33  N3  UNL     1      20.787  52.620  45.131  1.00  0.00    -0.367 N 
HETATM   34  C16 UNL     1      20.832  53.461  46.106  1.00  0.00     0.196 C 
HETATM   35  N4  UNL     1      21.669  54.604  45.969  1.00  0.00    -0.067 NA
HETATM   36  N5  UNL     1      20.077  53.284  47.304  1.00  0.00    -0.067 NA
ATOM     37  H3  UNL     1      21.339  52.775  44.287  1.00  0.00     0.161 HD
ENDBRANCH  32  33
ENDBRANCH  31  32
ENDBRANCH  30  31
ENDBRANCH   9  30
BRANCH   1  38
HETATM   38  C4  UNL     1      24.678  45.943  43.133  1.00  0.00     0.038 C 
BRANCH  38  39
HETATM   39  C2  UNL     1      23.381  46.142  42.322  1.00  0.00    -0.020 C 
HETATM   40  C1  UNL     1      23.199  47.626  42.028  1.00  0.00     0.009 C 
HETATM   41  C3  UNL     1      23.489  45.458  40.975  1.00  0.00     0.009 C 
ENDBRANCH  38  39
ENDBRANCH   1  38
BRANCH   6  42
HETATM   42  C8  UNL     1      24.415  49.877  45.306  1.00  0.00     0.038 C 
BRANCH  42  43
HETATM   43  C9  UNL     1      23.482  50.909  45.829  1.00  0.00    -0.020 C 
HETATM   44  C10 UNL     1      23.833  52.333  45.604  1.00  0.00     0.009 C 
HETATM   45  C11 UNL     1      23.226  50.727  47.330  1.00  0.00     0.009 C 
ENDBRANCH  42  43
ENDBRANCH   6  42
TORSDOF 12
ENDMDL
MODEL 5
REMARK VINA RESULT: -2.478330512      4.025      8.015
REMARK  12 active torsions:
REMARK  status: ('A' for Active; 'I' for Inactive)
REMARK    1  A    between atoms: C2_2  and  C4_4 
REMARK    2  A    between atoms: C4_4  and  C5_5 
REMARK    3  A    between atoms: C7_10  and  C8_11 
REMARK    4  A    between atoms: C8_11  and  C9_12 
REMARK    5  A    between atoms: C12_17  and  C13_18 
REMARK    6  A    between atoms: C13_18  and  C14_19 
REMARK    7  A    between atoms: C14_19  and  C15_20 
REMARK    8  A    between atoms: C15_20  and  N3_21 
REMARK    9  A    between atoms: C18_28  and  O2_29 
REMARK   10  A    between atoms: C19_31  and  C20_32 
REMARK   11  A    between atoms: C20_32  and  C21_33 
REMARK   12  A    between atoms: C24_36  and  O3_37 
ROOT
HETATM    1  C5  UNL     1      22.128  46.159  46.543  1.00  0.00     0.177 C 
HETATM    2  N1  UNL     1      23.101  47.060  46.058  1.00  0.00    -0.346 N 
ATOM      3  H1  UNL     1      22.904  48.025  46.325  1.00  0.00     0.163 HD
HETATM    4  C6  UNL     1      24.265  46.948  45.302  1.00  0.00     0.240 C 
HETATM    5  O1  UNL     1      25.177  47.860  45.437  1.00  0.00    -0.271 OA
HETATM    6  C7  UNL     1      24.660  45.907  44.313  1.00  0.00     0.171 C 
HETATM    7  N2  UNL     1      23.887  46.086  43.165  1.00  0.00    -0.389 N 
ATOM      8  H2  UNL     1      23.522  45.251  42.705  1.00  0.00     0.156 HD
HETATM    9  C12 UNL     1      23.577  47.317  42.603  1.00  0.00     0.181 C 
HETATM   10  N6  UNL     1      22.562  48.166  43.138  1.00  0.00    -0.344 N 
HETATM   11  C17 UNL     1      22.994  49.612  43.124  1.00  0.00     0.154 C 
HETATM   12  C18 UNL     1      21.295  47.993  43.654  1.00  0.00     0.163 C 
HETATM   13  C19 UNL     1      20.271  46.950  43.662  1.00  0.00     0.067 C 
HETATM   14  N7  UNL     1      20.015  46.455  45.025  1.00  0.00    -0.325 N 
ATOM     15  H7  UNL     1      19.158  45.909  45.112  1.00  0.00     0.169 HD
HETATM   16  C27 UNL     1      20.710  46.589  46.201  1.00  0.00     0.244 C 
HETATM   17  O4  UNL     1      20.120  47.148  47.177  1.00  0.00    -0.271 OA
ENDROOT
BRANCH  13  18
HETATM   18  C20 UNL     1      20.242  45.936  42.604  1.00  0.00     0.100 C 
BRANCH  18  19
HETATM   19  C21 UNL     1      18.840  45.473  42.283  1.00  0.00    -0.051 A 
HETATM   20  C22 UNL     1      18.348  44.365  42.950  1.00  0.00     0.010 A 
HETATM   21  C23 UNL     1      17.084  43.852  42.755  1.00  0.00     0.039 A 
HETATM   22  C24 UNL     1      16.297  44.509  41.832  1.00  0.00     0.087 A 
HETATM   23  C25 UNL     1      16.749  45.629  41.137  1.00  0.00     0.067 A 
HETATM   24 CL1  UNL     1      15.741  46.444  39.985  1.00  0.00    -0.081 Cl
HETATM   25  C26 UNL     1      18.019  46.081  41.386  1.00  0.00     0.034 A 
BRANCH  22  26
HETATM   26  O3  UNL     1      15.011  44.093  41.546  1.00  0.00    -0.359 OA
ATOM     27  H3  UNL     1      14.683  43.248  41.830  1.00  0.00     0.217 HD
ENDBRANCH  22  26
ENDBRANCH  18  19
ENDBRANCH  13  18
BRANCH  12  28
HETATM   28  O2  UNL     1      20.852  49.056  44.347  1.00  0.00    -0.345 OA
ATOM     29  H2  UNL     1      19.953  48.967  44.639  1.00  0.00     0.219 HD
ENDBRANCH  12  28
BRANCH   9  30
HETATM   30  C13 UNL     1      23.313  47.100  41.102  1.00  0.00     0.048 C 
BRANCH  30  31
HETATM   31  C14 UNL     1      23.662  45.697  40.661  1.00  0.00     0.023 C 
BRANCH  31  32
HETATM   32  C15 UNL     1      22.998  45.394  39.307  1.00  0.00     0.122 C 
BRANCH  32  33
HETATM   33  N3  UNL     1      23.993  45.210  38.282  1.00  0.00    -0.367 N 
HETATM   34  C16 UNL     1      23.633  45.267  37.046  1.00  0.00     0.196 C 
HETATM   35  N4  UNL     1      24.629  45.084  36.047  1.00  0.00    -0.067 NA
HETATM   36  N5  UNL     1      22.281  45.505  36.654  1.00  0.00    -0.067 NA
ATOM     37  H3  UNL     1      24.968  45.037  38.530  1.00  0.00     0.161 HD
ENDBRANCH  32  33
ENDBRANCH  31  32
ENDBRANCH  30  31
ENDBRANCH   9  30
BRANCH   1  38
HETATM   38  C4  UNL     1      22.318  44.700  46.225  1.00  0.00     0.038 C 
BRANCH  38  39
HETATM   39  C2  UNL     1      20.985  44.072  45.770  1.00  0.00    -0.020 C 
HETATM   40  C1  UNL     1      21.266  43.029  44.695  1.00  0.00     0.009 C 
HETATM   41  C3  UNL     1      20.332  43.328  46.916  1.00  0.00     0.009 C 
ENDBRANCH  38  39
ENDBRANCH   1  38
BRANCH   6  42
HETATM   42  C8  UNL     1      26.160  45.858  44.184  1.00  0.00     0.038 C 
BRANCH  42  43
HETATM   43  C9  UNL     1      26.890  44.965  45.122  1.00  0.00    -0.020 C 
HETATM   44  C10 UNL     1      28.326  44.707  44.852  1.00  0.00     0.009 C 
HETATM   45  C11 UNL     1      26.193  43.607  45.264  1.00  0.00     0.009 C 
ENDBRANCH  42  43
ENDBRANCH   6  42
TORSDOF 12
ENDMDL
