MODEL 1
REMARK VINA RESULT: -11.269421540      0.000      0.000
REMARK  13 active torsions:
REMARK  status: ('A' for Active; 'I' for Inactive)
REMARK    1  A    between atoms: C2_7  and  N3_8 
REMARK    2  A    between atoms: C3_13  and  N5_14 
REMARK    3  A    between atoms: N5_14  and  C4_16 
REMARK    4  A    between atoms: C4_16  and  C5_17 
REMARK    5  A    between atoms: C5_17  and  C6_18 
REMARK    6  A    between atoms: C6_18  and  C7_19 
REMARK    7  A    between atoms: C9_21  and  C10_22 
REMARK    8  A    between atoms: N6_34  and  C21_35 
REMARK    9  A    between atoms: C21_35  and  C22_36 
REMARK   10  A    between atoms: C22_36  and  C23_37 
REMARK   11  A    between atoms: C23_37  and  C24_38 
REMARK   12  A    between atoms: C24_38  and  C25_39 
REMARK   13  A    between atoms: C25_39  and  N7_40 
ROOT
HETATM    1  C7  UNL     1      21.942  45.670  43.305  1.00  0.00     0.111 C 
HETATM    2  C8  UNL     1      22.195  47.141  43.507  1.00  0.00     0.016 C 
HETATM    3  C9  UNL     1      22.036  47.503  44.761  1.00  0.00     0.041 C 
HETATM    4  C20 UNL     1      21.367  46.393  45.402  1.00  0.00     0.255 C 
HETATM    5  O1  UNL     1      20.985  46.232  46.585  1.00  0.00    -0.267 OA
HETATM    6  N6  UNL     1      21.143  45.346  44.392  1.00  0.00    -0.340 N 
ENDROOT
BRANCH   1   7
HETATM    7  C6  UNL     1      23.309  45.105  43.131  1.00  0.00     0.031 C 
BRANCH   7   8
HETATM    8  C5  UNL     1      24.296  45.303  44.210  1.00  0.00     0.022 C 
BRANCH   8   9
HETATM    9  C4  UNL     1      25.389  46.298  43.720  1.00  0.00     0.138 C 
BRANCH   9  10
HETATM   10  N5  UNL     1      26.366  46.311  44.733  1.00  0.00    -0.225 N 
ATOM     11  H5  UNL     1      25.980  46.377  45.675  1.00  0.00     0.177 HD
BRANCH  10  12
HETATM   12  C3  UNL     1      27.594  46.258  44.701  1.00  0.00     0.707 A 
HETATM   13  N4  UNL     1      28.273  45.476  43.841  1.00  0.00    -0.022 N 
HETATM   14  C2  UNL     1      29.615  45.461  43.851  1.00  0.00     0.705 A 
ATOM     15  H4  UNL     1      27.764  44.891  43.178  1.00  0.00     0.203 HD
HETATM   16  N2  UNL     1      30.343  46.194  44.686  1.00  0.00    -0.022 N 
HETATM   17  C1  UNL     1      29.681  47.012  45.589  1.00  0.00     0.705 A 
ATOM     18  H2  UNL     1      31.362  46.156  44.663  1.00  0.00     0.203 HD
HETATM   19  N1  UNL     1      30.334  47.704  46.365  1.00  0.00    -0.234 N 
HETATM   20  N9  UNL     1      28.337  47.016  45.566  1.00  0.00    -0.022 N 
ATOM     21  H12 UNL     1      31.354  47.700  46.383  1.00  0.00     0.174 HD
ATOM     22  H11 UNL     1      29.848  48.305  47.030  1.00  0.00     0.174 HD
ATOM     23  H9  UNL     1      27.845  47.616  46.228  1.00  0.00     0.203 HD
BRANCH  14  24
HETATM   24  N3  UNL     1      30.241  44.691  42.997  1.00  0.00    -0.234 N 
ATOM     25  H32 UNL     1      29.774  44.449  42.124  1.00  0.00     0.174 HD
ATOM     26  H31 UNL     1      31.176  44.363  43.240  1.00  0.00     0.174 HD
ENDBRANCH  14  24
ENDBRANCH  10  12
ENDBRANCH   9  10
ENDBRANCH   8   9
ENDBRANCH   7   8
ENDBRANCH   1   7
BRANCH   6  27
HETATM   27  C21 UNL     1      20.150  44.319  44.586  1.00  0.00     0.127 C 
BRANCH  27  28
HETATM   28  C22 UNL     1      18.747  44.691  44.770  1.00  0.00     0.020 C 
BRANCH  28  29
HETATM   29  C23 UNL     1      17.941  44.306  43.536  1.00  0.00     0.003 C 
BRANCH  29  30
HETATM   30  C24 UNL     1      18.216  45.172  42.346  1.00  0.00     0.022 C 
BRANCH  30  31
HETATM   31  C25 UNL     1      17.368  44.715  41.165  1.00  0.00     0.148 C 
BRANCH  31  32
HETATM   32  N7  UNL     1      16.244  45.574  40.928  1.00  0.00    -0.300 N 
HETATM   33  C26 UNL     1      15.047  45.141  41.421  1.00  0.00     0.112 A 
HETATM   34  C27 UNL     1      13.889  45.880  41.262  1.00  0.00     0.048 A 
HETATM   35  C28 UNL     1      13.952  47.074  40.593  1.00  0.00     0.104 A 
HETATM   36 CL1  UNL     1      12.501  48.048  40.367  1.00  0.00    -0.078 Cl
HETATM   37  C29 UNL     1      15.169  47.478  40.111  1.00  0.00     0.281 A 
HETATM   38  O2  UNL     1      15.280  48.577  39.485  1.00  0.00    -0.265 OA
HETATM   39  N8  UNL     1      16.242  46.716  40.302  1.00  0.00    -0.263 N 
ATOM     40  H8  UNL     1      17.130  47.050  39.929  1.00  0.00     0.190 HD
ENDBRANCH  31  32
ENDBRANCH  30  31
ENDBRANCH  29  30
ENDBRANCH  28  29
ENDBRANCH  27  28
ENDBRANCH   6  27
BRANCH   3  41
HETATM   41  C10 UNL     1      22.255  48.890  45.157  1.00  0.00    -0.010 A 
HETATM   42  C11 UNL     1      21.963  49.907  44.218  1.00  0.00     0.013 A 
HETATM   43  C12 UNL     1      22.146  51.234  44.463  1.00  0.00     0.002 A 
HETATM   44  C13 UNL     1      22.635  51.631  45.668  1.00  0.00     0.012 A 
HETATM   45  C14 UNL     1      22.941  50.680  46.618  1.00  0.00    -0.025 A 
HETATM   46  C15 UNL     1      23.488  51.073  47.832  1.00  0.00     0.012 A 
HETATM   47  C19 UNL     1      22.748  49.310  46.347  1.00  0.00    -0.015 A 
HETATM   48  C16 UNL     1      23.854  50.153  48.780  1.00  0.00     0.001 A 
HETATM   49  C17 UNL     1      23.683  48.813  48.541  1.00  0.00     0.001 A 
HETATM   50  C18 UNL     1      23.130  48.432  47.313  1.00  0.00     0.013 A 
ENDBRANCH   3  41
TORSDOF 13
ENDMDL
MODEL 2
REMARK VINA RESULT: -11.264633495      0.763      1.271
REMARK  13 active torsions:
REMARK  status: ('A' for Active; 'I' for Inactive)
REMARK    1  A    between atoms: C2_7  and  N3_8 
REMARK    2  A    between atoms: C3_13  and  N5_14 
REMARK    3  A    between atoms: N5_14  and  C4_16 
REMARK    4  A    between atoms: C4_16  and  C5_17 
REMARK    5  A    between atoms: C5_17  and  C6_18 
REMARK    6  A    between atoms: C6_18  and  C7_19 
REMARK    7  A    between atoms: C9_21  and  C10_22 
REMARK    8  A    between atoms: N6_34  and  C21_35 
REMARK    9  A    between atoms: C21_35  and  C22_36 
REMARK   10  A    between atoms: C22_36  and  C23_37 
REMARK   11  A    between atoms: C23_37  and  C24_38 
REMARK   12  A    between atoms: C24_38  and  C25_39 
REMARK   13  A    between atoms: C25_39  and  N7_40 
ROOT
HETATM    1  C7  UNL     1      21.760  45.928  43.164  1.00  0.00     0.111 C 
HETATM    2  C8  UNL     1      21.989  47.393  43.425  1.00  0.00     0.016 C 
HETATM    3  C9  UNL     1      21.954  47.680  44.708  1.00  0.00     0.041 C 
HETATM    4  C20 UNL     1      21.391  46.512  45.349  1.00  0.00     0.255 C 
HETATM    5  O1  UNL     1      21.143  46.273  46.554  1.00  0.00    -0.267 OA
HETATM    6  N6  UNL     1      21.092  45.516  44.309  1.00  0.00    -0.340 N 
ENDROOT
BRANCH   1   7
HETATM    7  C6  UNL     1      23.116  45.423  42.815  1.00  0.00     0.031 C 
BRANCH   7   8
HETATM    8  C5  UNL     1      24.241  46.377  42.798  1.00  0.00     0.022 C 
BRANCH   8   9
HETATM    9  C4  UNL     1      24.983  46.312  44.166  1.00  0.00     0.138 C 
BRANCH   9  10
HETATM   10  N5  UNL     1      26.346  46.479  43.863  1.00  0.00    -0.225 N 
ATOM     11  H5  UNL     1      26.515  46.946  42.971  1.00  0.00     0.177 HD
BRANCH  10  12
HETATM   12  C3  UNL     1      27.374  46.172  44.466  1.00  0.00     0.707 A 
HETATM   13  N4  UNL     1      28.334  47.062  44.781  1.00  0.00    -0.022 N 
HETATM   14  C2  UNL     1      29.433  46.667  45.443  1.00  0.00     0.705 A 
ATOM     15  H4  UNL     1      28.225  48.041  44.516  1.00  0.00     0.203 HD
HETATM   16  N2  UNL     1      29.643  45.411  45.818  1.00  0.00    -0.022 N 
HETATM   17  C1  UNL     1      28.679  44.463  45.510  1.00  0.00     0.705 A 
ATOM     18  H2  UNL     1      30.492  45.150  46.320  1.00  0.00     0.203 HD
HETATM   19  N1  UNL     1      28.849  43.297  45.854  1.00  0.00    -0.234 N 
HETATM   20  N9  UNL     1      27.583  44.874  44.848  1.00  0.00    -0.022 N 
ATOM     21  H12 UNL     1      29.680  42.986  46.356  1.00  0.00     0.174 HD
ATOM     22  H11 UNL     1      28.140  42.601  45.628  1.00  0.00     0.174 HD
ATOM     23  H9  UNL     1      26.870  44.182  44.619  1.00  0.00     0.203 HD
BRANCH  14  24
HETATM   24  N3  UNL     1      30.343  47.561  45.736  1.00  0.00    -0.234 N 
ATOM     25  H32 UNL     1      31.260  47.241  46.047  1.00  0.00     0.174 HD
ATOM     26  H31 UNL     1      30.099  48.547  45.641  1.00  0.00     0.174 HD
ENDBRANCH  14  24
ENDBRANCH  10  12
ENDBRANCH   9  10
ENDBRANCH   8   9
ENDBRANCH   7   8
ENDBRANCH   1   7
BRANCH   6  27
HETATM   27  C21 UNL     1      20.156  44.445  44.545  1.00  0.00     0.127 C 
BRANCH  27  28
HETATM   28  C22 UNL     1      18.735  44.746  44.715  1.00  0.00     0.020 C 
BRANCH  28  29
HETATM   29  C23 UNL     1      17.952  44.266  43.500  1.00  0.00     0.003 C 
BRANCH  29  30
HETATM   30  C24 UNL     1      18.043  45.189  42.325  1.00  0.00     0.022 C 
BRANCH  30  31
HETATM   31  C25 UNL     1      17.144  44.688  41.201  1.00  0.00     0.148 C 
BRANCH  31  32
HETATM   32  N7  UNL     1      16.055  45.579  40.927  1.00  0.00    -0.300 N 
HETATM   33  C26 UNL     1      14.828  45.178  41.368  1.00  0.00     0.112 A 
HETATM   34  C27 UNL     1      13.698  45.950  41.169  1.00  0.00     0.048 A 
HETATM   35  C28 UNL     1      13.821  47.146  40.512  1.00  0.00     0.104 A 
HETATM   36 CL1  UNL     1      12.407  48.162  40.237  1.00  0.00    -0.078 Cl
HETATM   37  C29 UNL     1      15.067  47.519  40.083  1.00  0.00     0.281 A 
HETATM   38  O2  UNL     1      15.233  48.618  39.470  1.00  0.00    -0.265 OA
HETATM   39  N8  UNL     1      16.110  46.725  40.310  1.00  0.00    -0.263 N 
ATOM     40  H8  UNL     1      17.021  47.037  39.975  1.00  0.00     0.190 HD
ENDBRANCH  31  32
ENDBRANCH  30  31
ENDBRANCH  29  30
ENDBRANCH  28  29
ENDBRANCH  27  28
ENDBRANCH   6  27
BRANCH   3  41
HETATM   41  C10 UNL     1      22.174  49.050  45.160  1.00  0.00    -0.010 A 
HETATM   42  C11 UNL     1      21.848  50.105  44.275  1.00  0.00     0.013 A 
HETATM   43  C12 UNL     1      22.027  51.421  44.574  1.00  0.00     0.002 A 
HETATM   44  C13 UNL     1      22.545  51.769  45.782  1.00  0.00     0.012 A 
HETATM   45  C14 UNL     1      22.884  50.779  46.680  1.00  0.00    -0.025 A 
HETATM   46  C15 UNL     1      23.461  51.123  47.895  1.00  0.00     0.012 A 
HETATM   47  C19 UNL     1      22.695  49.420  46.353  1.00  0.00    -0.015 A 
HETATM   48  C16 UNL     1      23.859  50.165  48.791  1.00  0.00     0.001 A 
HETATM   49  C17 UNL     1      23.693  48.836  48.497  1.00  0.00     0.001 A 
HETATM   50  C18 UNL     1      23.109  48.504  47.268  1.00  0.00     0.013 A 
ENDBRANCH   3  41
TORSDOF 13
ENDMDL
MODEL 3
REMARK VINA RESULT: -11.043069580      1.304      1.828
REMARK  13 active torsions:
REMARK  status: ('A' for Active; 'I' for Inactive)
REMARK    1  A    between atoms: C2_7  and  N3_8 
REMARK    2  A    between atoms: C3_13  and  N5_14 
REMARK    3  A    between atoms: N5_14  and  C4_16 
REMARK    4  A    between atoms: C4_16  and  C5_17 
REMARK    5  A    between atoms: C5_17  and  C6_18 
REMARK    6  A    between atoms: C6_18  and  C7_19 
REMARK    7  A    between atoms: C9_21  and  C10_22 
REMARK    8  A    between atoms: N6_34  and  C21_35 
REMARK    9  A    between atoms: C21_35  and  C22_36 
REMARK   10  A    between atoms: C22_36  and  C23_37 
REMARK   11  A    between atoms: C23_37  and  C24_38 
REMARK   12  A    between atoms: C24_38  and  C25_39 
REMARK   13  A    between atoms: C25_39  and  N7_40 
ROOT
HETATM    1  C7  UNL     1      22.377  46.979  42.674  1.00  0.00     0.111 C 
HETATM    2  C8  UNL     1      22.703  48.330  43.254  1.00  0.00     0.016 C 
HETATM    3  C9  UNL     1      22.369  48.417  44.523  1.00  0.00     0.041 C 
HETATM    4  C20 UNL     1      21.524  47.273  44.780  1.00  0.00     0.255 C 
HETATM    5  O1  UNL     1      20.943  46.894  45.825  1.00  0.00    -0.267 OA
HETATM    6  N6  UNL     1      21.390  46.510  43.529  1.00  0.00    -0.340 N 
ENDROOT
BRANCH   1   7
HETATM    7  C6  UNL     1      23.708  46.320  42.565  1.00  0.00     0.031 C 
BRANCH   7   8
HETATM    8  C5  UNL     1      23.989  45.152  43.421  1.00  0.00     0.022 C 
BRANCH   8   9
HETATM    9  C4  UNL     1      24.675  45.638  44.733  1.00  0.00     0.138 C 
BRANCH   9  10
HETATM   10  N5  UNL     1      25.930  46.137  44.337  1.00  0.00    -0.225 N 
ATOM     11  H5  UNL     1      25.878  46.850  43.609  1.00  0.00     0.177 HD
BRANCH  10  12
HETATM   12  C3  UNL     1      27.077  45.880  44.701  1.00  0.00     0.707 A 
HETATM   13  N4  UNL     1      28.065  46.794  44.711  1.00  0.00    -0.022 N 
HETATM   14  C2  UNL     1      29.297  46.456  45.121  1.00  0.00     0.705 A 
ATOM     15  H4  UNL     1      27.877  47.749  44.405  1.00  0.00     0.203 HD
HETATM   16  N2  UNL     1      29.616  45.233  45.531  1.00  0.00    -0.022 N 
HETATM   17  C1  UNL     1      28.626  44.262  45.534  1.00  0.00     0.705 A 
ATOM     18  H2  UNL     1      30.565  45.015  45.836  1.00  0.00     0.203 HD
HETATM   19  N1  UNL     1      28.896  43.128  45.916  1.00  0.00    -0.234 N 
HETATM   20  N9  UNL     1      27.397  44.618  45.121  1.00  0.00    -0.022 N 
ATOM     21  H12 UNL     1      29.829  42.859  46.229  1.00  0.00     0.174 HD
ATOM     22  H11 UNL     1      28.169  42.414  45.918  1.00  0.00     0.174 HD
ATOM     23  H9  UNL     1      26.665  43.908  45.121  1.00  0.00     0.203 HD
BRANCH  14  24
HETATM   24  N3  UNL     1      30.233  47.371  45.121  1.00  0.00    -0.234 N 
ATOM     25  H32 UNL     1      31.098  47.187  45.628  1.00  0.00     0.174 HD
ATOM     26  H31 UNL     1      30.059  48.238  44.610  1.00  0.00     0.174 HD
ENDBRANCH  14  24
ENDBRANCH  10  12
ENDBRANCH   9  10
ENDBRANCH   8   9
ENDBRANCH   7   8
ENDBRANCH   1   7
BRANCH   6  27
HETATM   27  C21 UNL     1      20.304  45.582  43.330  1.00  0.00     0.127 C 
BRANCH  27  28
HETATM   28  C22 UNL     1      20.317  44.291  44.016  1.00  0.00     0.020 C 
BRANCH  28  29
HETATM   29  C23 UNL     1      18.910  43.931  44.476  1.00  0.00     0.003 C 
BRANCH  29  30
HETATM   30  C24 UNL     1      17.847  44.813  43.898  1.00  0.00     0.022 C 
BRANCH  30  31
HETATM   31  C25 UNL     1      17.243  44.156  42.663  1.00  0.00     0.148 C 
BRANCH  31  32
HETATM   32  N7  UNL     1      16.478  45.073  41.869  1.00  0.00    -0.300 N 
HETATM   33  C26 UNL     1      17.197  45.952  41.112  1.00  0.00     0.112 A 
HETATM   34  C27 UNL     1      16.578  46.885  40.301  1.00  0.00     0.048 A 
HETATM   35  C28 UNL     1      15.209  46.923  40.261  1.00  0.00     0.104 A 
HETATM   36 CL1  UNL     1      14.378  48.095  39.241  1.00  0.00    -0.078 Cl
HETATM   37  C29 UNL     1      14.518  46.027  41.034  1.00  0.00     0.281 A 
HETATM   38  O2  UNL     1      13.249  46.022  41.031  1.00  0.00    -0.265 OA
HETATM   39  N8  UNL     1      15.181  45.157  41.790  1.00  0.00    -0.263 N 
ATOM     40  H8  UNL     1      14.632  44.506  42.351  1.00  0.00     0.190 HD
ENDBRANCH  31  32
ENDBRANCH  30  31
ENDBRANCH  29  30
ENDBRANCH  28  29
ENDBRANCH  27  28
ENDBRANCH   6  27
BRANCH   3  41
HETATM   41  C10 UNL     1      22.624  49.647  45.266  1.00  0.00    -0.010 A 
HETATM   42  C11 UNL     1      22.470  50.880  44.589  1.00  0.00     0.013 A 
HETATM   43  C12 UNL     1      22.698  52.091  45.167  1.00  0.00     0.002 A 
HETATM   44  C13 UNL     1      23.098  52.149  46.465  1.00  0.00     0.012 A 
HETATM   45  C14 UNL     1      23.269  50.975  47.170  1.00  0.00    -0.025 A 
HETATM   46  C15 UNL     1      23.725  51.023  48.481  1.00  0.00     0.012 A 
HETATM   47  C19 UNL     1      23.030  49.729  46.555  1.00  0.00    -0.015 A 
HETATM   48  C16 UNL     1      23.957  49.876  49.196  1.00  0.00     0.001 A 
HETATM   49  C17 UNL     1      23.739  48.650  48.621  1.00  0.00     0.001 A 
HETATM   50  C18 UNL     1      23.278  48.619  47.299  1.00  0.00     0.013 A 
ENDBRANCH   3  41
TORSDOF 13
ENDMDL
MODEL 4
REMARK VINA RESULT: -10.533164117      1.107      1.862
REMARK  13 active torsions:
REMARK  status: ('A' for Active; 'I' for Inactive)
REMARK    1  A    between atoms: C2_7  and  N3_8 
REMARK    2  A    between atoms: C3_13  and  N5_14 
REMARK    3  A    between atoms: N5_14  and  C4_16 
REMARK    4  A    between atoms: C4_16  and  C5_17 
REMARK    5  A    between atoms: C5_17  and  C6_18 
REMARK    6  A    between atoms: C6_18  and  C7_19 
REMARK    7  A    between atoms: C9_21  and  C10_22 
REMARK    8  A    between atoms: N6_34  and  C21_35 
REMARK    9  A    between atoms: C21_35  and  C22_36 
REMARK   10  A    between atoms: C22_36  and  C23_37 
REMARK   11  A    between atoms: C23_37  and  C24_38 
REMARK   12  A    between atoms: C24_38  and  C25_39 
REMARK   13  A    between atoms: C25_39  and  N7_40 
ROOT
HETATM    1  C7  UNL     1      21.281  45.077  43.822  1.00  0.00     0.111 C 
HETATM    2  C8  UNL     1      21.716  46.520  43.803  1.00  0.00     0.016 C 
HETATM    3  C9  UNL     1      21.519  47.111  44.960  1.00  0.00     0.041 C 
HETATM    4  C20 UNL     1      20.662  46.219  45.710  1.00  0.00     0.255 C 
HETATM    5  O1  UNL     1      20.180  46.315  46.862  1.00  0.00    -0.267 OA
HETATM    6  N6  UNL     1      20.372  45.047  44.869  1.00  0.00    -0.340 N 
ENDROOT
BRANCH   1   7
HETATM    7  C6  UNL     1      22.568  44.330  43.870  1.00  0.00     0.031 C 
BRANCH   7   8
HETATM    8  C5  UNL     1      22.689  43.193  44.802  1.00  0.00     0.022 C 
BRANCH   8   9
HETATM    9  C4  UNL     1      23.614  43.603  45.986  1.00  0.00     0.138 C 
BRANCH   9  10
HETATM   10  N5  UNL     1      24.911  43.672  45.443  1.00  0.00    -0.225 N 
ATOM     11  H5  UNL     1      25.377  42.767  45.376  1.00  0.00     0.177 HD
BRANCH  10  12
HETATM   12  C3  UNL     1      25.589  44.613  45.035  1.00  0.00     0.707 A 
HETATM   13  N4  UNL     1      26.935  44.582  44.989  1.00  0.00    -0.022 N 
HETATM   14  C2  UNL     1      27.622  45.639  44.531  1.00  0.00     0.705 A 
ATOM     15  H4  UNL     1      27.434  43.750  45.305  1.00  0.00     0.203 HD
HETATM   16  N2  UNL     1      27.041  46.755  44.105  1.00  0.00    -0.022 N 
HETATM   17  C1  UNL     1      25.657  46.828  44.138  1.00  0.00     0.705 A 
ATOM     18  H2  UNL     1      27.598  47.538  43.763  1.00  0.00     0.203 HD
HETATM   19  N1  UNL     1      25.098  47.846  43.743  1.00  0.00    -0.234 N 
HETATM   20  N9  UNL     1      24.982  45.760  44.599  1.00  0.00    -0.022 N 
ATOM     21  H12 UNL     1      25.610  48.656  43.393  1.00  0.00     0.174 HD
ATOM     22  H11 UNL     1      24.080  47.900  43.767  1.00  0.00     0.174 HD
ATOM     23  H9  UNL     1      23.964  45.807  44.625  1.00  0.00     0.203 HD
BRANCH  14  24
HETATM   24  N3  UNL     1      28.929  45.571  44.497  1.00  0.00    -0.234 N 
ATOM     25  H32 UNL     1      29.438  45.515  45.379  1.00  0.00     0.174 HD
ATOM     26  H31 UNL     1      29.389  45.576  43.587  1.00  0.00     0.174 HD
ENDBRANCH  14  24
ENDBRANCH  10  12
ENDBRANCH   9  10
ENDBRANCH   8   9
ENDBRANCH   7   8
ENDBRANCH   1   7
BRANCH   6  27
HETATM   27  C21 UNL     1      19.237  44.198  45.135  1.00  0.00     0.127 C 
BRANCH  27  28
HETATM   28  C22 UNL     1      17.950  44.485  44.503  1.00  0.00     0.020 C 
BRANCH  28  29
HETATM   29  C23 UNL     1      17.968  44.025  43.051  1.00  0.00     0.003 C 
BRANCH  29  30
HETATM   30  C24 UNL     1      17.978  45.150  42.065  1.00  0.00     0.022 C 
BRANCH  30  31
HETATM   31  C25 UNL     1      17.119  44.792  40.858  1.00  0.00     0.148 C 
BRANCH  31  32
HETATM   32  N7  UNL     1      16.000  45.673  40.696  1.00  0.00    -0.300 N 
HETATM   33  C26 UNL     1      14.820  45.245  41.231  1.00  0.00     0.112 A 
HETATM   34  C27 UNL     1      13.668  46.006  41.144  1.00  0.00     0.048 A 
HETATM   35  C28 UNL     1      13.720  47.216  40.505  1.00  0.00     0.104 A 
HETATM   36 CL1  UNL     1      12.276  48.218  40.372  1.00  0.00    -0.078 Cl
HETATM   37  C29 UNL     1      14.920  47.615  39.980  1.00  0.00     0.281 A 
HETATM   38  O2  UNL     1      15.020  48.728  39.378  1.00  0.00    -0.265 OA
HETATM   39  N8  UNL     1      15.988  46.832  40.101  1.00  0.00    -0.263 N 
ATOM     40  H8  UNL     1      16.864  47.163  39.697  1.00  0.00     0.190 HD
ENDBRANCH  31  32
ENDBRANCH  30  31
ENDBRANCH  29  30
ENDBRANCH  28  29
ENDBRANCH  27  28
ENDBRANCH   6  27
BRANCH   3  41
HETATM   41  C10 UNL     1      21.895  48.509  45.143  1.00  0.00    -0.010 A 
HETATM   42  C11 UNL     1      21.642  49.413  44.084  1.00  0.00     0.013 A 
HETATM   43  C12 UNL     1      21.966  50.734  44.128  1.00  0.00     0.002 A 
HETATM   44  C13 UNL     1      22.567  51.240  45.236  1.00  0.00     0.012 A 
HETATM   45  C14 UNL     1      22.842  50.401  46.296  1.00  0.00    -0.025 A 
HETATM   46  C15 UNL     1      23.501  50.899  47.412  1.00  0.00     0.012 A 
HETATM   47  C19 UNL     1      22.502  49.035  46.234  1.00  0.00    -0.015 A 
HETATM   48  C16 UNL     1      23.838  50.084  48.462  1.00  0.00     0.001 A 
HETATM   49  C17 UNL     1      23.525  48.750  48.426  1.00  0.00     0.001 A 
HETATM   50  C18 UNL     1      22.859  48.263  47.295  1.00  0.00     0.013 A 
ENDBRANCH   3  41
TORSDOF 13
ENDMDL
MODEL 5
REMARK VINA RESULT: -10.463766166      1.138      1.954
REMARK  13 active torsions:
REMARK  status: ('A' for Active; 'I' for Inactive)
REMARK    1  A    between atoms: C2_7  and  N3_8 
REMARK    2  A    between atoms: C3_13  and  N5_14 
REMARK    3  A    between atoms: N5_14  and  C4_16 
REMARK    4  A    between atoms: C4_16  and  C5_17 
REMARK    5  A    between atoms: C5_17  and  C6_18 
REMARK    6  A    between atoms: C6_18  and  C7_19 
REMARK    7  A    between atoms: C9_21  and  C10_22 
REMARK    8  A    between atoms: N6_34  and  C21_35 
REMARK    9  A    between atoms: C21_35  and  C22_36 
REMARK   10  A    between atoms: C22_36  and  C23_37 
REMARK   11  A    between atoms: C23_37  and  C24_38 
REMARK   12  A    between atoms: C24_38  and  C25_39 
REMARK   13  A    between atoms: C25_39  and  N7_40 
ROOT
HETATM    1  C7  UNL     1      21.328  45.018  43.877  1.00  0.00     0.111 C 
HETATM    2  C8  UNL     1      21.729  46.470  43.843  1.00  0.00     0.016 C 
HETATM    3  C9  UNL     1      21.486  47.078  44.983  1.00  0.00     0.041 C 
HETATM    4  C20 UNL     1      20.629  46.179  45.726  1.00  0.00     0.255 C 
HETATM    5  O1  UNL     1      20.112  46.284  46.862  1.00  0.00    -0.267 OA
HETATM    6  N6  UNL     1      20.390  44.986  44.899  1.00  0.00    -0.340 N 
ENDROOT
BRANCH   1   7
HETATM    7  C6  UNL     1      22.630  44.303  43.976  1.00  0.00     0.031 C 
BRANCH   7   8
HETATM    8  C5  UNL     1      22.737  43.154  44.896  1.00  0.00     0.022 C 
BRANCH   8   9
HETATM    9  C4  UNL     1      23.678  43.535  46.076  1.00  0.00     0.138 C 
BRANCH   9  10
HETATM   10  N5  UNL     1      24.960  43.663  45.508  1.00  0.00    -0.225 N 
ATOM     11  H5  UNL     1      25.474  42.784  45.451  1.00  0.00     0.177 HD
BRANCH  10  12
HETATM   12  C3  UNL     1      25.578  44.631  45.067  1.00  0.00     0.707 A 
HETATM   13  N4  UNL     1      24.974  45.757  44.644  1.00  0.00    -0.022 N 
HETATM   14  C2  UNL     1      25.702  46.782  44.175  1.00  0.00     0.705 A 
ATOM     15  H4  UNL     1      23.957  45.831  44.680  1.00  0.00     0.203 HD
HETATM   16  N2  UNL     1      27.027  46.756  44.097  1.00  0.00    -0.022 N 
HETATM   17  C1  UNL     1      27.688  45.613  44.521  1.00  0.00     0.705 A 
ATOM     18  H2  UNL     1      27.546  47.556  43.734  1.00  0.00     0.203 HD
HETATM   19  N1  UNL     1      28.913  45.570  44.465  1.00  0.00    -0.234 N 
HETATM   20  N9  UNL     1      26.944  44.596  44.990  1.00  0.00    -0.022 N 
ATOM     21  H12 UNL     1      29.476  46.342  44.110  1.00  0.00     0.174 HD
ATOM     22  H11 UNL     1      29.399  44.729  44.777  1.00  0.00     0.174 HD
ATOM     23  H9  UNL     1      27.424  43.752  45.304  1.00  0.00     0.203 HD
BRANCH  14  24
HETATM   24  N3  UNL     1      25.080  47.863  43.775  1.00  0.00    -0.234 N 
ATOM     25  H32 UNL     1      25.404  48.328  42.928  1.00  0.00     0.174 HD
ATOM     26  H31 UNL     1      24.291  48.198  44.329  1.00  0.00     0.174 HD
ENDBRANCH  14  24
ENDBRANCH  10  12
ENDBRANCH   9  10
ENDBRANCH   8   9
ENDBRANCH   7   8
ENDBRANCH   1   7
BRANCH   6  27
HETATM   27  C21 UNL     1      19.269  44.115  45.149  1.00  0.00     0.127 C 
BRANCH  27  28
HETATM   28  C22 UNL     1      18.020  44.307  44.413  1.00  0.00     0.020 C 
BRANCH  28  29
HETATM   29  C23 UNL     1      18.262  44.123  42.920  1.00  0.00     0.003 C 
BRANCH  29  30
HETATM   30  C24 UNL     1      18.017  45.361  42.116  1.00  0.00     0.022 C 
BRANCH  30  31
HETATM   31  C25 UNL     1      17.229  45.016  40.857  1.00  0.00     0.148 C 
BRANCH  31  32
HETATM   32  N7  UNL     1      16.070  45.842  40.688  1.00  0.00    -0.300 N 
HETATM   33  C26 UNL     1      14.934  45.413  41.309  1.00  0.00     0.112 A 
HETATM   34  C27 UNL     1      13.750  46.123  41.225  1.00  0.00     0.048 A 
HETATM   35  C28 UNL     1      13.725  47.285  40.500  1.00  0.00     0.104 A 
HETATM   36 CL1  UNL     1      12.238  48.222  40.367  1.00  0.00    -0.078 Cl
HETATM   37  C29 UNL     1      14.883  47.687  39.889  1.00  0.00     0.281 A 
HETATM   38  O2  UNL     1      14.912  48.757  39.206  1.00  0.00    -0.265 OA
HETATM   39  N8  UNL     1      15.986  46.953  40.013  1.00  0.00    -0.263 N 
ATOM     40  H8  UNL     1      16.828  47.285  39.545  1.00  0.00     0.190 HD
ENDBRANCH  31  32
ENDBRANCH  30  31
ENDBRANCH  29  30
ENDBRANCH  28  29
ENDBRANCH  27  28
ENDBRANCH   6  27
BRANCH   3  41
HETATM   41  C10 UNL     1      21.824  48.487  45.150  1.00  0.00    -0.010 A 
HETATM   42  C11 UNL     1      21.490  49.382  44.107  1.00  0.00     0.013 A 
HETATM   43  C12 UNL     1      21.772  50.714  44.136  1.00  0.00     0.002 A 
HETATM   44  C13 UNL     1      22.409  51.239  45.216  1.00  0.00     0.012 A 
HETATM   45  C14 UNL     1      22.761  50.410  46.260  1.00  0.00    -0.025 A 
HETATM   46  C15 UNL     1      23.457  50.929  47.344  1.00  0.00     0.012 A 
HETATM   47  C19 UNL     1      22.465  49.032  46.212  1.00  0.00    -0.015 A 
HETATM   48  C16 UNL     1      23.870  50.126  48.375  1.00  0.00     0.001 A 
HETATM   49  C17 UNL     1      23.600  48.781  48.352  1.00  0.00     0.001 A 
HETATM   50  C18 UNL     1      22.898  48.273  47.253  1.00  0.00     0.013 A 
ENDBRANCH   3  41
TORSDOF 13
ENDMDL
