MODEL 1
REMARK VINA RESULT: -9.538589257      0.000      0.000
REMARK  15 active torsions:
REMARK  status: ('A' for Active; 'I' for Inactive)
REMARK    1  A    between atoms: C4_4  and  C5_5 
REMARK    2  A    between atoms: C7_7  and  N1_8 
REMARK    3  A    between atoms: N1_8  and  C8_10 
REMARK    4  A    between atoms: C8_10  and  C9_11 
REMARK    5  A    between atoms: C9_11  and  C10_12 
REMARK    6  A    between atoms: C10_12  and  C11_13 
REMARK    7  A    between atoms: C13_17  and  N3_18 
REMARK    8  A    between atoms: N3_18  and  C14_20 
REMARK    9  A    between atoms: C14_20  and  C15_21 
REMARK   10  A    between atoms: C15_21  and  N4_22 
REMARK   11  A    between atoms: N4_22  and  C16_24 
REMARK   12  A    between atoms: C20_31  and  C21_32 
REMARK       I    between atoms: C21_32  and  N6_34 
REMARK   13  A    between atoms: N6_34  and  C22_36 
REMARK   14  A    between atoms: C22_36  and  C23_37 
REMARK   15  A    between atoms: C23_37  and  O2_38 
ROOT
HETATM    1  C5  UNL     1      18.529  45.614  42.752  1.00  0.00     0.063 A 
HETATM    2  C6  UNL     1      18.664  44.576  43.638  1.00  0.00     0.079 A 
HETATM    3  C7  UNL     1      19.598  44.617  44.678  1.00  0.00     0.119 A 
HETATM    4  N2  UNL     1      20.351  45.720  44.762  1.00  0.00    -0.177 N 
ATOM      5  H2  UNL     1      21.044  45.786  45.507  1.00  0.00     0.185 HD
HETATM    6  C13 UNL     1      20.229  46.734  43.910  1.00  0.00     0.680 A 
HETATM    7  N7  UNL     1      19.321  46.674  42.913  1.00  0.00    -0.191 N 
ATOM      8  H7  UNL     1      19.239  47.460  42.266  1.00  0.00     0.184 HD
ENDROOT
BRANCH   6   9
HETATM    9  N3  UNL     1      20.946  47.777  44.011  1.00  0.00    -0.224 N 
ATOM     10  H3  UNL     1      21.831  47.751  43.504  1.00  0.00     0.177 HD
BRANCH   9  11
HETATM   11  C14 UNL     1      20.689  48.978  44.731  1.00  0.00     0.157 C 
BRANCH  11  12
HETATM   12  C15 UNL     1      21.635  50.088  44.341  1.00  0.00     0.141 C 
BRANCH  12  13
HETATM   13  N4  UNL     1      22.943  49.905  44.910  1.00  0.00    -0.374 N 
ATOM     14  H4  UNL     1      23.732  49.745  44.285  1.00  0.00     0.161 HD
BRANCH  13  15
HETATM   15  C16 UNL     1      23.158  49.937  46.191  1.00  0.00     0.117 A 
HETATM   16  N5  UNL     1      22.898  51.003  46.964  1.00  0.00    -0.350 N 
HETATM   17  C17 UNL     1      23.134  50.952  48.300  1.00  0.00     0.108 A 
ATOM     18  H5  UNL     1      22.522  51.854  46.547  1.00  0.00     0.166 HD
HETATM   19  C18 UNL     1      23.641  49.817  48.880  1.00  0.00     0.027 A 
HETATM   20 BR1  UNL     1      23.965  49.765  50.749  1.00  0.00    -0.050 Br
HETATM   21  C19 UNL     1      23.908  48.728  48.088  1.00  0.00     0.041 A 
HETATM   22  C20 UNL     1      23.677  48.753  46.734  1.00  0.00     0.077 A 
BRANCH  22  23
HETATM   23  C21 UNL     1      23.983  47.584  45.881  1.00  0.00     0.255 C 
HETATM   24  O1  UNL     1      23.136  46.664  45.795  1.00  0.00    -0.268 OA
HETATM   25  N6  UNL     1      25.223  47.575  45.208  1.00  0.00    -0.355 N 
ATOM     26  H6  UNL     1      25.868  48.356  45.323  1.00  0.00     0.162 HD
BRANCH  25  27
HETATM   27  C22 UNL     1      25.585  46.468  44.362  1.00  0.00     0.148 C 
BRANCH  27  28
HETATM   28  C23 UNL     1      27.074  46.178  44.514  1.00  0.00     0.183 C 
BRANCH  28  29
HETATM   29  O2  UNL     1      27.685  46.508  43.295  1.00  0.00    -0.399 OA
ATOM     30  H2  UNL     1      28.618  46.362  43.401  1.00  0.00     0.209 HD
ENDBRANCH  28  29
ENDBRANCH  27  28
ENDBRANCH  25  27
ENDBRANCH  22  23
ENDBRANCH  13  15
ENDBRANCH  12  13
ENDBRANCH  11  12
ENDBRANCH   9  11
ENDBRANCH   6   9
BRANCH   3  31
HETATM   31  N1  UNL     1      19.672  43.640  45.470  1.00  0.00    -0.376 N 
ATOM     32  H1  UNL     1      18.931  42.938  45.467  1.00  0.00     0.161 HD
BRANCH  31  33
HETATM   33  C8  UNL     1      20.783  43.492  46.384  1.00  0.00     0.121 C 
BRANCH  33  34
HETATM   34  C9  UNL     1      21.868  42.702  45.667  1.00  0.00     0.020 C 
BRANCH  34  35
HETATM   35  C10 UNL     1      23.153  43.511  45.706  1.00  0.00     0.001 C 
BRANCH  35  36
HETATM   36  C11 UNL     1      23.779  43.423  44.311  1.00  0.00    -0.004 C 
HETATM   37  C12 UNL     1      23.208  44.472  43.382  1.00  0.00     0.005 C 
ENDBRANCH  35  36
ENDBRANCH  34  35
ENDBRANCH  33  34
ENDBRANCH  31  33
ENDBRANCH   3  31
BRANCH   1  38
HETATM   38  C4  UNL     1      17.534  45.524  41.663  1.00  0.00    -0.005 A 
HETATM   39  C3  UNL     1      17.244  44.341  41.106  1.00  0.00     0.042 A 
HETATM   40  C2  UNL     1      16.249  44.269  40.021  1.00  0.00     0.023 A 
HETATM   41  C1  UNL     1      15.972  43.095  39.482  1.00  0.00     0.043 C 
HETATM   42  N8  UNL     1      15.634  45.479  39.612  1.00  0.00    -0.361 N 
HETATM   43  C25 UNL     1      15.949  46.715  40.207  1.00  0.00     0.006 A 
ATOM     44  H8  UNL     1      14.942  45.453  38.864  1.00  0.00     0.166 HD
HETATM   45  C24 UNL     1      16.865  46.725  41.192  1.00  0.00     0.038 A 
HETATM   46  C26 UNL     1      15.286  47.968  39.754  1.00  0.00     0.068 C 
ENDBRANCH   1  38
TORSDOF 15
ENDMDL
MODEL 2
REMARK VINA RESULT: -9.377893394      0.092      1.402
REMARK  15 active torsions:
REMARK  status: ('A' for Active; 'I' for Inactive)
REMARK    1  A    between atoms: C4_4  and  C5_5 
REMARK    2  A    between atoms: C7_7  and  N1_8 
REMARK    3  A    between atoms: N1_8  and  C8_10 
REMARK    4  A    between atoms: C8_10  and  C9_11 
REMARK    5  A    between atoms: C9_11  and  C10_12 
REMARK    6  A    between atoms: C10_12  and  C11_13 
REMARK    7  A    between atoms: C13_17  and  N3_18 
REMARK    8  A    between atoms: N3_18  and  C14_20 
REMARK    9  A    between atoms: C14_20  and  C15_21 
REMARK   10  A    between atoms: C15_21  and  N4_22 
REMARK   11  A    between atoms: N4_22  and  C16_24 
REMARK   12  A    between atoms: C20_31  and  C21_32 
REMARK       I    between atoms: C21_32  and  N6_34 
REMARK   13  A    between atoms: N6_34  and  C22_36 
REMARK   14  A    between atoms: C22_36  and  C23_37 
REMARK   15  A    between atoms: C23_37  and  O2_38 
ROOT
HETATM    1  C5  UNL     1      18.473  45.657  42.723  1.00  0.00     0.063 A 
HETATM    2  C6  UNL     1      18.591  44.611  43.602  1.00  0.00     0.079 A 
HETATM    3  C7  UNL     1      19.532  44.625  44.635  1.00  0.00     0.119 A 
HETATM    4  N2  UNL     1      20.310  45.711  44.721  1.00  0.00    -0.177 N 
ATOM      5  H2  UNL     1      21.009  45.756  45.462  1.00  0.00     0.185 HD
HETATM    6  C13 UNL     1      20.206  46.733  43.877  1.00  0.00     0.680 A 
HETATM    7  N7  UNL     1      19.290  46.699  42.885  1.00  0.00    -0.191 N 
ATOM      8  H7  UNL     1      19.221  47.490  42.244  1.00  0.00     0.184 HD
ENDROOT
BRANCH   6   9
HETATM    9  N3  UNL     1      20.945  47.759  43.979  1.00  0.00    -0.224 N 
ATOM     10  H3  UNL     1      21.806  47.734  43.432  1.00  0.00     0.177 HD
BRANCH   9  11
HETATM   11  C14 UNL     1      20.744  48.940  44.749  1.00  0.00     0.157 C 
BRANCH  11  12
HETATM   12  C15 UNL     1      21.659  50.060  44.322  1.00  0.00     0.141 C 
BRANCH  12  13
HETATM   13  N4  UNL     1      22.970  49.935  44.901  1.00  0.00    -0.374 N 
ATOM     14  H4  UNL     1      23.772  49.825  44.281  1.00  0.00     0.161 HD
BRANCH  13  15
HETATM   15  C16 UNL     1      23.171  49.957  46.184  1.00  0.00     0.117 A 
HETATM   16  N5  UNL     1      22.906  51.019  46.962  1.00  0.00    -0.350 N 
HETATM   17  C17 UNL     1      23.128  50.958  48.301  1.00  0.00     0.108 A 
ATOM     18  H5  UNL     1      22.537  51.874  46.547  1.00  0.00     0.166 HD
HETATM   19  C18 UNL     1      23.625  49.817  48.878  1.00  0.00     0.027 A 
HETATM   20 BR1  UNL     1      23.928  49.751  50.749  1.00  0.00    -0.050 Br
HETATM   21  C19 UNL     1      23.896  48.733  48.081  1.00  0.00     0.041 A 
HETATM   22  C20 UNL     1      23.681  48.768  46.725  1.00  0.00     0.077 A 
BRANCH  22  23
HETATM   23  C21 UNL     1      23.992  47.604  45.867  1.00  0.00     0.255 C 
HETATM   24  O1  UNL     1      23.149  46.680  45.778  1.00  0.00    -0.268 OA
HETATM   25  N6  UNL     1      25.232  47.603  45.194  1.00  0.00    -0.355 N 
ATOM     26  H6  UNL     1      25.874  48.388  45.312  1.00  0.00     0.162 HD
BRANCH  25  27
HETATM   27  C22 UNL     1      25.599  46.502  44.343  1.00  0.00     0.148 C 
BRANCH  27  28
HETATM   28  C23 UNL     1      27.082  46.195  44.521  1.00  0.00     0.183 C 
BRANCH  28  29
HETATM   29  O2  UNL     1      27.716  46.506  43.309  1.00  0.00    -0.399 OA
ATOM     30  H2  UNL     1      28.063  47.386  43.393  1.00  0.00     0.209 HD
ENDBRANCH  28  29
ENDBRANCH  27  28
ENDBRANCH  25  27
ENDBRANCH  22  23
ENDBRANCH  13  15
ENDBRANCH  12  13
ENDBRANCH  11  12
ENDBRANCH   9  11
ENDBRANCH   6   9
BRANCH   3  31
HETATM   31  N1  UNL     1      19.590  43.642  45.421  1.00  0.00    -0.376 N 
ATOM     32  H1  UNL     1      18.836  42.954  45.416  1.00  0.00     0.161 HD
BRANCH  31  33
HETATM   33  C8  UNL     1      20.701  43.466  46.331  1.00  0.00     0.121 C 
BRANCH  33  34
HETATM   34  C9  UNL     1      21.800  42.728  45.580  1.00  0.00     0.020 C 
BRANCH  34  35
HETATM   35  C10 UNL     1      23.101  43.491  45.767  1.00  0.00     0.001 C 
BRANCH  35  36
HETATM   36  C11 UNL     1      23.834  43.459  44.423  1.00  0.00    -0.004 C 
HETATM   37  C12 UNL     1      23.195  44.396  43.423  1.00  0.00     0.005 C 
ENDBRANCH  35  36
ENDBRANCH  34  35
ENDBRANCH  33  34
ENDBRANCH  31  33
ENDBRANCH   3  31
BRANCH   1  38
HETATM   38  C4  UNL     1      17.471  45.595  41.639  1.00  0.00    -0.005 A 
HETATM   39  C3  UNL     1      16.832  46.703  41.242  1.00  0.00     0.042 A 
HETATM   40  C2  UNL     1      15.835  46.623  40.160  1.00  0.00     0.023 A 
HETATM   41  C1  UNL     1      15.214  47.725  39.777  1.00  0.00     0.043 C 
HETATM   42  N8  UNL     1      15.596  45.352  39.578  1.00  0.00    -0.361 N 
HETATM   43  C25 UNL     1      16.275  44.196  40.006  1.00  0.00     0.006 A 
ATOM     44  H8  UNL     1      14.912  45.273  38.827  1.00  0.00     0.166 HD
HETATM   45  C24 UNL     1      17.175  44.324  40.999  1.00  0.00     0.038 A 
HETATM   46  C26 UNL     1      16.001  42.876  39.377  1.00  0.00     0.068 C 
ENDBRANCH   1  38
TORSDOF 15
ENDMDL
MODEL 3
REMARK VINA RESULT: -9.273099570      2.202      3.234
REMARK  15 active torsions:
REMARK  status: ('A' for Active; 'I' for Inactive)
REMARK    1  A    between atoms: C4_4  and  C5_5 
REMARK    2  A    between atoms: C7_7  and  N1_8 
REMARK    3  A    between atoms: N1_8  and  C8_10 
REMARK    4  A    between atoms: C8_10  and  C9_11 
REMARK    5  A    between atoms: C9_11  and  C10_12 
REMARK    6  A    between atoms: C10_12  and  C11_13 
REMARK    7  A    between atoms: C13_17  and  N3_18 
REMARK    8  A    between atoms: N3_18  and  C14_20 
REMARK    9  A    between atoms: C14_20  and  C15_21 
REMARK   10  A    between atoms: C15_21  and  N4_22 
REMARK   11  A    between atoms: N4_22  and  C16_24 
REMARK   12  A    between atoms: C20_31  and  C21_32 
REMARK       I    between atoms: C21_32  and  N6_34 
REMARK   13  A    between atoms: N6_34  and  C22_36 
REMARK   14  A    between atoms: C22_36  and  C23_37 
REMARK   15  A    between atoms: C23_37  and  O2_38 
ROOT
HETATM    1  C5  UNL     1      18.460  45.612  42.867  1.00  0.00     0.063 A 
HETATM    2  C6  UNL     1      18.637  44.534  43.697  1.00  0.00     0.079 A 
HETATM    3  C7  UNL     1      19.524  44.580  44.777  1.00  0.00     0.119 A 
HETATM    4  N2  UNL     1      20.189  45.727  44.957  1.00  0.00    -0.177 N 
ATOM      5  H2  UNL     1      20.846  45.797  45.734  1.00  0.00     0.185 HD
HETATM    6  C13 UNL     1      20.026  46.780  44.161  1.00  0.00     0.680 A 
HETATM    7  N7  UNL     1      19.164  46.715  43.123  1.00  0.00    -0.191 N 
ATOM      8  H7  UNL     1      19.049  47.530  42.520  1.00  0.00     0.184 HD
ENDROOT
BRANCH   6   9
HETATM    9  N3  UNL     1      20.658  47.864  44.352  1.00  0.00    -0.224 N 
ATOM     10  H3  UNL     1      20.127  48.605  44.811  1.00  0.00     0.177 HD
BRANCH   9  11
HETATM   11  C14 UNL     1      22.002  48.192  44.018  1.00  0.00     0.157 C 
BRANCH  11  12
HETATM   12  C15 UNL     1      22.962  47.869  45.136  1.00  0.00     0.141 C 
BRANCH  12  13
HETATM   13  N4  UNL     1      23.608  49.047  45.648  1.00  0.00    -0.374 N 
ATOM     14  H4  UNL     1      24.053  49.687  44.990  1.00  0.00     0.161 HD
BRANCH  13  15
HETATM   15  C16 UNL     1      23.649  49.326  46.915  1.00  0.00     0.117 A 
HETATM   16  N5  UNL     1      24.032  48.451  47.859  1.00  0.00    -0.350 N 
HETATM   17  C17 UNL     1      24.064  48.825  49.165  1.00  0.00     0.108 A 
ATOM     18  H5  UNL     1      24.298  47.503  47.596  1.00  0.00     0.166 HD
HETATM   19  C18 UNL     1      23.708  50.095  49.540  1.00  0.00     0.027 A 
HETATM   20 BR1  UNL     1      23.761  50.599  51.368  1.00  0.00    -0.050 Br
HETATM   21  C19 UNL     1      23.316  50.988  48.574  1.00  0.00     0.041 A 
HETATM   22  C20 UNL     1      23.275  50.637  47.247  1.00  0.00     0.077 A 
BRANCH  22  23
HETATM   23  C21 UNL     1      22.834  51.595  46.210  1.00  0.00     0.255 C 
HETATM   24  O1  UNL     1      21.848  51.297  45.495  1.00  0.00    -0.268 OA
HETATM   25  N6  UNL     1      23.559  52.799  46.086  1.00  0.00    -0.355 N 
ATOM     26  H6  UNL     1      24.354  52.979  46.700  1.00  0.00     0.162 HD
BRANCH  25  27
HETATM   27  C22 UNL     1      23.185  53.777  45.097  1.00  0.00     0.148 C 
BRANCH  27  28
HETATM   28  C23 UNL     1      23.588  55.166  45.579  1.00  0.00     0.183 C 
BRANCH  28  29
HETATM   29  O2  UNL     1      22.452  55.984  45.476  1.00  0.00    -0.399 OA
ATOM     30  H2  UNL     1      22.254  56.299  46.350  1.00  0.00     0.209 HD
ENDBRANCH  28  29
ENDBRANCH  27  28
ENDBRANCH  25  27
ENDBRANCH  22  23
ENDBRANCH  13  15
ENDBRANCH  12  13
ENDBRANCH  11  12
ENDBRANCH   9  11
ENDBRANCH   6   9
BRANCH   3  31
HETATM   31  N1  UNL     1      19.640  43.564  45.514  1.00  0.00    -0.376 N 
ATOM     32  H1  UNL     1      18.911  42.851  45.499  1.00  0.00     0.161 HD
BRANCH  31  33
HETATM   33  C8  UNL     1      20.784  43.388  46.382  1.00  0.00     0.121 C 
BRANCH  33  34
HETATM   34  C9  UNL     1      21.910  42.796  45.547  1.00  0.00     0.020 C 
BRANCH  34  35
HETATM   35  C10 UNL     1      23.130  43.691  45.688  1.00  0.00     0.001 C 
BRANCH  35  36
HETATM   36  C11 UNL     1      23.844  43.690  44.332  1.00  0.00    -0.004 C 
HETATM   37  C12 UNL     1      23.228  44.694  43.383  1.00  0.00     0.005 C 
ENDBRANCH  35  36
ENDBRANCH  34  35
ENDBRANCH  33  34
ENDBRANCH  31  33
ENDBRANCH   3  31
BRANCH   1  38
HETATM   38  C4  UNL     1      17.518  45.516  41.733  1.00  0.00    -0.005 A 
HETATM   39  C3  UNL     1      17.266  44.333  41.159  1.00  0.00     0.042 A 
HETATM   40  C2  UNL     1      16.324  44.256  40.029  1.00  0.00     0.023 A 
HETATM   41  C1  UNL     1      16.083  43.081  39.473  1.00  0.00     0.043 C 
HETATM   42  N8  UNL     1      15.716  45.461  39.595  1.00  0.00    -0.361 N 
HETATM   43  C25 UNL     1      15.991  46.698  40.208  1.00  0.00     0.006 A 
ATOM     44  H8  UNL     1      15.060  45.432  38.815  1.00  0.00     0.166 HD
HETATM   45  C24 UNL     1      16.860  46.713  41.235  1.00  0.00     0.038 A 
HETATM   46  C26 UNL     1      15.338  47.946  39.729  1.00  0.00     0.068 C 
ENDBRANCH   1  38
TORSDOF 15
ENDMDL
MODEL 4
REMARK VINA RESULT: -8.966791512      2.143      3.429
REMARK  15 active torsions:
REMARK  status: ('A' for Active; 'I' for Inactive)
REMARK    1  A    between atoms: C4_4  and  C5_5 
REMARK    2  A    between atoms: C7_7  and  N1_8 
REMARK    3  A    between atoms: N1_8  and  C8_10 
REMARK    4  A    between atoms: C8_10  and  C9_11 
REMARK    5  A    between atoms: C9_11  and  C10_12 
REMARK    6  A    between atoms: C10_12  and  C11_13 
REMARK    7  A    between atoms: C13_17  and  N3_18 
REMARK    8  A    between atoms: N3_18  and  C14_20 
REMARK    9  A    between atoms: C14_20  and  C15_21 
REMARK   10  A    between atoms: C15_21  and  N4_22 
REMARK   11  A    between atoms: N4_22  and  C16_24 
REMARK   12  A    between atoms: C20_31  and  C21_32 
REMARK       I    between atoms: C21_32  and  N6_34 
REMARK   13  A    between atoms: N6_34  and  C22_36 
REMARK   14  A    between atoms: C22_36  and  C23_37 
REMARK   15  A    between atoms: C23_37  and  O2_38 
ROOT
HETATM    1  C5  UNL     1      18.549  45.701  42.852  1.00  0.00     0.063 A 
HETATM    2  C6  UNL     1      18.697  44.591  43.644  1.00  0.00     0.079 A 
HETATM    3  C7  UNL     1      19.596  44.570  44.715  1.00  0.00     0.119 A 
HETATM    4  N2  UNL     1      20.301  45.688  44.926  1.00  0.00    -0.177 N 
ATOM      5  H2  UNL     1      20.967  45.710  45.698  1.00  0.00     0.185 HD
HETATM    6  C13 UNL     1      20.166  46.772  44.167  1.00  0.00     0.680 A 
HETATM    7  N7  UNL     1      19.292  46.771  43.137  1.00  0.00    -0.191 N 
ATOM      8  H7  UNL     1      19.199  47.609  42.563  1.00  0.00     0.184 HD
ENDROOT
BRANCH   6   9
HETATM    9  N3  UNL     1      20.836  47.827  44.387  1.00  0.00    -0.224 N 
ATOM     10  H3  UNL     1      20.543  48.370  45.200  1.00  0.00     0.177 HD
BRANCH   9  11
HETATM   11  C14 UNL     1      21.939  48.359  43.662  1.00  0.00     0.157 C 
BRANCH  11  12
HETATM   12  C15 UNL     1      23.239  48.214  44.414  1.00  0.00     0.141 C 
BRANCH  12  13
HETATM   13  N4  UNL     1      23.584  49.413  45.129  1.00  0.00    -0.374 N 
ATOM     14  H4  UNL     1      23.809  50.253  44.597  1.00  0.00     0.161 HD
BRANCH  13  15
HETATM   15  C16 UNL     1      23.621  49.467  46.426  1.00  0.00     0.117 A 
HETATM   16  N5  UNL     1      24.002  48.440  47.204  1.00  0.00    -0.350 N 
HETATM   17  C17 UNL     1      24.032  48.581  48.555  1.00  0.00     0.108 A 
ATOM     18  H5  UNL     1      24.270  47.553  46.779  1.00  0.00     0.166 HD
HETATM   19  C18 UNL     1      23.673  49.766  49.144  1.00  0.00     0.027 A 
HETATM   20 BR1  UNL     1      23.721  49.943  51.033  1.00  0.00    -0.050 Br
HETATM   21  C19 UNL     1      23.283  50.814  48.348  1.00  0.00     0.041 A 
HETATM   22  C20 UNL     1      23.245  50.699  46.980  1.00  0.00     0.077 A 
BRANCH  22  23
HETATM   23  C21 UNL     1      22.806  51.824  46.126  1.00  0.00     0.255 C 
HETATM   24  O1  UNL     1      21.776  51.681  45.425  1.00  0.00    -0.268 OA
HETATM   25  N6  UNL     1      23.583  53.002  46.149  1.00  0.00    -0.355 N 
ATOM     26  H6  UNL     1      24.412  53.051  46.741  1.00  0.00     0.162 HD
BRANCH  25  27
HETATM   27  C22 UNL     1      23.213  54.134  45.341  1.00  0.00     0.148 C 
BRANCH  27  28
HETATM   28  C23 UNL     1      24.163  55.292  45.627  1.00  0.00     0.183 C 
BRANCH  28  29
HETATM   29  O2  UNL     1      24.937  54.927  46.739  1.00  0.00    -0.399 OA
ATOM     30  H2  UNL     1      25.416  54.142  46.500  1.00  0.00     0.209 HD
ENDBRANCH  28  29
ENDBRANCH  27  28
ENDBRANCH  25  27
ENDBRANCH  22  23
ENDBRANCH  13  15
ENDBRANCH  12  13
ENDBRANCH  11  12
ENDBRANCH   9  11
ENDBRANCH   6   9
BRANCH   3  31
HETATM   31  N1  UNL     1      19.684  43.528  45.417  1.00  0.00    -0.376 N 
ATOM     32  H1  UNL     1      18.977  42.799  45.319  1.00  0.00     0.161 HD
BRANCH  31  33
HETATM   33  C8  UNL     1      20.765  43.341  46.360  1.00  0.00     0.121 C 
BRANCH  33  34
HETATM   34  C9  UNL     1      21.921  42.691  45.613  1.00  0.00     0.020 C 
BRANCH  34  35
HETATM   35  C10 UNL     1      23.145  43.580  45.760  1.00  0.00     0.001 C 
BRANCH  35  36
HETATM   36  C11 UNL     1      23.848  43.599  44.399  1.00  0.00    -0.004 C 
HETATM   37  C12 UNL     1      23.232  44.623  43.473  1.00  0.00     0.005 C 
ENDBRANCH  35  36
ENDBRANCH  34  35
ENDBRANCH  33  34
ENDBRANCH  31  33
ENDBRANCH   3  31
BRANCH   1  38
HETATM   38  C4  UNL     1      17.593  45.675  41.725  1.00  0.00    -0.005 A 
HETATM   39  C3  UNL     1      17.037  46.809  41.282  1.00  0.00     0.042 A 
HETATM   40  C2  UNL     1      16.086  46.765  40.157  1.00  0.00     0.023 A 
HETATM   41  C1  UNL     1      15.545  47.892  39.729  1.00  0.00     0.043 C 
HETATM   42  N8  UNL     1      15.803  45.499  39.584  1.00  0.00    -0.361 N 
HETATM   43  C25 UNL     1      16.397  44.315  40.061  1.00  0.00     0.006 A 
ATOM     44  H8  UNL     1      15.149  45.444  38.804  1.00  0.00     0.166 HD
HETATM   45  C24 UNL     1      17.256  44.411  41.092  1.00  0.00     0.038 A 
HETATM   46  C26 UNL     1      16.077  43.001  39.439  1.00  0.00     0.068 C 
ENDBRANCH   1  38
TORSDOF 15
ENDMDL
MODEL 5
REMARK VINA RESULT: -8.864576500      2.766      4.617
REMARK  15 active torsions:
REMARK  status: ('A' for Active; 'I' for Inactive)
REMARK    1  A    between atoms: C4_4  and  C5_5 
REMARK    2  A    between atoms: C7_7  and  N1_8 
REMARK    3  A    between atoms: N1_8  and  C8_10 
REMARK    4  A    between atoms: C8_10  and  C9_11 
REMARK    5  A    between atoms: C9_11  and  C10_12 
REMARK    6  A    between atoms: C10_12  and  C11_13 
REMARK    7  A    between atoms: C13_17  and  N3_18 
REMARK    8  A    between atoms: N3_18  and  C14_20 
REMARK    9  A    between atoms: C14_20  and  C15_21 
REMARK   10  A    between atoms: C15_21  and  N4_22 
REMARK   11  A    between atoms: N4_22  and  C16_24 
REMARK   12  A    between atoms: C20_31  and  C21_32 
REMARK       I    between atoms: C21_32  and  N6_34 
REMARK   13  A    between atoms: N6_34  and  C22_36 
REMARK   14  A    between atoms: C22_36  and  C23_37 
REMARK   15  A    between atoms: C23_37  and  O2_38 
ROOT
HETATM    1  C5  UNL     1      21.565  46.221  43.188  1.00  0.00     0.063 A 
HETATM    2  C6  UNL     1      22.347  45.721  42.177  1.00  0.00     0.079 A 
HETATM    3  C7  UNL     1      23.344  46.493  41.573  1.00  0.00     0.119 A 
HETATM    4  N2  UNL     1      23.495  47.741  42.032  1.00  0.00    -0.177 N 
ATOM      5  H2  UNL     1      24.212  48.334  41.615  1.00  0.00     0.185 HD
HETATM    6  C13 UNL     1      22.745  48.237  43.012  1.00  0.00     0.680 A 
HETATM    7  N7  UNL     1      21.787  47.475  43.582  1.00  0.00    -0.191 N 
ATOM      8  H7  UNL     1      21.218  47.869  44.332  1.00  0.00     0.184 HD
ENDROOT
BRANCH   6   9
HETATM    9  N3  UNL     1      22.908  49.420  43.441  1.00  0.00    -0.224 N 
ATOM     10  H3  UNL     1      23.852  49.795  43.344  1.00  0.00     0.177 HD
BRANCH   9  11
HETATM   11  C14 UNL     1      21.961  50.299  44.039  1.00  0.00     0.157 C 
BRANCH  11  12
HETATM   12  C15 UNL     1      22.576  51.145  45.125  1.00  0.00     0.141 C 
BRANCH  12  13
HETATM   13  N4  UNL     1      23.597  50.435  45.848  1.00  0.00    -0.374 N 
ATOM     14  H4  UNL     1      24.360  50.007  45.325  1.00  0.00     0.161 HD
BRANCH  13  15
HETATM   15  C16 UNL     1      23.584  50.318  47.141  1.00  0.00     0.117 A 
HETATM   16  N5  UNL     1      23.699  51.357  47.984  1.00  0.00    -0.350 N 
HETATM   17  C17 UNL     1      23.658  51.155  49.327  1.00  0.00     0.108 A 
ATOM     18  H5  UNL     1      23.817  52.300  47.616  1.00  0.00     0.166 HD
HETATM   19  C18 UNL     1      23.502  49.893  49.842  1.00  0.00     0.027 A 
HETATM   20 BR1  UNL     1      23.448  49.631  51.720  1.00  0.00    -0.050 Br
HETATM   21  C19 UNL     1      23.386  48.832  48.979  1.00  0.00     0.041 A 
HETATM   22  C20 UNL     1      23.423  49.009  47.617  1.00  0.00     0.077 A 
BRANCH  22  23
HETATM   23  C21 UNL     1      23.316  47.862  46.690  1.00  0.00     0.255 C 
HETATM   24  O1  UNL     1      22.181  47.388  46.446  1.00  0.00    -0.268 OA
HETATM   25  N6  UNL     1      24.511  47.362  46.131  1.00  0.00    -0.355 N 
ATOM     26  H6  UNL     1      25.403  47.793  46.373  1.00  0.00     0.162 HD
BRANCH  25  27
HETATM   27  C22 UNL     1      24.480  46.247  45.221  1.00  0.00     0.148 C 
BRANCH  27  28
HETATM   28  C23 UNL     1      25.726  46.273  44.343  1.00  0.00     0.183 C 
BRANCH  28  29
HETATM   29  O2  UNL     1      26.743  46.888  45.089  1.00  0.00    -0.399 OA
ATOM     30  H2  UNL     1      26.621  46.630  45.995  1.00  0.00     0.209 HD
ENDBRANCH  28  29
ENDBRANCH  27  28
ENDBRANCH  25  27
ENDBRANCH  22  23
ENDBRANCH  13  15
ENDBRANCH  12  13
ENDBRANCH  11  12
ENDBRANCH   9  11
ENDBRANCH   6   9
BRANCH   3  31
HETATM   31  N1  UNL     1      24.041  45.980  40.657  1.00  0.00    -0.376 N 
ATOM     32  H1  UNL     1      25.045  46.158  40.636  1.00  0.00     0.161 HD
BRANCH  31  33
HETATM   33  C8  UNL     1      23.449  45.146  39.635  1.00  0.00     0.121 C 
BRANCH  33  34
HETATM   34  C9  UNL     1      23.670  45.831  38.294  1.00  0.00     0.020 C 
BRANCH  34  35
HETATM   35  C10 UNL     1      24.162  44.790  37.302  1.00  0.00     0.001 C 
BRANCH  35  36
HETATM   36  C11 UNL     1      23.719  45.256  35.911  1.00  0.00    -0.004 C 
HETATM   37  C12 UNL     1      22.243  45.586  35.883  1.00  0.00     0.005 C 
ENDBRANCH  35  36
ENDBRANCH  34  35
ENDBRANCH  33  34
ENDBRANCH  31  33
ENDBRANCH   3  31
BRANCH   1  38
HETATM   38  C4  UNL     1      20.516  45.372  43.791  1.00  0.00    -0.005 A 
HETATM   39  C3  UNL     1      19.328  45.234  43.191  1.00  0.00     0.042 A 
HETATM   40  C2  UNL     1      18.294  44.383  43.806  1.00  0.00     0.023 A 
HETATM   41  C1  UNL     1      17.126  44.254  43.202  1.00  0.00     0.043 C 
HETATM   42  N8  UNL     1      18.614  43.738  45.028  1.00  0.00    -0.361 N 
HETATM   43  C25 UNL     1      19.868  43.893  45.647  1.00  0.00     0.006 A 
ATOM     44  H8  UNL     1      17.915  43.143  45.472  1.00  0.00     0.166 HD
HETATM   45  C24 UNL     1      20.776  44.682  45.044  1.00  0.00     0.038 A 
HETATM   46  C26 UNL     1      20.173  43.204  46.931  1.00  0.00     0.068 C 
ENDBRANCH   1  38
TORSDOF 15
ENDMDL
