MODEL 1
REMARK VINA RESULT: -7.114018065      0.000      0.000
REMARK  3 active torsions:
REMARK  status: ('A' for Active; 'I' for Inactive)
REMARK    1  A    between atoms: N1_1  and  C1_4 
REMARK    2  A    between atoms: N4_13  and  C4_14 
REMARK    3  A    between atoms: C4_14  and  C5_15 
ROOT
HETATM    1  C1  UNL     1      32.835   6.171  13.695  1.00  0.00     0.695 A 
HETATM    2  N2  UNL     1      33.095   7.479  13.929  1.00  0.00    -0.150 N 
ATOM      3  H2  UNL     1      33.571   8.016  13.205  1.00  0.00     0.188 HD
HETATM    4  C2  UNL     1      32.759   8.102  15.063  1.00  0.00     0.329 A 
HETATM    5  O1  UNL     1      33.011   9.332  15.266  1.00  0.00    -0.261 OA
HETATM    6  C3  UNL     1      32.118   7.362  16.030  1.00  0.00     0.329 A 
HETATM    7  O2  UNL     1      31.759   7.855  17.136  1.00  0.00    -0.261 OA
HETATM    8  N3  UNL     1      31.865   6.068  15.791  1.00  0.00    -0.245 N 
ATOM      9  H3  UNL     1      31.389   5.523  16.511  1.00  0.00     0.191 HD
HETATM   10  N4  UNL     1      32.209   5.457  14.643  1.00  0.00    -0.119 N 
ENDROOT
BRANCH  10  11
HETATM   11  C4  UNL     1      31.875   4.045  14.481  1.00  0.00     0.194 C 
BRANCH  11  12
HETATM   12  C5  UNL     1      32.674   3.269  15.494  1.00  0.00     0.122 C 
HETATM   13  C6  UNL     1      33.190   1.964  14.942  1.00  0.00     0.149 C 
HETATM   14  N5  UNL     1      33.308   1.207  16.165  1.00  0.00    -0.363 N 
HETATM   15  C7  UNL     1      32.283   1.704  17.008  1.00  0.00     0.184 C 
ATOM     16  H5  UNL     1      33.984   0.473  16.377  1.00  0.00     0.162 HD
HETATM   17  N6  UNL     1      31.748   0.972  18.123  1.00  0.00    -0.064 NA
HETATM   18  N7  UNL     1      31.915   2.874  16.635  1.00  0.00    -0.357 N 
ATOM     19  H7  UNL     1      31.192   3.435  17.085  1.00  0.00     0.162 HD
ENDBRANCH  11  12
ENDBRANCH  10  11
BRANCH   1  20
HETATM   20  N1  UNL     1      33.197   5.640  12.575  1.00  0.00    -0.233 N 
ATOM     21  H12 UNL     1      32.838   5.977  11.682  1.00  0.00     0.174 HD
ATOM     22  H11 UNL     1      33.855   4.860  12.577  1.00  0.00     0.174 HD
ENDBRANCH   1  20
TORSDOF 3
ENDMDL
MODEL 2
REMARK VINA RESULT: -7.033622406      3.933      6.074
REMARK  3 active torsions:
REMARK  status: ('A' for Active; 'I' for Inactive)
REMARK    1  A    between atoms: N1_1  and  C1_4 
REMARK    2  A    between atoms: N4_13  and  C4_14 
REMARK    3  A    between atoms: C4_14  and  C5_15 
ROOT
HETATM    1  C1  UNL     1      30.687   3.378  19.215  1.00  0.00     0.695 A 
HETATM    2  N2  UNL     1      29.465   3.359  19.797  1.00  0.00    -0.150 N 
ATOM      3  H2  UNL     1      29.151   4.193  20.292  1.00  0.00     0.188 HD
HETATM    4  C2  UNL     1      28.649   2.301  19.756  1.00  0.00     0.329 A 
HETATM    5  O1  UNL     1      27.504   2.302  20.308  1.00  0.00    -0.261 OA
HETATM    6  C3  UNL     1      29.089   1.184  19.083  1.00  0.00     0.329 A 
HETATM    7  O2  UNL     1      28.396   0.133  18.986  1.00  0.00    -0.261 OA
HETATM    8  N3  UNL     1      30.300   1.210  18.511  1.00  0.00    -0.245 N 
ATOM      9  H3  UNL     1      30.622   0.380  18.014  1.00  0.00     0.191 HD
HETATM   10  N4  UNL     1      31.109   2.284  18.562  1.00  0.00    -0.119 N 
ENDROOT
BRANCH  10  11
HETATM   11  C4  UNL     1      32.404   2.211  17.893  1.00  0.00     0.194 C 
BRANCH  11  12
HETATM   12  C5  UNL     1      32.146   2.076  16.416  1.00  0.00     0.122 C 
HETATM   13  C6  UNL     1      33.371   1.630  15.657  1.00  0.00     0.149 C 
HETATM   14  N5  UNL     1      33.073   2.183  14.358  1.00  0.00    -0.363 N 
HETATM   15  C7  UNL     1      32.320   3.355  14.618  1.00  0.00     0.184 C 
ATOM     16  H5  UNL     1      33.345   1.811  13.448  1.00  0.00     0.162 HD
HETATM   17  N6  UNL     1      32.185   4.437  13.683  1.00  0.00    -0.064 NA
HETATM   18  N7  UNL     1      31.790   3.304  15.785  1.00  0.00    -0.357 N 
ATOM     19  H7  UNL     1      31.204   4.030  16.197  1.00  0.00     0.162 HD
ENDBRANCH  11  12
ENDBRANCH  10  11
BRANCH   1  20
HETATM   20  N1  UNL     1      31.420   4.438  19.305  1.00  0.00    -0.233 N 
ATOM     21  H12 UNL     1      31.810   4.890  18.478  1.00  0.00     0.174 HD
ATOM     22  H11 UNL     1      31.621   4.835  20.223  1.00  0.00     0.174 HD
ENDBRANCH   1  20
TORSDOF 3
ENDMDL
MODEL 3
REMARK VINA RESULT: -6.599769252      3.694      5.745
REMARK  3 active torsions:
REMARK  status: ('A' for Active; 'I' for Inactive)
REMARK    1  A    between atoms: N1_1  and  C1_4 
REMARK    2  A    between atoms: N4_13  and  C4_14 
REMARK    3  A    between atoms: C4_14  and  C5_15 
ROOT
HETATM    1  C1  UNL     1      29.132   1.719  19.097  1.00  0.00     0.695 A 
HETATM    2  N2  UNL     1      28.661   2.509  20.090  1.00  0.00    -0.150 N 
ATOM      3  H2  UNL     1      27.776   2.259  20.530  1.00  0.00     0.188 HD
HETATM    4  C2  UNL     1      29.297   3.602  20.522  1.00  0.00     0.329 A 
HETATM    5  O1  UNL     1      28.840   4.333  21.457  1.00  0.00    -0.261 OA
HETATM    6  C3  UNL     1      30.490   3.926  19.916  1.00  0.00     0.329 A 
HETATM    7  O2  UNL     1      31.169   4.937  20.250  1.00  0.00    -0.261 OA
HETATM    8  N3  UNL     1      30.950   3.139  18.934  1.00  0.00    -0.245 N 
ATOM      9  H3  UNL     1      31.834   3.383  18.488  1.00  0.00     0.191 HD
HETATM   10  N4  UNL     1      30.296   2.041  18.512  1.00  0.00    -0.119 N 
ENDROOT
BRANCH  10  11
HETATM   11  C4  UNL     1      30.891   1.247  17.441  1.00  0.00     0.194 C 
BRANCH  11  12
HETATM   12  C5  UNL     1      31.846   2.137  16.691  1.00  0.00     0.122 C 
HETATM   13  C6  UNL     1      31.405   2.385  15.270  1.00  0.00     0.149 C 
HETATM   14  N5  UNL     1      32.684   2.655  14.658  1.00  0.00    -0.363 N 
HETATM   15  C7  UNL     1      33.617   1.879  15.390  1.00  0.00     0.184 C 
ATOM     16  H5  UNL     1      32.876   3.273  13.870  1.00  0.00     0.162 HD
HETATM   17  N6  UNL     1      34.904   1.495  14.880  1.00  0.00    -0.064 NA
HETATM   18  N7  UNL     1      33.150   1.579  16.546  1.00  0.00    -0.357 N 
ATOM     19  H7  UNL     1      33.637   1.026  17.251  1.00  0.00     0.162 HD
ENDBRANCH  11  12
ENDBRANCH  10  11
BRANCH   1  20
HETATM   20  N1  UNL     1      28.454   0.682  18.732  1.00  0.00    -0.233 N 
ATOM     21  H12 UNL     1      28.426  -0.165  19.298  1.00  0.00     0.174 HD
ATOM     22  H11 UNL     1      27.936   0.703  17.853  1.00  0.00     0.174 HD
ENDBRANCH   1  20
TORSDOF 3
ENDMDL
MODEL 4
REMARK VINA RESULT: -6.448609683      2.901      5.516
REMARK  3 active torsions:
REMARK  status: ('A' for Active; 'I' for Inactive)
REMARK    1  A    between atoms: N1_1  and  C1_4 
REMARK    2  A    between atoms: N4_13  and  C4_14 
REMARK    3  A    between atoms: C4_14  and  C5_15 
ROOT
HETATM    1  C1  UNL     1      30.072   1.585  18.495  1.00  0.00     0.695 A 
HETATM    2  N2  UNL     1      29.172   2.182  19.311  1.00  0.00    -0.150 N 
ATOM      3  H2  UNL     1      28.256   1.748  19.423  1.00  0.00     0.188 HD
HETATM    4  C2  UNL     1      29.424   3.312  19.979  1.00  0.00     0.329 A 
HETATM    5  O1  UNL     1      28.566   3.858  20.743  1.00  0.00    -0.261 OA
HETATM    6  C3  UNL     1      30.665   3.884  19.817  1.00  0.00     0.329 A 
HETATM    7  O2  UNL     1      31.003   4.951  20.402  1.00  0.00    -0.261 OA
HETATM    8  N3  UNL     1      31.550   3.288  19.006  1.00  0.00    -0.245 N 
ATOM      9  H3  UNL     1      32.468   3.716  18.889  1.00  0.00     0.191 HD
HETATM   10  N4  UNL     1      31.280   2.150  18.342  1.00  0.00    -0.119 N 
ENDROOT
BRANCH  10  11
HETATM   11  C4  UNL     1      32.320   1.577  17.493  1.00  0.00     0.194 C 
BRANCH  11  12
HETATM   12  C5  UNL     1      32.022   1.980  16.073  1.00  0.00     0.122 C 
HETATM   13  C6  UNL     1      33.166   1.679  15.138  1.00  0.00     0.149 C 
HETATM   14  N5  UNL     1      32.919   2.670  14.118  1.00  0.00    -0.363 N 
HETATM   15  C7  UNL     1      32.328   3.763  14.799  1.00  0.00     0.184 C 
ATOM     16  H5  UNL     1      33.125   2.599  13.122  1.00  0.00     0.162 HD
HETATM   17  N6  UNL     1      32.318   5.106  14.288  1.00  0.00    -0.064 NA
HETATM   18  N7  UNL     1      31.816   3.382  15.911  1.00  0.00    -0.357 N 
ATOM     19  H7  UNL     1      31.336   3.988  16.576  1.00  0.00     0.162 HD
ENDBRANCH  11  12
ENDBRANCH  10  11
BRANCH   1  20
HETATM   20  N1  UNL     1      29.750   0.496  17.878  1.00  0.00    -0.233 N 
ATOM     21  H12 UNL     1      28.809   0.347  17.513  1.00  0.00     0.174 HD
ATOM     22  H11 UNL     1      30.447  -0.238  17.755  1.00  0.00     0.174 HD
ENDBRANCH   1  20
TORSDOF 3
ENDMDL
MODEL 5
REMARK VINA RESULT: -6.208962165      4.072      6.549
REMARK  3 active torsions:
REMARK  status: ('A' for Active; 'I' for Inactive)
REMARK    1  A    between atoms: N1_1  and  C1_4 
REMARK    2  A    between atoms: N4_13  and  C4_14 
REMARK    3  A    between atoms: C4_14  and  C5_15 
ROOT
HETATM    1  C1  UNL     1      30.872   2.366  19.904  1.00  0.00     0.695 A 
HETATM    2  N2  UNL     1      29.807   1.782  20.503  1.00  0.00    -0.150 N 
ATOM      3  H2  UNL     1      29.679   1.920  21.505  1.00  0.00     0.188 HD
HETATM    4  C2  UNL     1      28.916   1.033  19.846  1.00  0.00     0.329 A 
HETATM    5  O1  UNL     1      27.921   0.492  20.425  1.00  0.00    -0.261 OA
HETATM    6  C3  UNL     1      29.105   0.857  18.494  1.00  0.00     0.329 A 
HETATM    7  O2  UNL     1      28.321   0.169  17.783  1.00  0.00    -0.261 OA
HETATM    8  N3  UNL     1      30.161   1.438  17.909  1.00  0.00    -0.245 N 
ATOM      9  H3  UNL     1      30.297   1.305  16.907  1.00  0.00     0.191 HD
HETATM   10  N4  UNL     1      31.049   2.189  18.585  1.00  0.00    -0.119 N 
ENDROOT
BRANCH  10  11
HETATM   11  C4  UNL     1      32.158   2.786  17.848  1.00  0.00     0.194 C 
BRANCH  11  12
HETATM   12  C5  UNL     1      31.952   2.479  16.389  1.00  0.00     0.122 C 
HETATM   13  C6  UNL     1      33.124   1.748  15.784  1.00  0.00     0.149 C 
HETATM   14  N5  UNL     1      32.980   2.146  14.404  1.00  0.00    -0.363 N 
HETATM   15  C7  UNL     1      32.412   3.443  14.451  1.00  0.00     0.184 C 
ATOM     16  H5  UNL     1      33.231   1.609  13.575  1.00  0.00     0.162 HD
HETATM   17  N6  UNL     1      32.496   4.387  13.370  1.00  0.00    -0.064 NA
HETATM   18  N7  UNL     1      31.826   3.643  15.574  1.00  0.00    -0.357 N 
ATOM     19  H7  UNL     1      31.346   4.501  15.842  1.00  0.00     0.162 HD
ENDBRANCH  11  12
ENDBRANCH  10  11
BRANCH   1  20
HETATM   20  N1  UNL     1      31.693   3.070  20.610  1.00  0.00    -0.233 N 
ATOM     21  H12 UNL     1      31.424   3.459  21.513  1.00  0.00     0.174 HD
ATOM     22  H11 UNL     1      32.634   3.249  20.258  1.00  0.00     0.174 HD
ENDBRANCH   1  20
TORSDOF 3
ENDMDL
