MODEL 1
REMARK VINA RESULT: -6.626854030      0.000      0.000
REMARK  1 active torsions:
REMARK  status: ('A' for Active; 'I' for Inactive)
REMARK    1  A    between atoms: C1_2  and  C2_4 
REMARK       I    between atoms: N3_9  and  C5_10 
ROOT
HETATM    1  C2  UNL     1      31.218   2.055  17.895  1.00  0.00     0.184 A 
HETATM    2  N2  UNL     1      30.403   0.928  17.906  1.00  0.00    -0.330 N 
ATOM      3  H2  UNL     1      30.458   0.151  17.249  1.00  0.00     0.168 HD
HETATM    4  C3  UNL     1      29.556   1.028  18.900  1.00  0.00     0.150 A 
HETATM    5  C4  UNL     1      29.822   2.229  19.542  1.00  0.00     0.163 A 
HETATM    6  N3  UNL     1      30.866   2.858  18.897  1.00  0.00    -0.229 N 
HETATM    7  C5  UNL     1      31.333   4.096  19.345  1.00  0.00     0.342 C 
HETATM    8  N4  UNL     1      32.387   4.860  18.815  1.00  0.00    -0.039 NA
HETATM    9  O2  UNL     1      30.782   4.666  20.359  1.00  0.00    -0.250 OA
HETATM   10  N5  UNL     1      29.028   2.548  20.681  1.00  0.00    -0.267 N 
ATOM     11  H5  UNL     1      29.411   3.113  21.438  1.00  0.00     0.186 HD
HETATM   12  N6  UNL     1      27.689   2.064  20.746  1.00  0.00    -0.018 NA
HETATM   13  N7  UNL     1      27.738   0.666  20.528  1.00  0.00    -0.248 N 
ATOM     14  H7  UNL     1      27.268   0.023  21.165  1.00  0.00     0.187 HD
HETATM   15  C6  UNL     1      28.456   0.181  19.405  1.00  0.00     0.289 C 
HETATM   16  O3  UNL     1      28.202  -0.907  18.840  1.00  0.00    -0.264 OA
ENDROOT
BRANCH   1  17
HETATM   17  C1  UNL     1      32.254   2.223  16.902  1.00  0.00     0.299 C 
HETATM   18  N1  UNL     1      33.421   1.362  16.950  1.00  0.00    -0.054 NA
HETATM   19  O1  UNL     1      32.262   3.034  15.993  1.00  0.00    -0.268 OA
ENDBRANCH   1  17
TORSDOF 1
ENDMDL
MODEL 2
REMARK VINA RESULT: -6.442399003      7.988     10.465
REMARK  1 active torsions:
REMARK  status: ('A' for Active; 'I' for Inactive)
REMARK    1  A    between atoms: C1_2  and  C2_4 
REMARK       I    between atoms: N3_9  and  C5_10 
ROOT
HETATM    1  C2  UNL     1      30.755  10.247  15.044  1.00  0.00     0.184 A 
HETATM    2  N2  UNL     1      30.090  10.893  14.008  1.00  0.00    -0.330 N 
ATOM      3  H2  UNL     1      29.265  11.483  14.111  1.00  0.00     0.168 HD
HETATM    4  C3  UNL     1      30.696  10.619  12.880  1.00  0.00     0.150 A 
HETATM    5  C4  UNL     1      31.767   9.790  13.185  1.00  0.00     0.163 A 
HETATM    6  N3  UNL     1      31.786   9.568  14.545  1.00  0.00    -0.229 N 
HETATM    7  C5  UNL     1      32.770   8.758  15.117  1.00  0.00     0.342 C 
HETATM    8  N4  UNL     1      32.940   8.441  16.476  1.00  0.00    -0.039 NA
HETATM    9  O2  UNL     1      33.661   8.201  14.374  1.00  0.00    -0.250 OA
HETATM   10  N5  UNL     1      32.594   9.373  12.103  1.00  0.00    -0.267 N 
ATOM     11  H5  UNL     1      33.584   9.177  12.254  1.00  0.00     0.186 HD
HETATM   12  N6  UNL     1      32.019   9.234  10.806  1.00  0.00    -0.018 NA
HETATM   13  N7  UNL     1      31.358  10.450  10.510  1.00  0.00    -0.248 N 
ATOM     14  H7  UNL     1      31.526  10.932   9.626  1.00  0.00     0.187 HD
HETATM   15  C6  UNL     1      30.460  10.984  11.468  1.00  0.00     0.289 C 
HETATM   16  O3  UNL     1      29.500  11.733  11.175  1.00  0.00    -0.264 OA
ENDROOT
BRANCH   1  17
HETATM   17  C1  UNL     1      30.308  10.365  16.413  1.00  0.00     0.299 C 
HETATM   18  N1  UNL     1      30.297  11.674  17.040  1.00  0.00    -0.054 NA
HETATM   19  O1  UNL     1      29.924   9.458  17.131  1.00  0.00    -0.268 OA
ENDBRANCH   1  17
TORSDOF 1
ENDMDL
MODEL 3
REMARK VINA RESULT: -6.043376583      8.037      9.357
REMARK  1 active torsions:
REMARK  status: ('A' for Active; 'I' for Inactive)
REMARK    1  A    between atoms: C1_2  and  C2_4 
REMARK       I    between atoms: N3_9  and  C5_10 
ROOT
HETATM    1  C2  UNL     1      31.861   9.294  15.077  1.00  0.00     0.184 A 
HETATM    2  N2  UNL     1      31.314   9.454  16.345  1.00  0.00    -0.330 N 
ATOM      3  H2  UNL     1      31.640   8.994  17.194  1.00  0.00     0.168 HD
HETATM    4  C3  UNL     1      30.310  10.292  16.270  1.00  0.00     0.150 A 
HETATM    5  C4  UNL     1      30.204  10.683  14.942  1.00  0.00     0.163 A 
HETATM    6  N3  UNL     1      31.185  10.046  14.211  1.00  0.00    -0.229 N 
HETATM    7  C5  UNL     1      31.297  10.264  12.836  1.00  0.00     0.342 C 
HETATM    8  N4  UNL     1      32.240   9.711  11.952  1.00  0.00    -0.039 NA
HETATM    9  O2  UNL     1      30.477  11.054  12.237  1.00  0.00    -0.250 OA
HETATM   10  N5  UNL     1      29.181  11.619  14.619  1.00  0.00    -0.267 N 
ATOM     11  H5  UNL     1      29.304  12.274  13.847  1.00  0.00     0.186 HD
HETATM   12  N6  UNL     1      27.983  11.627  15.391  1.00  0.00    -0.018 NA
HETATM   13  N7  UNL     1      28.363  11.728  16.751  1.00  0.00    -0.248 N 
ATOM     14  H7  UNL     1      27.940  12.430  17.359  1.00  0.00     0.187 HD
HETATM   15  C6  UNL     1      29.345  10.834  17.248  1.00  0.00     0.289 C 
HETATM   16  O3  UNL     1      29.426  10.495  18.451  1.00  0.00    -0.264 OA
ENDROOT
BRANCH   1  17
HETATM   17  C1  UNL     1      32.990   8.420  14.851  1.00  0.00     0.299 C 
HETATM   18  N1  UNL     1      32.752   7.077  14.358  1.00  0.00    -0.054 NA
HETATM   19  O1  UNL     1      34.164   8.692  15.033  1.00  0.00    -0.268 OA
ENDBRANCH   1  17
TORSDOF 1
ENDMDL
MODEL 4
REMARK VINA RESULT: -5.497938758      2.730      5.277
REMARK  1 active torsions:
REMARK  status: ('A' for Active; 'I' for Inactive)
REMARK    1  A    between atoms: C1_2  and  C2_4 
REMARK       I    between atoms: N3_9  and  C5_10 
ROOT
HETATM    1  C2  UNL     1      31.765   3.042  17.424  1.00  0.00     0.184 A 
HETATM    2  N2  UNL     1      31.891   2.878  16.049  1.00  0.00    -0.330 N 
ATOM      3  H2  UNL     1      31.906   1.985  15.557  1.00  0.00     0.168 HD
HETATM    4  C3  UNL     1      31.986   4.058  15.489  1.00  0.00     0.150 A 
HETATM    5  C4  UNL     1      31.920   4.999  16.508  1.00  0.00     0.163 A 
HETATM    6  N3  UNL     1      31.782   4.342  17.712  1.00  0.00    -0.229 N 
HETATM    7  C5  UNL     1      31.696   5.062  18.906  1.00  0.00     0.342 C 
HETATM    8  N4  UNL     1      31.541   4.554  20.207  1.00  0.00    -0.039 NA
HETATM    9  O2  UNL     1      31.756   6.347  18.891  1.00  0.00    -0.250 OA
HETATM   10  N5  UNL     1      31.984   6.370  16.131  1.00  0.00    -0.267 N 
ATOM     11  H5  UNL     1      31.512   7.082  16.688  1.00  0.00     0.186 HD
HETATM   12  N6  UNL     1      32.719   6.733  14.965  1.00  0.00    -0.018 NA
HETATM   13  N7  UNL     1      32.240   5.930  13.903  1.00  0.00    -0.248 N 
ATOM     14  H7  UNL     1      31.961   6.351  13.016  1.00  0.00     0.187 HD
HETATM   15  C6  UNL     1      32.154   4.528  14.098  1.00  0.00     0.289 C 
HETATM   16  O3  UNL     1      32.214   3.695  13.166  1.00  0.00    -0.264 OA
ENDROOT
BRANCH   1  17
HETATM   17  C1  UNL     1      31.642   1.905  18.308  1.00  0.00     0.299 C 
HETATM   18  N1  UNL     1      30.366   1.219  18.398  1.00  0.00    -0.054 NA
HETATM   19  O1  UNL     1      32.518   1.437  19.014  1.00  0.00    -0.268 OA
ENDBRANCH   1  17
TORSDOF 1
ENDMDL
MODEL 5
REMARK VINA RESULT: -5.214389100      2.377      2.655
REMARK  1 active torsions:
REMARK  status: ('A' for Active; 'I' for Inactive)
REMARK    1  A    between atoms: C1_2  and  C2_4 
REMARK       I    between atoms: N3_9  and  C5_10 
ROOT
HETATM    1  C2  UNL     1      31.906   2.687  17.237  1.00  0.00     0.184 A 
HETATM    2  N2  UNL     1      31.727   1.777  18.273  1.00  0.00    -0.330 N 
ATOM      3  H2  UNL     1      31.834   0.766  18.199  1.00  0.00     0.168 HD
HETATM    4  C3  UNL     1      31.399   2.432  19.359  1.00  0.00     0.150 A 
HETATM    5  C4  UNL     1      31.366   3.779  19.027  1.00  0.00     0.163 A 
HETATM    6  N3  UNL     1      31.685   3.918  17.693  1.00  0.00    -0.229 N 
HETATM    7  C5  UNL     1      31.720   5.182  17.101  1.00  0.00     0.342 C 
HETATM    8  N4  UNL     1      32.038   5.499  15.768  1.00  0.00    -0.039 NA
HETATM    9  O2  UNL     1      31.442   6.230  17.795  1.00  0.00    -0.250 OA
HETATM   10  N5  UNL     1      31.046   4.697  20.068  1.00  0.00    -0.267 N 
ATOM     11  H5  UNL     1      31.424   5.645  20.056  1.00  0.00     0.186 HD
HETATM   12  N6  UNL     1      30.192   4.273  21.126  1.00  0.00    -0.018 NA
HETATM   13  N7  UNL     1      30.735   3.074  21.646  1.00  0.00    -0.248 N 
ATOM     14  H7  UNL     1      30.884   2.961  22.650  1.00  0.00     0.187 HD
HETATM   15  C6  UNL     1      31.069   2.033  20.743  1.00  0.00     0.289 C 
HETATM   16  O3  UNL     1      31.096   0.822  21.061  1.00  0.00    -0.264 OA
ENDROOT
BRANCH   1  17
HETATM   17  C1  UNL     1      32.274   2.250  15.909  1.00  0.00     0.299 C 
HETATM   18  N1  UNL     1      33.555   1.597  15.713  1.00  0.00    -0.054 NA
HETATM   19  O1  UNL     1      31.607   2.370  14.896  1.00  0.00    -0.268 OA
ENDBRANCH   1  17
TORSDOF 1
ENDMDL
