MODEL 1
REMARK VINA RESULT: -6.941263902      0.000      0.000
REMARK  5 active torsions:
REMARK  status: ('A' for Active; 'I' for Inactive)
REMARK    1  A    between atoms: N1_1  and  C1_5 
REMARK    2  A    between atoms: C1_5  and  N2_6 
REMARK    3  A    between atoms: C1_5  and  C2_10 
REMARK    4  A    between atoms: C3_11  and  N3_12 
REMARK    5  A    between atoms: C4_14  and  C5_15 
ROOT
HETATM    1  C2  UNL     1      29.577   1.667  18.903  1.00  0.00     0.111 A 
HETATM    2  C3  UNL     1      30.688   2.292  18.332  1.00  0.00     0.124 A 
HETATM    3  N4  UNL     1      31.126   3.406  18.915  1.00  0.00    -0.294 N 
ATOM      4  H4  UNL     1      31.936   3.887  18.524  1.00  0.00     0.172 HD
HETATM    5  C7  UNL     1      30.528   3.912  20.005  1.00  0.00     0.328 A 
HETATM    6  O2  UNL     1      31.024   4.982  20.484  1.00  0.00    -0.247 OA
HETATM    7  N5  UNL     1      29.450   3.328  20.578  1.00  0.00    -0.275 N 
ATOM      8  H5  UNL     1      29.012   3.732  21.406  1.00  0.00     0.173 HD
HETATM    9  C8  UNL     1      28.973   2.199  20.023  1.00  0.00     0.263 A 
HETATM   10  O3  UNL     1      27.968   1.660  20.565  1.00  0.00    -0.267 OA
ENDROOT
BRANCH   1  11
HETATM   11  C1  UNL     1      29.009   0.423  18.336  1.00  0.00     0.420 C 
BRANCH  11  12
HETATM   12  N1  UNL     1      28.882  -0.546  19.424  1.00  0.00    -0.046 N 
ATOM     13  H13 UNL     1      28.898  -0.115  20.349  1.00  0.00     0.277 HD
ATOM     14  H12 UNL     1      27.950  -0.957  19.489  1.00  0.00     0.277 HD
ATOM     15  H11 UNL     1      29.618  -1.240  19.292  1.00  0.00     0.277 HD
ENDBRANCH  11  12
BRANCH  11  16
HETATM   16  N2  UNL     1      27.691   0.615  17.789  1.00  0.00    -0.046 N 
ATOM     17  H23 UNL     1      26.951   0.513  18.483  1.00  0.00     0.277 HD
ATOM     18  H22 UNL     1      27.499   1.584  17.536  1.00  0.00     0.277 HD
ATOM     19  H21 UNL     1      27.599  -0.031  17.005  1.00  0.00     0.277 HD
ENDBRANCH  11  16
ENDBRANCH   1  11
BRANCH   2  20
HETATM   20  N3  UNL     1      31.281   1.728  17.195  1.00  0.00    -0.353 N 
HETATM   21  C4  UNL     1      32.048   2.382  16.406  1.00  0.00     0.096 C 
ATOM     22  H3  UNL     1      31.091   0.748  16.987  1.00  0.00     0.166 HD
BRANCH  21  23
HETATM   23  C5  UNL     1      32.668   1.794  15.215  1.00  0.00     0.183 A 
HETATM   24  C6  UNL     1      34.012   2.088  14.777  1.00  0.00     0.206 A 
HETATM   25  O1  UNL     1      33.873   1.012  15.643  1.00  0.00    -0.376 OA
ENDBRANCH  21  23
ENDBRANCH   2  20
TORSDOF 5
ENDMDL
MODEL 2
REMARK VINA RESULT: -5.876172876      1.319      3.293
REMARK  5 active torsions:
REMARK  status: ('A' for Active; 'I' for Inactive)
REMARK    1  A    between atoms: N1_1  and  C1_5 
REMARK    2  A    between atoms: C1_5  and  N2_6 
REMARK    3  A    between atoms: C1_5  and  C2_10 
REMARK    4  A    between atoms: C3_11  and  N3_12 
REMARK    5  A    between atoms: C4_14  and  C5_15 
ROOT
HETATM    1  C2  UNL     1      30.860   2.937  18.782  1.00  0.00     0.111 A 
HETATM    2  C3  UNL     1      30.892   1.756  18.037  1.00  0.00     0.124 A 
HETATM    3  N4  UNL     1      29.955   0.848  18.298  1.00  0.00    -0.294 N 
ATOM      4  H4  UNL     1      29.948  -0.026  17.772  1.00  0.00     0.172 HD
HETATM    5  C7  UNL     1      29.016   1.053  19.235  1.00  0.00     0.328 A 
HETATM    6  O2  UNL     1      28.166   0.121  19.407  1.00  0.00    -0.247 OA
HETATM    7  N5  UNL     1      28.962   2.187  19.971  1.00  0.00    -0.275 N 
ATOM      8  H5  UNL     1      28.240   2.321  20.679  1.00  0.00     0.173 HD
HETATM    9  C8  UNL     1      29.890   3.134  19.742  1.00  0.00     0.263 A 
HETATM   10  O3  UNL     1      29.832   4.190  20.432  1.00  0.00    -0.267 OA
ENDROOT
BRANCH   1  11
HETATM   11  C1  UNL     1      31.856   4.013  18.573  1.00  0.00     0.420 C 
BRANCH  11  12
HETATM   12  N1  UNL     1      31.135   5.206  18.128  1.00  0.00    -0.046 N 
ATOM     13  H13 UNL     1      30.128   5.063  18.052  1.00  0.00     0.277 HD
ATOM     14  H12 UNL     1      31.108   5.945  18.831  1.00  0.00     0.277 HD
ATOM     15  H11 UNL     1      31.566   5.504  17.252  1.00  0.00     0.277 HD
ENDBRANCH  11  12
BRANCH  11  16
HETATM   16  N2  UNL     1      32.549   4.370  19.783  1.00  0.00    -0.046 N 
ATOM     17  H23 UNL     1      33.564   4.360  19.682  1.00  0.00     0.277 HD
ATOM     18  H22 UNL     1      32.452   5.356  20.025  1.00  0.00     0.277 HD
ATOM     19  H21 UNL     1      32.212   3.742  20.514  1.00  0.00     0.277 HD
ENDBRANCH  11  16
ENDBRANCH   1  11
BRANCH   2  20
HETATM   20  N3  UNL     1      31.889   1.585  17.069  1.00  0.00    -0.353 N 
HETATM   21  C4  UNL     1      31.754   1.951  15.849  1.00  0.00     0.096 C 
ATOM     22  H3  UNL     1      32.766   1.147  17.349  1.00  0.00     0.166 HD
BRANCH  21  23
HETATM   23  C5  UNL     1      32.795   1.772  14.833  1.00  0.00     0.183 A 
HETATM   24  C6  UNL     1      34.166   2.190  15.001  1.00  0.00     0.206 A 
HETATM   25  O1  UNL     1      33.869   0.895  15.402  1.00  0.00    -0.376 OA
ENDBRANCH  21  23
ENDBRANCH   2  20
TORSDOF 5
ENDMDL
MODEL 3
REMARK VINA RESULT: -5.705461922      4.311      6.616
REMARK  5 active torsions:
REMARK  status: ('A' for Active; 'I' for Inactive)
REMARK    1  A    between atoms: N1_1  and  C1_5 
REMARK    2  A    between atoms: C1_5  and  N2_6 
REMARK    3  A    between atoms: C1_5  and  C2_10 
REMARK    4  A    between atoms: C3_11  and  N3_12 
REMARK    5  A    between atoms: C4_14  and  C5_15 
ROOT
HETATM    1  C2  UNL     1      32.177   5.603  14.885  1.00  0.00     0.111 A 
HETATM    2  C3  UNL     1      31.921   6.352  16.036  1.00  0.00     0.124 A 
HETATM    3  N4  UNL     1      32.339   7.615  16.044  1.00  0.00    -0.294 N 
ATOM      4  H4  UNL     1      32.167   8.191  16.869  1.00  0.00     0.172 HD
HETATM    5  C7  UNL     1      32.981   8.152  14.994  1.00  0.00     0.328 A 
HETATM    6  O2  UNL     1      33.339   9.368  15.105  1.00  0.00    -0.247 OA
HETATM    7  N5  UNL     1      33.243   7.449  13.868  1.00  0.00    -0.275 N 
ATOM      8  H5  UNL     1      33.732   7.879  13.083  1.00  0.00     0.173 HD
HETATM    9  C8  UNL     1      32.838   6.168  13.814  1.00  0.00     0.263 A 
HETATM   10  O3  UNL     1      33.085   5.519  12.759  1.00  0.00    -0.267 OA
ENDROOT
BRANCH   1  11
HETATM   11  C1  UNL     1      31.755   4.188  14.770  1.00  0.00     0.420 C 
BRANCH  11  12
HETATM   12  N1  UNL     1      30.802   4.096  13.663  1.00  0.00    -0.046 N 
ATOM     13  H13 UNL     1      31.223   3.758  12.798  1.00  0.00     0.277 HD
ATOM     14  H12 UNL     1      30.123   3.344  13.780  1.00  0.00     0.277 HD
ATOM     15  H11 UNL     1      30.370   5.015  13.567  1.00  0.00     0.277 HD
ENDBRANCH  11  12
BRANCH  11  16
HETATM   16  N2  UNL     1      32.849   3.308  14.454  1.00  0.00    -0.046 N 
ATOM     17  H23 UNL     1      32.860   3.015  13.477  1.00  0.00     0.277 HD
ATOM     18  H22 UNL     1      33.755   3.776  14.458  1.00  0.00     0.277 HD
ATOM     19  H21 UNL     1      32.798   2.525  15.107  1.00  0.00     0.277 HD
ENDBRANCH  11  16
ENDBRANCH   1  11
BRANCH   2  20
HETATM   20  N3  UNL     1      31.247   5.751  17.106  1.00  0.00    -0.353 N 
HETATM   21  C4  UNL     1      31.843   5.298  18.145  1.00  0.00     0.096 C 
ATOM     22  H3  UNL     1      30.232   5.672  17.056  1.00  0.00     0.166 HD
BRANCH  21  23
HETATM   23  C5  UNL     1      31.141   4.668  19.267  1.00  0.00     0.183 A 
HETATM   24  C6  UNL     1      31.377   3.315  19.710  1.00  0.00     0.206 A 
HETATM   25  O1  UNL     1      32.149   4.298  20.312  1.00  0.00    -0.376 OA
ENDBRANCH  21  23
ENDBRANCH   2  20
TORSDOF 5
ENDMDL
MODEL 4
REMARK VINA RESULT: -5.593864799      1.514      3.220
REMARK  5 active torsions:
REMARK  status: ('A' for Active; 'I' for Inactive)
REMARK    1  A    between atoms: N1_1  and  C1_5 
REMARK    2  A    between atoms: C1_5  and  N2_6 
REMARK    3  A    between atoms: C1_5  and  C2_10 
REMARK    4  A    between atoms: C3_11  and  N3_12 
REMARK    5  A    between atoms: C4_14  and  C5_15 
ROOT
HETATM    1  C2  UNL     1      30.348   3.300  19.367  1.00  0.00     0.111 A 
HETATM    2  C3  UNL     1      30.517   2.265  18.442  1.00  0.00     0.124 A 
HETATM    3  N4  UNL     1      29.758   1.183  18.596  1.00  0.00    -0.294 N 
ATOM      4  H4  UNL     1      29.855   0.410  17.938  1.00  0.00     0.172 HD
HETATM    5  C7  UNL     1      28.867   1.084  19.595  1.00  0.00     0.328 A 
HETATM    6  O2  UNL     1      28.192   0.006  19.653  1.00  0.00    -0.247 OA
HETATM    7  N5  UNL     1      28.683   2.069  20.504  1.00  0.00    -0.275 N 
ATOM      8  H5  UNL     1      28.000   1.971  21.255  1.00  0.00     0.173 HD
HETATM    9  C8  UNL     1      29.429   3.183  20.388  1.00  0.00     0.263 A 
HETATM   10  O3  UNL     1      29.250   4.098  21.239  1.00  0.00    -0.267 OA
ENDROOT
BRANCH   1  11
HETATM   11  C1  UNL     1      31.141   4.548  19.288  1.00  0.00     0.420 C 
BRANCH  11  12
HETATM   12  N1  UNL     1      32.529   4.215  19.610  1.00  0.00    -0.046 N 
ATOM     13  H13 UNL     1      33.177   4.418  18.848  1.00  0.00     0.277 HD
ATOM     14  H12 UNL     1      32.941   4.842  20.301  1.00  0.00     0.277 HD
ATOM     15  H11 UNL     1      32.540   3.237  19.898  1.00  0.00     0.277 HD
ENDBRANCH  11  12
BRANCH  11  16
HETATM   16  N2  UNL     1      31.143   5.120  17.967  1.00  0.00    -0.046 N 
ATOM     17  H23 UNL     1      31.964   5.697  17.781  1.00  0.00     0.277 HD
ATOM     18  H22 UNL     1      31.300   4.431  17.231  1.00  0.00     0.277 HD
ATOM     19  H21 UNL     1      30.264   5.627  17.862  1.00  0.00     0.277 HD
ENDBRANCH  11  16
ENDBRANCH   1  11
BRANCH   2  20
HETATM   20  N3  UNL     1      31.458   2.413  17.416  1.00  0.00    -0.353 N 
HETATM   21  C4  UNL     1      32.355   1.537  17.154  1.00  0.00     0.096 C 
ATOM     22  H3  UNL     1      31.428   3.260  16.849  1.00  0.00     0.166 HD
BRANCH  21  23
HETATM   23  C5  UNL     1      33.342   1.689  16.081  1.00  0.00     0.183 A 
HETATM   24  C6  UNL     1      33.037   1.543  14.678  1.00  0.00     0.206 A 
HETATM   25  O1  UNL     1      32.915   2.823  15.200  1.00  0.00    -0.376 OA
ENDBRANCH  21  23
ENDBRANCH   2  20
TORSDOF 5
ENDMDL
MODEL 5
REMARK VINA RESULT: -5.551728556      1.511      3.286
REMARK  5 active torsions:
REMARK  status: ('A' for Active; 'I' for Inactive)
REMARK    1  A    between atoms: N1_1  and  C1_5 
REMARK    2  A    between atoms: C1_5  and  N2_6 
REMARK    3  A    between atoms: C1_5  and  C2_10 
REMARK    4  A    between atoms: C3_11  and  N3_12 
REMARK    5  A    between atoms: C4_14  and  C5_15 
ROOT
HETATM    1  C2  UNL     1      30.293   2.532  19.181  1.00  0.00     0.111 A 
HETATM    2  C3  UNL     1      30.588   1.494  18.293  1.00  0.00     0.124 A 
HETATM    3  N4  UNL     1      29.639   0.584  18.085  1.00  0.00    -0.294 N 
ATOM      4  H4  UNL     1      29.821  -0.187  17.442  1.00  0.00     0.172 HD
HETATM    5  C7  UNL     1      28.448   0.655  18.700  1.00  0.00     0.328 A 
HETATM    6  O2  UNL     1      27.611  -0.266  18.432  1.00  0.00    -0.247 OA
HETATM    7  N5  UNL     1      28.136   1.648  19.564  1.00  0.00    -0.275 N 
ATOM      8  H5  UNL     1      27.224   1.681  20.020  1.00  0.00     0.173 HD
HETATM    9  C8  UNL     1      29.065   2.592  19.805  1.00  0.00     0.263 A 
HETATM   10  O3  UNL     1      28.766   3.515  20.612  1.00  0.00    -0.267 OA
ENDROOT
BRANCH   1  11
HETATM   11  C1  UNL     1      31.276   3.596  19.483  1.00  0.00     0.420 C 
BRANCH  11  12
HETATM   12  N1  UNL     1      30.877   4.795  18.746  1.00  0.00    -0.046 N 
ATOM     13  H13 UNL     1      31.623   5.174  18.162  1.00  0.00     0.277 HD
ATOM     14  H12 UNL     1      30.212   4.602  17.997  1.00  0.00     0.277 HD
ATOM     15  H11 UNL     1      30.525   5.462  19.432  1.00  0.00     0.277 HD
ENDBRANCH  11  12
BRANCH  11  16
HETATM   16  N2  UNL     1      31.297   3.951  20.879  1.00  0.00    -0.046 N 
ATOM     17  H23 UNL     1      32.223   3.874  21.298  1.00  0.00     0.277 HD
ATOM     18  H22 UNL     1      31.164   4.949  21.041  1.00  0.00     0.277 HD
ATOM     19  H21 UNL     1      30.597   3.372  21.342  1.00  0.00     0.277 HD
ENDBRANCH  11  16
ENDBRANCH   1  11
BRANCH   2  20
HETATM   20  N3  UNL     1      31.843   1.460  17.673  1.00  0.00    -0.353 N 
HETATM   21  C4  UNL     1      32.064   1.937  16.506  1.00  0.00     0.096 C 
ATOM     22  H3  UNL     1      32.621   1.034  18.178  1.00  0.00     0.166 HD
BRANCH  21  23
HETATM   23  C5  UNL     1      33.376   1.902  15.855  1.00  0.00     0.183 A 
HETATM   24  C6  UNL     1      33.597   1.432  14.508  1.00  0.00     0.206 A 
HETATM   25  O1  UNL     1      33.332   2.787  14.647  1.00  0.00    -0.376 OA
ENDBRANCH  21  23
ENDBRANCH   2  20
TORSDOF 5
ENDMDL
