MODEL 1
REMARK VINA RESULT: -6.740190599      0.000      0.000
REMARK  3 active torsions:
REMARK  status: ('A' for Active; 'I' for Inactive)
REMARK    1  A    between atoms: N1_1  and  C1_4 
REMARK    2  A    between atoms: N4_16  and  C6_17 
REMARK    3  A    between atoms: C6_17  and  N5_18 
ROOT
HETATM    1  C1  UNL     1      86.887  82.276 115.572  1.00  0.00     0.680 A 
HETATM    2  N2  UNL     1      87.256  83.435 116.145  1.00  0.00    -0.155 N 
ATOM      3  H2  UNL     1      87.966  84.024 115.709  1.00  0.00     0.187 HD
HETATM    4  C2  UNL     1      86.678  83.807 117.301  1.00  0.00     0.279 A 
HETATM    5  O1  UNL     1      86.975  84.874 117.889  1.00  0.00    -0.266 OA
HETATM    6  C3  UNL     1      85.726  82.968 117.843  1.00  0.00     0.145 A 
HETATM    7  C4  UNL     1      85.093  83.312 119.036  1.00  0.00     0.269 A 
HETATM    8  O2  UNL     1      85.418  84.379 119.581  1.00  0.00    -0.267 OA
HETATM    9  N3  UNL     1      84.167  82.491 119.545  1.00  0.00    -0.274 N 
ATOM     10  H3  UNL     1      83.709  82.751 120.419  1.00  0.00     0.173 HD
HETATM   11  C5  UNL     1      83.817  81.338 118.951  1.00  0.00     0.332 A 
HETATM   12  O3  UNL     1      82.946  80.555 119.422  1.00  0.00    -0.246 OA
HETATM   13  N4  UNL     1      84.402  80.953 117.787  1.00  0.00    -0.259 N 
HETATM   14  C7  UNL     1      85.336  81.762 117.254  1.00  0.00     0.150 A 
HETATM   15  N6  UNL     1      85.955  81.452 116.099  1.00  0.00    -0.175 N 
ATOM     16  H6  UNL     1      85.717  80.586 115.617  1.00  0.00     0.186 HD
ENDROOT
BRANCH  13  17
HETATM   17  C6  UNL     1      84.027  79.716 117.148  1.00  0.00     0.365 C 
BRANCH  17  18
HETATM   18  N5  UNL     1      82.951  79.964 116.205  1.00  0.00    -0.063 N 
ATOM     19  H53 UNL     1      82.406  80.791 116.452  1.00  0.00     0.276 HD
ATOM     20  H52 UNL     1      83.297  80.282 115.301  1.00  0.00     0.276 HD
ATOM     21  H51 UNL     1      82.370  79.130 116.124  1.00  0.00     0.276 HD
ENDBRANCH  17  18
ENDBRANCH  13  17
BRANCH   1  22
HETATM   22  N1  UNL     1      87.429  81.886 114.451  1.00  0.00    -0.234 N 
ATOM     23  H12 UNL     1      86.785  81.709 113.680  1.00  0.00     0.174 HD
ATOM     24  H11 UNL     1      88.440  81.773 114.373  1.00  0.00     0.174 HD
ENDBRANCH   1  22
TORSDOF 3
ENDMDL
MODEL 2
REMARK VINA RESULT: -5.885067955      7.582      9.625
REMARK  3 active torsions:
REMARK  status: ('A' for Active; 'I' for Inactive)
REMARK    1  A    between atoms: N1_1  and  C1_4 
REMARK    2  A    between atoms: N4_16  and  C6_17 
REMARK    3  A    between atoms: C6_17  and  N5_18 
ROOT
HETATM    1  C1  UNL     1      84.463  90.735 114.288  1.00  0.00     0.680 A 
HETATM    2  N2  UNL     1      84.238  91.365 113.122  1.00  0.00    -0.155 N 
ATOM      3  H2  UNL     1      83.499  92.064 113.045  1.00  0.00     0.187 HD
HETATM    4  C2  UNL     1      85.001  91.061 112.057  1.00  0.00     0.279 A 
HETATM    5  O1  UNL     1      84.847  91.608 110.939  1.00  0.00    -0.266 OA
HETATM    6  C3  UNL     1      85.985  90.107 112.221  1.00  0.00     0.145 A 
HETATM    7  C4  UNL     1      86.807  89.761 111.150  1.00  0.00     0.269 A 
HETATM    8  O2  UNL     1      86.617  90.331 110.063  1.00  0.00    -0.267 OA
HETATM    9  N3  UNL     1      87.760  88.839 111.327  1.00  0.00    -0.274 N 
ATOM     10  H3  UNL     1      88.356  88.592 110.538  1.00  0.00     0.173 HD
HETATM   11  C5  UNL     1      87.962  88.225 112.505  1.00  0.00     0.332 A 
HETATM   12  O3  UNL     1      88.858  87.354 112.685  1.00  0.00    -0.246 OA
HETATM   13  N4  UNL     1      87.190  88.523 113.583  1.00  0.00    -0.259 N 
HETATM   14  C7  UNL     1      86.225  89.448 113.430  1.00  0.00     0.150 A 
HETATM   15  N6  UNL     1      85.425  89.801 114.454  1.00  0.00    -0.175 N 
ATOM     16  H6  UNL     1      85.547  89.359 115.365  1.00  0.00     0.186 HD
ENDROOT
BRANCH  13  17
HETATM   17  C6  UNL     1      87.407  87.865 114.848  1.00  0.00     0.365 C 
BRANCH  17  18
HETATM   18  N5  UNL     1      86.707  86.593 114.860  1.00  0.00    -0.063 N 
ATOM     19  H53 UNL     1      85.722  86.693 114.615  1.00  0.00     0.276 HD
ATOM     20  H52 UNL     1      86.990  85.991 114.087  1.00  0.00     0.276 HD
ATOM     21  H51 UNL     1      86.835  86.143 115.766  1.00  0.00     0.276 HD
ENDBRANCH  17  18
ENDBRANCH  13  17
BRANCH   1  22
HETATM   22  N1  UNL     1      83.740  91.007 115.340  1.00  0.00    -0.234 N 
ATOM     23  H12 UNL     1      82.733  90.886 115.236  1.00  0.00     0.174 HD
ATOM     24  H11 UNL     1      84.179  91.321 116.206  1.00  0.00     0.174 HD
ENDBRANCH   1  22
TORSDOF 3
ENDMDL
MODEL 3
REMARK VINA RESULT: -5.487956233      8.234      9.704
REMARK  3 active torsions:
REMARK  status: ('A' for Active; 'I' for Inactive)
REMARK    1  A    between atoms: N1_1  and  C1_4 
REMARK    2  A    between atoms: N4_16  and  C6_17 
REMARK    3  A    between atoms: C6_17  and  N5_18 
ROOT
HETATM    1  C1  UNL     1      87.904  88.296 112.270  1.00  0.00     0.680 A 
HETATM    2  N2  UNL     1      87.817  88.703 110.991  1.00  0.00    -0.155 N 
ATOM      3  H2  UNL     1      88.428  88.303 110.279  1.00  0.00     0.187 HD
HETATM    4  C2  UNL     1      86.914  89.644 110.664  1.00  0.00     0.279 A 
HETATM    5  O1  UNL     1      86.779  90.069 109.492  1.00  0.00    -0.266 OA
HETATM    6  C3  UNL     1      86.115  90.147 111.671  1.00  0.00     0.145 A 
HETATM    7  C4  UNL     1      85.159  91.119 111.381  1.00  0.00     0.269 A 
HETATM    8  O2  UNL     1      85.061  91.508 110.207  1.00  0.00    -0.267 OA
HETATM    9  N3  UNL     1      84.389  91.593 112.368  1.00  0.00    -0.274 N 
ATOM     10  H3  UNL     1      83.692  92.304 112.147  1.00  0.00     0.173 HD
HETATM   11  C5  UNL     1      84.498  91.169 113.638  1.00  0.00     0.332 A 
HETATM   12  O3  UNL     1      83.778  91.608 114.577  1.00  0.00    -0.246 OA
HETATM   13  N4  UNL     1      85.413  90.223 113.977  1.00  0.00    -0.259 N 
HETATM   14  C7  UNL     1      86.200  89.730 113.002  1.00  0.00     0.150 A 
HETATM   15  N6  UNL     1      87.125  88.786 113.259  1.00  0.00    -0.175 N 
ATOM     16  H6  UNL     1      87.238  88.437 114.210  1.00  0.00     0.186 HD
ENDROOT
BRANCH  13  17
HETATM   17  C6  UNL     1      85.530  89.766 115.340  1.00  0.00     0.365 C 
BRANCH  17  18
HETATM   18  N5  UNL     1      84.317  89.065 115.722  1.00  0.00    -0.063 N 
ATOM     19  H53 UNL     1      83.722  88.859 114.919  1.00  0.00     0.276 HD
ATOM     20  H52 UNL     1      84.502  88.107 116.016  1.00  0.00     0.276 HD
ATOM     21  H51 UNL     1      83.826  89.600 116.437  1.00  0.00     0.276 HD
ENDBRANCH  17  18
ENDBRANCH  13  17
BRANCH   1  22
HETATM   22  N1  UNL     1      88.770  87.385 112.620  1.00  0.00    -0.234 N 
ATOM     23  H12 UNL     1      88.384  86.531 113.022  1.00  0.00     0.174 HD
ATOM     24  H11 UNL     1      89.770  87.540 112.490  1.00  0.00     0.174 HD
ENDBRANCH   1  22
TORSDOF 3
ENDMDL
MODEL 4
REMARK VINA RESULT: -5.480390584      7.371      9.550
REMARK  3 active torsions:
REMARK  status: ('A' for Active; 'I' for Inactive)
REMARK    1  A    between atoms: N1_1  and  C1_4 
REMARK    2  A    between atoms: N4_16  and  C6_17 
REMARK    3  A    between atoms: C6_17  and  N5_18 
ROOT
HETATM    1  C1  UNL     1      84.260  90.750 115.089  1.00  0.00     0.680 A 
HETATM    2  N2  UNL     1      84.621  89.763 115.926  1.00  0.00    -0.155 N 
ATOM      3  H2  UNL     1      84.176  89.672 116.840  1.00  0.00     0.187 HD
HETATM    4  C2  UNL     1      85.575  88.896 115.544  1.00  0.00     0.279 A 
HETATM    5  O1  UNL     1      85.960  87.952 116.275  1.00  0.00    -0.266 OA
HETATM    6  C3  UNL     1      86.140  89.070 114.297  1.00  0.00     0.145 A 
HETATM    7  C4  UNL     1      87.129  88.194 113.852  1.00  0.00     0.269 A 
HETATM    8  O2  UNL     1      87.476  87.274 114.609  1.00  0.00    -0.267 OA
HETATM    9  N3  UNL     1      87.662  88.373 112.637  1.00  0.00    -0.274 N 
ATOM     10  H3  UNL     1      88.385  87.727 112.320  1.00  0.00     0.173 HD
HETATM   11  C5  UNL     1      87.283  89.370 111.820  1.00  0.00     0.332 A 
HETATM   12  O3  UNL     1      87.778  89.548 110.673  1.00  0.00    -0.246 OA
HETATM   13  N4  UNL     1      86.323  90.253 112.203  1.00  0.00    -0.259 N 
HETATM   14  C7  UNL     1      85.771  90.094 113.420  1.00  0.00     0.150 A 
HETATM   15  N6  UNL     1      84.810  90.924 113.867  1.00  0.00    -0.175 N 
ATOM     16  H6  UNL     1      84.494  91.693 113.276  1.00  0.00     0.186 HD
ENDROOT
BRANCH  13  17
HETATM   17  C6  UNL     1      85.915  91.322 111.326  1.00  0.00     0.365 C 
BRANCH  17  18
HETATM   18  N5  UNL     1      85.316  90.763 110.127  1.00  0.00    -0.063 N 
ATOM     19  H53 UNL     1      85.724  89.862 109.876  1.00  0.00     0.276 HD
ATOM     20  H52 UNL     1      84.358  90.451 110.284  1.00  0.00     0.276 HD
ATOM     21  H51 UNL     1      85.381  91.440 109.367  1.00  0.00     0.276 HD
ENDBRANCH  17  18
ENDBRANCH  13  17
BRANCH   1  22
HETATM   22  N1  UNL     1      83.337  91.608 115.429  1.00  0.00    -0.234 N 
ATOM     23  H12 UNL     1      83.662  92.449 115.905  1.00  0.00     0.174 HD
ATOM     24  H11 UNL     1      82.356  91.426 115.220  1.00  0.00     0.174 HD
ENDBRANCH   1  22
TORSDOF 3
ENDMDL
MODEL 5
REMARK VINA RESULT: -5.175201087      2.938      4.491
REMARK  3 active torsions:
REMARK  status: ('A' for Active; 'I' for Inactive)
REMARK    1  A    between atoms: N1_1  and  C1_4 
REMARK    2  A    between atoms: N4_16  and  C6_17 
REMARK    3  A    between atoms: C6_17  and  N5_18 
ROOT
HETATM    1  C1  UNL     1      86.562  85.933 114.946  1.00  0.00     0.680 A 
HETATM    2  N2  UNL     1      86.875  85.468 113.725  1.00  0.00    -0.155 N 
ATOM      3  H2  UNL     1      86.906  86.099 112.924  1.00  0.00     0.187 HD
HETATM    4  C2  UNL     1      87.148  84.160 113.572  1.00  0.00     0.279 A 
HETATM    5  O1  UNL     1      87.448  83.659 112.462  1.00  0.00    -0.266 OA
HETATM    6  C3  UNL     1      87.090  83.356 114.693  1.00  0.00     0.145 A 
HETATM    7  C4  UNL     1      87.370  81.994 114.588  1.00  0.00     0.269 A 
HETATM    8  O2  UNL     1      87.663  81.544 113.469  1.00  0.00    -0.267 OA
HETATM    9  N3  UNL     1      87.315  81.230 115.685  1.00  0.00    -0.274 N 
ATOM     10  H3  UNL     1      87.521  80.234 115.600  1.00  0.00     0.173 HD
HETATM   11  C5  UNL     1      86.998  81.721 116.894  1.00  0.00     0.332 A 
HETATM   12  O3  UNL     1      86.942  81.010 117.936  1.00  0.00    -0.246 OA
HETATM   13  N4  UNL     1      86.715  83.041 117.054  1.00  0.00    -0.259 N 
HETATM   14  C7  UNL     1      86.764  83.831 115.966  1.00  0.00     0.150 A 
HETATM   15  N6  UNL     1      86.503  85.150 116.046  1.00  0.00    -0.175 N 
ATOM     16  H6  UNL     1      86.260  85.562 116.947  1.00  0.00     0.186 HD
ENDROOT
BRANCH  13  17
HETATM   17  C6  UNL     1      86.376  83.569 118.352  1.00  0.00     0.365 C 
BRANCH  17  18
HETATM   18  N5  UNL     1      84.987  83.268 118.651  1.00  0.00    -0.063 N 
ATOM     19  H53 UNL     1      84.366  84.043 118.418  1.00  0.00     0.276 HD
ATOM     20  H52 UNL     1      84.598  82.573 118.014  1.00  0.00     0.276 HD
ATOM     21  H51 UNL     1      84.902  82.986 119.627  1.00  0.00     0.276 HD
ENDBRANCH  17  18
ENDBRANCH  13  17
BRANCH   1  22
HETATM   22  N1  UNL     1      86.292  87.197 115.128  1.00  0.00    -0.234 N 
ATOM     23  H12 UNL     1      85.909  87.693 114.324  1.00  0.00     0.174 HD
ATOM     24  H11 UNL     1      86.462  87.640 116.031  1.00  0.00     0.174 HD
ENDBRANCH   1  22
TORSDOF 3
ENDMDL
