MODEL 1
REMARK VINA RESULT: -5.979532794      0.000      0.000
REMARK  5 active torsions:
REMARK  status: ('A' for Active; 'I' for Inactive)
REMARK    1  A    between atoms: N1_1  and  C1_4 
REMARK    2  A    between atoms: N5_17  and  C6_18 
REMARK    3  A    between atoms: C6_18  and  C7_19 
REMARK    4  A    between atoms: C7_19  and  O3_20 
REMARK    5  A    between atoms: O3_20  and  N6_21 
ROOT
HETATM    1  C1  UNL     1      83.440  82.060 118.239  1.00  0.00     0.680 A 
HETATM    2  N2  UNL     1      84.317  83.074 118.357  1.00  0.00    -0.182 N 
ATOM      3  H2  UNL     1      84.124  83.965 118.813  1.00  0.00     0.184 HD
HETATM    4  C2  UNL     1      85.486  82.734 117.783  1.00  0.00     0.162 A 
HETATM    5  C3  UNL     1      86.700  83.360 117.611  1.00  0.00     0.280 A 
HETATM    6  O1  UNL     1      86.802  84.531 118.082  1.00  0.00    -0.265 OA
HETATM    7  N3  UNL     1      87.740  82.774 116.977  1.00  0.00    -0.273 N 
ATOM      8  H3  UNL     1      88.627  83.265 116.865  1.00  0.00     0.173 HD
HETATM    9  C4  UNL     1      87.576  81.528 116.496  1.00  0.00     0.328 A 
HETATM   10  O2  UNL     1      88.562  80.986 115.901  1.00  0.00    -0.247 OA
HETATM   11  N4  UNL     1      86.400  80.891 116.649  1.00  0.00    -0.292 N 
ATOM     12  H4  UNL     1      86.300  79.947 116.276  1.00  0.00     0.172 HD
HETATM   13  C5  UNL     1      85.348  81.457 117.280  1.00  0.00     0.160 A 
HETATM   14  N5  UNL     1      84.091  81.085 117.578  1.00  0.00    -0.164 N 
ENDROOT
BRANCH  14  15
HETATM   15  C6  UNL     1      83.519  79.806 117.231  1.00  0.00     0.178 C 
BRANCH  15  16
HETATM   16  C7  UNL     1      83.703  78.796 118.338  1.00  0.00     0.221 C 
BRANCH  16  17
HETATM   17  O3  UNL     1      82.779  78.991 119.365  1.00  0.00    -0.286 OA
BRANCH  17  18
HETATM   18  N6  UNL     1      82.101  77.882 119.666  1.00  0.00    -0.311 N 
ATOM     19  H62 UNL     1      81.981  77.113 119.007  1.00  0.00     0.184 HD
ATOM     20  H61 UNL     1      81.725  77.895 120.614  1.00  0.00     0.184 HD
ENDBRANCH  17  18
ENDBRANCH  16  17
ENDBRANCH  15  16
ENDBRANCH  14  15
BRANCH   1  21
HETATM   21  N1  UNL     1      82.204  82.031 118.678  1.00  0.00    -0.234 N 
ATOM     22  H12 UNL     1      81.595  82.829 118.857  1.00  0.00     0.174 HD
ATOM     23  H11 UNL     1      81.656  81.203 118.910  1.00  0.00     0.174 HD
ENDBRANCH   1  21
TORSDOF 5
ENDMDL
MODEL 2
REMARK VINA RESULT: -5.484591880      1.616      2.559
REMARK  5 active torsions:
REMARK  status: ('A' for Active; 'I' for Inactive)
REMARK    1  A    between atoms: N1_1  and  C1_4 
REMARK    2  A    between atoms: N5_17  and  C6_18 
REMARK    3  A    between atoms: C6_18  and  C7_19 
REMARK    4  A    between atoms: C7_19  and  O3_20 
REMARK    5  A    between atoms: O3_20  and  N6_21 
ROOT
HETATM    1  C1  UNL     1      83.993  80.528 116.779  1.00  0.00     0.680 A 
HETATM    2  N2  UNL     1      84.955  81.332 116.289  1.00  0.00    -0.182 N 
ATOM      3  H2  UNL     1      85.208  81.412 115.304  1.00  0.00     0.184 HD
HETATM    4  C2  UNL     1      85.532  82.016 117.294  1.00  0.00     0.162 A 
HETATM    5  C3  UNL     1      86.539  82.951 117.378  1.00  0.00     0.280 A 
HETATM    6  O1  UNL     1      87.088  83.287 116.288  1.00  0.00    -0.265 OA
HETATM    7  N3  UNL     1      86.936  83.494 118.551  1.00  0.00    -0.273 N 
ATOM      8  H3  UNL     1      87.686  84.185 118.580  1.00  0.00     0.173 HD
HETATM    9  C4  UNL     1      86.317  83.100 119.679  1.00  0.00     0.328 A 
HETATM   10  O2  UNL     1      86.698  83.618 120.778  1.00  0.00    -0.247 OA
HETATM   11  N4  UNL     1      85.329  82.188 119.629  1.00  0.00    -0.292 N 
ATOM     12  H4  UNL     1      84.875  81.905 120.497  1.00  0.00     0.172 HD
HETATM   13  C5  UNL     1      84.916  81.632 118.468  1.00  0.00     0.160 A 
HETATM   14  N5  UNL     1      83.989  80.728 118.110  1.00  0.00    -0.164 N 
ENDROOT
BRANCH  14  15
HETATM   15  C6  UNL     1      83.106  80.061 119.036  1.00  0.00     0.178 C 
BRANCH  15  16
HETATM   16  C7  UNL     1      83.371  78.576 119.087  1.00  0.00     0.221 C 
BRANCH  16  17
HETATM   17  O3  UNL     1      82.224  77.864 119.436  1.00  0.00    -0.286 OA
BRANCH  17  18
HETATM   18  N6  UNL     1      82.489  76.613 119.817  1.00  0.00    -0.311 N 
ATOM     19  H62 UNL     1      82.512  76.326 120.795  1.00  0.00     0.184 HD
ATOM     20  H61 UNL     1      82.664  75.990 119.028  1.00  0.00     0.184 HD
ENDBRANCH  17  18
ENDBRANCH  16  17
ENDBRANCH  15  16
ENDBRANCH  14  15
BRANCH   1  21
HETATM   21  N1  UNL     1      83.221  79.717 116.096  1.00  0.00    -0.234 N 
ATOM     22  H12 UNL     1      82.321  79.936 115.668  1.00  0.00     0.174 HD
ATOM     23  H11 UNL     1      83.399  78.735 115.886  1.00  0.00     0.174 HD
ENDBRANCH   1  21
TORSDOF 5
ENDMDL
MODEL 3
REMARK VINA RESULT: -5.366122220      7.768      9.910
REMARK  5 active torsions:
REMARK  status: ('A' for Active; 'I' for Inactive)
REMARK    1  A    between atoms: N1_1  and  C1_4 
REMARK    2  A    between atoms: N5_17  and  C6_18 
REMARK    3  A    between atoms: C6_18  and  C7_19 
REMARK    4  A    between atoms: C7_19  and  O3_20 
REMARK    5  A    between atoms: O3_20  and  N6_21 
ROOT
HETATM    1  C1  UNL     1      84.374  90.467 114.940  1.00  0.00     0.680 A 
HETATM    2  N2  UNL     1      84.811  89.400 115.633  1.00  0.00    -0.182 N 
ATOM      3  H2  UNL     1      84.393  89.046 116.493  1.00  0.00     0.184 HD
HETATM    4  C2  UNL     1      85.885  88.868 115.020  1.00  0.00     0.162 A 
HETATM    5  C3  UNL     1      86.716  87.800 115.272  1.00  0.00     0.280 A 
HETATM    6  O1  UNL     1      86.461  87.120 116.308  1.00  0.00    -0.265 OA
HETATM    7  N3  UNL     1      87.755  87.477 114.468  1.00  0.00    -0.273 N 
ATOM      8  H3  UNL     1      88.353  86.679 114.683  1.00  0.00     0.173 HD
HETATM    9  C4  UNL     1      87.980  88.235 113.379  1.00  0.00     0.328 A 
HETATM   10  O2  UNL     1      88.961  87.922 112.630  1.00  0.00    -0.247 OA
HETATM   11  N4  UNL     1      87.184  89.286 113.107  1.00  0.00    -0.292 N 
ATOM     12  H4  UNL     1      87.375  89.845 112.275  1.00  0.00     0.172 HD
HETATM   13  C5  UNL     1      86.141  89.626 113.895  1.00  0.00     0.160 A 
HETATM   14  N5  UNL     1      85.200  90.586 113.885  1.00  0.00    -0.164 N 
ENDROOT
BRANCH  14  15
HETATM   15  C6  UNL     1      85.095  91.608 112.872  1.00  0.00     0.178 C 
BRANCH  15  16
HETATM   16  C7  UNL     1      84.858  91.015 111.504  1.00  0.00     0.221 C 
BRANCH  16  17
HETATM   17  O3  UNL     1      85.996  91.107 110.704  1.00  0.00    -0.286 OA
BRANCH  17  18
HETATM   18  N6  UNL     1      86.076  90.124 109.806  1.00  0.00    -0.311 N 
ATOM     19  H62 UNL     1      86.035  90.290 108.800  1.00  0.00     0.184 HD
ATOM     20  H61 UNL     1      86.180  89.204 110.235  1.00  0.00     0.184 HD
ENDBRANCH  17  18
ENDBRANCH  16  17
ENDBRANCH  15  16
ENDBRANCH  14  15
BRANCH   1  21
HETATM   21  N1  UNL     1      83.351  91.233 115.236  1.00  0.00    -0.234 N 
ATOM     22  H12 UNL     1      83.366  92.234 115.429  1.00  0.00     0.174 HD
ATOM     23  H11 UNL     1      82.375  90.947 115.320  1.00  0.00     0.174 HD
ENDBRANCH   1  21
TORSDOF 5
ENDMDL
MODEL 4
REMARK VINA RESULT: -5.351483509      1.771      4.931
REMARK  5 active torsions:
REMARK  status: ('A' for Active; 'I' for Inactive)
REMARK    1  A    between atoms: N1_1  and  C1_4 
REMARK    2  A    between atoms: N5_17  and  C6_18 
REMARK    3  A    between atoms: C6_18  and  C7_19 
REMARK    4  A    between atoms: C7_19  and  O3_20 
REMARK    5  A    between atoms: O3_20  and  N6_21 
ROOT
HETATM    1  C1  UNL     1      86.207  83.577 117.446  1.00  0.00     0.680 A 
HETATM    2  N2  UNL     1      84.946  83.688 117.900  1.00  0.00    -0.182 N 
ATOM      3  H2  UNL     1      84.450  84.567 118.049  1.00  0.00     0.184 HD
HETATM    4  C2  UNL     1      84.435  82.464 118.130  1.00  0.00     0.162 A 
HETATM    5  C3  UNL     1      83.227  81.986 118.585  1.00  0.00     0.280 A 
HETATM    6  O1  UNL     1      82.351  82.853 118.871  1.00  0.00    -0.265 OA
HETATM    7  N3  UNL     1      82.970  80.666 118.727  1.00  0.00    -0.273 N 
ATOM      8  H3  UNL     1      82.064  80.344 119.068  1.00  0.00     0.173 HD
HETATM    9  C4  UNL     1      83.939  79.789 118.408  1.00  0.00     0.328 A 
HETATM   10  O2  UNL     1      83.686  78.549 118.545  1.00  0.00    -0.247 OA
HETATM   11  N4  UNL     1      85.131  80.226 117.960  1.00  0.00    -0.292 N 
ATOM     12  H4  UNL     1      85.849  79.541 117.725  1.00  0.00     0.172 HD
HETATM   13  C5  UNL     1      85.409  81.540 117.811  1.00  0.00     0.160 A 
HETATM   14  N5  UNL     1      86.468  82.258 117.400  1.00  0.00    -0.164 N 
ENDROOT
BRANCH  14  15
HETATM   15  C6  UNL     1      87.720  81.684 116.968  1.00  0.00     0.178 C 
BRANCH  15  16
HETATM   16  C7  UNL     1      87.681  81.298 115.509  1.00  0.00     0.221 C 
BRANCH  16  17
HETATM   17  O3  UNL     1      88.964  81.111 114.996  1.00  0.00    -0.286 OA
BRANCH  17  18
HETATM   18  N6  UNL     1      89.008  81.218 113.667  1.00  0.00    -0.311 N 
ATOM     19  H62 UNL     1      89.216  82.096 113.190  1.00  0.00     0.184 HD
ATOM     20  H61 UNL     1      88.814  80.336 113.194  1.00  0.00     0.184 HD
ENDBRANCH  17  18
ENDBRANCH  16  17
ENDBRANCH  15  16
ENDBRANCH  14  15
BRANCH   1  21
HETATM   21  N1  UNL     1      87.015  84.557 117.117  1.00  0.00    -0.234 N 
ATOM     22  H12 UNL     1      86.952  85.533 117.409  1.00  0.00     0.174 HD
ATOM     23  H11 UNL     1      87.836  84.498 116.516  1.00  0.00     0.174 HD
ENDBRANCH   1  21
TORSDOF 5
ENDMDL
MODEL 5
REMARK VINA RESULT: -5.013584947      2.041      2.268
REMARK  5 active torsions:
REMARK  status: ('A' for Active; 'I' for Inactive)
REMARK    1  A    between atoms: N1_1  and  C1_4 
REMARK    2  A    between atoms: N5_17  and  C6_18 
REMARK    3  A    between atoms: C6_18  and  C7_19 
REMARK    4  A    between atoms: C7_19  and  O3_20 
REMARK    5  A    between atoms: O3_20  and  N6_21 
ROOT
HETATM    1  C1  UNL     1      85.367  83.070 119.592  1.00  0.00     0.680 A 
HETATM    2  N2  UNL     1      85.818  84.137 118.908  1.00  0.00    -0.182 N 
ATOM      3  H2  UNL     1      85.868  85.089 119.271  1.00  0.00     0.184 HD
HETATM    4  C2  UNL     1      86.196  83.760 117.673  1.00  0.00     0.162 A 
HETATM    5  C3  UNL     1      86.718  84.409 116.577  1.00  0.00     0.280 A 
HETATM    6  O1  UNL     1      86.912  85.654 116.700  1.00  0.00    -0.265 OA
HETATM    7  N3  UNL     1      87.015  83.771 115.422  1.00  0.00    -0.273 N 
ATOM      8  H3  UNL     1      87.401  84.282 114.628  1.00  0.00     0.173 HD
HETATM    9  C4  UNL     1      86.788  82.447 115.348  1.00  0.00     0.328 A 
HETATM   10  O2  UNL     1      87.072  81.856 114.256  1.00  0.00    -0.247 OA
HETATM   11  N4  UNL     1      86.278  81.784 116.403  1.00  0.00    -0.292 N 
ATOM     12  H4  UNL     1      86.115  80.781 116.321  1.00  0.00     0.172 HD
HETATM   13  C5  UNL     1      85.974  82.402 117.566  1.00  0.00     0.160 A 
HETATM   14  N5  UNL     1      85.471  82.023 118.753  1.00  0.00    -0.164 N 
ENDROOT
BRANCH  14  15
HETATM   15  C6  UNL     1      85.093  80.669 119.080  1.00  0.00     0.178 C 
BRANCH  15  16
HETATM   16  C7  UNL     1      83.788  80.283 118.426  1.00  0.00     0.221 C 
BRANCH  16  17
HETATM   17  O3  UNL     1      83.999  79.611 117.223  1.00  0.00    -0.286 OA
BRANCH  17  18
HETATM   18  N6  UNL     1      83.250  80.089 116.227  1.00  0.00    -0.311 N 
ATOM     19  H62 UNL     1      82.232  80.138 116.277  1.00  0.00     0.184 HD
ATOM     20  H61 UNL     1      83.805  80.393 115.428  1.00  0.00     0.184 HD
ENDBRANCH  17  18
ENDBRANCH  16  17
ENDBRANCH  15  16
ENDBRANCH  14  15
BRANCH   1  21
HETATM   21  N1  UNL     1      84.916  83.056 120.824  1.00  0.00    -0.234 N 
ATOM     22  H12 UNL     1      85.281  82.515 121.608  1.00  0.00     0.174 HD
ATOM     23  H11 UNL     1      84.128  83.586 121.194  1.00  0.00     0.174 HD
ENDBRANCH   1  21
TORSDOF 5
ENDMDL
