MODEL 1
REMARK VINA RESULT: -7.605051680      0.000      0.000
REMARK  3 active torsions:
REMARK  status: ('A' for Active; 'I' for Inactive)
REMARK    1  A    between atoms: N1_1  and  C1_4 
REMARK    2  A    between atoms: N3_9  and  C3_10 
REMARK    3  A    between atoms: C3_10  and  C4_11 
ROOT
HETATM    1  C3  UNL     1      87.460  81.322 116.009  1.00  0.00     0.219 C 
ENDROOT
BRANCH   1   2
HETATM    2  N3  UNL     1      87.553  81.912 114.699  1.00  0.00    -0.222 N 
HETATM    3  C2  UNL     1      88.411  81.723 113.700  1.00  0.00     0.356 A 
HETATM    4  N2  UNL     1      88.114  82.540 112.645  1.00  0.00    -0.139 N 
HETATM    5  O1  UNL     1      89.391  80.902 113.676  1.00  0.00    -0.244 OA
HETATM    6  C1  UNL     1      87.048  83.236 113.027  1.00  0.00     0.694 A 
ATOM      7  H2  UNL     1      88.606  82.602 111.754  1.00  0.00     0.189 HD
HETATM    8  N7  UNL     1      86.701  82.867 114.261  1.00  0.00    -0.126 N 
ATOM      9  H7  UNL     1      85.917  83.247 114.791  1.00  0.00     0.206 HD
BRANCH   6  10
HETATM   10  N1  UNL     1      86.439  84.138 112.307  1.00  0.00    -0.233 N 
ATOM     11  H12 UNL     1      86.897  84.853 111.741  1.00  0.00     0.174 HD
ATOM     12  H11 UNL     1      85.427  84.238 112.220  1.00  0.00     0.174 HD
ENDBRANCH   6  10
ENDBRANCH   1   2
BRANCH   1  13
HETATM   13  C4  UNL     1      86.520  81.926 116.942  1.00  0.00     0.114 A 
HETATM   14  N4  UNL     1      86.935  83.070 117.573  1.00  0.00    -0.294 N 
HETATM   15  N5  UNL     1      86.135  83.659 118.445  1.00  0.00    -0.251 N 
ATOM     16  H4  UNL     1      87.855  83.463 117.370  1.00  0.00     0.187 HD
HETATM   17  C5  UNL     1      84.917  83.191 118.752  1.00  0.00     0.341 A 
ATOM     18  H5  UNL     1      86.460  84.509 118.905  1.00  0.00     0.191 HD
HETATM   19  O2  UNL     1      84.220  83.831 119.605  1.00  0.00    -0.245 OA
HETATM   20  N6  UNL     1      84.466  82.079 118.162  1.00  0.00    -0.273 N 
HETATM   21  C6  UNL     1      85.285  81.459 117.257  1.00  0.00     0.275 A 
ATOM     22  H6  UNL     1      83.542  81.705 118.379  1.00  0.00     0.173 HD
HETATM   23  O3  UNL     1      84.814  80.424 116.735  1.00  0.00    -0.266 OA
ENDBRANCH   1  13
TORSDOF 3
ENDMDL
MODEL 2
REMARK VINA RESULT: -7.337950303      1.340      1.753
REMARK  3 active torsions:
REMARK  status: ('A' for Active; 'I' for Inactive)
REMARK    1  A    between atoms: N1_1  and  C1_4 
REMARK    2  A    between atoms: N3_9  and  C3_10 
REMARK    3  A    between atoms: C3_10  and  C4_11 
ROOT
HETATM    1  C3  UNL     1      87.627  81.414 116.061  1.00  0.00     0.219 C 
ENDROOT
BRANCH   1   2
HETATM    2  N3  UNL     1      87.619  81.962 114.730  1.00  0.00    -0.222 N 
HETATM    3  C2  UNL     1      88.357  81.694 113.656  1.00  0.00     0.356 A 
HETATM    4  N2  UNL     1      88.002  82.498 112.610  1.00  0.00    -0.139 N 
HETATM    5  O1  UNL     1      89.281  80.814 113.562  1.00  0.00    -0.244 OA
HETATM    6  C1  UNL     1      87.022  83.268 113.074  1.00  0.00     0.694 A 
ATOM      7  H2  UNL     1      88.403  82.505 111.673  1.00  0.00     0.189 HD
HETATM    8  N7  UNL     1      86.783  82.955 114.348  1.00  0.00    -0.126 N 
ATOM      9  H7  UNL     1      86.080  83.395 114.942  1.00  0.00     0.206 HD
BRANCH   6  10
HETATM   10  N1  UNL     1      86.396  84.185 112.389  1.00  0.00    -0.233 N 
ATOM     11  H12 UNL     1      86.839  84.895 111.806  1.00  0.00     0.174 HD
ATOM     12  H11 UNL     1      85.383  84.304 112.352  1.00  0.00     0.174 HD
ENDBRANCH   6  10
ENDBRANCH   1   2
BRANCH   1  13
HETATM   13  C4  UNL     1      86.432  81.621 116.869  1.00  0.00     0.114 A 
HETATM   14  N4  UNL     1      85.389  80.761 116.646  1.00  0.00    -0.294 N 
HETATM   15  N5  UNL     1      84.269  80.905 117.335  1.00  0.00    -0.251 N 
ATOM     16  H4  UNL     1      85.475  80.017 115.954  1.00  0.00     0.187 HD
HETATM   17  C5  UNL     1      84.096  81.863 118.258  1.00  0.00     0.341 A 
ATOM     18  H5  UNL     1      83.502  80.257 117.156  1.00  0.00     0.191 HD
HETATM   19  O2  UNL     1      82.980  81.919 118.870  1.00  0.00    -0.245 OA
HETATM   20  N6  UNL     1      85.086  82.725 118.512  1.00  0.00    -0.273 N 
HETATM   21  C6  UNL     1      86.250  82.587 117.805  1.00  0.00     0.275 A 
ATOM     22  H6  UNL     1      84.977  83.460 119.210  1.00  0.00     0.173 HD
HETATM   23  O3  UNL     1      87.143  83.418 118.084  1.00  0.00    -0.266 OA
ENDBRANCH   1  13
TORSDOF 3
ENDMDL
MODEL 3
REMARK VINA RESULT: -7.001696586      5.496      7.437
REMARK  3 active torsions:
REMARK  status: ('A' for Active; 'I' for Inactive)
REMARK    1  A    between atoms: N1_1  and  C1_4 
REMARK    2  A    between atoms: N3_9  and  C3_10 
REMARK    3  A    between atoms: C3_10  and  C4_11 
ROOT
HETATM    1  C3  UNL     1      88.235  88.168 113.875  1.00  0.00     0.219 C 
ENDROOT
BRANCH   1   2
HETATM    2  N3  UNL     1      87.438  89.300 113.479  1.00  0.00    -0.222 N 
HETATM    3  C2  UNL     1      87.768  90.475 112.948  1.00  0.00     0.356 A 
HETATM    4  N2  UNL     1      86.660  91.252 112.764  1.00  0.00    -0.139 N 
HETATM    5  O1  UNL     1      88.943  90.870 112.632  1.00  0.00    -0.244 OA
HETATM    6  C1  UNL     1      85.639  90.519 113.197  1.00  0.00     0.694 A 
ATOM      7  H2  UNL     1      86.624  92.195 112.376  1.00  0.00     0.189 HD
HETATM    8  N7  UNL     1      86.095  89.343 113.630  1.00  0.00    -0.126 N 
ATOM      9  H7  UNL     1      85.520  88.593 114.014  1.00  0.00     0.206 HD
BRANCH   6  10
HETATM   10  N1  UNL     1      84.389  90.894 113.199  1.00  0.00    -0.233 N 
ATOM     11  H12 UNL     1      83.770  90.893 112.389  1.00  0.00     0.174 HD
ATOM     12  H11 UNL     1      83.877  91.233 114.013  1.00  0.00     0.174 HD
ENDBRANCH   6  10
ENDBRANCH   1   2
BRANCH   1  13
HETATM   13  C4  UNL     1      87.864  86.872 113.324  1.00  0.00     0.114 A 
HETATM   14  N4  UNL     1      88.306  86.597 112.057  1.00  0.00    -0.294 N 
HETATM   15  N5  UNL     1      87.990  85.444 111.494  1.00  0.00    -0.251 N 
ATOM     16  H4  UNL     1      88.876  87.277 111.553  1.00  0.00     0.187 HD
HETATM   17  C5  UNL     1      87.246  84.511 112.105  1.00  0.00     0.341 A 
ATOM     18  H5  UNL     1      88.327  85.256 110.550  1.00  0.00     0.191 HD
HETATM   19  O2  UNL     1      86.995  83.430 111.478  1.00  0.00    -0.245 OA
HETATM   20  N6  UNL     1      86.792  84.731 113.343  1.00  0.00    -0.273 N 
HETATM   21  C6  UNL     1      87.112  85.923 113.938  1.00  0.00     0.275 A 
ATOM     22  H6  UNL     1      86.225  84.035 113.828  1.00  0.00     0.173 HD
HETATM   23  O3  UNL     1      86.663  86.076 115.095  1.00  0.00    -0.266 OA
ENDBRANCH   1  13
TORSDOF 3
ENDMDL
MODEL 4
REMARK VINA RESULT: -6.881993000      1.674      5.372
REMARK  3 active torsions:
REMARK  status: ('A' for Active; 'I' for Inactive)
REMARK    1  A    between atoms: N1_1  and  C1_4 
REMARK    2  A    between atoms: N3_9  and  C3_10 
REMARK    3  A    between atoms: C3_10  and  C4_11 
ROOT
HETATM    1  C3  UNL     1      87.418  81.528 116.376  1.00  0.00     0.219 C 
ENDROOT
BRANCH   1   2
HETATM    2  N3  UNL     1      86.303  81.927 117.193  1.00  0.00    -0.222 N 
HETATM    3  C2  UNL     1      86.162  82.902 118.087  1.00  0.00     0.356 A 
HETATM    4  N2  UNL     1      84.913  82.879 118.639  1.00  0.00    -0.139 N 
HETATM    5  O1  UNL     1      87.042  83.771 118.418  1.00  0.00    -0.244 OA
HETATM    6  C1  UNL     1      84.290  81.859 118.056  1.00  0.00     0.694 A 
ATOM      7  H2  UNL     1      84.538  83.509 119.347  1.00  0.00     0.189 HD
HETATM    8  N7  UNL     1      85.116  81.279 117.185  1.00  0.00    -0.126 N 
ATOM      9  H7  UNL     1      84.888  80.472 116.603  1.00  0.00     0.206 HD
BRANCH   6  10
HETATM   10  N1  UNL     1      83.063  81.486 118.301  1.00  0.00    -0.233 N 
ATOM     11  H12 UNL     1      82.230  82.056 118.153  1.00  0.00     0.174 HD
ATOM     12  H11 UNL     1      82.786  80.576 118.670  1.00  0.00     0.174 HD
ENDBRANCH   6  10
ENDBRANCH   1   2
BRANCH   1  13
HETATM   13  C4  UNL     1      87.502  82.106 115.042  1.00  0.00     0.114 A 
HETATM   14  N4  UNL     1      86.788  83.256 114.829  1.00  0.00    -0.294 N 
HETATM   15  N5  UNL     1      86.808  83.823 113.635  1.00  0.00    -0.251 N 
ATOM     16  H4  UNL     1      86.245  83.672 115.587  1.00  0.00     0.187 HD
HETATM   17  C5  UNL     1      87.502  83.326 112.601  1.00  0.00     0.341 A 
ATOM     18  H5  UNL     1      86.271  84.678 113.494  1.00  0.00     0.191 HD
HETATM   19  O2  UNL     1      87.458  83.945 111.488  1.00  0.00    -0.245 OA
HETATM   20  N6  UNL     1      88.215  82.206 112.758  1.00  0.00    -0.273 N 
HETATM   21  C6  UNL     1      88.202  81.609 113.991  1.00  0.00     0.275 A 
ATOM     22  H6  UNL     1      88.751  81.810 111.986  1.00  0.00     0.173 HD
HETATM   23  O3  UNL     1      88.887  80.566 114.083  1.00  0.00    -0.266 OA
ENDBRANCH   1  13
TORSDOF 3
ENDMDL
MODEL 5
REMARK VINA RESULT: -6.871840536      1.801      2.229
REMARK  3 active torsions:
REMARK  status: ('A' for Active; 'I' for Inactive)
REMARK    1  A    between atoms: N1_1  and  C1_4 
REMARK    2  A    between atoms: N3_9  and  C3_10 
REMARK    3  A    between atoms: C3_10  and  C4_11 
ROOT
HETATM    1  C3  UNL     1      87.298  81.989 114.112  1.00  0.00     0.219 C 
ENDROOT
BRANCH   1   2
HETATM    2  N3  UNL     1      86.827  82.759 112.991  1.00  0.00    -0.222 N 
HETATM    3  C2  UNL     1      87.422  83.678 112.234  1.00  0.00     0.356 A 
HETATM    4  N2  UNL     1      86.560  84.161 111.291  1.00  0.00    -0.139 N 
HETATM    5  O1  UNL     1      88.631  84.086 112.332  1.00  0.00    -0.244 OA
HETATM    6  C1  UNL     1      85.418  83.511 111.491  1.00  0.00     0.694 A 
ATOM      7  H2  UNL     1      86.753  84.870 110.583  1.00  0.00     0.189 HD
HETATM    8  N7  UNL     1      85.566  82.665 112.511  1.00  0.00    -0.126 N 
ATOM      9  H7  UNL     1      84.842  82.045 112.873  1.00  0.00     0.206 HD
BRANCH   6  10
HETATM   10  N1  UNL     1      84.325  83.677 110.798  1.00  0.00    -0.233 N 
ATOM     11  H12 UNL     1      83.408  83.904 111.183  1.00  0.00     0.174 HD
ATOM     12  H11 UNL     1      84.253  83.600 109.783  1.00  0.00     0.174 HD
ENDBRANCH   6  10
ENDBRANCH   1   2
BRANCH   1  13
HETATM   13  C4  UNL     1      86.956  82.478 115.441  1.00  0.00     0.114 A 
HETATM   14  N4  UNL     1      86.869  83.837 115.588  1.00  0.00    -0.294 N 
HETATM   15  N5  UNL     1      86.578  84.347 116.773  1.00  0.00    -0.251 N 
ATOM     16  H4  UNL     1      87.026  84.452 114.788  1.00  0.00     0.187 HD
HETATM   17  C5  UNL     1      86.360  83.592 117.859  1.00  0.00     0.341 A 
ATOM     18  H5  UNL     1      86.518  85.361 116.864  1.00  0.00     0.191 HD
HETATM   19  O2  UNL     1      86.085  84.177 118.958  1.00  0.00    -0.245 OA
HETATM   20  N6  UNL     1      86.432  82.261 117.767  1.00  0.00    -0.273 N 
HETATM   21  C6  UNL     1      86.733  81.720 116.545  1.00  0.00     0.275 A 
ATOM     22  H6  UNL     1      86.268  81.666 118.580  1.00  0.00     0.173 HD
HETATM   23  O3  UNL     1      86.786  80.471 116.515  1.00  0.00    -0.266 OA
ENDBRANCH   1  13
TORSDOF 3
ENDMDL
