MODEL 1
REMARK VINA RESULT: -5.010717877      0.000      0.000
REMARK  3 active torsions:
REMARK  status: ('A' for Active; 'I' for Inactive)
REMARK    1  A    between atoms: C1_2  and  N1_3 
REMARK    2  A    between atoms: N1_3  and  N2_5 
REMARK    3  A    between atoms: C2_7  and  C3_8 
ROOT
HETATM    1  N2  UNL     1       9.378   4.168   5.029  1.00  0.00    -0.308 N 
ATOM      2  H2  UNL     1       8.513   3.631   5.097  1.00  0.00     0.186 HD
HETATM    3  C2  UNL     1      10.184   3.801   4.104  1.00  0.00     0.136 C 
ENDROOT
BRANCH   3   4
HETATM    4  C3  UNL     1      11.464   4.383   3.791  1.00  0.00     0.049 A 
HETATM    5  C4  UNL     1      11.833   5.263   2.815  1.00  0.00     0.032 A 
HETATM    6  C5  UNL     1      13.194   5.514   2.941  1.00  0.00     0.019 A 
HETATM    7  C6  UNL     1      13.631   4.782   3.991  1.00  0.00     0.088 A 
HETATM    8  N3  UNL     1      12.591   4.107   4.497  1.00  0.00    -0.365 N 
ATOM      9  H3  UNL     1      12.638   3.476   5.297  1.00  0.00     0.165 HD
ENDBRANCH   3   4
BRANCH   1  10
HETATM   10  N1  UNL     1       9.513   5.179   5.939  1.00  0.00    -0.278 N 
ATOM     11  H1  UNL     1      10.253   5.863   5.782  1.00  0.00     0.189 HD
BRANCH  10  12
HETATM   12  C1  UNL     1       8.690   5.342   7.093  1.00  0.00     0.368 C 
HETATM   13  O1  UNL     1       7.442   5.359   6.926  1.00  0.00    -0.282 OA
ENDBRANCH  10  12
ENDBRANCH   1  10
TORSDOF 3
ENDMDL
MODEL 2
REMARK VINA RESULT: -5.009972064      4.710      5.844
REMARK  3 active torsions:
REMARK  status: ('A' for Active; 'I' for Inactive)
REMARK    1  A    between atoms: C1_2  and  N1_3 
REMARK    2  A    between atoms: N1_3  and  N2_5 
REMARK    3  A    between atoms: C2_7  and  C3_8 
ROOT
HETATM    1  N2  UNL     1      14.541   5.829   2.623  1.00  0.00    -0.308 N 
ATOM      2  H2  UNL     1      14.606   6.847   2.581  1.00  0.00     0.186 HD
HETATM    3  C2  UNL     1      13.911   5.358   3.633  1.00  0.00     0.136 C 
ENDROOT
BRANCH   3   4
HETATM    4  C3  UNL     1      13.673   3.969   3.933  1.00  0.00     0.049 A 
HETATM    5  C4  UNL     1      12.570   3.187   3.744  1.00  0.00     0.032 A 
HETATM    6  C5  UNL     1      12.854   1.908   4.206  1.00  0.00     0.019 A 
HETATM    7  C6  UNL     1      14.124   1.932   4.670  1.00  0.00     0.088 A 
HETATM    8  N3  UNL     1      14.610   3.169   4.504  1.00  0.00    -0.365 N 
ATOM      9  H3  UNL     1      15.550   3.467   4.769  1.00  0.00     0.165 HD
ENDBRANCH   3   4
BRANCH   1  10
HETATM   10  N1  UNL     1      15.139   5.160   1.592  1.00  0.00    -0.278 N 
ATOM     11  H1  UNL     1      14.623   5.076   0.716  1.00  0.00     0.189 HD
BRANCH  10  12
HETATM   12  C1  UNL     1      16.437   4.571   1.657  1.00  0.00     0.368 C 
HETATM   13  O1  UNL     1      16.524   3.390   2.085  1.00  0.00    -0.282 OA
ENDBRANCH  10  12
ENDBRANCH   1  10
TORSDOF 3
ENDMDL
MODEL 3
REMARK VINA RESULT: -4.928725859      4.293      4.880
REMARK  3 active torsions:
REMARK  status: ('A' for Active; 'I' for Inactive)
REMARK    1  A    between atoms: C1_2  and  N1_3 
REMARK    2  A    between atoms: N1_3  and  N2_5 
REMARK    3  A    between atoms: C2_7  and  C3_8 
ROOT
HETATM    1  N2  UNL     1      13.264   2.152   4.780  1.00  0.00    -0.308 N 
ATOM      2  H2  UNL     1      12.799   1.333   5.173  1.00  0.00     0.186 HD
HETATM    3  C2  UNL     1      12.580   2.814   3.924  1.00  0.00     0.136 C 
ENDROOT
BRANCH   3   4
HETATM    4  C3  UNL     1      12.993   4.003   3.221  1.00  0.00     0.049 A 
HETATM    5  C4  UNL     1      12.638   5.311   3.387  1.00  0.00     0.032 A 
HETATM    6  C5  UNL     1      13.323   6.075   2.450  1.00  0.00     0.019 A 
HETATM    7  C6  UNL     1      14.082   5.219   1.728  1.00  0.00     0.088 A 
HETATM    8  N3  UNL     1      13.881   3.980   2.194  1.00  0.00    -0.365 N 
ATOM      9  H3  UNL     1      14.331   3.139   1.830  1.00  0.00     0.165 HD
ENDBRANCH   3   4
BRANCH   1  10
HETATM   10  N1  UNL     1      14.529   2.387   5.242  1.00  0.00    -0.278 N 
ATOM     11  H1  UNL     1      14.629   2.932   6.098  1.00  0.00     0.189 HD
BRANCH  10  12
HETATM   12  C1  UNL     1      15.719   1.923   4.606  1.00  0.00     0.368 C 
HETATM   13  O1  UNL     1      16.162   2.588   3.633  1.00  0.00    -0.282 OA
ENDBRANCH  10  12
ENDBRANCH   1  10
TORSDOF 3
ENDMDL
MODEL 4
REMARK VINA RESULT: -4.904672227      4.096      5.114
REMARK  3 active torsions:
REMARK  status: ('A' for Active; 'I' for Inactive)
REMARK    1  A    between atoms: C1_2  and  N1_3 
REMARK    2  A    between atoms: N1_3  and  N2_5 
REMARK    3  A    between atoms: C2_7  and  C3_8 
ROOT
HETATM    1  N2  UNL     1      15.238   5.133   1.778  1.00  0.00    -0.308 N 
ATOM      2  H2  UNL     1      15.721   5.531   0.972  1.00  0.00     0.186 HD
HETATM    3  C2  UNL     1      15.372   3.868   1.932  1.00  0.00     0.136 C 
ENDROOT
BRANCH   3   4
HETATM    4  C3  UNL     1      14.802   3.060   2.979  1.00  0.00     0.049 A 
HETATM    5  C4  UNL     1      15.357   2.539   4.112  1.00  0.00     0.032 A 
HETATM    6  C5  UNL     1      14.378   1.828   4.795  1.00  0.00     0.019 A 
HETATM    7  C6  UNL     1      13.243   1.926   4.065  1.00  0.00     0.088 A 
HETATM    8  N3  UNL     1      13.502   2.665   2.979  1.00  0.00    -0.365 N 
ATOM      9  H3  UNL     1      12.821   2.898   2.256  1.00  0.00     0.165 HD
ENDBRANCH   3   4
BRANCH   1  10
HETATM   10  N1  UNL     1      14.540   6.025   2.543  1.00  0.00    -0.278 N 
ATOM     11  H1  UNL     1      15.062   6.588   3.213  1.00  0.00     0.189 HD
BRANCH  10  12
HETATM   12  C1  UNL     1      13.128   6.220   2.468  1.00  0.00     0.368 C 
HETATM   13  O1  UNL     1      12.411   5.655   3.335  1.00  0.00    -0.282 OA
ENDBRANCH  10  12
ENDBRANCH   1  10
TORSDOF 3
ENDMDL
MODEL 5
REMARK VINA RESULT: -4.884002694      2.287      2.895
REMARK  3 active torsions:
REMARK  status: ('A' for Active; 'I' for Inactive)
REMARK    1  A    between atoms: C1_2  and  N1_3 
REMARK    2  A    between atoms: N1_3  and  N2_5 
REMARK    3  A    between atoms: C2_7  and  C3_8 
ROOT
HETATM    1  N2  UNL     1      11.345   4.548   3.448  1.00  0.00    -0.308 N 
ATOM      2  H2  UNL     1      10.959   5.360   2.966  1.00  0.00     0.186 HD
HETATM    3  C2  UNL     1      12.568   4.277   3.181  1.00  0.00     0.136 C 
ENDROOT
BRANCH   3   4
HETATM    4  C3  UNL     1      13.351   3.195   3.719  1.00  0.00     0.049 A 
HETATM    5  C4  UNL     1      13.367   1.863   3.417  1.00  0.00     0.032 A 
HETATM    6  C5  UNL     1      14.309   1.240   4.226  1.00  0.00     0.019 A 
HETATM    7  C6  UNL     1      14.850   2.202   5.009  1.00  0.00     0.088 A 
HETATM    8  N3  UNL     1      14.273   3.370   4.700  1.00  0.00    -0.365 N 
ATOM      9  H3  UNL     1      14.495   4.264   5.140  1.00  0.00     0.165 HD
ENDBRANCH   3   4
BRANCH   1  10
HETATM   10  N1  UNL     1      10.483   3.900   4.288  1.00  0.00    -0.278 N 
ATOM     11  H1  UNL     1      10.576   2.889   4.377  1.00  0.00     0.189 HD
BRANCH  10  12
HETATM   12  C1  UNL     1       9.462   4.543   5.049  1.00  0.00     0.368 C 
HETATM   13  O1  UNL     1       9.804   5.484   5.813  1.00  0.00    -0.282 OA
ENDBRANCH  10  12
ENDBRANCH   1  10
TORSDOF 3
ENDMDL
