MODEL 1
REMARK VINA RESULT: -4.600730507      0.000      0.000
REMARK  4 active torsions:
REMARK  status: ('A' for Active; 'I' for Inactive)
REMARK    1  A    between atoms: N1_3  and  C3_5 
REMARK    2  A    between atoms: N2_6  and  O1_8 
REMARK    3  A    between atoms: O1_8  and  C4_9 
REMARK    4  A    between atoms: C4_9  and  C5_10 
ROOT
HETATM    1  C1  UNL     1      11.973   4.905   3.283  1.00  0.00     0.037 C 
HETATM    2  C2  UNL     1      12.946   5.283   2.677  1.00  0.00    -0.000 C 
HETATM    3  N1  UNL     1      14.075   5.745   1.954  1.00  0.00    -0.311 N 
ATOM      4  H1  UNL     1      13.965   6.469   1.244  1.00  0.00     0.177 HD
ENDROOT
BRANCH   3   5
HETATM    5  C3  UNL     1      15.346   5.205   2.215  1.00  0.00     0.212 C 
HETATM    6  N2  UNL     1      15.547   3.963   2.008  1.00  0.00    -0.262 N 
ATOM      7  H2  UNL     1      14.772   3.400   1.656  1.00  0.00     0.195 HD
BRANCH   6   8
HETATM    8  O1  UNL     1      16.759   3.343   2.234  1.00  0.00    -0.277 OA
BRANCH   8   9
HETATM    9  C4  UNL     1      17.962   4.090   2.256  1.00  0.00     0.235 C 
BRANCH   9  10
HETATM   10  C5  UNL     1      18.977   3.264   3.018  1.00  0.00     0.237 A 
HETATM   11  C6  UNL     1      20.191   2.814   2.392  1.00  0.00     0.268 A 
HETATM   12  N3  UNL     1      20.218   3.981   3.325  1.00  0.00    -0.065 N 
ATOM     13  H32 UNL     1      20.537   4.949   3.282  1.00  0.00     0.277 HD
ATOM     14  H31 UNL     1      20.730   4.235   4.170  1.00  0.00     0.277 HD
ENDBRANCH   9  10
ENDBRANCH   8   9
ENDBRANCH   6   8
ENDBRANCH   3   5
TORSDOF 4
ENDMDL
MODEL 2
REMARK VINA RESULT: -4.588817474      2.855      4.251
REMARK  4 active torsions:
REMARK  status: ('A' for Active; 'I' for Inactive)
REMARK    1  A    between atoms: N1_3  and  C3_5 
REMARK    2  A    between atoms: N2_6  and  O1_8 
REMARK    3  A    between atoms: O1_8  and  C4_9 
REMARK    4  A    between atoms: C4_9  and  C5_10 
ROOT
HETATM    1  C1  UNL     1      12.806   5.986   2.703  1.00  0.00     0.037 C 
HETATM    2  C2  UNL     1      13.878   5.692   2.234  1.00  0.00    -0.000 C 
HETATM    3  N1  UNL     1      15.139   5.369   1.672  1.00  0.00    -0.311 N 
ATOM      4  H1  UNL     1      15.565   5.989   0.984  1.00  0.00     0.177 HD
ENDROOT
BRANCH   3   5
HETATM    5  C3  UNL     1      15.803   4.192   2.064  1.00  0.00     0.212 C 
HETATM    6  N2  UNL     1      15.314   3.490   3.008  1.00  0.00    -0.262 N 
ATOM      7  H2  UNL     1      14.452   3.808   3.451  1.00  0.00     0.195 HD
BRANCH   6   8
HETATM    8  O1  UNL     1      15.893   2.322   3.462  1.00  0.00    -0.277 OA
BRANCH   8   9
HETATM    9  C4  UNL     1      15.365   1.643   4.588  1.00  0.00     0.235 C 
BRANCH   9  10
HETATM   10  C5  UNL     1      13.908   2.036   4.694  1.00  0.00     0.237 A 
HETATM   11  C6  UNL     1      12.886   1.309   3.988  1.00  0.00     0.268 A 
HETATM   12  N3  UNL     1      13.088   1.087   5.452  1.00  0.00    -0.065 N 
ATOM     13  H32 UNL     1      13.264   0.283   6.056  1.00  0.00     0.277 HD
ATOM     14  H31 UNL     1      12.505   1.123   6.288  1.00  0.00     0.277 HD
ENDBRANCH   9  10
ENDBRANCH   8   9
ENDBRANCH   6   8
ENDBRANCH   3   5
TORSDOF 4
ENDMDL
MODEL 3
REMARK VINA RESULT: -4.559241298      3.693      4.435
REMARK  4 active torsions:
REMARK  status: ('A' for Active; 'I' for Inactive)
REMARK    1  A    between atoms: N1_3  and  C3_5 
REMARK    2  A    between atoms: N2_6  and  O1_8 
REMARK    3  A    between atoms: O1_8  and  C4_9 
REMARK    4  A    between atoms: C4_9  and  C5_10 
ROOT
HETATM    1  C1  UNL     1      14.863   5.098   1.408  1.00  0.00     0.037 C 
HETATM    2  C2  UNL     1      13.911   5.330   2.113  1.00  0.00    -0.000 C 
HETATM    3  N1  UNL     1      12.790   5.624   2.930  1.00  0.00    -0.311 N 
ATOM      4  H1  UNL     1      12.346   6.540   2.876  1.00  0.00     0.177 HD
ENDROOT
BRANCH   3   5
HETATM    5  C3  UNL     1      12.290   4.652   3.814  1.00  0.00     0.212 C 
HETATM    6  N2  UNL     1      12.572   3.426   3.611  1.00  0.00    -0.262 N 
ATOM      7  H2  UNL     1      13.156   3.190   2.808  1.00  0.00     0.195 HD
BRANCH   6   8
HETATM    8  O1  UNL     1      12.128   2.401   4.422  1.00  0.00    -0.277 OA
BRANCH   8   9
HETATM    9  C4  UNL     1      12.976   1.314   4.746  1.00  0.00     0.235 C 
BRANCH   9  10
HETATM   10  C5  UNL     1      14.264   1.520   3.978  1.00  0.00     0.237 A 
HETATM   11  C6  UNL     1      15.450   2.007   4.630  1.00  0.00     0.268 A 
HETATM   12  N3  UNL     1      15.315   0.554   4.310  1.00  0.00    -0.065 N 
ATOM     13  H32 UNL     1      15.371  -0.321   4.830  1.00  0.00     0.277 HD
ATOM     14  H31 UNL     1      15.863  -0.140   3.800  1.00  0.00     0.277 HD
ENDBRANCH   9  10
ENDBRANCH   8   9
ENDBRANCH   6   8
ENDBRANCH   3   5
TORSDOF 4
ENDMDL
MODEL 4
REMARK VINA RESULT: -4.531529874      2.869      6.596
REMARK  4 active torsions:
REMARK  status: ('A' for Active; 'I' for Inactive)
REMARK    1  A    between atoms: N1_3  and  C3_5 
REMARK    2  A    between atoms: N2_6  and  O1_8 
REMARK    3  A    between atoms: O1_8  and  C4_9 
REMARK    4  A    between atoms: C4_9  and  C5_10 
ROOT
HETATM    1  C1  UNL     1      17.317   4.170   2.135  1.00  0.00     0.037 C 
HETATM    2  C2  UNL     1      16.305   4.696   1.741  1.00  0.00    -0.000 C 
HETATM    3  N1  UNL     1      15.129   5.323   1.258  1.00  0.00    -0.311 N 
ATOM      4  H1  UNL     1      15.182   5.975   0.475  1.00  0.00     0.177 HD
ENDROOT
BRANCH   3   5
HETATM    5  C3  UNL     1      13.888   5.047   1.858  1.00  0.00     0.212 C 
HETATM    6  N2  UNL     1      13.329   5.945   2.568  1.00  0.00    -0.262 N 
ATOM      7  H2  UNL     1      13.805   6.841   2.678  1.00  0.00     0.195 HD
BRANCH   6   8
HETATM    8  O1  UNL     1      12.113   5.768   3.197  1.00  0.00    -0.277 OA
BRANCH   8   9
HETATM    9  C4  UNL     1      11.775   4.524   3.784  1.00  0.00     0.235 C 
BRANCH   9  10
HETATM   10  C5  UNL     1      10.264   4.451   3.818  1.00  0.00     0.237 A 
HETATM   11  C6  UNL     1       9.585   3.356   4.458  1.00  0.00     0.268 A 
HETATM   12  N3  UNL     1       9.686   4.679   5.145  1.00  0.00    -0.065 N 
ATOM     13  H32 UNL     1      10.026   5.015   6.046  1.00  0.00     0.277 HD
ATOM     14  H31 UNL     1       9.033   5.345   5.557  1.00  0.00     0.277 HD
ENDBRANCH   9  10
ENDBRANCH   8   9
ENDBRANCH   6   8
ENDBRANCH   3   5
TORSDOF 4
ENDMDL
MODEL 5
REMARK VINA RESULT: -4.471123129      1.580      1.806
REMARK  4 active torsions:
REMARK  status: ('A' for Active; 'I' for Inactive)
REMARK    1  A    between atoms: N1_3  and  C3_5 
REMARK    2  A    between atoms: N2_6  and  O1_8 
REMARK    3  A    between atoms: O1_8  and  C4_9 
REMARK    4  A    between atoms: C4_9  and  C5_10 
ROOT
HETATM    1  C1  UNL     1      13.077   5.628   2.890  1.00  0.00     0.037 C 
HETATM    2  C2  UNL     1      14.094   5.451   2.265  1.00  0.00    -0.000 C 
HETATM    3  N1  UNL     1      15.286   5.265   1.519  1.00  0.00    -0.311 N 
ATOM      4  H1  UNL     1      15.533   5.923   0.780  1.00  0.00     0.177 HD
ENDROOT
BRANCH   3   5
HETATM    5  C3  UNL     1      16.128   4.174   1.799  1.00  0.00     0.212 C 
HETATM    6  N2  UNL     1      17.371   4.382   1.985  1.00  0.00    -0.262 N 
ATOM      7  H2  UNL     1      17.715   5.341   1.923  1.00  0.00     0.195 HD
BRANCH   6   8
HETATM    8  O1  UNL     1      18.275   3.377   2.264  1.00  0.00    -0.277 OA
BRANCH   8   9
HETATM    9  C4  UNL     1      19.639   3.675   2.501  1.00  0.00     0.235 C 
BRANCH   9  10
HETATM   10  C5  UNL     1      20.446   2.815   1.552  1.00  0.00     0.237 A 
HETATM   11  C6  UNL     1      20.861   3.311   0.267  1.00  0.00     0.268 A 
HETATM   12  N3  UNL     1      21.838   3.246   1.396  1.00  0.00    -0.065 N 
ATOM     13  H32 UNL     1      22.461   3.902   1.867  1.00  0.00     0.277 HD
ATOM     14  H31 UNL     1      22.757   2.831   1.549  1.00  0.00     0.277 HD
ENDBRANCH   9  10
ENDBRANCH   8   9
ENDBRANCH   6   8
ENDBRANCH   3   5
TORSDOF 4
ENDMDL
