MODEL 1
REMARK VINA RESULT: -5.397485240      0.000      0.000
REMARK  4 active torsions:
REMARK  status: ('A' for Active; 'I' for Inactive)
REMARK    1  A    between atoms: C2_2  and  C3_3 
REMARK    2  A    between atoms: C3_3  and  N1_4 
REMARK    3  A    between atoms: N1_4  and  C4_6 
REMARK    4  A    between atoms: C5_13  and  O1_14 
ROOT
HETATM    1  C4  UNL     1      14.399   4.619   2.960  1.00  0.00     0.171 A 
HETATM    2  N2  UNL     1      14.604   5.687   2.171  1.00  0.00    -0.268 N 
ATOM      3  H2  UNL     1      14.122   6.584   2.215  1.00  0.00     0.190 HD
HETATM    4  N3  UNL     1      15.557   5.338   1.327  1.00  0.00    -0.239 N 
ATOM      5  H3  UNL     1      15.933   5.943   0.597  1.00  0.00     0.208 HD
HETATM    6  N4  UNL     1      15.954   4.104   1.553  1.00  0.00    -0.262 N 
ATOM      7  H4  UNL     1      16.678   3.609   1.034  1.00  0.00     0.190 HD
HETATM    8  C5  UNL     1      15.249   3.603   2.582  1.00  0.00     0.204 A 
ENDROOT
BRANCH   1   9
HETATM    9  N1  UNL     1      13.557   4.522   3.920  1.00  0.00    -0.368 N 
ATOM     10  H1  UNL     1      13.720   5.074   4.762  1.00  0.00     0.161 HD
BRANCH   9  11
HETATM   11  C3  UNL     1      12.391   3.674   3.876  1.00  0.00     0.148 C 
BRANCH  11  12
HETATM   12  C2  UNL     1      11.204   4.509   3.554  1.00  0.00    -0.018 C 
HETATM   13  C1  UNL     1      10.050   4.199   4.105  1.00  0.00     0.008 C 
ENDBRANCH  11  12
ENDBRANCH   9  11
ENDBRANCH   1   9
BRANCH   8  14
HETATM   14  O1  UNL     1      15.337   2.341   3.158  1.00  0.00    -0.337 OA
HETATM   15  C6  UNL     1      15.778   2.109   4.460  1.00  0.00     0.212 C 
ENDBRANCH   8  14
TORSDOF 4
ENDMDL
MODEL 2
REMARK VINA RESULT: -5.124277222      1.747      2.588
REMARK  4 active torsions:
REMARK  status: ('A' for Active; 'I' for Inactive)
REMARK    1  A    between atoms: C2_2  and  C3_3 
REMARK    2  A    between atoms: C3_3  and  N1_4 
REMARK    3  A    between atoms: N1_4  and  C4_6 
REMARK    4  A    between atoms: C5_13  and  O1_14 
ROOT
HETATM    1  C4  UNL     1      14.650   4.357   2.928  1.00  0.00     0.171 A 
HETATM    2  N2  UNL     1      13.818   5.291   2.436  1.00  0.00    -0.268 N 
ATOM      3  H2  UNL     1      12.897   5.543   2.795  1.00  0.00     0.190 HD
HETATM    4  N3  UNL     1      14.434   5.815   1.394  1.00  0.00    -0.239 N 
ATOM      5  H3  UNL     1      14.051   6.555   0.807  1.00  0.00     0.208 HD
HETATM    6  N4  UNL     1      15.610   5.252   1.214  1.00  0.00    -0.262 N 
ATOM      7  H4  UNL     1      16.273   5.486   0.475  1.00  0.00     0.190 HD
HETATM    8  C5  UNL     1      15.795   4.319   2.163  1.00  0.00     0.204 A 
ENDROOT
BRANCH   1   9
HETATM    9  N1  UNL     1      14.446   3.603   3.942  1.00  0.00    -0.368 N 
ATOM     10  H1  UNL     1      15.167   3.560   4.663  1.00  0.00     0.161 HD
BRANCH   9  11
HETATM   11  C3  UNL     1      13.255   2.811   4.122  1.00  0.00     0.148 C 
BRANCH  11  12
HETATM   12  C2  UNL     1      13.549   1.407   3.733  1.00  0.00    -0.018 C 
HETATM   13  C1  UNL     1      14.607   0.819   4.252  1.00  0.00     0.008 C 
ENDBRANCH  11  12
ENDBRANCH   9  11
ENDBRANCH   1   9
BRANCH   8  14
HETATM   14  O1  UNL     1      16.889   3.484   2.356  1.00  0.00    -0.337 OA
HETATM   15  C6  UNL     1      18.214   3.918   2.331  1.00  0.00     0.212 C 
ENDBRANCH   8  14
TORSDOF 4
ENDMDL
MODEL 3
REMARK VINA RESULT: -5.079034614      2.023      3.355
REMARK  4 active torsions:
REMARK  status: ('A' for Active; 'I' for Inactive)
REMARK    1  A    between atoms: C2_2  and  C3_3 
REMARK    2  A    between atoms: C3_3  and  N1_4 
REMARK    3  A    between atoms: N1_4  and  C4_6 
REMARK    4  A    between atoms: C5_13  and  O1_14 
ROOT
HETATM    1  C4  UNL     1      14.003   4.474   3.662  1.00  0.00     0.171 A 
HETATM    2  N2  UNL     1      14.787   5.119   2.783  1.00  0.00    -0.268 N 
ATOM      3  H2  UNL     1      15.764   4.918   2.570  1.00  0.00     0.190 HD
HETATM    4  N3  UNL     1      14.037   6.065   2.252  1.00  0.00    -0.239 N 
ATOM      5  H3  UNL     1      14.355   6.727   1.545  1.00  0.00     0.208 HD
HETATM    6  N4  UNL     1      12.822   6.039   2.758  1.00  0.00    -0.262 N 
ATOM      7  H4  UNL     1      12.061   6.670   2.508  1.00  0.00     0.190 HD
HETATM    8  C5  UNL     1      12.749   5.046   3.660  1.00  0.00     0.204 A 
ENDROOT
BRANCH   1   9
HETATM    9  N1  UNL     1      14.330   3.483   4.403  1.00  0.00    -0.368 N 
ATOM     10  H1  UNL     1      14.321   3.614   5.415  1.00  0.00     0.161 HD
BRANCH   9  11
HETATM   11  C3  UNL     1      14.712   2.191   3.887  1.00  0.00     0.148 C 
BRANCH  11  12
HETATM   12  C2  UNL     1      13.484   1.384   3.661  1.00  0.00    -0.018 C 
HETATM   13  C1  UNL     1      12.669   1.182   4.675  1.00  0.00     0.008 C 
ENDBRANCH  11  12
ENDBRANCH   9  11
ENDBRANCH   1   9
BRANCH   8  14
HETATM   14  O1  UNL     1      11.662   4.657   4.434  1.00  0.00    -0.337 OA
HETATM   15  C6  UNL     1      10.454   4.200   3.908  1.00  0.00     0.212 C 
ENDBRANCH   8  14
TORSDOF 4
ENDMDL
MODEL 4
REMARK VINA RESULT: -5.041822461      1.966      3.763
REMARK  4 active torsions:
REMARK  status: ('A' for Active; 'I' for Inactive)
REMARK    1  A    between atoms: C2_2  and  C3_3 
REMARK    2  A    between atoms: C3_3  and  N1_4 
REMARK    3  A    between atoms: N1_4  and  C4_6 
REMARK    4  A    between atoms: C5_13  and  O1_14 
ROOT
HETATM    1  C4  UNL     1      13.742   4.582   3.673  1.00  0.00     0.171 A 
HETATM    2  N2  UNL     1      14.698   5.052   2.855  1.00  0.00    -0.268 N 
ATOM      3  H2  UNL     1      15.653   4.705   2.765  1.00  0.00     0.190 HD
HETATM    4  N3  UNL     1      14.151   6.054   2.194  1.00  0.00    -0.239 N 
ATOM      5  H3  UNL     1      14.632   6.616   1.493  1.00  0.00     0.208 HD
HETATM    6  N4  UNL     1      12.899   6.229   2.561  1.00  0.00    -0.262 N 
ATOM      7  H4  UNL     1      12.267   6.939   2.193  1.00  0.00     0.190 HD
HETATM    8  C5  UNL     1      12.590   5.318   3.499  1.00  0.00     0.204 A 
ENDROOT
BRANCH   1   9
HETATM    9  N1  UNL     1      13.845   3.608   4.498  1.00  0.00    -0.368 N 
ATOM     10  H1  UNL     1      14.204   3.804   5.433  1.00  0.00     0.161 HD
BRANCH   9  11
HETATM   11  C3  UNL     1      13.481   2.249   4.179  1.00  0.00     0.148 C 
BRANCH  11  12
HETATM   12  C2  UNL     1      14.692   1.393   4.277  1.00  0.00    -0.018 C 
HETATM   13  C1  UNL     1      15.833   1.955   4.618  1.00  0.00     0.008 C 
ENDBRANCH  11  12
ENDBRANCH   9  11
ENDBRANCH   1   9
BRANCH   8  14
HETATM   14  O1  UNL     1      11.384   5.135   4.165  1.00  0.00    -0.337 OA
HETATM   15  C6  UNL     1      10.357   4.312   3.705  1.00  0.00     0.212 C 
ENDBRANCH   8  14
TORSDOF 4
ENDMDL
MODEL 5
REMARK VINA RESULT: -5.025645343      2.245      3.034
REMARK  4 active torsions:
REMARK  status: ('A' for Active; 'I' for Inactive)
REMARK    1  A    between atoms: C2_2  and  C3_3 
REMARK    2  A    between atoms: C3_3  and  N1_4 
REMARK    3  A    between atoms: N1_4  and  C4_6 
REMARK    4  A    between atoms: C5_13  and  O1_14 
ROOT
HETATM    1  C4  UNL     1      14.152   2.658   3.921  1.00  0.00     0.171 A 
HETATM    2  N2  UNL     1      14.317   2.106   5.134  1.00  0.00    -0.268 N 
ATOM      3  H2  UNL     1      13.593   1.923   5.829  1.00  0.00     0.190 HD
HETATM    4  N3  UNL     1      15.606   1.849   5.244  1.00  0.00    -0.239 N 
ATOM      5  H3  UNL     1      16.044   1.425   6.062  1.00  0.00     0.208 HD
HETATM    6  N4  UNL     1      16.251   2.214   4.157  1.00  0.00    -0.262 N 
ATOM      7  H4  UNL     1      17.254   2.118   4.001  1.00  0.00     0.190 HD
HETATM    8  C5  UNL     1      15.372   2.735   3.284  1.00  0.00     0.204 A 
ENDROOT
BRANCH   1   9
HETATM    9  N1  UNL     1      13.053   3.062   3.402  1.00  0.00    -0.368 N 
ATOM     10  H1  UNL     1      12.681   2.552   2.601  1.00  0.00     0.161 HD
BRANCH   9  11
HETATM   11  C3  UNL     1      12.312   4.200   3.889  1.00  0.00     0.148 C 
BRANCH  11  12
HETATM   12  C2  UNL     1      12.193   5.198   2.794  1.00  0.00    -0.018 C 
HETATM   13  C1  UNL     1      13.207   6.007   2.567  1.00  0.00     0.008 C 
ENDBRANCH  11  12
ENDBRANCH   9  11
ENDBRANCH   1   9
BRANCH   8  14
HETATM   14  O1  UNL     1      15.610   3.245   2.014  1.00  0.00    -0.337 OA
HETATM   15  C6  UNL     1      16.427   4.345   1.757  1.00  0.00     0.212 C 
ENDBRANCH   8  14
TORSDOF 4
ENDMDL
