MODEL 1
REMARK VINA RESULT: -7.871403653      0.000      0.000
REMARK  14 active torsions:
REMARK  status: ('A' for Active; 'I' for Inactive)
REMARK    1  A    between atoms: O1_2  and  C2_3 
REMARK    2  A    between atoms: C2_3  and  C3_4 
REMARK    3  A    between atoms: C5_7  and  C6_8 
REMARK    4  A    between atoms: C7_9  and  C8_10 
REMARK    5  A    between atoms: C9_11  and  C10_12 
REMARK    6  A    between atoms: C11_13  and  C12_14 
REMARK    7  A    between atoms: C13_15  and  C14_16 
REMARK    8  A    between atoms: C15_17  and  C16_18 
REMARK    9  A    between atoms: C17_20  and  O4_21 
REMARK   10  A    between atoms: C18_23  and  O5_24 
REMARK   11  A    between atoms: C19_26  and  O6_27 
REMARK   12  A    between atoms: C20_29  and  O7_30 
REMARK   13  A    between atoms: C21_32  and  O8_33 
REMARK   14  A    between atoms: C22_35  and  O9_36 
ROOT
HETATM    1  C10 UNL     1      40.913  44.767   9.406  1.00  0.00     0.000 C 
HETATM    2  C11 UNL     1      41.000  46.041   9.705  1.00  0.00     0.000 C 
ENDROOT
BRANCH   2   3
HETATM    3  C12 UNL     1      40.077  47.010   9.187  1.00  0.00     0.000 C 
HETATM    4  C13 UNL     1      40.080  48.269   9.529  1.00  0.00    -0.000 C 
BRANCH   4   5
HETATM    5  C14 UNL     1      41.039  48.793  10.483  1.00  0.00    -0.001 C 
HETATM    6  C15 UNL     1      41.349  50.070  10.519  1.00  0.00     0.008 C 
BRANCH   6   7
HETATM    7  C16 UNL     1      40.729  51.023   9.588  1.00  0.00     0.179 C 
HETATM    8  O3  UNL     1      41.710  51.747   8.892  1.00  0.00    -0.347 OA
HETATM    9  C17 UNL     1      41.135  52.660   8.025  1.00  0.00     0.289 C 
HETATM   10  C18 UNL     1      40.646  53.819   8.857  1.00  0.00     0.204 C 
HETATM   11  C19 UNL     1      40.132  53.387  10.201  1.00  0.00     0.183 C 
HETATM   12  C20 UNL     1      39.736  51.935  10.250  1.00  0.00     0.182 C 
BRANCH   9  13
HETATM   13  O4  UNL     1      41.981  53.091   7.036  1.00  0.00    -0.368 OA
ATOM     14  H4  UNL     1      41.536  53.358   6.240  1.00  0.00     0.212 HD
ENDBRANCH   9  13
BRANCH  10  15
HETATM   15  O5  UNL     1      41.771  54.640   9.093  1.00  0.00    -0.388 OA
ATOM     16  H5  UNL     1      41.431  55.489   9.352  1.00  0.00     0.210 HD
ENDBRANCH  10  15
BRANCH  11  17
HETATM   17  O6  UNL     1      40.991  53.722  11.248  1.00  0.00    -0.390 OA
ATOM     18  H6  UNL     1      40.724  53.354  12.081  1.00  0.00     0.210 HD
ENDBRANCH  11  17
BRANCH  12  19
HETATM   19  O7  UNL     1      39.606  51.612  11.610  1.00  0.00    -0.390 OA
ATOM     20  H7  UNL     1      38.796  51.141  11.762  1.00  0.00     0.210 HD
ENDBRANCH  12  19
ENDBRANCH   6   7
ENDBRANCH   4   5
ENDBRANCH   2   3
BRANCH   1  21
HETATM   21  C9  UNL     1      39.912  44.209   8.548  1.00  0.00     0.000 C 
HETATM   22  C8  UNL     1      39.384  43.007   8.746  1.00  0.00    -0.000 C 
BRANCH  22  23
HETATM   23  C7  UNL     1      39.758  42.159   9.825  1.00  0.00    -0.003 C 
HETATM   24  C6  UNL     1      39.491  40.878   9.874  1.00  0.00    -0.017 C 
BRANCH  24  25
HETATM   25  C5  UNL     1      38.764  40.156   8.812  1.00  0.00     0.063 C 
HETATM   26  C4  UNL     1      37.314  40.062   9.261  1.00  0.00     0.179 C 
HETATM   27  O2  UNL     1      37.202  39.000  10.124  1.00  0.00    -0.380 OA
HETATM   28  C3  UNL     1      37.172  37.844   9.397  1.00  0.00     0.176 C 
HETATM   29  C22 UNL     1      38.371  37.687   8.485  1.00  0.00     0.181 C 
HETATM   30  C21 UNL     1      39.390  38.780   8.706  1.00  0.00     0.159 C 
BRANCH  28  31
HETATM   31  C2  UNL     1      36.984  36.653  10.293  1.00  0.00     0.201 C 
BRANCH  31  32
HETATM   32  O1  UNL     1      35.886  36.626  11.081  1.00  0.00    -0.393 OA
HETATM   33  C1  UNL     1      35.888  35.833  12.181  1.00  0.00     0.201 C 
ENDBRANCH  31  32
ENDBRANCH  28  31
BRANCH  29  34
HETATM   34  O9  UNL     1      38.988  36.478   8.829  1.00  0.00    -0.385 OA
HETATM   35  C23 UNL     1      38.996  35.585   7.758  1.00  0.00     0.202 C 
ENDBRANCH  29  34
BRANCH  30  36
HETATM   36  O8  UNL     1      40.233  38.789   7.589  1.00  0.00    -0.392 OA
ATOM     37  H8  UNL     1      41.126  38.842   7.908  1.00  0.00     0.210 HD
ENDBRANCH  30  36
ENDBRANCH  24  25
ENDBRANCH  22  23
ENDBRANCH   1  21
TORSDOF 14
ENDMDL
MODEL 2
REMARK VINA RESULT: -7.725645893      8.228     11.112
REMARK  14 active torsions:
REMARK  status: ('A' for Active; 'I' for Inactive)
REMARK    1  A    between atoms: O1_2  and  C2_3 
REMARK    2  A    between atoms: C2_3  and  C3_4 
REMARK    3  A    between atoms: C5_7  and  C6_8 
REMARK    4  A    between atoms: C7_9  and  C8_10 
REMARK    5  A    between atoms: C9_11  and  C10_12 
REMARK    6  A    between atoms: C11_13  and  C12_14 
REMARK    7  A    between atoms: C13_15  and  C14_16 
REMARK    8  A    between atoms: C15_17  and  C16_18 
REMARK    9  A    between atoms: C17_20  and  O4_21 
REMARK   10  A    between atoms: C18_23  and  O5_24 
REMARK   11  A    between atoms: C19_26  and  O6_27 
REMARK   12  A    between atoms: C20_29  and  O7_30 
REMARK   13  A    between atoms: C21_32  and  O8_33 
REMARK   14  A    between atoms: C22_35  and  O9_36 
ROOT
HETATM    1  C10 UNL     1      41.451  48.871  10.191  1.00  0.00     0.000 C 
HETATM    2  C11 UNL     1      40.192  49.020  10.528  1.00  0.00     0.000 C 
ENDROOT
BRANCH   2   3
HETATM    3  C12 UNL     1      39.590  50.315  10.669  1.00  0.00     0.000 C 
HETATM    4  C13 UNL     1      38.535  50.548  11.401  1.00  0.00    -0.000 C 
BRANCH   4   5
HETATM    5  C14 UNL     1      37.877  49.487  12.142  1.00  0.00    -0.001 C 
HETATM    6  C15 UNL     1      37.276  49.716  13.288  1.00  0.00     0.008 C 
BRANCH   6   7
HETATM    7  C16 UNL     1      37.247  51.067  13.867  1.00  0.00     0.179 C 
HETATM    8  O3  UNL     1      38.499  51.402  14.408  1.00  0.00    -0.347 OA
HETATM    9  C17 UNL     1      38.476  52.666  14.972  1.00  0.00     0.289 C 
HETATM   10  C18 UNL     1      37.758  52.552  16.294  1.00  0.00     0.204 C 
HETATM   11  C19 UNL     1      36.642  51.547  16.259  1.00  0.00     0.183 C 
HETATM   12  C20 UNL     1      36.144  51.256  14.868  1.00  0.00     0.182 C 
BRANCH   9  13
HETATM   13  O4  UNL     1      39.719  53.220  15.137  1.00  0.00    -0.368 OA
ATOM     14  H4  UNL     1      39.745  54.156  14.976  1.00  0.00     0.212 HD
ENDBRANCH   9  13
BRANCH  10  15
HETATM   15  O5  UNL     1      38.710  52.075  17.222  1.00  0.00    -0.388 OA
ATOM     16  H5  UNL     1      38.467  52.440  18.064  1.00  0.00     0.210 HD
ENDBRANCH  10  15
BRANCH  11  17
HETATM   17  O6  UNL     1      36.940  50.375  16.955  1.00  0.00    -0.390 OA
ATOM     18  H6  UNL     1      36.964  49.607  16.397  1.00  0.00     0.210 HD
ENDBRANCH  11  17
BRANCH  12  19
HETATM   19  O7  UNL     1      35.368  50.091  14.968  1.00  0.00    -0.390 OA
ATOM     20  H7  UNL     1      34.457  50.311  15.118  1.00  0.00     0.210 HD
ENDBRANCH  12  19
ENDBRANCH   6   7
ENDBRANCH   4   5
ENDBRANCH   2   3
BRANCH   1  21
HETATM   21  C9  UNL     1      42.348  49.956   9.930  1.00  0.00     0.000 C 
HETATM   22  C8  UNL     1      42.825  50.220   8.721  1.00  0.00    -0.000 C 
BRANCH  22  23
HETATM   23  C7  UNL     1      42.493  49.457   7.567  1.00  0.00    -0.003 C 
HETATM   24  C6  UNL     1      42.423  49.954   6.358  1.00  0.00    -0.017 C 
BRANCH  24  25
HETATM   25  C5  UNL     1      42.677  51.373   6.043  1.00  0.00     0.063 C 
HETATM   26  C4  UNL     1      41.483  52.157   6.565  1.00  0.00     0.179 C 
HETATM   27  O2  UNL     1      40.481  52.081   5.629  1.00  0.00    -0.380 OA
HETATM   28  C3  UNL     1      40.759  52.955   4.616  1.00  0.00     0.176 C 
HETATM   29  C22 UNL     1      42.117  52.720   3.987  1.00  0.00     0.181 C 
HETATM   30  C21 UNL     1      42.781  51.479   4.535  1.00  0.00     0.159 C 
BRANCH  28  31
HETATM   31  C2  UNL     1      39.657  52.958   3.595  1.00  0.00     0.201 C 
BRANCH  31  32
HETATM   32  O1  UNL     1      38.716  51.991   3.682  1.00  0.00    -0.393 OA
HETATM   33  C1  UNL     1      37.603  52.089   2.914  1.00  0.00     0.201 C 
ENDBRANCH  31  32
ENDBRANCH  28  31
BRANCH  29  34
HETATM   34  O9  UNL     1      41.899  52.498   2.622  1.00  0.00    -0.385 OA
HETATM   35  C23 UNL     1      42.652  53.372   1.837  1.00  0.00     0.202 C 
ENDBRANCH  29  34
BRANCH  30  36
HETATM   36  O8  UNL     1      44.141  51.564   4.214  1.00  0.00    -0.392 OA
ATOM     37  H8  UNL     1      44.613  51.024   4.837  1.00  0.00     0.210 HD
ENDBRANCH  30  36
ENDBRANCH  24  25
ENDBRANCH  22  23
ENDBRANCH   1  21
TORSDOF 14
ENDMDL
MODEL 3
REMARK VINA RESULT: -7.537464141      7.405     11.400
REMARK  14 active torsions:
REMARK  status: ('A' for Active; 'I' for Inactive)
REMARK    1  A    between atoms: O1_2  and  C2_3 
REMARK    2  A    between atoms: C2_3  and  C3_4 
REMARK    3  A    between atoms: C5_7  and  C6_8 
REMARK    4  A    between atoms: C7_9  and  C8_10 
REMARK    5  A    between atoms: C9_11  and  C10_12 
REMARK    6  A    between atoms: C11_13  and  C12_14 
REMARK    7  A    between atoms: C13_15  and  C14_16 
REMARK    8  A    between atoms: C15_17  and  C16_18 
REMARK    9  A    between atoms: C17_20  and  O4_21 
REMARK   10  A    between atoms: C18_23  and  O5_24 
REMARK   11  A    between atoms: C19_26  and  O6_27 
REMARK   12  A    between atoms: C20_29  and  O7_30 
REMARK   13  A    between atoms: C21_32  and  O8_33 
REMARK   14  A    between atoms: C22_35  and  O9_36 
ROOT
HETATM    1  C10 UNL     1      38.054  49.626  11.667  1.00  0.00     0.000 C 
HETATM    2  C11 UNL     1      38.926  49.213  10.778  1.00  0.00     0.000 C 
ENDROOT
BRANCH   2   3
HETATM    3  C12 UNL     1      40.317  49.057  11.092  1.00  0.00     0.000 C 
HETATM    4  C13 UNL     1      41.169  48.439  10.320  1.00  0.00    -0.000 C 
BRANCH   4   5
HETATM    5  C14 UNL     1      40.760  47.851   9.058  1.00  0.00    -0.001 C 
HETATM    6  C15 UNL     1      40.961  48.465   7.913  1.00  0.00     0.008 C 
BRANCH   6   7
HETATM    7  C16 UNL     1      41.614  49.781   7.868  1.00  0.00     0.179 C 
HETATM    8  O3  UNL     1      40.737  50.752   7.359  1.00  0.00    -0.347 OA
HETATM    9  C17 UNL     1      41.349  51.992   7.295  1.00  0.00     0.289 C 
HETATM   10  C18 UNL     1      42.273  51.973   6.103  1.00  0.00     0.204 C 
HETATM   11  C19 UNL     1      42.907  50.628   5.886  1.00  0.00     0.183 C 
HETATM   12  C20 UNL     1      42.917  49.767   7.121  1.00  0.00     0.182 C 
BRANCH   9  13
HETATM   13  O4  UNL     1      40.469  53.040   7.215  1.00  0.00    -0.368 OA
ATOM     14  H4  UNL     1      40.889  53.890   7.160  1.00  0.00     0.212 HD
ENDBRANCH   9  13
BRANCH  10  15
HETATM   15  O5  UNL     1      41.466  52.231   4.973  1.00  0.00    -0.388 OA
ATOM     16  H5  UNL     1      41.955  51.922   4.220  1.00  0.00     0.210 HD
ENDBRANCH  10  15
BRANCH  11  17
HETATM   17  O6  UNL     1      42.383  49.947   4.788  1.00  0.00    -0.390 OA
ATOM     18  H6  UNL     1      43.047  49.501   4.275  1.00  0.00     0.210 HD
ENDBRANCH  11  17
BRANCH  12  19
HETATM   19  O7  UNL     1      43.219  48.467   6.687  1.00  0.00    -0.390 OA
ATOM     20  H7  UNL     1      43.421  48.467   5.759  1.00  0.00     0.210 HD
ENDBRANCH  12  19
ENDBRANCH   6   7
ENDBRANCH   4   5
ENDBRANCH   2   3
BRANCH   1  21
HETATM   21  C9  UNL     1      38.381  49.960  13.020  1.00  0.00     0.000 C 
HETATM   22  C8  UNL     1      37.483  49.968  13.997  1.00  0.00    -0.000 C 
BRANCH  22  23
HETATM   23  C7  UNL     1      36.112  49.645  13.798  1.00  0.00    -0.003 C 
HETATM   24  C6  UNL     1      35.150  50.533  13.765  1.00  0.00    -0.017 C 
BRANCH  24  25
HETATM   25  C5  UNL     1      35.371  51.982  13.933  1.00  0.00     0.063 C 
HETATM   26  C4  UNL     1      34.229  52.502  14.793  1.00  0.00     0.179 C 
HETATM   27  O2  UNL     1      33.144  52.714  13.979  1.00  0.00    -0.380 OA
HETATM   28  C3  UNL     1      33.324  53.889  13.306  1.00  0.00     0.176 C 
HETATM   29  C22 UNL     1      34.618  53.929  12.518  1.00  0.00     0.181 C 
HETATM   30  C21 UNL     1      35.333  52.598  12.549  1.00  0.00     0.159 C 
BRANCH  28  31
HETATM   31  C2  UNL     1      32.132  54.202  12.447  1.00  0.00     0.201 C 
BRANCH  31  32
HETATM   32  O1  UNL     1      31.699  55.483  12.417  1.00  0.00    -0.393 OA
HETATM   33  C1  UNL     1      31.864  56.256  13.518  1.00  0.00     0.201 C 
ENDBRANCH  31  32
ENDBRANCH  28  31
BRANCH  29  34
HETATM   34  O9  UNL     1      34.275  54.177  11.185  1.00  0.00    -0.385 OA
HETATM   35  C23 UNL     1      35.023  55.227  10.652  1.00  0.00     0.202 C 
ENDBRANCH  29  34
BRANCH  30  36
HETATM   36  O8  UNL     1      36.656  52.833  12.160  1.00  0.00    -0.392 OA
ATOM     37  H8  UNL     1      37.038  51.993  11.933  1.00  0.00     0.210 HD
ENDBRANCH  30  36
ENDBRANCH  24  25
ENDBRANCH  22  23
ENDBRANCH   1  21
TORSDOF 14
ENDMDL
MODEL 4
REMARK VINA RESULT: -7.491459928      7.631     10.625
REMARK  14 active torsions:
REMARK  status: ('A' for Active; 'I' for Inactive)
REMARK    1  A    between atoms: O1_2  and  C2_3 
REMARK    2  A    between atoms: C2_3  and  C3_4 
REMARK    3  A    between atoms: C5_7  and  C6_8 
REMARK    4  A    between atoms: C7_9  and  C8_10 
REMARK    5  A    between atoms: C9_11  and  C10_12 
REMARK    6  A    between atoms: C11_13  and  C12_14 
REMARK    7  A    between atoms: C13_15  and  C14_16 
REMARK    8  A    between atoms: C15_17  and  C16_18 
REMARK    9  A    between atoms: C17_20  and  O4_21 
REMARK   10  A    between atoms: C18_23  and  O5_24 
REMARK   11  A    between atoms: C19_26  and  O6_27 
REMARK   12  A    between atoms: C20_29  and  O7_30 
REMARK   13  A    between atoms: C21_32  and  O8_33 
REMARK   14  A    between atoms: C22_35  and  O9_36 
ROOT
HETATM    1  C10 UNL     1      39.202  48.717  10.686  1.00  0.00     0.000 C 
HETATM    2  C11 UNL     1      38.735  49.918  10.931  1.00  0.00     0.000 C 
ENDROOT
BRANCH   2   3
HETATM    3  C12 UNL     1      39.565  50.965  11.454  1.00  0.00     0.000 C 
HETATM    4  C13 UNL     1      39.110  52.127  11.837  1.00  0.00    -0.000 C 
BRANCH   4   5
HETATM    5  C14 UNL     1      37.697  52.451  11.759  1.00  0.00    -0.001 C 
HETATM    6  C15 UNL     1      37.002  52.767  12.829  1.00  0.00     0.008 C 
BRANCH   6   7
HETATM    7  C16 UNL     1      37.635  52.806  14.155  1.00  0.00     0.179 C 
HETATM    8  O3  UNL     1      37.946  51.509  14.594  1.00  0.00    -0.347 OA
HETATM    9  C17 UNL     1      38.526  51.534  15.851  1.00  0.00     0.289 C 
HETATM   10  C18 UNL     1      37.420  51.777  16.848  1.00  0.00     0.204 C 
HETATM   11  C19 UNL     1      36.354  52.692  16.315  1.00  0.00     0.183 C 
HETATM   12  C20 UNL     1      36.824  53.554  15.174  1.00  0.00     0.182 C 
BRANCH   9  13
HETATM   13  O4  UNL     1      39.222  50.394  16.161  1.00  0.00    -0.368 OA
ATOM     14  H4  UNL     1      40.143  50.434  15.932  1.00  0.00     0.212 HD
ENDBRANCH   9  13
BRANCH  10  15
HETATM   15  O5  UNL     1      36.808  50.523  17.074  1.00  0.00    -0.388 OA
ATOM     16  H5  UNL     1      36.139  50.430  16.406  1.00  0.00     0.210 HD
ENDBRANCH  10  15
BRANCH  11  17
HETATM   17  O6  UNL     1      35.169  52.026  16.004  1.00  0.00    -0.390 OA
ATOM     18  H6  UNL     1      34.395  52.479  16.317  1.00  0.00     0.210 HD
ENDBRANCH  11  17
BRANCH  12  19
HETATM   19  O7  UNL     1      35.666  54.085  14.585  1.00  0.00    -0.390 OA
ATOM     20  H7  UNL     1      35.311  53.477  13.946  1.00  0.00     0.210 HD
ENDBRANCH  12  19
ENDBRANCH   6   7
ENDBRANCH   4   5
ENDBRANCH   2   3
BRANCH   1  21
HETATM   21  C9  UNL     1      40.560  48.321  10.908  1.00  0.00     0.000 C 
HETATM   22  C8  UNL     1      41.343  47.862   9.939  1.00  0.00    -0.000 C 
BRANCH  22  23
HETATM   23  C7  UNL     1      40.914  47.721   8.590  1.00  0.00    -0.003 C 
HETATM   24  C6  UNL     1      41.218  48.563   7.635  1.00  0.00    -0.017 C 
BRANCH  24  25
HETATM   25  C5  UNL     1      42.044  49.768   7.843  1.00  0.00     0.063 C 
HETATM   26  C4  UNL     1      41.082  50.931   8.029  1.00  0.00     0.179 C 
HETATM   27  O2  UNL     1      40.685  51.360   6.786  1.00  0.00    -0.380 OA
HETATM   28  C3  UNL     1      41.682  52.122   6.246  1.00  0.00     0.176 C 
HETATM   29  C22 UNL     1      43.011  51.397   6.179  1.00  0.00     0.181 C 
HETATM   30  C21 UNL     1      42.881  49.950   6.593  1.00  0.00     0.159 C 
BRANCH  28  31
HETATM   31  C2  UNL     1      41.272  52.671   4.909  1.00  0.00     0.201 C 
BRANCH  31  32
HETATM   32  O1  UNL     1      39.990  52.486   4.520  1.00  0.00    -0.393 OA
HETATM   33  C1  UNL     1      39.553  53.097   3.392  1.00  0.00     0.201 C 
ENDBRANCH  31  32
ENDBRANCH  28  31
BRANCH  29  34
HETATM   34  O9  UNL     1      43.410  51.404   4.837  1.00  0.00    -0.385 OA
HETATM   35  C23 UNL     1      44.638  52.044   4.673  1.00  0.00     0.202 C 
ENDBRANCH  29  34
BRANCH  30  36
HETATM   36  O8  UNL     1      44.170  49.487   6.882  1.00  0.00    -0.392 OA
ATOM     37  H8  UNL     1      44.249  48.617   6.509  1.00  0.00     0.210 HD
ENDBRANCH  30  36
ENDBRANCH  24  25
ENDBRANCH  22  23
ENDBRANCH   1  21
TORSDOF 14
ENDMDL
MODEL 5
REMARK VINA RESULT: -7.481974901      4.604     11.543
REMARK  14 active torsions:
REMARK  status: ('A' for Active; 'I' for Inactive)
REMARK    1  A    between atoms: O1_2  and  C2_3 
REMARK    2  A    between atoms: C2_3  and  C3_4 
REMARK    3  A    between atoms: C5_7  and  C6_8 
REMARK    4  A    between atoms: C7_9  and  C8_10 
REMARK    5  A    between atoms: C9_11  and  C10_12 
REMARK    6  A    between atoms: C11_13  and  C12_14 
REMARK    7  A    between atoms: C13_15  and  C14_16 
REMARK    8  A    between atoms: C15_17  and  C16_18 
REMARK    9  A    between atoms: C17_20  and  O4_21 
REMARK   10  A    between atoms: C18_23  and  O5_24 
REMARK   11  A    between atoms: C19_26  and  O6_27 
REMARK   12  A    between atoms: C20_29  and  O7_30 
REMARK   13  A    between atoms: C21_32  and  O8_33 
REMARK   14  A    between atoms: C22_35  and  O9_36 
ROOT
HETATM    1  C10 UNL     1      41.331  51.442  10.625  1.00  0.00     0.000 C 
HETATM    2  C11 UNL     1      42.073  50.493  10.105  1.00  0.00     0.000 C 
ENDROOT
BRANCH   2   3
HETATM    3  C12 UNL     1      41.644  49.728   8.970  1.00  0.00     0.000 C 
HETATM    4  C13 UNL     1      41.055  48.566   9.059  1.00  0.00    -0.000 C 
BRANCH   4   5
HETATM    5  C14 UNL     1      40.786  47.950  10.344  1.00  0.00    -0.001 C 
HETATM    6  C15 UNL     1      40.604  46.654  10.463  1.00  0.00     0.008 C 
BRANCH   6   7
HETATM    7  C16 UNL     1      40.668  45.773   9.288  1.00  0.00     0.179 C 
HETATM    8  O3  UNL     1      39.379  45.478   8.818  1.00  0.00    -0.347 OA
HETATM    9  C17 UNL     1      39.428  44.633   7.723  1.00  0.00     0.289 C 
HETATM   10  C18 UNL     1      39.728  43.248   8.240  1.00  0.00     0.204 C 
HETATM   11  C19 UNL     1      40.652  43.263   9.425  1.00  0.00     0.183 C 
HETATM   12  C20 UNL     1      41.467  44.524   9.530  1.00  0.00     0.182 C 
BRANCH   9  13
HETATM   13  O4  UNL     1      38.282  44.637   6.970  1.00  0.00    -0.368 OA
ATOM     14  H4  UNL     1      37.856  45.485   6.924  1.00  0.00     0.212 HD
ENDBRANCH   9  13
BRANCH  10  15
HETATM   15  O5  UNL     1      38.497  42.717   8.686  1.00  0.00    -0.388 OA
ATOM     16  H5  UNL     1      38.328  41.951   8.150  1.00  0.00     0.210 HD
ENDBRANCH  10  15
BRANCH  11  17
HETATM   17  O6  UNL     1      40.006  42.965  10.624  1.00  0.00    -0.390 OA
ATOM     18  H6  UNL     1      39.784  43.738  11.130  1.00  0.00     0.210 HD
ENDBRANCH  11  17
BRANCH  12  19
HETATM   19  O7  UNL     1      42.007  44.531  10.826  1.00  0.00    -0.390 OA
ATOM     20  H7  UNL     1      42.948  44.406  10.793  1.00  0.00     0.210 HD
ENDBRANCH  12  19
ENDBRANCH   6   7
ENDBRANCH   4   5
ENDBRANCH   2   3
BRANCH   1  21
HETATM   21  C9  UNL     1      40.040  51.815  10.132  1.00  0.00     0.000 C 
HETATM   22  C8  UNL     1      38.913  51.293  10.599  1.00  0.00    -0.000 C 
BRANCH  22  23
HETATM   23  C7  UNL     1      38.875  50.316  11.632  1.00  0.00    -0.003 C 
HETATM   24  C6  UNL     1      38.256  50.483  12.773  1.00  0.00    -0.017 C 
BRANCH  24  25
HETATM   25  C5  UNL     1      37.520  51.711  13.129  1.00  0.00     0.063 C 
HETATM   26  C4  UNL     1      38.516  52.633  13.817  1.00  0.00     0.179 C 
HETATM   27  O2  UNL     1      38.611  52.253  15.132  1.00  0.00    -0.380 OA
HETATM   28  C3  UNL     1      37.525  52.733  15.808  1.00  0.00     0.176 C 
HETATM   29  C22 UNL     1      36.208  52.291  15.203  1.00  0.00     0.181 C 
HETATM   30  C21 UNL     1      36.412  51.303  14.079  1.00  0.00     0.159 C 
BRANCH  28  31
HETATM   31  C2  UNL     1      37.614  52.399  17.271  1.00  0.00     0.201 C 
BRANCH  31  32
HETATM   32  O1  UNL     1      38.827  52.066  17.766  1.00  0.00    -0.393 OA
HETATM   33  C1  UNL     1      38.924  51.702  19.069  1.00  0.00     0.201 C 
ENDBRANCH  31  32
ENDBRANCH  28  31
BRANCH  29  34
HETATM   34  O9  UNL     1      35.501  51.624  16.210  1.00  0.00    -0.385 OA
HETATM   35  C23 UNL     1      34.287  52.253  16.484  1.00  0.00     0.202 C 
ENDBRANCH  29  34
BRANCH  30  36
HETATM   36  O8  UNL     1      35.223  51.266  13.343  1.00  0.00    -0.392 OA
ATOM     37  H8  UNL     1      34.811  50.426  13.510  1.00  0.00     0.210 HD
ENDBRANCH  30  36
ENDBRANCH  24  25
ENDBRANCH  22  23
ENDBRANCH   1  21
TORSDOF 14
ENDMDL
