MODEL 1
REMARK VINA RESULT: -7.154897022      0.000      0.000
REMARK  14 active torsions:
REMARK  status: ('A' for Active; 'I' for Inactive)
REMARK    1  A    between atoms: C2_2  and  C3_3 
REMARK    2  A    between atoms: C6_6  and  O1_7 
REMARK    3  A    between atoms: C8_11  and  O3_12 
REMARK    4  A    between atoms: O3_12  and  C9_13 
REMARK    5  A    between atoms: C12_17  and  O5_18 
REMARK    6  A    between atoms: C13_20  and  O6_21 
REMARK    7  A    between atoms: C14_23  and  O7_24 
REMARK    8  A    between atoms: C15_26  and  C16_27 
REMARK    9  A    between atoms: C16_27  and  C17_28 
REMARK   10  A    between atoms: C18_29  and  C19_30 
REMARK   11  A    between atoms: C19_30  and  C20_31 
REMARK   12  A    between atoms: C20_31  and  C21_32 
REMARK   13  A    between atoms: C21_32  and  C22_33 
REMARK   14  A    between atoms: C22_33  and  O8_34 
ROOT
HETATM    1  C3  UNL     1      37.051  51.321  14.582  1.00  0.00     0.040 C 
HETATM    2  C4  UNL     1      37.697  52.550  15.176  1.00  0.00     0.014 C 
HETATM    3  C5  UNL     1      37.716  53.576  14.043  1.00  0.00     0.049 C 
HETATM    4  C6  UNL     1      37.181  52.870  12.846  1.00  0.00     0.147 C 
HETATM    5  C7  UNL     1      37.871  53.248  11.587  1.00  0.00     0.195 C 
HETATM    6  O2  UNL     1      37.289  54.048  10.850  1.00  0.00    -0.292 OA
HETATM    7  C8  UNL     1      39.207  52.677  11.239  1.00  0.00     0.226 C 
HETATM    8  C15 UNL     1      39.386  51.286  11.807  1.00  0.00     0.162 C 
HETATM    9  O9  UNL     1      38.847  51.142  13.076  1.00  0.00    -0.373 OA
HETATM   10  C23 UNL     1      37.495  51.401  13.115  1.00  0.00     0.171 C 
ENDROOT
BRANCH   7  11
HETATM   11  O3  UNL     1      40.254  53.450  11.702  1.00  0.00    -0.343 OA
BRANCH  11  12
HETATM   12  C9  UNL     1      41.190  53.801  10.739  1.00  0.00     0.292 C 
HETATM   13  O4  UNL     1      41.865  54.940  10.991  1.00  0.00    -0.351 OA
HETATM   14  C10 UNL     1      41.107  56.057  10.854  1.00  0.00     0.152 C 
HETATM   15  C11 UNL     1      40.048  56.115  11.919  1.00  0.00     0.042 C 
HETATM   16  C12 UNL     1      40.468  56.182   9.496  1.00  0.00     0.178 C 
HETATM   17  C13 UNL     1      40.791  54.989   8.633  1.00  0.00     0.183 C 
HETATM   18  C14 UNL     1      40.720  53.693   9.348  1.00  0.00     0.204 C 
BRANCH  16  19
HETATM   19  O5  UNL     1      39.096  56.305   9.609  1.00  0.00    -0.390 OA
ATOM     20  H5  UNL     1      38.672  55.463   9.493  1.00  0.00     0.210 HD
ENDBRANCH  16  19
BRANCH  17  21
HETATM   21  O6  UNL     1      42.103  55.119   8.120  1.00  0.00    -0.390 OA
ATOM     22  H6  UNL     1      42.118  54.836   7.213  1.00  0.00     0.210 HD
ENDBRANCH  17  21
BRANCH  18  23
HETATM   23  O7  UNL     1      41.456  52.764   8.570  1.00  0.00    -0.388 OA
ATOM     24  H7  UNL     1      40.957  52.388   7.855  1.00  0.00     0.210 HD
ENDBRANCH  18  23
ENDBRANCH  11  12
ENDBRANCH   7  11
BRANCH   8  25
HETATM   25  C16 UNL     1      38.817  50.268  10.833  1.00  0.00     0.061 C 
BRANCH  25  26
HETATM   26  C17 UNL     1      39.390  48.949  11.174  1.00  0.00    -0.028 C 
HETATM   27  C18 UNL     1      40.042  48.221  10.315  1.00  0.00    -0.031 C 
BRANCH  27  28
HETATM   28  C19 UNL     1      40.315  48.555   8.921  1.00  0.00     0.027 C 
BRANCH  28  29
HETATM   29  C20 UNL     1      40.338  47.305   8.046  1.00  0.00     0.006 C 
BRANCH  29  30
HETATM   30  C21 UNL     1      39.103  46.464   8.247  1.00  0.00     0.026 C 
BRANCH  30  31
HETATM   31  C22 UNL     1      39.430  45.004   8.375  1.00  0.00     0.164 C 
BRANCH  31  32
HETATM   32  O8  UNL     1      38.618  44.297   7.483  1.00  0.00    -0.401 OA
ATOM     33  H8  UNL     1      38.240  43.559   7.947  1.00  0.00     0.209 HD
ENDBRANCH  31  32
ENDBRANCH  30  31
ENDBRANCH  29  30
ENDBRANCH  28  29
ENDBRANCH  27  28
ENDBRANCH  25  26
ENDBRANCH   8  25
BRANCH   4  34
HETATM   34  O1  UNL     1      35.790  52.961  12.730  1.00  0.00    -0.379 OA
ATOM     35  H1  UNL     1      35.334  52.751  13.537  1.00  0.00     0.211 HD
ENDBRANCH   4  34
BRANCH   1  36
HETATM   36  C2  UNL     1      37.418  50.058  15.227  1.00  0.00    -0.030 C 
HETATM   37  C1  UNL     1      37.155  48.857  14.756  1.00  0.00     0.007 C 
ENDBRANCH   1  36
TORSDOF 14
ENDMDL
MODEL 2
REMARK VINA RESULT: -7.087626742      1.884      5.805
REMARK  14 active torsions:
REMARK  status: ('A' for Active; 'I' for Inactive)
REMARK    1  A    between atoms: C2_2  and  C3_3 
REMARK    2  A    between atoms: C6_6  and  O1_7 
REMARK    3  A    between atoms: C8_11  and  O3_12 
REMARK    4  A    between atoms: O3_12  and  C9_13 
REMARK    5  A    between atoms: C12_17  and  O5_18 
REMARK    6  A    between atoms: C13_20  and  O6_21 
REMARK    7  A    between atoms: C14_23  and  O7_24 
REMARK    8  A    between atoms: C15_26  and  C16_27 
REMARK    9  A    between atoms: C16_27  and  C17_28 
REMARK   10  A    between atoms: C18_29  and  C19_30 
REMARK   11  A    between atoms: C19_30  and  C20_31 
REMARK   12  A    between atoms: C20_31  and  C21_32 
REMARK   13  A    between atoms: C21_32  and  C22_33 
REMARK   14  A    between atoms: C22_33  and  O8_34 
ROOT
HETATM    1  C3  UNL     1      40.744  48.194   9.176  1.00  0.00     0.040 C 
HETATM    2  C4  UNL     1      40.883  49.102   7.978  1.00  0.00     0.014 C 
HETATM    3  C5  UNL     1      41.428  50.417   8.538  1.00  0.00     0.049 C 
HETATM    4  C6  UNL     1      41.480  50.239  10.016  1.00  0.00     0.147 C 
HETATM    5  C7  UNL     1      41.108  51.464  10.767  1.00  0.00     0.195 C 
HETATM    6  O2  UNL     1      42.030  52.132  11.240  1.00  0.00    -0.292 OA
HETATM    7  C8  UNL     1      39.676  51.858  10.936  1.00  0.00     0.226 C 
HETATM    8  C15 UNL     1      38.763  50.652  10.963  1.00  0.00     0.162 C 
HETATM    9  O9  UNL     1      39.139  49.663  10.066  1.00  0.00    -0.373 OA
HETATM   10  C23 UNL     1      40.411  49.188  10.298  1.00  0.00     0.171 C 
ENDROOT
BRANCH   7  11
HETATM   11  O3  UNL     1      39.230  52.692   9.929  1.00  0.00    -0.343 OA
BRANCH  11  12
HETATM   12  C9  UNL     1      38.728  53.911  10.361  1.00  0.00     0.292 C 
HETATM   13  O4  UNL     1      38.858  54.923   9.480  1.00  0.00    -0.351 OA
HETATM   14  C10 UNL     1      40.138  55.350   9.334  1.00  0.00     0.152 C 
HETATM   15  C11 UNL     1      40.979  54.293   8.676  1.00  0.00     0.042 C 
HETATM   16  C12 UNL     1      40.778  55.772  10.631  1.00  0.00     0.178 C 
HETATM   17  C13 UNL     1      39.841  55.560  11.793  1.00  0.00     0.183 C 
HETATM   18  C14 UNL     1      39.095  54.281  11.738  1.00  0.00     0.204 C 
BRANCH  16  19
HETATM   19  O5  UNL     1      41.946  55.066  10.853  1.00  0.00    -0.390 OA
ATOM     20  H5  UNL     1      42.001  54.783  11.759  1.00  0.00     0.210 HD
ENDBRANCH  16  19
BRANCH  17  21
HETATM   21  O6  UNL     1      38.888  56.606  11.826  1.00  0.00    -0.390 OA
ATOM     22  H6  UNL     1      38.449  56.608  12.669  1.00  0.00     0.210 HD
ENDBRANCH  17  21
BRANCH  18  23
HETATM   23  O7  UNL     1      37.981  54.428  12.602  1.00  0.00    -0.388 OA
ATOM     24  H7  UNL     1      37.983  55.243  13.090  1.00  0.00     0.210 HD
ENDBRANCH  18  23
ENDBRANCH  11  12
ENDBRANCH   7  11
BRANCH   8  25
HETATM   25  C16 UNL     1      38.673  50.120  12.384  1.00  0.00     0.061 C 
BRANCH  25  26
HETATM   26  C17 UNL     1      37.293  49.637  12.597  1.00  0.00    -0.028 C 
HETATM   27  C18 UNL     1      36.862  49.222  13.753  1.00  0.00    -0.031 C 
BRANCH  27  28
HETATM   28  C19 UNL     1      37.627  49.159  14.994  1.00  0.00     0.027 C 
BRANCH  28  29
HETATM   29  C20 UNL     1      37.299  50.336  15.907  1.00  0.00     0.006 C 
BRANCH  29  30
HETATM   30  C21 UNL     1      38.496  51.230  16.111  1.00  0.00     0.026 C 
BRANCH  30  31
HETATM   31  C22 UNL     1      38.279  52.602  15.540  1.00  0.00     0.164 C 
BRANCH  31  32
HETATM   32  O8  UNL     1      39.499  53.062  15.034  1.00  0.00    -0.401 OA
ATOM     33  H8  UNL     1      39.700  53.890  15.454  1.00  0.00     0.209 HD
ENDBRANCH  31  32
ENDBRANCH  30  31
ENDBRANCH  29  30
ENDBRANCH  28  29
ENDBRANCH  27  28
ENDBRANCH  25  26
ENDBRANCH   8  25
BRANCH   4  34
HETATM   34  O1  UNL     1      42.691  49.699  10.462  1.00  0.00    -0.379 OA
ATOM     35  H1  UNL     1      43.087  50.200  11.165  1.00  0.00     0.211 HD
ENDBRANCH   4  34
BRANCH   1  36
HETATM   36  C2  UNL     1      39.745  47.133   9.032  1.00  0.00    -0.030 C 
HETATM   37  C1  UNL     1      39.149  46.793   7.909  1.00  0.00     0.007 C 
ENDBRANCH   1  36
TORSDOF 14
ENDMDL
MODEL 3
REMARK VINA RESULT: -6.962938426      1.902      5.597
REMARK  14 active torsions:
REMARK  status: ('A' for Active; 'I' for Inactive)
REMARK    1  A    between atoms: C2_2  and  C3_3 
REMARK    2  A    between atoms: C6_6  and  O1_7 
REMARK    3  A    between atoms: C8_11  and  O3_12 
REMARK    4  A    between atoms: O3_12  and  C9_13 
REMARK    5  A    between atoms: C12_17  and  O5_18 
REMARK    6  A    between atoms: C13_20  and  O6_21 
REMARK    7  A    between atoms: C14_23  and  O7_24 
REMARK    8  A    between atoms: C15_26  and  C16_27 
REMARK    9  A    between atoms: C16_27  and  C17_28 
REMARK   10  A    between atoms: C18_29  and  C19_30 
REMARK   11  A    between atoms: C19_30  and  C20_31 
REMARK   12  A    between atoms: C20_31  and  C21_32 
REMARK   13  A    between atoms: C21_32  and  C22_33 
REMARK   14  A    between atoms: C22_33  and  O8_34 
ROOT
HETATM    1  C3  UNL     1      40.240  54.381   8.865  1.00  0.00     0.040 C 
HETATM    2  C4  UNL     1      38.819  54.857   9.046  1.00  0.00     0.014 C 
HETATM    3  C5  UNL     1      38.522  54.664  10.533  1.00  0.00     0.049 C 
HETATM    4  C6  UNL     1      39.728  54.006  11.108  1.00  0.00     0.147 C 
HETATM    5  C7  UNL     1      39.405  52.990  12.140  1.00  0.00     0.195 C 
HETATM    6  O2  UNL     1      39.548  53.325  13.318  1.00  0.00    -0.292 OA
HETATM    7  C8  UNL     1      38.930  51.626  11.756  1.00  0.00     0.226 C 
HETATM    8  C15 UNL     1      39.498  51.190  10.423  1.00  0.00     0.162 C 
HETATM    9  O9  UNL     1      39.564  52.219   9.496  1.00  0.00    -0.373 OA
HETATM   10  C23 UNL     1      40.346  53.271   9.921  1.00  0.00     0.171 C 
ENDROOT
BRANCH   7  11
HETATM   11  O3  UNL     1      37.555  51.547  11.665  1.00  0.00    -0.343 OA
BRANCH  11  12
HETATM   12  C9  UNL     1      36.954  50.723  12.607  1.00  0.00     0.292 C 
HETATM   13  O4  UNL     1      35.651  50.978  12.837  1.00  0.00    -0.351 OA
HETATM   14  C10 UNL     1      35.439  52.134  13.516  1.00  0.00     0.152 C 
HETATM   15  C11 UNL     1      35.815  53.320  12.674  1.00  0.00     0.042 C 
HETATM   16  C12 UNL     1      36.168  52.194  14.833  1.00  0.00     0.178 C 
HETATM   17  C13 UNL     1      37.006  50.960  15.046  1.00  0.00     0.183 C 
HETATM   18  C14 UNL     1      37.737  50.513  13.837  1.00  0.00     0.204 C 
BRANCH  16  19
HETATM   19  O5  UNL     1      36.978  53.312  14.893  1.00  0.00    -0.390 OA
ATOM     20  H5  UNL     1      37.626  53.296  14.199  1.00  0.00     0.210 HD
ENDBRANCH  16  19
BRANCH  17  21
HETATM   21  O6  UNL     1      36.176  49.892  15.460  1.00  0.00    -0.390 OA
ATOM     22  H6  UNL     1      36.442  49.599  16.323  1.00  0.00     0.210 HD
ENDBRANCH  17  21
BRANCH  18  23
HETATM   23  O7  UNL     1      38.091  49.159  14.059  1.00  0.00    -0.388 OA
ATOM     24  H7  UNL     1      37.846  48.580  13.348  1.00  0.00     0.210 HD
ENDBRANCH  18  23
ENDBRANCH  11  12
ENDBRANCH   7  11
BRANCH   8  25
HETATM   25  C16 UNL     1      40.854  50.540  10.642  1.00  0.00     0.061 C 
BRANCH  25  26
HETATM   26  C17 UNL     1      41.135  49.680   9.473  1.00  0.00    -0.028 C 
HETATM   27  C18 UNL     1      41.063  48.382   9.519  1.00  0.00    -0.031 C 
BRANCH  27  28
HETATM   28  C19 UNL     1      40.709  47.571  10.681  1.00  0.00     0.027 C 
BRANCH  28  29
HETATM   29  C20 UNL     1      41.236  46.147  10.543  1.00  0.00     0.006 C 
BRANCH  29  30
HETATM   30  C21 UNL     1      40.938  45.574   9.181  1.00  0.00     0.026 C 
BRANCH  30  31
HETATM   31  C22 UNL     1      40.340  44.199   9.266  1.00  0.00     0.164 C 
BRANCH  31  32
HETATM   32  O8  UNL     1      40.567  43.704  10.554  1.00  0.00    -0.401 OA
ATOM     33  H8  UNL     1      40.347  42.780  10.560  1.00  0.00     0.209 HD
ENDBRANCH  31  32
ENDBRANCH  30  31
ENDBRANCH  29  30
ENDBRANCH  28  29
ENDBRANCH  27  28
ENDBRANCH  25  26
ENDBRANCH   8  25
BRANCH   4  34
HETATM   34  O1  UNL     1      40.692  54.917  11.552  1.00  0.00    -0.379 OA
ATOM     35  H1  UNL     1      41.583  54.621  11.402  1.00  0.00     0.211 HD
ENDBRANCH   4  34
BRANCH   1  36
HETATM   36  C2  UNL     1      40.570  53.922   7.514  1.00  0.00    -0.030 C 
HETATM   37  C1  UNL     1      41.755  53.508   7.117  1.00  0.00     0.007 C 
ENDBRANCH   1  36
TORSDOF 14
ENDMDL
MODEL 4
REMARK VINA RESULT: -6.862459785      2.376      5.961
REMARK  14 active torsions:
REMARK  status: ('A' for Active; 'I' for Inactive)
REMARK    1  A    between atoms: C2_2  and  C3_3 
REMARK    2  A    between atoms: C6_6  and  O1_7 
REMARK    3  A    between atoms: C8_11  and  O3_12 
REMARK    4  A    between atoms: O3_12  and  C9_13 
REMARK    5  A    between atoms: C12_17  and  O5_18 
REMARK    6  A    between atoms: C13_20  and  O6_21 
REMARK    7  A    between atoms: C14_23  and  O7_24 
REMARK    8  A    between atoms: C15_26  and  C16_27 
REMARK    9  A    between atoms: C16_27  and  C17_28 
REMARK   10  A    between atoms: C18_29  and  C19_30 
REMARK   11  A    between atoms: C19_30  and  C20_31 
REMARK   12  A    between atoms: C20_31  and  C21_32 
REMARK   13  A    between atoms: C21_32  and  C22_33 
REMARK   14  A    between atoms: C22_33  and  O8_34 
ROOT
HETATM    1  C3  UNL     1      38.805  55.439  10.409  1.00  0.00     0.040 C 
HETATM    2  C4  UNL     1      37.664  56.097  11.147  1.00  0.00     0.014 C 
HETATM    3  C5  UNL     1      37.839  55.677  12.606  1.00  0.00     0.049 C 
HETATM    4  C6  UNL     1      38.993  54.735  12.623  1.00  0.00     0.147 C 
HETATM    5  C7  UNL     1      38.815  53.608  13.571  1.00  0.00     0.195 C 
HETATM    6  O2  UNL     1      39.408  53.685  14.649  1.00  0.00    -0.292 OA
HETATM    7  C8  UNL     1      37.954  52.437  13.223  1.00  0.00     0.226 C 
HETATM    8  C15 UNL     1      37.940  52.175  11.733  1.00  0.00     0.162 C 
HETATM    9  O9  UNL     1      37.920  53.337  10.976  1.00  0.00    -0.373 OA
HETATM   10  C23 UNL     1      39.008  54.148  11.214  1.00  0.00     0.171 C 
ENDROOT
BRANCH   7  11
HETATM   11  O3  UNL     1      36.643  52.600  13.626  1.00  0.00    -0.343 OA
BRANCH  11  12
HETATM   12  C9  UNL     1      35.787  51.573  13.256  1.00  0.00     0.292 C 
HETATM   13  O4  UNL     1      34.719  51.958  12.530  1.00  0.00    -0.351 OA
HETATM   14  C10 UNL     1      33.797  52.648  13.250  1.00  0.00     0.152 C 
HETATM   15  C11 UNL     1      34.345  53.981  13.676  1.00  0.00     0.042 C 
HETATM   16  C12 UNL     1      33.298  51.896  14.456  1.00  0.00     0.178 C 
HETATM   17  C13 UNL     1      33.997  50.567  14.594  1.00  0.00     0.183 C 
HETATM   18  C14 UNL     1      35.454  50.624  14.331  1.00  0.00     0.204 C 
BRANCH  16  19
HETATM   19  O5  UNL     1      33.490  52.634  15.608  1.00  0.00    -0.390 OA
ATOM     20  H5  UNL     1      34.210  52.281  16.118  1.00  0.00     0.210 HD
ENDBRANCH  16  19
BRANCH  17  21
HETATM   21  O6  UNL     1      33.436  49.642  13.682  1.00  0.00    -0.390 OA
ATOM     22  H6  UNL     1      33.958  48.848  13.675  1.00  0.00     0.210 HD
ENDBRANCH  17  21
BRANCH  18  23
HETATM   23  O7  UNL     1      35.866  49.295  14.062  1.00  0.00    -0.388 OA
ATOM     24  H7  UNL     1      35.813  49.059  13.144  1.00  0.00     0.210 HD
ENDBRANCH  18  23
ENDBRANCH  11  12
ENDBRANCH   7  11
BRANCH   8  25
HETATM   25  C16 UNL     1      39.115  51.284  11.368  1.00  0.00     0.061 C 
BRANCH  25  26
HETATM   26  C17 UNL     1      38.642  49.883  11.387  1.00  0.00    -0.028 C 
HETATM   27  C18 UNL     1      39.392  48.881  11.033  1.00  0.00    -0.031 C 
BRANCH  27  28
HETATM   28  C19 UNL     1      40.775  48.950  10.572  1.00  0.00     0.027 C 
BRANCH  28  29
HETATM   29  C20 UNL     1      41.328  47.560  10.272  1.00  0.00     0.006 C 
BRANCH  29  30
HETATM   30  C21 UNL     1      40.346  46.731   9.484  1.00  0.00     0.026 C 
BRANCH  30  31
HETATM   31  C22 UNL     1      40.486  46.944   8.004  1.00  0.00     0.164 C 
BRANCH  31  32
HETATM   32  O8  UNL     1      41.837  47.174   7.724  1.00  0.00    -0.401 OA
ATOM     33  H8  UNL     1      42.108  47.955   8.192  1.00  0.00     0.209 HD
ENDBRANCH  31  32
ENDBRANCH  30  31
ENDBRANCH  29  30
ENDBRANCH  28  29
ENDBRANCH  27  28
ENDBRANCH  25  26
ENDBRANCH   8  25
BRANCH   4  34
HETATM   34  O1  UNL     1      40.224  55.376  12.795  1.00  0.00    -0.379 OA
ATOM     35  H1  UNL     1      40.576  55.278  13.672  1.00  0.00     0.211 HD
ENDBRANCH   4  34
BRANCH   1  36
HETATM   36  C2  UNL     1      38.562  55.198   8.985  1.00  0.00    -0.030 C 
HETATM   37  C1  UNL     1      37.601  55.747   8.271  1.00  0.00     0.007 C 
ENDBRANCH   1  36
TORSDOF 14
ENDMDL
MODEL 5
REMARK VINA RESULT: -6.759836033      2.122      5.782
REMARK  14 active torsions:
REMARK  status: ('A' for Active; 'I' for Inactive)
REMARK    1  A    between atoms: C2_2  and  C3_3 
REMARK    2  A    between atoms: C6_6  and  O1_7 
REMARK    3  A    between atoms: C8_11  and  O3_12 
REMARK    4  A    between atoms: O3_12  and  C9_13 
REMARK    5  A    between atoms: C12_17  and  O5_18 
REMARK    6  A    between atoms: C13_20  and  O6_21 
REMARK    7  A    between atoms: C14_23  and  O7_24 
REMARK    8  A    between atoms: C15_26  and  C16_27 
REMARK    9  A    between atoms: C16_27  and  C17_28 
REMARK   10  A    between atoms: C18_29  and  C19_30 
REMARK   11  A    between atoms: C19_30  and  C20_31 
REMARK   12  A    between atoms: C20_31  and  C21_32 
REMARK   13  A    between atoms: C21_32  and  C22_33 
REMARK   14  A    between atoms: C22_33  and  O8_34 
ROOT
HETATM    1  C3  UNL     1      40.763  47.852   9.153  1.00  0.00     0.040 C 
HETATM    2  C4  UNL     1      40.796  48.741   7.934  1.00  0.00     0.014 C 
HETATM    3  C5  UNL     1      41.324  50.086   8.437  1.00  0.00     0.049 C 
HETATM    4  C6  UNL     1      41.471  49.938   9.912  1.00  0.00     0.147 C 
HETATM    5  C7  UNL     1      41.098  51.162  10.663  1.00  0.00     0.195 C 
HETATM    6  O2  UNL     1      42.021  51.873  11.068  1.00  0.00    -0.292 OA
HETATM    7  C8  UNL     1      39.666  51.508  10.912  1.00  0.00     0.226 C 
HETATM    8  C15 UNL     1      38.802  50.270  11.014  1.00  0.00     0.162 C 
HETATM    9  O9  UNL     1      39.160  49.278  10.113  1.00  0.00    -0.373 OA
HETATM   10  C23 UNL     1      40.461  48.854  10.276  1.00  0.00     0.171 C 
ENDROOT
BRANCH   7  11
HETATM   11  O3  UNL     1      39.129  52.305   9.920  1.00  0.00    -0.343 OA
BRANCH  11  12
HETATM   12  C9  UNL     1      38.651  53.533  10.353  1.00  0.00     0.292 C 
HETATM   13  O4  UNL     1      38.594  54.488   9.404  1.00  0.00    -0.351 OA
HETATM   14  C10 UNL     1      39.813  54.946   9.024  1.00  0.00     0.152 C 
HETATM   15  C11 UNL     1      40.581  53.875   8.302  1.00  0.00     0.042 C 
HETATM   16  C12 UNL     1      40.635  55.474  10.171  1.00  0.00     0.178 C 
HETATM   17  C13 UNL     1      39.908  55.310  11.481  1.00  0.00     0.183 C 
HETATM   18  C14 UNL     1      39.219  54.006  11.627  1.00  0.00     0.204 C 
BRANCH  16  19
HETATM   19  O5  UNL     1      41.853  54.824  10.241  1.00  0.00    -0.390 OA
ATOM     20  H5  UNL     1      42.461  55.306  10.788  1.00  0.00     0.210 HD
ENDBRANCH  16  19
BRANCH  17  21
HETATM   21  O6  UNL     1      38.929  56.324  11.606  1.00  0.00    -0.390 OA
ATOM     22  H6  UNL     1      38.311  56.085  12.288  1.00  0.00     0.210 HD
ENDBRANCH  17  21
BRANCH  18  23
HETATM   23  O7  UNL     1      38.254  54.174  12.651  1.00  0.00    -0.388 OA
ATOM     24  H7  UNL     1      38.484  53.742  13.465  1.00  0.00     0.210 HD
ENDBRANCH  18  23
ENDBRANCH  11  12
ENDBRANCH   7  11
BRANCH   8  25
HETATM   25  C16 UNL     1      38.817  49.762  12.447  1.00  0.00     0.061 C 
BRANCH  25  26
HETATM   26  C17 UNL     1      38.176  50.789  13.295  1.00  0.00    -0.028 C 
HETATM   27  C18 UNL     1      36.998  50.632  13.823  1.00  0.00    -0.031 C 
BRANCH  27  28
HETATM   28  C19 UNL     1      36.130  49.468  13.682  1.00  0.00     0.027 C 
BRANCH  28  29
HETATM   29  C20 UNL     1      34.709  49.878  13.309  1.00  0.00     0.006 C 
BRANCH  29  30
HETATM   30  C21 UNL     1      34.242  51.060  14.122  1.00  0.00     0.026 C 
BRANCH  30  31
HETATM   31  C22 UNL     1      32.915  50.804  14.777  1.00  0.00     0.164 C 
BRANCH  31  32
HETATM   32  O8  UNL     1      32.472  49.537  14.386  1.00  0.00    -0.401 OA
ATOM     33  H8  UNL     1      33.212  48.942  14.417  1.00  0.00     0.209 HD
ENDBRANCH  31  32
ENDBRANCH  30  31
ENDBRANCH  29  30
ENDBRANCH  28  29
ENDBRANCH  27  28
ENDBRANCH  25  26
ENDBRANCH   8  25
BRANCH   4  34
HETATM   34  O1  UNL     1      42.726  49.451  10.293  1.00  0.00    -0.379 OA
ATOM     35  H1  UNL     1      43.199  50.045  10.864  1.00  0.00     0.211 HD
ENDBRANCH   4  34
BRANCH   1  36
HETATM   36  C2  UNL     1      39.798  46.752   9.088  1.00  0.00    -0.030 C 
HETATM   37  C1  UNL     1      39.188  46.335   7.998  1.00  0.00     0.007 C 
ENDBRANCH   1  36
TORSDOF 14
ENDMDL
