MODEL 1
REMARK VINA RESULT: -8.615873053      0.000      0.000
REMARK  14 active torsions:
REMARK  status: ('A' for Active; 'I' for Inactive)
REMARK    1  A    between atoms: C2_2  and  C3_3 
REMARK    2  A    between atoms: C3_3  and  C4_4 
REMARK    3  A    between atoms: C4_4  and  C5_5 
REMARK    4  A    between atoms: C5_5  and  C6_6 
REMARK    5  A    between atoms: C6_6  and  C7_7 
REMARK    6  A    between atoms: C7_7  and  C8_8 
REMARK    7  A    between atoms: C8_8  and  C9_9 
REMARK    8  A    between atoms: C10_10  and  O1_11 
REMARK    9  A    between atoms: C11_13  and  O2_14 
REMARK   10  A    between atoms: O2_14  and  C12_15 
REMARK   11  A    between atoms: C15_19  and  O4_20 
REMARK   12  A    between atoms: C16_22  and  O5_23 
REMARK   13  A    between atoms: C19_28  and  O7_29 
REMARK   14  A    between atoms: C22_35  and  O8_36 
ROOT
HETATM    1  C9  UNL     1      40.663  50.757  10.775  1.00  0.00     0.050 C 
HETATM    2  C10 UNL     1      39.446  50.602  11.329  1.00  0.00     0.121 C 
HETATM    3  C11 UNL     1      38.670  51.495  12.253  1.00  0.00     0.323 C 
HETATM    4  O6  UNL     1      39.366  52.642  12.481  1.00  0.00    -0.346 OA
HETATM    5  C17 UNL     1      39.661  53.422  11.388  1.00  0.00     0.169 C 
HETATM    6  C18 UNL     1      38.781  53.268  10.204  1.00  0.00     0.044 C 
HETATM    7  C19 UNL     1      41.111  53.291  10.977  1.00  0.00     0.246 C 
HETATM    8  N1  UNL     1      41.515  51.874  10.984  1.00  0.00    -0.362 N 
ATOM      9  H1  UNL     1      42.500  51.677  11.155  1.00  0.00     0.162 HD
ENDROOT
BRANCH   1  10
HETATM   10  C8  UNL     1      41.161  49.692   9.896  1.00  0.00     0.007 C 
HETATM   11  C20 UNL     1      42.538  50.096   9.420  1.00  0.00     0.018 C 
HETATM   12  C21 UNL     1      42.571  49.877   7.918  1.00  0.00     0.033 C 
HETATM   13  C22 UNL     1      41.123  50.050   7.504  1.00  0.00     0.119 C 
HETATM   14  C23 UNL     1      40.313  49.521   8.659  1.00  0.00     0.047 C 
BRANCH  10  15
HETATM   15  C7  UNL     1      41.301  48.366  10.621  1.00  0.00     0.016 C 
BRANCH  15  16
HETATM   16  C6  UNL     1      40.899  47.160   9.812  1.00  0.00     0.001 C 
BRANCH  16  17
HETATM   17  C5  UNL     1      41.274  45.911  10.640  1.00  0.00     0.000 C 
BRANCH  17  18
HETATM   18  C4  UNL     1      40.746  44.667   9.925  1.00  0.00     0.000 C 
BRANCH  18  19
HETATM   19  C3  UNL     1      39.880  45.042   8.761  1.00  0.00    -0.000 C 
BRANCH  19  20
HETATM   20  C2  UNL     1      39.238  43.856   8.113  1.00  0.00    -0.005 C 
HETATM   21  C1  UNL     1      39.547  42.592   8.873  1.00  0.00     0.005 C 
ENDBRANCH  19  20
ENDBRANCH  18  19
ENDBRANCH  17  18
ENDBRANCH  16  17
ENDBRANCH  15  16
ENDBRANCH  10  15
BRANCH  13  22
HETATM   22  O8  UNL     1      40.812  51.355   7.149  1.00  0.00    -0.396 OA
ATOM     23  H8  UNL     1      39.877  51.520   7.125  1.00  0.00     0.210 HD
ENDBRANCH  13  22
ENDBRANCH   1  10
BRANCH   2  24
HETATM   24  O1  UNL     1      38.739  49.446  11.037  1.00  0.00    -0.358 OA
ATOM     25  H1  UNL     1      39.032  48.632  11.430  1.00  0.00     0.217 HD
ENDBRANCH   2  24
BRANCH   3  26
HETATM   26  O2  UNL     1      38.532  50.820  13.459  1.00  0.00    -0.322 OA
BRANCH  26  27
HETATM   27  C12 UNL     1      38.039  51.546  14.484  1.00  0.00     0.295 C 
HETATM   28  O3  UNL     1      38.816  51.565  15.636  1.00  0.00    -0.351 OA
HETATM   29  C13 UNL     1      37.947  52.283  16.492  1.00  0.00     0.152 C 
HETATM   30  C14 UNL     1      38.494  52.449  17.856  1.00  0.00     0.042 C 
HETATM   31  C15 UNL     1      36.723  51.392  16.429  1.00  0.00     0.180 C 
HETATM   32  C16 UNL     1      36.640  51.159  14.920  1.00  0.00     0.204 C 
BRANCH  31  33
HETATM   33  O4  UNL     1      37.048  50.205  17.076  1.00  0.00    -0.390 OA
ATOM     34  H4  UNL     1      37.030  50.382  18.009  1.00  0.00     0.210 HD
ENDBRANCH  31  33
BRANCH  32  35
HETATM   35  O5  UNL     1      36.365  49.841  14.612  1.00  0.00    -0.388 OA
ATOM     36  H5  UNL     1      35.475  49.610  14.849  1.00  0.00     0.210 HD
ENDBRANCH  32  35
ENDBRANCH  26  27
ENDBRANCH   3  26
BRANCH   7  37
HETATM   37  O7  UNL     1      41.315  53.806   9.713  1.00  0.00    -0.374 OA
ATOM     38  H7  UNL     1      41.596  53.127   9.109  1.00  0.00     0.212 HD
ENDBRANCH   7  37
TORSDOF 14
ENDMDL
MODEL 2
REMARK VINA RESULT: -8.373971968      1.163      1.970
REMARK  14 active torsions:
REMARK  status: ('A' for Active; 'I' for Inactive)
REMARK    1  A    between atoms: C2_2  and  C3_3 
REMARK    2  A    between atoms: C3_3  and  C4_4 
REMARK    3  A    between atoms: C4_4  and  C5_5 
REMARK    4  A    between atoms: C5_5  and  C6_6 
REMARK    5  A    between atoms: C6_6  and  C7_7 
REMARK    6  A    between atoms: C7_7  and  C8_8 
REMARK    7  A    between atoms: C8_8  and  C9_9 
REMARK    8  A    between atoms: C10_10  and  O1_11 
REMARK    9  A    between atoms: C11_13  and  O2_14 
REMARK   10  A    between atoms: O2_14  and  C12_15 
REMARK   11  A    between atoms: C15_19  and  O4_20 
REMARK   12  A    between atoms: C16_22  and  O5_23 
REMARK   13  A    between atoms: C19_28  and  O7_29 
REMARK   14  A    between atoms: C22_35  and  O8_36 
ROOT
HETATM    1  C9  UNL     1      40.347  50.855  10.927  1.00  0.00     0.050 C 
HETATM    2  C10 UNL     1      39.197  50.619  11.588  1.00  0.00     0.121 C 
HETATM    3  C11 UNL     1      38.492  51.423  12.642  1.00  0.00     0.323 C 
HETATM    4  O6  UNL     1      39.172  52.579  12.875  1.00  0.00    -0.346 OA
HETATM    5  C17 UNL     1      39.331  53.437  11.813  1.00  0.00     0.169 C 
HETATM    6  C18 UNL     1      38.340  53.324  10.714  1.00  0.00     0.044 C 
HETATM    7  C19 UNL     1      40.734  53.386  11.251  1.00  0.00     0.246 C 
HETATM    8  N1  UNL     1      41.180  51.988  11.123  1.00  0.00    -0.362 N 
ATOM      9  H1  UNL     1      42.183  51.817  11.182  1.00  0.00     0.162 HD
ENDROOT
BRANCH   1  10
HETATM   10  C8  UNL     1      40.785  49.867   9.933  1.00  0.00     0.007 C 
HETATM   11  C20 UNL     1      42.296  49.823   9.965  1.00  0.00     0.018 C 
HETATM   12  C21 UNL     1      42.773  49.893   8.525  1.00  0.00     0.033 C 
HETATM   13  C22 UNL     1      41.667  50.656   7.824  1.00  0.00     0.119 C 
HETATM   14  C23 UNL     1      40.397  50.252   8.526  1.00  0.00     0.047 C 
BRANCH  10  15
HETATM   15  C7  UNL     1      40.282  48.471  10.251  1.00  0.00     0.016 C 
BRANCH  15  16
HETATM   16  C6  UNL     1      39.839  47.673   9.052  1.00  0.00     0.001 C 
BRANCH  16  17
HETATM   17  C5  UNL     1      40.868  46.539   8.854  1.00  0.00     0.000 C 
BRANCH  17  18
HETATM   18  C4  UNL     1      41.138  45.874  10.204  1.00  0.00     0.000 C 
BRANCH  18  19
HETATM   19  C3  UNL     1      40.823  44.409  10.155  1.00  0.00    -0.000 C 
BRANCH  19  20
HETATM   20  C2  UNL     1      39.979  44.039   8.976  1.00  0.00    -0.005 C 
HETATM   21  C1  UNL     1      39.562  42.592   9.043  1.00  0.00     0.005 C 
ENDBRANCH  19  20
ENDBRANCH  18  19
ENDBRANCH  17  18
ENDBRANCH  16  17
ENDBRANCH  15  16
ENDBRANCH  10  15
BRANCH  13  22
HETATM   22  O8  UNL     1      41.884  52.026   7.798  1.00  0.00    -0.396 OA
ATOM     23  H8  UNL     1      41.207  52.501   7.330  1.00  0.00     0.210 HD
ENDBRANCH  13  22
ENDBRANCH   1  10
BRANCH   2  24
HETATM   24  O1  UNL     1      38.501  49.459  11.291  1.00  0.00    -0.358 OA
ATOM     25  H1  UNL     1      38.197  48.923  12.014  1.00  0.00     0.217 HD
ENDBRANCH   2  24
BRANCH   3  26
HETATM   26  O2  UNL     1      38.499  50.668  13.808  1.00  0.00    -0.322 OA
BRANCH  26  27
HETATM   27  C12 UNL     1      37.287  50.367  14.319  1.00  0.00     0.295 C 
HETATM   28  O3  UNL     1      36.229  50.408  13.419  1.00  0.00    -0.351 OA
HETATM   29  C13 UNL     1      35.154  50.177  14.311  1.00  0.00     0.152 C 
HETATM   30  C14 UNL     1      33.837  50.194  13.639  1.00  0.00     0.042 C 
HETATM   31  C15 UNL     1      35.364  51.328  15.274  1.00  0.00     0.180 C 
HETATM   32  C16 UNL     1      36.871  51.213  15.505  1.00  0.00     0.204 C 
BRANCH  31  33
HETATM   33  O4  UNL     1      35.078  52.500  14.580  1.00  0.00    -0.390 OA
ATOM     34  H4  UNL     1      34.753  53.127  15.215  1.00  0.00     0.210 HD
ENDBRANCH  31  33
BRANCH  32  35
HETATM   35  O5  UNL     1      37.495  52.445  15.486  1.00  0.00    -0.388 OA
ATOM     36  H5  UNL     1      37.060  53.043  14.891  1.00  0.00     0.210 HD
ENDBRANCH  32  35
ENDBRANCH  26  27
ENDBRANCH   3  26
BRANCH   7  37
HETATM   37  O7  UNL     1      40.792  53.987  10.009  1.00  0.00    -0.374 OA
ATOM     38  H7  UNL     1      40.600  54.916  10.071  1.00  0.00     0.212 HD
ENDBRANCH   7  37
TORSDOF 14
ENDMDL
MODEL 3
REMARK VINA RESULT: -7.547952841      1.342      1.567
REMARK  14 active torsions:
REMARK  status: ('A' for Active; 'I' for Inactive)
REMARK    1  A    between atoms: C2_2  and  C3_3 
REMARK    2  A    between atoms: C3_3  and  C4_4 
REMARK    3  A    between atoms: C4_4  and  C5_5 
REMARK    4  A    between atoms: C5_5  and  C6_6 
REMARK    5  A    between atoms: C6_6  and  C7_7 
REMARK    6  A    between atoms: C7_7  and  C8_8 
REMARK    7  A    between atoms: C8_8  and  C9_9 
REMARK    8  A    between atoms: C10_10  and  O1_11 
REMARK    9  A    between atoms: C11_13  and  O2_14 
REMARK   10  A    between atoms: O2_14  and  C12_15 
REMARK   11  A    between atoms: C15_19  and  O4_20 
REMARK   12  A    between atoms: C16_22  and  O5_23 
REMARK   13  A    between atoms: C19_28  and  O7_29 
REMARK   14  A    between atoms: C22_35  and  O8_36 
ROOT
HETATM    1  C9  UNL     1      40.490  51.626  10.874  1.00  0.00     0.050 C 
HETATM    2  C10 UNL     1      39.338  51.643  11.572  1.00  0.00     0.121 C 
HETATM    3  C11 UNL     1      38.725  52.718  12.422  1.00  0.00     0.323 C 
HETATM    4  O6  UNL     1      39.505  53.834  12.392  1.00  0.00    -0.346 OA
HETATM    5  C17 UNL     1      39.714  54.418  11.165  1.00  0.00     0.169 C 
HETATM    6  C18 UNL     1      38.695  54.152  10.120  1.00  0.00     0.044 C 
HETATM    7  C19 UNL     1      41.097  54.122  10.627  1.00  0.00     0.246 C 
HETATM    8  N1  UNL     1      41.420  52.697  10.814  1.00  0.00    -0.362 N 
ATOM      9  H1  UNL     1      42.406  52.457  10.908  1.00  0.00     0.162 HD
ENDROOT
BRANCH   1  10
HETATM   10  C8  UNL     1      40.823  50.408  10.125  1.00  0.00     0.007 C 
HETATM   11  C20 UNL     1      42.328  50.262  10.131  1.00  0.00     0.018 C 
HETATM   12  C21 UNL     1      42.752  49.967   8.704  1.00  0.00     0.033 C 
HETATM   13  C22 UNL     1      41.672  50.629   7.871  1.00  0.00     0.119 C 
HETATM   14  C23 UNL     1      40.407  50.490   8.676  1.00  0.00     0.047 C 
BRANCH  10  15
HETATM   15  C7  UNL     1      40.242  49.161  10.766  1.00  0.00     0.016 C 
BRANCH  15  16
HETATM   16  C6  UNL     1      39.989  48.022   9.813  1.00  0.00     0.001 C 
BRANCH  16  17
HETATM   17  C5  UNL     1      40.911  46.859  10.239  1.00  0.00     0.000 C 
BRANCH  17  18
HETATM   18  C4  UNL     1      40.768  45.718   9.230  1.00  0.00     0.000 C 
BRANCH  18  19
HETATM   19  C3  UNL     1      41.167  44.408   9.839  1.00  0.00    -0.000 C 
BRANCH  19  20
HETATM   20  C2  UNL     1      40.067  43.395   9.805  1.00  0.00    -0.005 C 
HETATM   21  C1  UNL     1      39.629  43.122   8.389  1.00  0.00     0.005 C 
ENDBRANCH  19  20
ENDBRANCH  18  19
ENDBRANCH  17  18
ENDBRANCH  16  17
ENDBRANCH  15  16
ENDBRANCH  10  15
BRANCH  13  22
HETATM   22  O8  UNL     1      41.978  51.938   7.526  1.00  0.00    -0.396 OA
ATOM     23  H8  UNL     1      42.599  52.343   8.120  1.00  0.00     0.210 HD
ENDBRANCH  13  22
ENDBRANCH   1  10
BRANCH   2  24
HETATM   24  O1  UNL     1      38.540  50.511  11.541  1.00  0.00    -0.358 OA
ATOM     25  H1  UNL     1      37.608  50.617  11.696  1.00  0.00     0.217 HD
ENDBRANCH   2  24
BRANCH   3  26
HETATM   26  O2  UNL     1      38.691  52.243  13.727  1.00  0.00    -0.322 OA
BRANCH  26  27
HETATM   27  C12 UNL     1      38.492  53.173  14.684  1.00  0.00     0.295 C 
HETATM   28  O3  UNL     1      39.629  53.583  15.370  1.00  0.00    -0.351 OA
HETATM   29  C13 UNL     1      39.029  54.423  16.337  1.00  0.00     0.152 C 
HETATM   30  C14 UNL     1      40.009  55.010  17.276  1.00  0.00     0.042 C 
HETATM   31  C15 UNL     1      38.078  53.436  16.985  1.00  0.00     0.180 C 
HETATM   32  C16 UNL     1      37.474  52.789  15.738  1.00  0.00     0.204 C 
BRANCH  31  33
HETATM   33  O4  UNL     1      38.856  52.509  17.671  1.00  0.00    -0.390 OA
ATOM     34  H4  UNL     1      38.284  51.792  17.917  1.00  0.00     0.210 HD
ENDBRANCH  31  33
BRANCH  32  35
HETATM   35  O5  UNL     1      37.373  51.418  15.862  1.00  0.00    -0.388 OA
ATOM     36  H5  UNL     1      36.805  51.177  16.584  1.00  0.00     0.210 HD
ENDBRANCH  32  35
ENDBRANCH  26  27
ENDBRANCH   3  26
BRANCH   7  37
HETATM   37  O7  UNL     1      41.180  54.426   9.284  1.00  0.00    -0.374 OA
ATOM     38  H7  UNL     1      42.085  54.432   8.991  1.00  0.00     0.212 HD
ENDBRANCH   7  37
TORSDOF 14
ENDMDL
MODEL 4
REMARK VINA RESULT: -7.320904919      2.490      6.957
REMARK  14 active torsions:
REMARK  status: ('A' for Active; 'I' for Inactive)
REMARK    1  A    between atoms: C2_2  and  C3_3 
REMARK    2  A    between atoms: C3_3  and  C4_4 
REMARK    3  A    between atoms: C4_4  and  C5_5 
REMARK    4  A    between atoms: C5_5  and  C6_6 
REMARK    5  A    between atoms: C6_6  and  C7_7 
REMARK    6  A    between atoms: C7_7  and  C8_8 
REMARK    7  A    between atoms: C8_8  and  C9_9 
REMARK    8  A    between atoms: C10_10  and  O1_11 
REMARK    9  A    between atoms: C11_13  and  O2_14 
REMARK   10  A    between atoms: O2_14  and  C12_15 
REMARK   11  A    between atoms: C15_19  and  O4_20 
REMARK   12  A    between atoms: C16_22  and  O5_23 
REMARK   13  A    between atoms: C19_28  and  O7_29 
REMARK   14  A    between atoms: C22_35  and  O8_36 
ROOT
HETATM    1  C9  UNL     1      40.346  50.957   9.401  1.00  0.00     0.050 C 
HETATM    2  C10 UNL     1      40.604  49.654   9.622  1.00  0.00     0.121 C 
HETATM    3  C11 UNL     1      40.951  48.550   8.665  1.00  0.00     0.323 C 
HETATM    4  O6  UNL     1      41.039  49.044   7.400  1.00  0.00    -0.346 OA
HETATM    5  C17 UNL     1      41.975  50.025   7.175  1.00  0.00     0.169 C 
HETATM    6  C18 UNL     1      43.125  50.074   8.111  1.00  0.00     0.044 C 
HETATM    7  C19 UNL     1      41.342  51.394   7.061  1.00  0.00     0.246 C 
HETATM    8  N1  UNL     1      40.341  51.581   8.126  1.00  0.00    -0.362 N 
ATOM      9  H1  UNL     1      39.572  52.219   7.928  1.00  0.00     0.162 HD
ENDROOT
BRANCH   1  10
HETATM   10  C8  UNL     1      40.034  51.803  10.561  1.00  0.00     0.007 C 
HETATM   11  C20 UNL     1      39.012  52.827  10.120  1.00  0.00     0.018 C 
HETATM   12  C21 UNL     1      39.493  54.178  10.618  1.00  0.00     0.033 C 
HETATM   13  C22 UNL     1      41.000  54.018  10.673  1.00  0.00     0.119 C 
HETATM   14  C23 UNL     1      41.234  52.578  11.048  1.00  0.00     0.047 C 
BRANCH  10  15
HETATM   15  C7  UNL     1      39.423  51.011  11.702  1.00  0.00     0.016 C 
BRANCH  15  16
HETATM   16  C6  UNL     1      37.931  51.164  11.847  1.00  0.00     0.001 C 
BRANCH  16  17
HETATM   17  C5  UNL     1      37.387  49.824  12.387  1.00  0.00     0.000 C 
BRANCH  17  18
HETATM   18  C4  UNL     1      36.295  50.112  13.419  1.00  0.00     0.000 C 
BRANCH  18  19
HETATM   19  C3  UNL     1      36.587  49.422  14.717  1.00  0.00    -0.000 C 
BRANCH  19  20
HETATM   20  C2  UNL     1      38.041  49.445  15.069  1.00  0.00    -0.005 C 
HETATM   21  C1  UNL     1      38.392  50.695  15.834  1.00  0.00     0.005 C 
ENDBRANCH  19  20
ENDBRANCH  18  19
ENDBRANCH  17  18
ENDBRANCH  16  17
ENDBRANCH  15  16
ENDBRANCH  10  15
BRANCH  13  22
HETATM   22  O8  UNL     1      41.630  54.402   9.498  1.00  0.00    -0.396 OA
ATOM     23  H8  UNL     1      41.304  53.941   8.734  1.00  0.00     0.210 HD
ENDBRANCH  13  22
ENDBRANCH   1  10
BRANCH   2  24
HETATM   24  O1  UNL     1      40.558  49.192  10.927  1.00  0.00    -0.358 OA
ATOM     25  H1  UNL     1      39.732  48.853  11.253  1.00  0.00     0.217 HD
ENDBRANCH   2  24
BRANCH   3  26
HETATM   26  O2  UNL     1      39.912  47.629   8.705  1.00  0.00    -0.322 OA
BRANCH  26  27
HETATM   27  C12 UNL     1      40.253  46.350   8.441  1.00  0.00     0.295 C 
HETATM   28  O3  UNL     1      39.252  45.407   8.643  1.00  0.00    -0.351 OA
HETATM   29  C13 UNL     1      39.992  44.225   8.402  1.00  0.00     0.152 C 
HETATM   30  C14 UNL     1      39.186  42.998   8.577  1.00  0.00     0.042 C 
HETATM   31  C15 UNL     1      41.088  44.388   9.436  1.00  0.00     0.180 C 
HETATM   32  C16 UNL     1      41.468  45.849   9.194  1.00  0.00     0.204 C 
BRANCH  31  33
HETATM   33  O4  UNL     1      40.494  44.253  10.686  1.00  0.00    -0.390 OA
ATOM     34  H4  UNL     1      40.662  45.058  11.163  1.00  0.00     0.210 HD
ENDBRANCH  31  33
BRANCH  32  35
HETATM   35  O5  UNL     1      41.648  46.542  10.375  1.00  0.00    -0.388 OA
ATOM     36  H5  UNL     1      41.849  47.455  10.212  1.00  0.00     0.210 HD
ENDBRANCH  32  35
ENDBRANCH  26  27
ENDBRANCH   3  26
BRANCH   7  37
HETATM   37  O7  UNL     1      42.293  52.389   7.164  1.00  0.00    -0.374 OA
ATOM     38  H7  UNL     1      42.120  53.091   6.547  1.00  0.00     0.212 HD
ENDBRANCH   7  37
TORSDOF 14
ENDMDL
MODEL 5
REMARK VINA RESULT: -6.893604463      3.615      6.973
REMARK  14 active torsions:
REMARK  status: ('A' for Active; 'I' for Inactive)
REMARK    1  A    between atoms: C2_2  and  C3_3 
REMARK    2  A    between atoms: C3_3  and  C4_4 
REMARK    3  A    between atoms: C4_4  and  C5_5 
REMARK    4  A    between atoms: C5_5  and  C6_6 
REMARK    5  A    between atoms: C6_6  and  C7_7 
REMARK    6  A    between atoms: C7_7  and  C8_8 
REMARK    7  A    between atoms: C8_8  and  C9_9 
REMARK    8  A    between atoms: C10_10  and  O1_11 
REMARK    9  A    between atoms: C11_13  and  O2_14 
REMARK   10  A    between atoms: O2_14  and  C12_15 
REMARK   11  A    between atoms: C15_19  and  O4_20 
REMARK   12  A    between atoms: C16_22  and  O5_23 
REMARK   13  A    between atoms: C19_28  and  O7_29 
REMARK   14  A    between atoms: C22_35  and  O8_36 
ROOT
HETATM    1  C9  UNL     1      36.005  51.682  13.077  1.00  0.00     0.050 C 
HETATM    2  C10 UNL     1      36.217  52.922  12.596  1.00  0.00     0.121 C 
HETATM    3  C11 UNL     1      35.251  54.025  12.272  1.00  0.00     0.323 C 
HETATM    4  O6  UNL     1      33.984  53.637  12.584  1.00  0.00    -0.346 OA
HETATM    5  C17 UNL     1      33.735  53.312  13.896  1.00  0.00     0.169 C 
HETATM    6  C18 UNL     1      34.640  53.905  14.911  1.00  0.00     0.044 C 
HETATM    7  C19 UNL     1      33.639  51.816  14.099  1.00  0.00     0.246 C 
HETATM    8  N1  UNL     1      34.731  51.136  13.381  1.00  0.00    -0.362 N 
ATOM      9  H1  UNL     1      34.553  50.180  13.073  1.00  0.00     0.162 HD
ENDROOT
BRANCH   1  10
HETATM   10  C8  UNL     1      37.173  50.819  13.296  1.00  0.00     0.007 C 
HETATM   11  C20 UNL     1      36.670  49.406  13.483  1.00  0.00     0.018 C 
HETATM   12  C21 UNL     1      37.369  48.843  14.708  1.00  0.00     0.033 C 
HETATM   13  C22 UNL     1      37.656  50.074  15.546  1.00  0.00     0.119 C 
HETATM   14  C23 UNL     1      37.925  51.176  14.556  1.00  0.00     0.047 C 
BRANCH  10  15
HETATM   15  C7  UNL     1      38.116  50.815  12.107  1.00  0.00     0.016 C 
BRANCH  15  16
HETATM   16  C6  UNL     1      38.407  49.449  11.540  1.00  0.00     0.001 C 
BRANCH  16  17
HETATM   17  C5  UNL     1      39.812  49.512  10.902  1.00  0.00     0.000 C 
BRANCH  17  18
HETATM   18  C4  UNL     1      39.959  48.354   9.913  1.00  0.00     0.000 C 
BRANCH  18  19
HETATM   19  C3  UNL     1      41.008  47.386  10.371  1.00  0.00    -0.000 C 
BRANCH  19  20
HETATM   20  C2  UNL     1      41.018  46.123   9.570  1.00  0.00    -0.005 C 
HETATM   21  C1  UNL     1      41.059  44.914  10.469  1.00  0.00     0.005 C 
ENDBRANCH  19  20
ENDBRANCH  18  19
ENDBRANCH  17  18
ENDBRANCH  16  17
ENDBRANCH  15  16
ENDBRANCH  10  15
BRANCH  13  22
HETATM   22  O8  UNL     1      36.644  50.364  16.450  1.00  0.00    -0.396 OA
ATOM     23  H8  UNL     1      36.336  51.260  16.388  1.00  0.00     0.210 HD
ENDBRANCH  13  22
ENDBRANCH   1  10
BRANCH   2  24
HETATM   24  O1  UNL     1      37.523  53.306  12.337  1.00  0.00    -0.358 OA
ATOM     25  H1  UNL     1      38.120  52.654  11.989  1.00  0.00     0.217 HD
ENDBRANCH   2  24
BRANCH   3  26
HETATM   26  O2  UNL     1      35.318  54.241  10.901  1.00  0.00    -0.322 OA
BRANCH  26  27
HETATM   27  C12 UNL     1      35.346  55.533  10.512  1.00  0.00     0.295 C 
HETATM   28  O3  UNL     1      34.607  55.834   9.374  1.00  0.00    -0.351 OA
HETATM   29  C13 UNL     1      34.973  57.192   9.211  1.00  0.00     0.152 C 
HETATM   30  C14 UNL     1      34.354  57.813   8.020  1.00  0.00     0.042 C 
HETATM   31  C15 UNL     1      36.478  57.045   9.111  1.00  0.00     0.180 C 
HETATM   32  C16 UNL     1      36.733  56.096  10.282  1.00  0.00     0.204 C 
BRANCH  31  33
HETATM   33  O4  UNL     1      36.747  56.400   7.909  1.00  0.00    -0.390 OA
ATOM     34  H4  UNL     1      37.680  56.219   7.892  1.00  0.00     0.210 HD
ENDBRANCH  31  33
BRANCH  32  35
HETATM   35  O5  UNL     1      37.631  55.099   9.957  1.00  0.00    -0.388 OA
ATOM     36  H5  UNL     1      38.523  55.426   9.952  1.00  0.00     0.210 HD
ENDBRANCH  32  35
ENDBRANCH  26  27
ENDBRANCH   3  26
BRANCH   7  37
HETATM   37  O7  UNL     1      33.717  51.493  15.438  1.00  0.00    -0.374 OA
ATOM     38  H7  UNL     1      34.592  51.649  15.776  1.00  0.00     0.212 HD
ENDBRANCH   7  37
TORSDOF 14
ENDMDL
