MODEL 1
REMARK VINA RESULT: -8.257868994      0.000      0.000
REMARK  14 active torsions:
REMARK  status: ('A' for Active; 'I' for Inactive)
REMARK    1  A    between atoms: C2_2  and  C3_3 
REMARK    2  A    between atoms: C3_3  and  C4_4 
REMARK    3  A    between atoms: C5_5  and  C6_6 
REMARK    4  A    between atoms: C7_7  and  C8_8 
REMARK    5  A    between atoms: C9_9  and  C10_10 
REMARK    6  A    between atoms: C10_10  and  C11_11 
REMARK    7  A    between atoms: C13_14  and  O2_15 
REMARK    8  A    between atoms: O2_15  and  C14_16 
REMARK    9  A    between atoms: C15_18  and  C16_19 
REMARK   10  A    between atoms: C16_19  and  O4_20 
REMARK   11  A    between atoms: C17_22  and  O5_23 
REMARK   12  A    between atoms: C18_25  and  O6_26 
REMARK   13  A    between atoms: C20_29  and  O7_30 
REMARK   14  A    between atoms: C21_32  and  O8_33 
ROOT
HETATM    1  C11 UNL     1      40.125  51.334  11.026  1.00  0.00     0.195 C 
HETATM    2  O1  UNL     1      40.389  51.687   9.679  1.00  0.00    -0.369 OA
HETATM    3  C12 UNL     1      40.683  53.018   9.688  1.00  0.00     0.165 C 
HETATM    4  C13 UNL     1      40.629  53.733   8.403  1.00  0.00     0.157 C 
HETATM    5  C19 UNL     1      39.533  54.808   8.394  1.00  0.00     0.069 C 
HETATM    6  C20 UNL     1      39.680  55.747   9.571  1.00  0.00     0.150 C 
HETATM    7  C21 UNL     1      39.882  54.967  10.880  1.00  0.00     0.161 C 
HETATM    8  C22 UNL     1      39.546  53.553  10.580  1.00  0.00     0.121 C 
HETATM    9  C23 UNL     1      39.742  52.601  11.694  1.00  0.00     0.165 C 
HETATM   10  O9  UNL     1      39.612  52.833  12.860  1.00  0.00    -0.295 OA
ENDROOT
BRANCH   4  11
HETATM   11  O2  UNL     1      40.472  52.946   7.291  1.00  0.00    -0.351 OA
BRANCH  11  12
HETATM   12  C14 UNL     1      41.722  52.691   6.733  1.00  0.00     0.292 C 
HETATM   13  O3  UNL     1      41.734  52.826   5.350  1.00  0.00    -0.348 OA
HETATM   14  C15 UNL     1      42.869  52.181   4.919  1.00  0.00     0.179 C 
HETATM   15  C17 UNL     1      43.006  50.968   5.807  1.00  0.00     0.182 C 
HETATM   16  C18 UNL     1      42.165  51.271   7.021  1.00  0.00     0.204 C 
BRANCH  14  17
HETATM   17  C16 UNL     1      42.605  51.734   3.475  1.00  0.00     0.198 C 
BRANCH  17  18
HETATM   18  O4  UNL     1      41.233  51.688   3.267  1.00  0.00    -0.398 OA
ATOM     19  H4  UNL     1      40.904  50.854   3.582  1.00  0.00     0.209 HD
ENDBRANCH  17  18
ENDBRANCH  14  17
BRANCH  15  20
HETATM   20  O5  UNL     1      42.431  49.890   5.135  1.00  0.00    -0.390 OA
ATOM     21  H5  UNL     1      42.796  49.095   5.505  1.00  0.00     0.210 HD
ENDBRANCH  15  20
BRANCH  16  22
HETATM   22  O6  UNL     1      41.080  50.414   7.144  1.00  0.00    -0.388 OA
ATOM     23  H6  UNL     1      40.357  50.829   7.600  1.00  0.00     0.210 HD
ENDBRANCH  16  22
ENDBRANCH  11  12
ENDBRANCH   4  11
BRANCH   6  24
HETATM   24  O7  UNL     1      38.448  56.414   9.709  1.00  0.00    -0.393 OA
ATOM     25  H7  UNL     1      38.095  56.160  10.555  1.00  0.00     0.210 HD
ENDBRANCH   6  24
BRANCH   1  26
HETATM   26  C10 UNL     1      38.926  50.413  11.050  1.00  0.00     0.067 C 
BRANCH  26  27
HETATM   27  C9  UNL     1      39.410  49.012  11.090  1.00  0.00    -0.024 C 
HETATM   28  C8  UNL     1      40.637  48.694  10.623  1.00  0.00    -0.004 C 
BRANCH  28  29
HETATM   29  C7  UNL     1      41.097  47.342  10.664  1.00  0.00    -0.000 C 
HETATM   30  C6  UNL     1      41.104  46.563   9.596  1.00  0.00    -0.000 C 
BRANCH  30  31
HETATM   31  C5  UNL     1      40.664  46.958   8.286  1.00  0.00    -0.004 C 
HETATM   32  C4  UNL     1      39.609  46.484   7.696  1.00  0.00    -0.027 C 
BRANCH  32  33
HETATM   33  C3  UNL     1      38.713  45.478   8.281  1.00  0.00     0.027 C 
BRANCH  33  34
HETATM   34  C2  UNL     1      39.180  44.128   7.741  1.00  0.00    -0.001 C 
HETATM   35  C1  UNL     1      39.677  43.217   8.821  1.00  0.00     0.005 C 
ENDBRANCH  33  34
ENDBRANCH  32  33
ENDBRANCH  30  31
ENDBRANCH  28  29
ENDBRANCH  26  27
ENDBRANCH   1  26
BRANCH   7  36
HETATM   36  O8  UNL     1      41.265  55.036  11.129  1.00  0.00    -0.392 OA
ATOM     37  H8  UNL     1      41.421  54.394  11.812  1.00  0.00     0.210 HD
ENDBRANCH   7  36
TORSDOF 14
ENDMDL
MODEL 2
REMARK VINA RESULT: -8.096957170      2.355      4.311
REMARK  14 active torsions:
REMARK  status: ('A' for Active; 'I' for Inactive)
REMARK    1  A    between atoms: C2_2  and  C3_3 
REMARK    2  A    between atoms: C3_3  and  C4_4 
REMARK    3  A    between atoms: C5_5  and  C6_6 
REMARK    4  A    between atoms: C7_7  and  C8_8 
REMARK    5  A    between atoms: C9_9  and  C10_10 
REMARK    6  A    between atoms: C10_10  and  C11_11 
REMARK    7  A    between atoms: C13_14  and  O2_15 
REMARK    8  A    between atoms: O2_15  and  C14_16 
REMARK    9  A    between atoms: C15_18  and  C16_19 
REMARK   10  A    between atoms: C16_19  and  O4_20 
REMARK   11  A    between atoms: C17_22  and  O5_23 
REMARK   12  A    between atoms: C18_25  and  O6_26 
REMARK   13  A    between atoms: C20_29  and  O7_30 
REMARK   14  A    between atoms: C21_32  and  O8_33 
ROOT
HETATM    1  C11 UNL     1      40.991  47.515   8.042  1.00  0.00     0.195 C 
HETATM    2  O1  UNL     1      40.932  48.741   7.333  1.00  0.00    -0.369 OA
HETATM    3  C12 UNL     1      41.610  49.648   8.090  1.00  0.00     0.165 C 
HETATM    4  C13 UNL     1      41.395  51.074   7.797  1.00  0.00     0.157 C 
HETATM    5  C19 UNL     1      40.736  51.806   8.975  1.00  0.00     0.069 C 
HETATM    6  C20 UNL     1      41.514  51.592  10.254  1.00  0.00     0.150 C 
HETATM    7  C21 UNL     1      41.851  50.106  10.456  1.00  0.00     0.161 C 
HETATM    8  C22 UNL     1      41.020  49.353   9.483  1.00  0.00     0.121 C 
HETATM    9  C23 UNL     1      41.239  47.891   9.453  1.00  0.00     0.165 C 
HETATM   10  O9  UNL     1      41.546  47.199  10.380  1.00  0.00    -0.295 OA
ENDROOT
BRANCH   4  11
HETATM   11  O2  UNL     1      40.675  51.345   6.662  1.00  0.00    -0.351 OA
BRANCH  11  12
HETATM   12  C14 UNL     1      41.331  52.330   5.930  1.00  0.00     0.292 C 
HETATM   13  O3  UNL     1      40.495  52.984   5.031  1.00  0.00    -0.348 OA
HETATM   14  C15 UNL     1      41.325  53.616   4.137  1.00  0.00     0.179 C 
HETATM   15  C17 UNL     1      42.482  52.670   3.921  1.00  0.00     0.182 C 
HETATM   16  C18 UNL     1      42.453  51.736   5.104  1.00  0.00     0.204 C 
BRANCH  14  17
HETATM   17  C16 UNL     1      40.535  53.769   2.831  1.00  0.00     0.198 C 
BRANCH  17  18
HETATM   18  O4  UNL     1      39.510  52.833   2.817  1.00  0.00    -0.398 OA
ATOM     19  H4  UNL     1      39.453  52.455   1.947  1.00  0.00     0.209 HD
ENDBRANCH  17  18
ENDBRANCH  14  17
BRANCH  15  20
HETATM   20  O5  UNL     1      42.209  51.929   2.772  1.00  0.00    -0.390 OA
ATOM     21  H5  UNL     1      41.660  51.198   3.027  1.00  0.00     0.210 HD
ENDBRANCH  15  20
BRANCH  16  22
HETATM   22  O6  UNL     1      42.179  50.425   4.740  1.00  0.00    -0.388 OA
ATOM     23  H6  UNL     1      41.853  50.372   3.849  1.00  0.00     0.210 HD
ENDBRANCH  16  22
ENDBRANCH  11  12
ENDBRANCH   4  11
BRANCH   6  24
HETATM   24  O7  UNL     1      40.652  51.936  11.312  1.00  0.00    -0.393 OA
ATOM     25  H7  UNL     1      40.639  51.193  11.904  1.00  0.00     0.210 HD
ENDBRANCH   6  24
BRANCH   1  26
HETATM   26  C10 UNL     1      39.631  46.856   7.966  1.00  0.00     0.067 C 
BRANCH  26  27
HETATM   27  C9  UNL     1      39.564  45.797   9.002  1.00  0.00    -0.024 C 
HETATM   28  C8  UNL     1      40.061  44.564   8.760  1.00  0.00    -0.004 C 
BRANCH  28  29
HETATM   29  C7  UNL     1      39.993  43.549   9.763  1.00  0.00    -0.000 C 
HETATM   30  C6  UNL     1      39.750  42.282   9.474  1.00  0.00    -0.000 C 
BRANCH  30  31
HETATM   31  C5  UNL     1      39.528  41.768   8.150  1.00  0.00    -0.004 C 
HETATM   32  C4  UNL     1      39.474  40.505   7.857  1.00  0.00    -0.027 C 
BRANCH  32  33
HETATM   33  C3  UNL     1      39.634  39.419   8.833  1.00  0.00     0.027 C 
BRANCH  33  34
HETATM   34  C2  UNL     1      40.032  38.183   8.031  1.00  0.00    -0.001 C 
HETATM   35  C1  UNL     1      39.264  36.962   8.436  1.00  0.00     0.005 C 
ENDBRANCH  33  34
ENDBRANCH  32  33
ENDBRANCH  30  31
ENDBRANCH  28  29
ENDBRANCH  26  27
ENDBRANCH   1  26
BRANCH   7  36
HETATM   36  O8  UNL     1      43.194  49.984  10.057  1.00  0.00    -0.392 OA
ATOM     37  H8  UNL     1      43.569  49.347  10.654  1.00  0.00     0.210 HD
ENDBRANCH   7  36
TORSDOF 14
ENDMDL
MODEL 3
REMARK VINA RESULT: -8.076359115      3.489      5.950
REMARK  14 active torsions:
REMARK  status: ('A' for Active; 'I' for Inactive)
REMARK    1  A    between atoms: C2_2  and  C3_3 
REMARK    2  A    between atoms: C3_3  and  C4_4 
REMARK    3  A    between atoms: C5_5  and  C6_6 
REMARK    4  A    between atoms: C7_7  and  C8_8 
REMARK    5  A    between atoms: C9_9  and  C10_10 
REMARK    6  A    between atoms: C10_10  and  C11_11 
REMARK    7  A    between atoms: C13_14  and  O2_15 
REMARK    8  A    between atoms: O2_15  and  C14_16 
REMARK    9  A    between atoms: C15_18  and  C16_19 
REMARK   10  A    between atoms: C16_19  and  O4_20 
REMARK   11  A    between atoms: C17_22  and  O5_23 
REMARK   12  A    between atoms: C18_25  and  O6_26 
REMARK   13  A    between atoms: C20_29  and  O7_30 
REMARK   14  A    between atoms: C21_32  and  O8_33 
ROOT
HETATM    1  C11 UNL     1      36.140  50.023  14.211  1.00  0.00     0.195 C 
HETATM    2  O1  UNL     1      36.900  51.220  14.235  1.00  0.00    -0.369 OA
HETATM    3  C12 UNL     1      35.998  52.241  14.234  1.00  0.00     0.165 C 
HETATM    4  C13 UNL     1      36.490  53.581  13.879  1.00  0.00     0.157 C 
HETATM    5  C19 UNL     1      35.850  54.100  12.584  1.00  0.00     0.069 C 
HETATM    6  C20 UNL     1      34.341  54.042  12.660  1.00  0.00     0.150 C 
HETATM    7  C21 UNL     1      33.864  52.675  13.175  1.00  0.00     0.161 C 
HETATM    8  C22 UNL     1      35.042  51.773  13.120  1.00  0.00     0.121 C 
HETATM    9  C23 UNL     1      34.826  50.408  13.643  1.00  0.00     0.165 C 
HETATM   10  O9  UNL     1      33.807  49.782  13.602  1.00  0.00    -0.295 OA
ENDROOT
BRANCH   4  11
HETATM   11  O2  UNL     1      37.852  53.704  13.769  1.00  0.00    -0.351 OA
BRANCH  11  12
HETATM   12  C14 UNL     1      38.167  54.142  12.486  1.00  0.00     0.292 C 
HETATM   13  O3  UNL     1      38.984  53.254  11.796  1.00  0.00    -0.348 OA
HETATM   14  C15 UNL     1      39.520  53.968  10.752  1.00  0.00     0.179 C 
HETATM   15  C17 UNL     1      39.784  55.349  11.300  1.00  0.00     0.182 C 
HETATM   16  C18 UNL     1      38.920  55.456  12.532  1.00  0.00     0.204 C 
BRANCH  14  17
HETATM   17  C16 UNL     1      40.850  53.295  10.390  1.00  0.00     0.198 C 
BRANCH  17  18
HETATM   18  O4  UNL     1      41.353  52.665  11.520  1.00  0.00    -0.398 OA
ATOM     19  H4  UNL     1      41.858  51.907  11.248  1.00  0.00     0.209 HD
ENDBRANCH  17  18
ENDBRANCH  14  17
BRANCH  15  20
HETATM   20  O5  UNL     1      41.119  55.394  11.698  1.00  0.00    -0.390 OA
ATOM     21  H5  UNL     1      41.528  56.122  11.246  1.00  0.00     0.210 HD
ENDBRANCH  15  20
BRANCH  16  22
HETATM   22  O6  UNL     1      39.667  55.576  13.696  1.00  0.00    -0.388 OA
ATOM     23  H6  UNL     1      40.459  56.081  13.552  1.00  0.00     0.210 HD
ENDBRANCH  16  22
ENDBRANCH  11  12
ENDBRANCH   4  11
BRANCH   6  24
HETATM   24  O7  UNL     1      33.868  54.138  11.338  1.00  0.00    -0.393 OA
ATOM     25  H7  UNL     1      33.500  55.009  11.244  1.00  0.00     0.210 HD
ENDBRANCH   6  24
BRANCH   1  26
HETATM   26  C10 UNL     1      36.800  49.061  13.249  1.00  0.00     0.067 C 
BRANCH  26  27
HETATM   27  C9  UNL     1      37.894  49.774  12.546  1.00  0.00    -0.024 C 
HETATM   28  C8  UNL     1      38.488  49.226  11.463  1.00  0.00    -0.004 C 
BRANCH  28  29
HETATM   29  C7  UNL     1      39.541  49.919  10.790  1.00  0.00    -0.000 C 
HETATM   30  C6  UNL     1      40.652  49.316  10.403  1.00  0.00    -0.000 C 
BRANCH  30  31
HETATM   31  C5  UNL     1      40.944  47.923  10.600  1.00  0.00    -0.004 C 
HETATM   32  C4  UNL     1      40.873  47.023   9.668  1.00  0.00    -0.027 C 
BRANCH  32  33
HETATM   33  C3  UNL     1      40.483  47.296   8.278  1.00  0.00     0.027 C 
BRANCH  33  34
HETATM   34  C2  UNL     1      39.081  46.716   8.108  1.00  0.00    -0.001 C 
HETATM   35  C1  UNL     1      39.072  45.219   8.128  1.00  0.00     0.005 C 
ENDBRANCH  33  34
ENDBRANCH  32  33
ENDBRANCH  30  31
ENDBRANCH  28  29
ENDBRANCH  26  27
ENDBRANCH   1  26
BRANCH   7  36
HETATM   36  O8  UNL     1      33.552  52.889  14.530  1.00  0.00    -0.392 OA
ATOM     37  H8  UNL     1      34.391  52.894  14.975  1.00  0.00     0.210 HD
ENDBRANCH   7  36
TORSDOF 14
ENDMDL
MODEL 4
REMARK VINA RESULT: -7.964258832      2.978      7.122
REMARK  14 active torsions:
REMARK  status: ('A' for Active; 'I' for Inactive)
REMARK    1  A    between atoms: C2_2  and  C3_3 
REMARK    2  A    between atoms: C3_3  and  C4_4 
REMARK    3  A    between atoms: C5_5  and  C6_6 
REMARK    4  A    between atoms: C7_7  and  C8_8 
REMARK    5  A    between atoms: C9_9  and  C10_10 
REMARK    6  A    between atoms: C10_10  and  C11_11 
REMARK    7  A    between atoms: C13_14  and  O2_15 
REMARK    8  A    between atoms: O2_15  and  C14_16 
REMARK    9  A    between atoms: C15_18  and  C16_19 
REMARK   10  A    between atoms: C16_19  and  O4_20 
REMARK   11  A    between atoms: C17_22  and  O5_23 
REMARK   12  A    between atoms: C18_25  and  O6_26 
REMARK   13  A    between atoms: C20_29  and  O7_30 
REMARK   14  A    between atoms: C21_32  and  O8_33 
ROOT
HETATM    1  C11 UNL     1      40.034  47.934   9.363  1.00  0.00     0.195 C 
HETATM    2  O1  UNL     1      39.209  48.466  10.386  1.00  0.00    -0.369 OA
HETATM    3  C12 UNL     1      39.272  49.821  10.257  1.00  0.00     0.165 C 
HETATM    4  C13 UNL     1      38.826  50.633  11.399  1.00  0.00     0.157 C 
HETATM    5  C19 UNL     1      39.976  51.455  11.998  1.00  0.00     0.069 C 
HETATM    6  C20 UNL     1      40.665  52.283  10.937  1.00  0.00     0.150 C 
HETATM    7  C21 UNL     1      40.986  51.436   9.695  1.00  0.00     0.161 C 
HETATM    8  C22 UNL     1      40.791  50.020  10.094  1.00  0.00     0.121 C 
HETATM    9  C23 UNL     1      40.979  49.023   9.018  1.00  0.00     0.165 C 
HETATM   10  O9  UNL     1      41.733  49.107   8.093  1.00  0.00    -0.295 OA
ENDROOT
BRANCH   4  11
HETATM   11  O2  UNL     1      38.211  49.945  12.414  1.00  0.00    -0.351 OA
BRANCH  11  12
HETATM   12  C14 UNL     1      37.629  50.852  13.293  1.00  0.00     0.292 C 
HETATM   13  O3  UNL     1      38.485  51.235  14.320  1.00  0.00    -0.348 OA
HETATM   14  C15 UNL     1      37.684  51.789  15.290  1.00  0.00     0.179 C 
HETATM   15  C17 UNL     1      36.423  50.959  15.296  1.00  0.00     0.182 C 
HETATM   16  C18 UNL     1      36.410  50.253  13.964  1.00  0.00     0.204 C 
BRANCH  14  17
HETATM   17  C16 UNL     1      38.420  51.616  16.625  1.00  0.00     0.198 C 
BRANCH  17  18
HETATM   18  O4  UNL     1      39.351  50.595  16.492  1.00  0.00    -0.398 OA
ATOM     19  H4  UNL     1      39.636  50.326  17.358  1.00  0.00     0.209 HD
ENDBRANCH  17  18
ENDBRANCH  14  17
BRANCH  15  20
HETATM   20  O5  UNL     1      36.558  49.999  16.298  1.00  0.00    -0.390 OA
ATOM     21  H5  UNL     1      35.687  49.783  16.606  1.00  0.00     0.210 HD
ENDBRANCH  15  20
BRANCH  16  22
HETATM   22  O6  UNL     1      36.524  48.875  14.091  1.00  0.00    -0.388 OA
ATOM     23  H6  UNL     1      36.168  48.425  13.334  1.00  0.00     0.210 HD
ENDBRANCH  16  22
ENDBRANCH  11  12
ENDBRANCH   4  11
BRANCH   6  24
HETATM   24  O7  UNL     1      41.910  52.666  11.471  1.00  0.00    -0.393 OA
ATOM     25  H7  UNL     1      41.850  52.546  12.412  1.00  0.00     0.210 HD
ENDBRANCH   6  24
BRANCH   1  26
HETATM   26  C10 UNL     1      40.833  46.789   9.943  1.00  0.00     0.067 C 
BRANCH  26  27
HETATM   27  C9  UNL     1      40.784  45.652   8.992  1.00  0.00    -0.024 C 
HETATM   28  C8  UNL     1      39.600  45.122   8.614  1.00  0.00    -0.004 C 
BRANCH  28  29
HETATM   29  C7  UNL     1      39.559  44.027   7.697  1.00  0.00    -0.000 C 
HETATM   30  C6  UNL     1      39.532  42.768   8.098  1.00  0.00    -0.000 C 
BRANCH  30  31
HETATM   31  C5  UNL     1      39.539  42.340   9.470  1.00  0.00    -0.004 C 
HETATM   32  C4  UNL     1      39.153  41.168   9.872  1.00  0.00    -0.027 C 
BRANCH  32  33
HETATM   33  C3  UNL     1      38.654  40.109   8.985  1.00  0.00     0.027 C 
BRANCH  33  34
HETATM   34  C2  UNL     1      39.855  39.222   8.664  1.00  0.00    -0.001 C 
HETATM   35  C1  UNL     1      39.453  37.849   8.220  1.00  0.00     0.005 C 
ENDBRANCH  33  34
ENDBRANCH  32  33
ENDBRANCH  30  31
ENDBRANCH  28  29
ENDBRANCH  26  27
ENDBRANCH   1  26
BRANCH   7  36
HETATM   36  O8  UNL     1      39.980  51.762   8.767  1.00  0.00    -0.392 OA
ATOM     37  H8  UNL     1      39.164  51.601   9.226  1.00  0.00     0.210 HD
ENDBRANCH   7  36
TORSDOF 14
ENDMDL
MODEL 5
REMARK VINA RESULT: -7.920432662      3.977      6.706
REMARK  14 active torsions:
REMARK  status: ('A' for Active; 'I' for Inactive)
REMARK    1  A    between atoms: C2_2  and  C3_3 
REMARK    2  A    between atoms: C3_3  and  C4_4 
REMARK    3  A    between atoms: C5_5  and  C6_6 
REMARK    4  A    between atoms: C7_7  and  C8_8 
REMARK    5  A    between atoms: C9_9  and  C10_10 
REMARK    6  A    between atoms: C10_10  and  C11_11 
REMARK    7  A    between atoms: C13_14  and  O2_15 
REMARK    8  A    between atoms: O2_15  and  C14_16 
REMARK    9  A    between atoms: C15_18  and  C16_19 
REMARK   10  A    between atoms: C16_19  and  O4_20 
REMARK   11  A    between atoms: C17_22  and  O5_23 
REMARK   12  A    between atoms: C18_25  and  O6_26 
REMARK   13  A    between atoms: C20_29  and  O7_30 
REMARK   14  A    between atoms: C21_32  and  O8_33 
ROOT
HETATM    1  C11 UNL     1      38.144  49.981  13.111  1.00  0.00     0.195 C 
HETATM    2  O1  UNL     1      38.815  51.028  13.791  1.00  0.00    -0.369 OA
HETATM    3  C12 UNL     1      38.191  51.157  14.996  1.00  0.00     0.165 C 
HETATM    4  C13 UNL     1      38.423  52.398  15.751  1.00  0.00     0.157 C 
HETATM    5  C19 UNL     1      37.134  53.215  15.916  1.00  0.00     0.069 C 
HETATM    6  C20 UNL     1      36.028  52.374  16.514  1.00  0.00     0.150 C 
HETATM    7  C21 UNL     1      35.910  51.021  15.796  1.00  0.00     0.161 C 
HETATM    8  C22 UNL     1      36.715  51.136  14.554  1.00  0.00     0.121 C 
HETATM    9  C23 UNL     1      36.801  49.909  13.733  1.00  0.00     0.165 C 
HETATM   10  O9  UNL     1      35.958  49.068  13.620  1.00  0.00    -0.295 OA
ENDROOT
BRANCH   4  11
HETATM   11  O2  UNL     1      39.398  53.224  15.252  1.00  0.00    -0.351 OA
BRANCH  11  12
HETATM   12  C14 UNL     1      38.801  54.227  14.494  1.00  0.00     0.292 C 
HETATM   13  O3  UNL     1      39.205  54.212  13.164  1.00  0.00    -0.348 OA
HETATM   14  C15 UNL     1      38.868  55.444  12.655  1.00  0.00     0.179 C 
HETATM   15  C17 UNL     1      39.132  56.427  13.769  1.00  0.00     0.182 C 
HETATM   16  C18 UNL     1      39.163  55.598  15.027  1.00  0.00     0.204 C 
BRANCH  14  17
HETATM   17  C16 UNL     1      39.826  55.719  11.489  1.00  0.00     0.198 C 
BRANCH  17  18
HETATM   18  O4  UNL     1      40.857  54.790  11.530  1.00  0.00    -0.398 OA
ATOM     19  H4  UNL     1      40.705  54.134  10.859  1.00  0.00     0.209 HD
ENDBRANCH  17  18
ENDBRANCH  14  17
BRANCH  15  20
HETATM   20  O5  UNL     1      40.403  56.961  13.565  1.00  0.00    -0.390 OA
ATOM     21  H5  UNL     1      41.034  56.277  13.755  1.00  0.00     0.210 HD
ENDBRANCH  15  20
BRANCH  16  22
HETATM   22  O6  UNL     1      40.413  55.597  15.632  1.00  0.00    -0.388 OA
ATOM     23  H6  UNL     1      40.985  56.251  15.250  1.00  0.00     0.210 HD
ENDBRANCH  16  22
ENDBRANCH  11  12
ENDBRANCH   4  11
BRANCH   6  24
HETATM   24  O7  UNL     1      34.822  53.052  16.255  1.00  0.00    -0.393 OA
ATOM     25  H7  UNL     1      34.133  52.553  16.679  1.00  0.00     0.210 HD
ENDBRANCH   6  24
BRANCH   1  26
HETATM   26  C10 UNL     1      37.966  50.390  11.666  1.00  0.00     0.067 C 
BRANCH  26  27
HETATM   27  C9  UNL     1      39.195  50.026  10.919  1.00  0.00    -0.024 C 
HETATM   28  C8  UNL     1      39.553  48.731  10.773  1.00  0.00    -0.004 C 
BRANCH  28  29
HETATM   29  C7  UNL     1      40.737  48.387  10.053  1.00  0.00    -0.000 C 
HETATM   30  C6  UNL     1      40.708  47.672   8.941  1.00  0.00    -0.000 C 
BRANCH  30  31
HETATM   31  C5  UNL     1      39.516  47.159   8.323  1.00  0.00    -0.004 C 
HETATM   32  C4  UNL     1      39.175  45.907   8.321  1.00  0.00    -0.027 C 
BRANCH  32  33
HETATM   33  C3  UNL     1      39.955  44.833   8.949  1.00  0.00     0.027 C 
BRANCH  33  34
HETATM   34  C2  UNL     1      39.471  43.531   8.317  1.00  0.00    -0.001 C 
HETATM   35  C1  UNL     1      39.522  42.376   9.270  1.00  0.00     0.005 C 
ENDBRANCH  33  34
ENDBRANCH  32  33
ENDBRANCH  30  31
ENDBRANCH  28  29
ENDBRANCH  26  27
ENDBRANCH   1  26
BRANCH   7  36
HETATM   36  O8  UNL     1      36.558  50.105  16.644  1.00  0.00    -0.392 OA
ATOM     37  H8  UNL     1      36.060  49.300  16.559  1.00  0.00     0.210 HD
ENDBRANCH   7  36
TORSDOF 14
ENDMDL
