MODEL 1
REMARK VINA RESULT: -8.095321755      0.000      0.000
REMARK  8 active torsions:
REMARK  status: ('A' for Active; 'I' for Inactive)
REMARK    1  A    between atoms: N1_11  and  C10_12 
REMARK    2  A    between atoms: C10_12  and  C11_13 
REMARK    3  A    between atoms: C11_13  and  C12_14 
REMARK    4  A    between atoms: C17_22  and  C19_24 
REMARK    5  A    between atoms: C19_24  and  C20_25 
REMARK       I    between atoms: C20_25  and  N3_27 
REMARK    6  A    between atoms: N3_27  and  C21_29 
REMARK    7  A    between atoms: C21_29  and  C22_30 
REMARK    8  A    between atoms: C22_30  and  C23_31 
ROOT
HETATM    1  C1  UNL     1     -17.276   7.193 -13.489  1.00  0.00     0.049 C 
HETATM    2  C2  UNL     1     -16.022   7.325 -12.674  1.00  0.00    -0.046 A 
HETATM    3  C3  UNL     1     -14.822   6.869 -13.168  1.00  0.00     0.008 A 
HETATM    4  C4  UNL     1     -13.708   7.000 -12.400  1.00  0.00     0.008 A 
HETATM    5  C5  UNL     1     -13.732   7.583 -11.114  1.00  0.00    -0.053 A 
HETATM    6  C6  UNL     1     -12.475   7.656 -10.393  1.00  0.00     0.049 C 
HETATM    7  C7  UNL     1     -14.933   8.046 -10.598  1.00  0.00    -0.018 A 
HETATM    8  C8  UNL     1     -16.056   7.907 -11.398  1.00  0.00     0.046 A 
HETATM    9  C9  UNL     1     -17.332   8.467 -10.964  1.00  0.00     0.261 C 
HETATM   10  O1  UNL     1     -18.369   8.341 -11.661  1.00  0.00    -0.267 OA
HETATM   11  N1  UNL     1     -17.409   9.162  -9.739  1.00  0.00    -0.283 N 
HETATM   12  C16 UNL     1     -16.224   9.281  -9.000  1.00  0.00     0.240 C 
HETATM   13  O2  UNL     1     -16.307  10.139  -8.044  1.00  0.00    -0.272 OA
HETATM   14  C17 UNL     1     -14.937   8.562  -9.187  1.00  0.00     0.074 C 
HETATM   15  C18 UNL     1     -13.937   9.604  -8.900  1.00  0.00     0.031 C 
ENDROOT
BRANCH  14  16
HETATM   16  C19 UNL     1     -15.063   7.419  -8.227  1.00  0.00     0.126 C 
BRANCH  16  17
HETATM   17  C20 UNL     1     -15.554   7.614  -6.891  1.00  0.00     0.219 C 
HETATM   18  O3  UNL     1     -16.667   7.097  -6.598  1.00  0.00    -0.274 OA
HETATM   19  N3  UNL     1     -14.924   8.327  -5.857  1.00  0.00    -0.361 N 
ATOM     20  H3  UNL     1     -14.023   8.765  -6.046  1.00  0.00     0.162 HD
BRANCH  19  21
HETATM   21  C21 UNL     1     -15.486   8.464  -4.560  1.00  0.00     0.123 C 
BRANCH  21  22
HETATM   22  C22 UNL     1     -16.182   9.761  -4.271  1.00  0.00     0.023 C 
BRANCH  22  23
HETATM   23  C23 UNL     1     -16.009  10.161  -2.806  1.00  0.00    -0.021 C 
HETATM   24  C24 UNL     1     -16.272   8.983  -1.896  1.00  0.00     0.009 C 
HETATM   25  C25 UNL     1     -16.973  11.259  -2.416  1.00  0.00     0.009 C 
ENDBRANCH  22  23
ENDBRANCH  21  22
ENDBRANCH  19  21
ENDBRANCH  16  17
ENDBRANCH  14  16
BRANCH  11  26
HETATM   26  C10 UNL     1     -18.650   9.744  -9.260  1.00  0.00     0.140 C 
BRANCH  26  27
HETATM   27  C11 UNL     1     -19.153  10.917  -9.998  1.00  0.00     0.060 C 
BRANCH  27  28
HETATM   28  C12 UNL     1     -20.553  10.870 -10.457  1.00  0.00    -0.040 A 
HETATM   29  C13 UNL     1     -21.397  11.972 -10.636  1.00  0.00     0.025 A 
HETATM   30  C14 UNL     1     -22.594  11.504 -11.086  1.00  0.00     0.088 A 
HETATM   31  N2  UNL     1     -22.534  10.170 -11.196  1.00  0.00    -0.375 N 
HETATM   32  C15 UNL     1     -21.312   9.775 -10.820  1.00  0.00     0.094 A 
ATOM     33  H2  UNL     1     -23.289   9.562 -11.512  1.00  0.00     0.164 HD
ENDBRANCH  27  28
ENDBRANCH  26  27
ENDBRANCH  11  26
TORSDOF 8
ENDMDL
MODEL 2
REMARK VINA RESULT: -8.041535485      1.735      2.011
REMARK  8 active torsions:
REMARK  status: ('A' for Active; 'I' for Inactive)
REMARK    1  A    between atoms: N1_11  and  C10_12 
REMARK    2  A    between atoms: C10_12  and  C11_13 
REMARK    3  A    between atoms: C11_13  and  C12_14 
REMARK    4  A    between atoms: C17_22  and  C19_24 
REMARK    5  A    between atoms: C19_24  and  C20_25 
REMARK       I    between atoms: C20_25  and  N3_27 
REMARK    6  A    between atoms: N3_27  and  C21_29 
REMARK    7  A    between atoms: C21_29  and  C22_30 
REMARK    8  A    between atoms: C22_30  and  C23_31 
ROOT
HETATM    1  C1  UNL     1     -17.643   7.514 -12.993  1.00  0.00     0.049 C 
HETATM    2  C2  UNL     1     -16.247   7.485 -12.442  1.00  0.00    -0.046 A 
HETATM    3  C3  UNL     1     -15.234   6.878 -13.148  1.00  0.00     0.008 A 
HETATM    4  C4  UNL     1     -13.984   6.867 -12.614  1.00  0.00     0.008 A 
HETATM    5  C5  UNL     1     -13.681   7.450 -11.366  1.00  0.00    -0.053 A 
HETATM    6  C6  UNL     1     -12.309   7.363 -10.905  1.00  0.00     0.049 C 
HETATM    7  C7  UNL     1     -14.690   8.065 -10.638  1.00  0.00    -0.018 A 
HETATM    8  C8  UNL     1     -15.957   8.070 -11.200  1.00  0.00     0.046 A 
HETATM    9  C9  UNL     1     -17.042   8.789 -10.542  1.00  0.00     0.261 C 
HETATM   10  O1  UNL     1     -18.203   8.796 -11.019  1.00  0.00    -0.267 OA
HETATM   11  N1  UNL     1     -16.789   9.491  -9.344  1.00  0.00    -0.283 N 
HETATM   12  C16 UNL     1     -15.476   9.459  -8.854  1.00  0.00     0.240 C 
HETATM   13  O2  UNL     1     -15.261  10.322  -7.924  1.00  0.00    -0.272 OA
HETATM   14  C17 UNL     1     -14.352   8.580  -9.268  1.00  0.00     0.074 C 
HETATM   15  C18 UNL     1     -13.192   9.486  -9.210  1.00  0.00     0.031 C 
ENDROOT
BRANCH  14  16
HETATM   16  C19 UNL     1     -14.429   7.465  -8.271  1.00  0.00     0.126 C 
BRANCH  16  17
HETATM   17  C20 UNL     1     -15.183   7.597  -7.056  1.00  0.00     0.219 C 
HETATM   18  O3  UNL     1     -16.279   6.976  -6.979  1.00  0.00    -0.274 OA
HETATM   19  N3  UNL     1     -14.833   8.354  -5.924  1.00  0.00    -0.361 N 
ATOM     20  H3  UNL     1     -13.957   8.876  -5.939  1.00  0.00     0.162 HD
BRANCH  19  21
HETATM   21  C21 UNL     1     -15.644   8.423  -4.761  1.00  0.00     0.123 C 
BRANCH  21  22
HETATM   22  C22 UNL     1     -16.307   9.741  -4.490  1.00  0.00     0.023 C 
BRANCH  22  23
HETATM   23  C23 UNL     1     -15.994  10.232  -3.076  1.00  0.00    -0.021 C 
HETATM   24  C24 UNL     1     -15.812   9.064  -2.133  1.00  0.00     0.009 C 
HETATM   25  C25 UNL     1     -17.114  11.087  -2.528  1.00  0.00     0.009 C 
ENDBRANCH  22  23
ENDBRANCH  21  22
ENDBRANCH  19  21
ENDBRANCH  16  17
ENDBRANCH  14  16
BRANCH  11  26
HETATM   26  C10 UNL     1     -17.828  10.229  -8.649  1.00  0.00     0.140 C 
BRANCH  26  27
HETATM   27  C11 UNL     1     -18.476   9.542  -7.516  1.00  0.00     0.060 C 
BRANCH  27  28
HETATM   28  C12 UNL     1     -19.663  10.191  -6.930  1.00  0.00    -0.040 A 
HETATM   29  C13 UNL     1     -19.660  11.104  -5.869  1.00  0.00     0.025 A 
HETATM   30  C14 UNL     1     -20.950  11.478  -5.646  1.00  0.00     0.088 A 
HETATM   31  N2  UNL     1     -21.750  10.844  -6.513  1.00  0.00    -0.375 N 
HETATM   32  C15 UNL     1     -20.990  10.066  -7.291  1.00  0.00     0.094 A 
ATOM     33  H2  UNL     1     -22.764  10.938  -6.570  1.00  0.00     0.164 HD
ENDBRANCH  27  28
ENDBRANCH  26  27
ENDBRANCH  11  26
TORSDOF 8
ENDMDL
MODEL 3
REMARK VINA RESULT: -7.937858001      1.345      1.678
REMARK  8 active torsions:
REMARK  status: ('A' for Active; 'I' for Inactive)
REMARK    1  A    between atoms: N1_11  and  C10_12 
REMARK    2  A    between atoms: C10_12  and  C11_13 
REMARK    3  A    between atoms: C11_13  and  C12_14 
REMARK    4  A    between atoms: C17_22  and  C19_24 
REMARK    5  A    between atoms: C19_24  and  C20_25 
REMARK       I    between atoms: C20_25  and  N3_27 
REMARK    6  A    between atoms: N3_27  and  C21_29 
REMARK    7  A    between atoms: C21_29  and  C22_30 
REMARK    8  A    between atoms: C22_30  and  C23_31 
ROOT
HETATM    1  C1  UNL     1     -15.094   7.093 -13.839  1.00  0.00     0.049 C 
HETATM    2  C2  UNL     1     -14.487   7.370 -12.494  1.00  0.00    -0.046 A 
HETATM    3  C3  UNL     1     -13.235   6.890 -12.186  1.00  0.00     0.008 A 
HETATM    4  C4  UNL     1     -12.719   7.156 -10.956  1.00  0.00     0.008 A 
HETATM    5  C5  UNL     1     -13.415   7.903  -9.982  1.00  0.00    -0.053 A 
HETATM    6  C6  UNL     1     -12.757   8.109  -8.706  1.00  0.00     0.049 C 
HETATM    7  C7  UNL     1     -14.680   8.394 -10.274  1.00  0.00    -0.018 A 
HETATM    8  C8  UNL     1     -15.186   8.116 -11.533  1.00  0.00     0.046 A 
HETATM    9  C9  UNL     1     -16.463   8.688 -11.946  1.00  0.00     0.261 C 
HETATM   10  O1  UNL     1     -16.954   8.439 -13.075  1.00  0.00    -0.267 OA
HETATM   11  N1  UNL     1     -17.166   9.537 -11.065  1.00  0.00    -0.283 N 
HETATM   12  C16 UNL     1     -16.574   9.790  -9.820  1.00  0.00     0.240 C 
HETATM   13  O2  UNL     1     -17.125  10.764  -9.185  1.00  0.00    -0.272 OA
HETATM   14  C17 UNL     1     -15.431   9.092  -9.176  1.00  0.00     0.074 C 
HETATM   15  C18 UNL     1     -14.702  10.194  -8.523  1.00  0.00     0.031 C 
ENDROOT
BRANCH  14  16
HETATM   16  C19 UNL     1     -16.115   8.083  -8.306  1.00  0.00     0.126 C 
BRANCH  16  17
HETATM   17  C20 UNL     1     -16.231   8.275  -6.887  1.00  0.00     0.219 C 
HETATM   18  O3  UNL     1     -17.303   8.781  -6.453  1.00  0.00    -0.274 OA
HETATM   19  N3  UNL     1     -15.271   7.957  -5.911  1.00  0.00    -0.361 N 
ATOM     20  H3  UNL     1     -14.387   7.548  -6.213  1.00  0.00     0.162 HD
BRANCH  19  21
HETATM   21  C21 UNL     1     -15.475   8.181  -4.524  1.00  0.00     0.123 C 
BRANCH  21  22
HETATM   22  C22 UNL     1     -14.829   9.404  -3.945  1.00  0.00     0.023 C 
BRANCH  22  23
HETATM   23  C23 UNL     1     -15.743  10.072  -2.918  1.00  0.00    -0.021 C 
HETATM   24  C24 UNL     1     -16.304   9.049  -1.957  1.00  0.00     0.009 C 
HETATM   25  C25 UNL     1     -16.915  10.757  -3.585  1.00  0.00     0.009 C 
ENDBRANCH  22  23
ENDBRANCH  21  22
ENDBRANCH  19  21
ENDBRANCH  16  17
ENDBRANCH  14  16
BRANCH  11  26
HETATM   26  C10 UNL     1     -18.436  10.140 -11.424  1.00  0.00     0.140 C 
BRANCH  26  27
HETATM   27  C11 UNL     1     -19.649   9.396 -11.037  1.00  0.00     0.060 C 
BRANCH  27  28
HETATM   28  C12 UNL     1     -20.426   9.926  -9.902  1.00  0.00    -0.040 A 
HETATM   29  C13 UNL     1     -20.279   9.554  -8.561  1.00  0.00     0.025 A 
HETATM   30  C14 UNL     1     -21.167  10.286  -7.832  1.00  0.00     0.088 A 
HETATM   31  N2  UNL     1     -21.855  11.091  -8.653  1.00  0.00    -0.375 N 
HETATM   32  C15 UNL     1     -21.420  10.885  -9.901  1.00  0.00     0.094 A 
ATOM     33  H2  UNL     1     -22.584  11.747  -8.374  1.00  0.00     0.164 HD
ENDBRANCH  27  28
ENDBRANCH  26  27
ENDBRANCH  11  26
TORSDOF 8
ENDMDL
MODEL 4
REMARK VINA RESULT: -7.725134149      1.690      2.152
REMARK  8 active torsions:
REMARK  status: ('A' for Active; 'I' for Inactive)
REMARK    1  A    between atoms: N1_11  and  C10_12 
REMARK    2  A    between atoms: C10_12  and  C11_13 
REMARK    3  A    between atoms: C11_13  and  C12_14 
REMARK    4  A    between atoms: C17_22  and  C19_24 
REMARK    5  A    between atoms: C19_24  and  C20_25 
REMARK       I    between atoms: C20_25  and  N3_27 
REMARK    6  A    between atoms: N3_27  and  C21_29 
REMARK    7  A    between atoms: C21_29  and  C22_30 
REMARK    8  A    between atoms: C22_30  and  C23_31 
ROOT
HETATM    1  C1  UNL     1     -15.105   7.121 -13.471  1.00  0.00     0.049 C 
HETATM    2  C2  UNL     1     -14.503   7.469 -12.140  1.00  0.00    -0.046 A 
HETATM    3  C3  UNL     1     -13.236   7.043 -11.819  1.00  0.00     0.008 A 
HETATM    4  C4  UNL     1     -12.726   7.373 -10.602  1.00  0.00     0.008 A 
HETATM    5  C5  UNL     1     -13.443   8.134  -9.655  1.00  0.00    -0.053 A 
HETATM    6  C6  UNL     1     -12.789   8.410  -8.390  1.00  0.00     0.049 C 
HETATM    7  C7  UNL     1     -14.724   8.570  -9.960  1.00  0.00    -0.018 A 
HETATM    8  C8  UNL     1     -15.225   8.228 -11.205  1.00  0.00     0.046 A 
HETATM    9  C9  UNL     1     -16.521   8.742 -11.635  1.00  0.00     0.261 C 
HETATM   10  O1  UNL     1     -17.006   8.433 -12.751  1.00  0.00    -0.267 OA
HETATM   11  N1  UNL     1     -17.249   9.600 -10.784  1.00  0.00    -0.283 N 
HETATM   12  C16 UNL     1     -16.663   9.920  -9.552  1.00  0.00     0.240 C 
HETATM   13  O2  UNL     1     -17.245  10.899  -8.952  1.00  0.00    -0.272 OA
HETATM   14  C17 UNL     1     -15.496   9.286  -8.887  1.00  0.00     0.074 C 
HETATM   15  C18 UNL     1     -14.802  10.435  -8.280  1.00  0.00     0.031 C 
ENDROOT
BRANCH  14  16
HETATM   16  C19 UNL     1     -16.144   8.289  -7.976  1.00  0.00     0.126 C 
BRANCH  16  17
HETATM   17  C20 UNL     1     -16.284   8.541  -6.568  1.00  0.00     0.219 C 
HETATM   18  O3  UNL     1     -17.329   9.136  -6.185  1.00  0.00    -0.274 OA
HETATM   19  N3  UNL     1     -15.374   8.196  -5.554  1.00  0.00    -0.361 N 
ATOM     20  H3  UNL     1     -14.513   7.716  -5.815  1.00  0.00     0.162 HD
BRANCH  19  21
HETATM   21  C21 UNL     1     -15.600   8.485  -4.183  1.00  0.00     0.123 C 
BRANCH  21  22
HETATM   22  C22 UNL     1     -14.601   9.386  -3.520  1.00  0.00     0.023 C 
BRANCH  22  23
HETATM   23  C23 UNL     1     -13.805  10.178  -4.558  1.00  0.00    -0.021 C 
HETATM   24  C24 UNL     1     -12.345  10.246  -4.173  1.00  0.00     0.009 C 
HETATM   25  C25 UNL     1     -14.310  11.598  -4.676  1.00  0.00     0.009 C 
ENDBRANCH  22  23
ENDBRANCH  21  22
ENDBRANCH  19  21
ENDBRANCH  16  17
ENDBRANCH  14  16
BRANCH  11  26
HETATM   26  C10 UNL     1     -18.540  10.146 -11.161  1.00  0.00     0.140 C 
BRANCH  26  27
HETATM   27  C11 UNL     1     -19.727   9.388 -10.724  1.00  0.00     0.060 C 
BRANCH  27  28
HETATM   28  C12 UNL     1     -20.449   9.898  -9.544  1.00  0.00    -0.040 A 
HETATM   29  C13 UNL     1     -20.319   9.424  -8.233  1.00  0.00     0.025 A 
HETATM   30  C14 UNL     1     -21.140  10.171  -7.443  1.00  0.00     0.088 A 
HETATM   31  N2  UNL     1     -21.770  11.081  -8.197  1.00  0.00    -0.375 N 
HETATM   32  C15 UNL     1     -21.365  10.928  -9.463  1.00  0.00     0.094 A 
ATOM     33  H2  UNL     1     -22.442  11.772  -7.863  1.00  0.00     0.164 HD
ENDBRANCH  27  28
ENDBRANCH  26  27
ENDBRANCH  11  26
TORSDOF 8
ENDMDL
MODEL 5
REMARK VINA RESULT: -7.683682672      1.982      2.789
REMARK  8 active torsions:
REMARK  status: ('A' for Active; 'I' for Inactive)
REMARK    1  A    between atoms: N1_11  and  C10_12 
REMARK    2  A    between atoms: C10_12  and  C11_13 
REMARK    3  A    between atoms: C11_13  and  C12_14 
REMARK    4  A    between atoms: C17_22  and  C19_24 
REMARK    5  A    between atoms: C19_24  and  C20_25 
REMARK       I    between atoms: C20_25  and  N3_27 
REMARK    6  A    between atoms: N3_27  and  C21_29 
REMARK    7  A    between atoms: C21_29  and  C22_30 
REMARK    8  A    between atoms: C22_30  and  C23_31 
ROOT
HETATM    1  C1  UNL     1     -17.723   7.856 -13.082  1.00  0.00     0.049 C 
HETATM    2  C2  UNL     1     -16.396   7.750 -12.388  1.00  0.00    -0.046 A 
HETATM    3  C3  UNL     1     -15.328   7.155 -13.019  1.00  0.00     0.008 A 
HETATM    4  C4  UNL     1     -14.143   7.073 -12.357  1.00  0.00     0.008 A 
HETATM    5  C5  UNL     1     -13.963   7.571 -11.050  1.00  0.00    -0.053 A 
HETATM    6  C6  UNL     1     -12.651   7.413 -10.452  1.00  0.00     0.049 C 
HETATM    7  C7  UNL     1     -15.029   8.173 -10.396  1.00  0.00    -0.018 A 
HETATM    8  C8  UNL     1     -16.227   8.251 -11.088  1.00  0.00     0.046 A 
HETATM    9  C9  UNL     1     -17.358   8.964 -10.506  1.00  0.00     0.261 C 
HETATM   10  O1  UNL     1     -18.460   9.035 -11.102  1.00  0.00    -0.267 OA
HETATM   11  N1  UNL     1     -17.219   9.585  -9.246  1.00  0.00    -0.283 N 
HETATM   12  C16 UNL     1     -15.968   9.483  -8.622  1.00  0.00     0.240 C 
HETATM   13  O2  UNL     1     -15.833  10.282  -7.623  1.00  0.00    -0.272 OA
HETATM   14  C17 UNL     1     -14.828   8.595  -8.968  1.00  0.00     0.074 C 
HETATM   15  C18 UNL     1     -13.658   9.459  -8.732  1.00  0.00     0.031 C 
ENDROOT
BRANCH  14  16
HETATM   16  C19 UNL     1     -15.039   7.426  -8.058  1.00  0.00     0.126 C 
BRANCH  16  17
HETATM   17  C20 UNL     1     -15.567   7.595  -6.732  1.00  0.00     0.219 C 
HETATM   18  O3  UNL     1     -16.738   7.180  -6.513  1.00  0.00    -0.274 OA
HETATM   19  N3  UNL     1     -14.915   8.181  -5.633  1.00  0.00    -0.361 N 
ATOM     20  H3  UNL     1     -13.968   8.535  -5.761  1.00  0.00     0.162 HD
BRANCH  19  21
HETATM   21  C21 UNL     1     -15.518   8.304  -4.353  1.00  0.00     0.123 C 
BRANCH  21  22
HETATM   22  C22 UNL     1     -15.012   9.416  -3.484  1.00  0.00     0.023 C 
BRANCH  22  23
HETATM   23  C23 UNL     1     -14.350  10.509  -4.324  1.00  0.00    -0.021 C 
HETATM   24  C24 UNL     1     -12.868  10.584  -4.032  1.00  0.00     0.009 C 
HETATM   25  C25 UNL     1     -14.940  11.869  -4.024  1.00  0.00     0.009 C 
ENDBRANCH  22  23
ENDBRANCH  21  22
ENDBRANCH  19  21
ENDBRANCH  16  17
ENDBRANCH  14  16
BRANCH  11  26
HETATM   26  C10 UNL     1     -18.308  10.313  -8.621  1.00  0.00     0.140 C 
BRANCH  26  27
HETATM   27  C11 UNL     1     -18.983   9.644  -7.493  1.00  0.00     0.060 C 
BRANCH  27  28
HETATM   28  C12 UNL     1     -19.234  10.455  -6.287  1.00  0.00    -0.040 A 
HETATM   29  C13 UNL     1     -18.307  10.732  -5.276  1.00  0.00     0.025 A 
HETATM   30  C14 UNL     1     -18.926  11.525  -4.358  1.00  0.00     0.088 A 
HETATM   31  N2  UNL     1     -20.187  11.752  -4.748  1.00  0.00    -0.375 N 
HETATM   32  C15 UNL     1     -20.386  11.114  -5.907  1.00  0.00     0.094 A 
ATOM     33  H2  UNL     1     -20.876  12.314  -4.248  1.00  0.00     0.164 HD
ENDBRANCH  27  28
ENDBRANCH  26  27
ENDBRANCH  11  26
TORSDOF 8
ENDMDL
