MODEL 1
REMARK VINA RESULT: -7.214381537      0.000      0.000
REMARK  9 active torsions:
REMARK  status: ('A' for Active; 'I' for Inactive)
REMARK    1  A    between atoms: C8_8  and  N1_9 
REMARK       I    between atoms: N1_9  and  C10_11 
REMARK    2  A    between atoms: C13_15  and  C14_16 
REMARK    3  A    between atoms: C14_16  and  C15_17 
REMARK    4  A    between atoms: C15_17  and  C16_18 
REMARK    5  A    between atoms: C16_18  and  N2_20 
REMARK       I    between atoms: N2_20  and  C18_22 
REMARK    6  A    between atoms: C18_22  and  C19_24 
REMARK    7  A    between atoms: C19_24  and  C20_25 
REMARK    8  A    between atoms: C20_25  and  N3_26 
REMARK    9  A    between atoms: C20_25  and  C21_30 
ROOT
HETATM    1  C1  UNL     1     -14.191   7.082 -13.699  1.00  0.00     0.012 C 
HETATM    2  C2  UNL     1     -15.360   7.113 -13.427  1.00  0.00    -0.112 C 
HETATM    3  C3  UNL     1     -16.770   7.155 -13.127  1.00  0.00     0.070 C 
HETATM    4  C4  UNL     1     -17.373   8.555 -13.120  1.00  0.00     0.027 C 
HETATM    5  C5  UNL     1     -18.170   8.125 -11.900  1.00  0.00     0.026 C 
HETATM    6  C6  UNL     1     -18.087   9.040 -10.756  1.00  0.00    -0.044 A 
HETATM    7  C7  UNL     1     -18.976   9.999 -10.324  1.00  0.00     0.037 A 
HETATM    8  C8  UNL     1     -18.688  10.742  -9.232  1.00  0.00     0.037 A 
HETATM    9  C12 UNL     1     -17.501  10.534  -8.555  1.00  0.00     0.037 A 
HETATM   10  C13 UNL     1     -16.578   9.594  -8.937  1.00  0.00    -0.049 A 
HETATM   11  C24 UNL     1     -16.911   8.844 -10.071  1.00  0.00    -0.045 A 
HETATM   12  C25 UNL     1     -16.118   7.758 -10.731  1.00  0.00     0.046 C 
HETATM   13  C26 UNL     1     -17.090   7.090 -11.644  1.00  0.00     0.014 C 
ENDROOT
BRANCH  10  14
HETATM   14  C14 UNL     1     -15.304   9.357  -8.228  1.00  0.00     0.041 C 
BRANCH  14  15
HETATM   15  C15 UNL     1     -15.406   8.371  -7.094  1.00  0.00     0.029 C 
BRANCH  15  16
HETATM   16  C16 UNL     1     -14.519   8.781  -5.933  1.00  0.00     0.080 C 
HETATM   17  C17 UNL     1     -13.141   9.178  -6.451  1.00  0.00     0.032 C 
BRANCH  16  18
HETATM   18  N2  UNL     1     -15.070   9.910  -5.229  1.00  0.00    -0.357 N 
HETATM   19  C18 UNL     1     -15.643   9.819  -3.919  1.00  0.00     0.219 C 
HETATM   20  O2  UNL     1     -15.621   8.665  -3.425  1.00  0.00    -0.274 OA
ATOM     21  H2  UNL     1     -15.052  10.821  -5.688  1.00  0.00     0.162 HD
BRANCH  19  22
HETATM   22  C19 UNL     1     -16.178  11.022  -3.298  1.00  0.00     0.135 C 
BRANCH  22  23
HETATM   23  C20 UNL     1     -17.637  11.129  -3.102  1.00  0.00     0.195 C 
BRANCH  23  24
HETATM   24  N3  UNL     1     -18.187  10.147  -2.190  1.00  0.00    -0.074 N 
ATOM     25  H33 UNL     1     -17.548   9.360  -2.085  1.00  0.00     0.274 HD
ATOM     26  H32 UNL     1     -18.181  10.505  -1.235  1.00  0.00     0.274 HD
ATOM     27  H31 UNL     1     -19.120   9.819  -2.442  1.00  0.00     0.274 HD
ENDBRANCH  23  24
BRANCH  23  28
HETATM   28  C21 UNL     1     -18.497  11.357  -4.280  1.00  0.00     0.008 C 
HETATM   29  C22 UNL     1     -19.941  11.686  -3.892  1.00  0.00     0.011 C 
HETATM   30  C23 UNL     1     -18.064  12.342  -5.297  1.00  0.00     0.011 C 
ENDBRANCH  23  28
ENDBRANCH  22  23
ENDBRANCH  19  22
ENDBRANCH  16  18
ENDBRANCH  15  16
ENDBRANCH  14  15
ENDBRANCH  10  14
BRANCH   8  31
HETATM   31  N1  UNL     1     -19.594  11.753  -8.765  1.00  0.00    -0.323 N 
HETATM   32  C9  UNL     1     -19.499  13.123  -9.198  1.00  0.00     0.159 C 
HETATM   33  C10 UNL     1     -20.621  11.409  -7.848  1.00  0.00     0.220 C 
HETATM   34  C11 UNL     1     -20.826  10.025  -7.325  1.00  0.00     0.117 C 
HETATM   35  O1  UNL     1     -21.424  12.281  -7.426  1.00  0.00    -0.274 OA
ENDBRANCH   8  31
TORSDOF 9
ENDMDL
MODEL 2
REMARK VINA RESULT: -7.100983873      0.882      1.160
REMARK  9 active torsions:
REMARK  status: ('A' for Active; 'I' for Inactive)
REMARK    1  A    between atoms: C8_8  and  N1_9 
REMARK       I    between atoms: N1_9  and  C10_11 
REMARK    2  A    between atoms: C13_15  and  C14_16 
REMARK    3  A    between atoms: C14_16  and  C15_17 
REMARK    4  A    between atoms: C15_17  and  C16_18 
REMARK    5  A    between atoms: C16_18  and  N2_20 
REMARK       I    between atoms: N2_20  and  C18_22 
REMARK    6  A    between atoms: C18_22  and  C19_24 
REMARK    7  A    between atoms: C19_24  and  C20_25 
REMARK    8  A    between atoms: C20_25  and  N3_26 
REMARK    9  A    between atoms: C20_25  and  C21_30 
ROOT
HETATM    1  C1  UNL     1     -13.974   6.755 -13.288  1.00  0.00     0.012 C 
HETATM    2  C2  UNL     1     -15.160   6.945 -13.262  1.00  0.00    -0.112 C 
HETATM    3  C3  UNL     1     -16.582   7.179 -13.258  1.00  0.00     0.070 C 
HETATM    4  C4  UNL     1     -16.980   8.651 -13.298  1.00  0.00     0.027 C 
HETATM    5  C5  UNL     1     -18.068   8.306 -12.295  1.00  0.00     0.026 C 
HETATM    6  C6  UNL     1     -18.110   9.169 -11.109  1.00  0.00    -0.044 A 
HETATM    7  C7  UNL     1     -18.933  10.233 -10.818  1.00  0.00     0.037 A 
HETATM    8  C8  UNL     1     -18.788  10.898  -9.650  1.00  0.00     0.037 A 
HETATM    9  C12 UNL     1     -17.811  10.505  -8.755  1.00  0.00     0.037 A 
HETATM   10  C13 UNL     1     -16.962   9.454  -8.989  1.00  0.00    -0.049 A 
HETATM   11  C24 UNL     1     -17.143   8.790 -10.208  1.00  0.00    -0.045 A 
HETATM   12  C25 UNL     1     -16.380   7.620 -10.749  1.00  0.00     0.046 C 
HETATM   13  C26 UNL     1     -17.216   7.122 -11.880  1.00  0.00     0.014 C 
ENDROOT
BRANCH  10  14
HETATM   14  C14 UNL     1     -15.911   9.020  -8.047  1.00  0.00     0.041 C 
BRANCH  14  15
HETATM   15  C15 UNL     1     -16.434   8.286  -6.840  1.00  0.00     0.029 C 
BRANCH  15  16
HETATM   16  C16 UNL     1     -15.847   8.852  -5.560  1.00  0.00     0.080 C 
HETATM   17  C17 UNL     1     -14.334   8.981  -5.699  1.00  0.00     0.032 C 
BRANCH  16  18
HETATM   18  N2  UNL     1     -16.379  10.159  -5.277  1.00  0.00    -0.357 N 
HETATM   19  C18 UNL     1     -16.697  10.613  -3.955  1.00  0.00     0.219 C 
HETATM   20  O2  UNL     1     -16.467   9.771  -3.053  1.00  0.00    -0.274 OA
ATOM     21  H2  UNL     1     -16.538  10.796  -6.058  1.00  0.00     0.162 HD
BRANCH  19  22
HETATM   22  C19 UNL     1     -17.235  11.953  -3.778  1.00  0.00     0.135 C 
BRANCH  22  23
HETATM   23  C20 UNL     1     -18.677  12.106  -3.503  1.00  0.00     0.195 C 
BRANCH  23  24
HETATM   24  N3  UNL     1     -19.305  10.924  -2.950  1.00  0.00    -0.074 N 
ATOM     25  H33 UNL     1     -19.262  10.153  -3.617  1.00  0.00     0.274 HD
ATOM     26  H32 UNL     1     -18.735  10.535  -2.198  1.00  0.00     0.274 HD
ATOM     27  H31 UNL     1     -20.263  11.068  -2.633  1.00  0.00     0.274 HD
ENDBRANCH  23  24
BRANCH  23  28
HETATM   28  C21 UNL     1     -19.524  12.786  -4.503  1.00  0.00     0.008 C 
HETATM   29  C22 UNL     1     -18.766  13.089  -5.798  1.00  0.00     0.011 C 
HETATM   30  C23 UNL     1     -20.822  12.175  -4.869  1.00  0.00     0.011 C 
ENDBRANCH  23  28
ENDBRANCH  22  23
ENDBRANCH  19  22
ENDBRANCH  16  18
ENDBRANCH  15  16
ENDBRANCH  14  15
ENDBRANCH  10  14
BRANCH   8  31
HETATM   31  N1  UNL     1     -19.630  12.015  -9.325  1.00  0.00    -0.323 N 
HETATM   32  C9  UNL     1     -19.291  13.362  -9.703  1.00  0.00     0.159 C 
HETATM   33  C10 UNL     1     -20.837  11.803  -8.609  1.00  0.00     0.220 C 
HETATM   34  C11 UNL     1     -21.300  10.455  -8.162  1.00  0.00     0.117 C 
HETATM   35  O1  UNL     1     -21.586  12.769  -8.313  1.00  0.00    -0.274 OA
ENDBRANCH   8  31
TORSDOF 9
ENDMDL
MODEL 3
REMARK VINA RESULT: -6.998422662      1.751      2.715
REMARK  9 active torsions:
REMARK  status: ('A' for Active; 'I' for Inactive)
REMARK    1  A    between atoms: C8_8  and  N1_9 
REMARK       I    between atoms: N1_9  and  C10_11 
REMARK    2  A    between atoms: C13_15  and  C14_16 
REMARK    3  A    between atoms: C14_16  and  C15_17 
REMARK    4  A    between atoms: C15_17  and  C16_18 
REMARK    5  A    between atoms: C16_18  and  N2_20 
REMARK       I    between atoms: N2_20  and  C18_22 
REMARK    6  A    between atoms: C18_22  and  C19_24 
REMARK    7  A    between atoms: C19_24  and  C20_25 
REMARK    8  A    between atoms: C20_25  and  N3_26 
REMARK    9  A    between atoms: C20_25  and  C21_30 
ROOT
HETATM    1  C1  UNL     1     -14.078   6.870 -13.737  1.00  0.00     0.012 C 
HETATM    2  C2  UNL     1     -15.258   7.011 -13.561  1.00  0.00    -0.112 C 
HETATM    3  C3  UNL     1     -16.677   7.187 -13.377  1.00  0.00     0.070 C 
HETATM    4  C4  UNL     1     -17.123   8.641 -13.260  1.00  0.00     0.027 C 
HETATM    5  C5  UNL     1     -18.075   8.182 -12.169  1.00  0.00     0.026 C 
HETATM    6  C6  UNL     1     -18.005   8.955 -10.924  1.00  0.00    -0.044 A 
HETATM    7  C7  UNL     1     -18.822   9.962 -10.461  1.00  0.00     0.037 A 
HETATM    8  C8  UNL     1     -18.562  10.547  -9.269  1.00  0.00     0.037 A 
HETATM    9  C12 UNL     1     -17.476  10.129  -8.524  1.00  0.00     0.037 A 
HETATM   10  C13 UNL     1     -16.627   9.132  -8.933  1.00  0.00    -0.049 A 
HETATM   11  C24 UNL     1     -16.928   8.551 -10.170  1.00  0.00    -0.045 A 
HETATM   12  C25 UNL     1     -16.198   7.454 -10.882  1.00  0.00     0.046 C 
HETATM   13  C26 UNL     1     -17.144   7.005 -11.944  1.00  0.00     0.014 C 
ENDROOT
BRANCH  10  14
HETATM   14  C14 UNL     1     -15.461   8.674  -8.152  1.00  0.00     0.041 C 
BRANCH  14  15
HETATM   15  C15 UNL     1     -15.612   7.289  -7.578  1.00  0.00     0.029 C 
BRANCH  15  16
HETATM   16  C16 UNL     1     -16.404   7.318  -6.284  1.00  0.00     0.080 C 
HETATM   17  C17 UNL     1     -16.860   5.907  -5.927  1.00  0.00     0.032 C 
BRANCH  16  18
HETATM   18  N2  UNL     1     -15.603   7.814  -5.195  1.00  0.00    -0.357 N 
HETATM   19  C18 UNL     1     -15.832   9.079  -4.561  1.00  0.00     0.219 C 
HETATM   20  O2  UNL     1     -16.800   9.724  -5.033  1.00  0.00    -0.274 OA
ATOM     21  H2  UNL     1     -14.834   7.235  -4.857  1.00  0.00     0.162 HD
BRANCH  19  22
HETATM   22  C19 UNL     1     -14.961   9.489  -3.470  1.00  0.00     0.135 C 
BRANCH  22  23
HETATM   23  C20 UNL     1     -13.964  10.549  -3.720  1.00  0.00     0.195 C 
BRANCH  23  24
HETATM   24  N3  UNL     1     -14.480  11.689  -4.449  1.00  0.00    -0.074 N 
ATOM     25  H33 UNL     1     -14.326  12.548  -3.922  1.00  0.00     0.274 HD
ATOM     26  H32 UNL     1     -13.902  11.881  -5.268  1.00  0.00     0.274 HD
ATOM     27  H31 UNL     1     -15.461  11.606  -4.717  1.00  0.00     0.274 HD
ENDBRANCH  23  24
BRANCH  23  28
HETATM   28  C21 UNL     1     -12.608  10.161  -4.156  1.00  0.00     0.008 C 
HETATM   29  C22 UNL     1     -12.551   9.818  -5.647  1.00  0.00     0.011 C 
HETATM   30  C23 UNL     1     -11.478  11.068  -3.855  1.00  0.00     0.011 C 
ENDBRANCH  23  28
ENDBRANCH  22  23
ENDBRANCH  19  22
ENDBRANCH  16  18
ENDBRANCH  15  16
ENDBRANCH  14  15
ENDBRANCH  10  14
BRANCH   8  31
HETATM   31  N1  UNL     1     -19.395  11.603  -8.766  1.00  0.00    -0.323 N 
HETATM   32  C9  UNL     1     -19.187  12.979  -9.133  1.00  0.00     0.159 C 
HETATM   33  C10 UNL     1     -20.460  11.299  -7.879  1.00  0.00     0.220 C 
HETATM   34  C11 UNL     1     -20.779   9.912  -7.424  1.00  0.00     0.117 C 
HETATM   35  O1  UNL     1     -21.198  12.211  -7.426  1.00  0.00    -0.274 OA
ENDBRANCH   8  31
TORSDOF 9
ENDMDL
MODEL 4
REMARK VINA RESULT: -6.911417792      2.448      4.125
REMARK  9 active torsions:
REMARK  status: ('A' for Active; 'I' for Inactive)
REMARK    1  A    between atoms: C8_8  and  N1_9 
REMARK       I    between atoms: N1_9  and  C10_11 
REMARK    2  A    between atoms: C13_15  and  C14_16 
REMARK    3  A    between atoms: C14_16  and  C15_17 
REMARK    4  A    between atoms: C15_17  and  C16_18 
REMARK    5  A    between atoms: C16_18  and  N2_20 
REMARK       I    between atoms: N2_20  and  C18_22 
REMARK    6  A    between atoms: C18_22  and  C19_24 
REMARK    7  A    between atoms: C19_24  and  C20_25 
REMARK    8  A    between atoms: C20_25  and  N3_26 
REMARK    9  A    between atoms: C20_25  and  C21_30 
ROOT
HETATM    1  C1  UNL     1     -14.085   7.127 -12.992  1.00  0.00     0.012 C 
HETATM    2  C2  UNL     1     -15.286   7.111 -12.968  1.00  0.00    -0.112 C 
HETATM    3  C3  UNL     1     -16.728   7.093 -12.967  1.00  0.00     0.070 C 
HETATM    4  C4  UNL     1     -17.376   8.456 -13.187  1.00  0.00     0.027 C 
HETATM    5  C5  UNL     1     -18.391   8.059 -12.128  1.00  0.00     0.026 C 
HETATM    6  C6  UNL     1     -18.587   9.047 -11.061  1.00  0.00    -0.044 A 
HETATM    7  C7  UNL     1     -19.585   9.981 -10.893  1.00  0.00     0.037 A 
HETATM    8  C8  UNL     1     -19.562  10.806  -9.822  1.00  0.00     0.037 A 
HETATM    9  C12 UNL     1     -18.535  10.707  -8.903  1.00  0.00     0.037 A 
HETATM   10  C13 UNL     1     -17.514   9.798  -9.017  1.00  0.00    -0.049 A 
HETATM   11  C24 UNL     1     -17.572   8.961 -10.138  1.00  0.00    -0.045 A 
HETATM   12  C25 UNL     1     -16.616   7.881 -10.540  1.00  0.00     0.046 C 
HETATM   13  C26 UNL     1     -17.347   7.104 -11.581  1.00  0.00     0.014 C 
ENDROOT
BRANCH  10  14
HETATM   14  C14 UNL     1     -16.407   9.677  -8.047  1.00  0.00     0.041 C 
BRANCH  14  15
HETATM   15  C15 UNL     1     -16.783   8.971  -6.770  1.00  0.00     0.029 C 
BRANCH  15  16
HETATM   16  C16 UNL     1     -15.822   7.836  -6.470  1.00  0.00     0.080 C 
HETATM   17  C17 UNL     1     -16.597   6.533  -6.303  1.00  0.00     0.032 C 
BRANCH  16  18
HETATM   18  N2  UNL     1     -14.878   7.656  -7.542  1.00  0.00    -0.357 N 
HETATM   19  C18 UNL     1     -13.555   8.207  -7.529  1.00  0.00     0.219 C 
HETATM   20  O2  UNL     1     -13.280   8.861  -6.493  1.00  0.00    -0.274 OA
ATOM     21  H2  UNL     1     -15.166   7.109  -8.353  1.00  0.00     0.162 HD
BRANCH  19  22
HETATM   22  C19 UNL     1     -12.679   7.970  -8.666  1.00  0.00     0.135 C 
BRANCH  22  23
HETATM   23  C20 UNL     1     -11.908   9.102  -9.214  1.00  0.00     0.195 C 
BRANCH  23  24
HETATM   24  N3  UNL     1     -10.646   9.340  -8.544  1.00  0.00    -0.074 N 
ATOM     25  H33 UNL     1     -10.624   8.861  -7.644  1.00  0.00     0.274 HD
ATOM     26  H32 UNL     1      -9.890   8.847  -9.021  1.00  0.00     0.274 HD
ATOM     27  H31 UNL     1     -10.412  10.326  -8.430  1.00  0.00     0.274 HD
ENDBRANCH  23  24
BRANCH  23  28
HETATM   28  C21 UNL     1     -12.619  10.352  -9.548  1.00  0.00     0.008 C 
HETATM   29  C22 UNL     1     -11.674  11.439 -10.067  1.00  0.00     0.011 C 
HETATM   30  C23 UNL     1     -13.782  10.286 -10.462  1.00  0.00     0.011 C 
ENDBRANCH  23  28
ENDBRANCH  22  23
ENDBRANCH  19  22
ENDBRANCH  16  18
ENDBRANCH  15  16
ENDBRANCH  14  15
ENDBRANCH  10  14
BRANCH   8  31
HETATM   31  N1  UNL     1     -20.587  11.793  -9.626  1.00  0.00    -0.323 N 
HETATM   32  C9  UNL     1     -20.692  12.961 -10.460  1.00  0.00     0.159 C 
HETATM   33  C10 UNL     1     -21.533  11.627  -8.581  1.00  0.00     0.220 C 
HETATM   34  C11 UNL     1     -21.532  10.460  -7.649  1.00  0.00     0.117 C 
HETATM   35  O1  UNL     1     -22.437  12.482  -8.392  1.00  0.00    -0.274 OA
ENDBRANCH   8  31
TORSDOF 9
ENDMDL
MODEL 5
REMARK VINA RESULT: -6.852311236      1.089      1.716
REMARK  9 active torsions:
REMARK  status: ('A' for Active; 'I' for Inactive)
REMARK    1  A    between atoms: C8_8  and  N1_9 
REMARK       I    between atoms: N1_9  and  C10_11 
REMARK    2  A    between atoms: C13_15  and  C14_16 
REMARK    3  A    between atoms: C14_16  and  C15_17 
REMARK    4  A    between atoms: C15_17  and  C16_18 
REMARK    5  A    between atoms: C16_18  and  N2_20 
REMARK       I    between atoms: N2_20  and  C18_22 
REMARK    6  A    between atoms: C18_22  and  C19_24 
REMARK    7  A    between atoms: C19_24  and  C20_25 
REMARK    8  A    between atoms: C20_25  and  N3_26 
REMARK    9  A    between atoms: C20_25  and  C21_30 
ROOT
HETATM    1  C1  UNL     1     -13.986   6.850 -13.355  1.00  0.00     0.012 C 
HETATM    2  C2  UNL     1     -15.179   6.981 -13.312  1.00  0.00    -0.112 C 
HETATM    3  C3  UNL     1     -16.611   7.143 -13.288  1.00  0.00     0.070 C 
HETATM    4  C4  UNL     1     -17.084   8.592 -13.339  1.00  0.00     0.027 C 
HETATM    5  C5  UNL     1     -18.137   8.207 -12.315  1.00  0.00     0.026 C 
HETATM    6  C6  UNL     1     -18.204   9.082 -11.139  1.00  0.00    -0.044 A 
HETATM    7  C7  UNL     1     -19.075  10.107 -10.848  1.00  0.00     0.037 A 
HETATM    8  C8  UNL     1     -18.946  10.794  -9.691  1.00  0.00     0.037 A 
HETATM    9  C12 UNL     1     -17.937  10.462  -8.807  1.00  0.00     0.037 A 
HETATM   10  C13 UNL     1     -17.039   9.452  -9.042  1.00  0.00    -0.049 A 
HETATM   11  C24 UNL     1     -17.205   8.763 -10.249  1.00  0.00    -0.045 A 
HETATM   12  C25 UNL     1     -16.393   7.627 -10.788  1.00  0.00     0.046 C 
HETATM   13  C26 UNL     1     -17.220   7.072 -11.899  1.00  0.00     0.014 C 
ENDROOT
BRANCH  10  14
HETATM   14  C14 UNL     1     -15.953   9.083  -8.111  1.00  0.00     0.041 C 
BRANCH  14  15
HETATM   15  C15 UNL     1     -16.421   8.354  -6.879  1.00  0.00     0.029 C 
BRANCH  15  16
HETATM   16  C16 UNL     1     -15.836   8.971  -5.623  1.00  0.00     0.080 C 
HETATM   17  C17 UNL     1     -14.335   9.174  -5.799  1.00  0.00     0.032 C 
BRANCH  16  18
HETATM   18  N2  UNL     1     -16.428  10.255  -5.350  1.00  0.00    -0.357 N 
HETATM   19  C18 UNL     1     -16.766  10.703  -4.031  1.00  0.00     0.219 C 
HETATM   20  O2  UNL     1     -16.497   9.879  -3.122  1.00  0.00    -0.274 OA
ATOM     21  H2  UNL     1     -16.616  10.878  -6.135  1.00  0.00     0.162 HD
BRANCH  19  22
HETATM   22  C19 UNL     1     -17.365  12.018  -3.864  1.00  0.00     0.135 C 
BRANCH  22  23
HETATM   23  C20 UNL     1     -18.817  12.108  -3.614  1.00  0.00     0.195 C 
BRANCH  23  24
HETATM   24  N3  UNL     1     -19.385  10.933  -2.987  1.00  0.00    -0.074 N 
ATOM     25  H33 UNL     1     -19.943  10.405  -3.658  1.00  0.00     0.274 HD
ATOM     26  H32 UNL     1     -18.657  10.246  -2.788  1.00  0.00     0.274 HD
ATOM     27  H31 UNL     1     -19.929  11.128  -2.147  1.00  0.00     0.274 HD
ENDBRANCH  23  24
BRANCH  23  28
HETATM   28  C21 UNL     1     -19.687  12.669  -4.667  1.00  0.00     0.008 C 
HETATM   29  C22 UNL     1     -18.937  12.896  -5.982  1.00  0.00     0.011 C 
HETATM   30  C23 UNL     1     -20.958  11.978  -4.981  1.00  0.00     0.011 C 
ENDBRANCH  23  28
ENDBRANCH  22  23
ENDBRANCH  19  22
ENDBRANCH  16  18
ENDBRANCH  15  16
ENDBRANCH  14  15
ENDBRANCH  10  14
BRANCH   8  31
HETATM   31  N1  UNL     1     -19.837  11.872  -9.366  1.00  0.00    -0.323 N 
HETATM   32  C9  UNL     1     -21.116  11.644  -8.745  1.00  0.00     0.159 C 
HETATM   33  C10 UNL     1     -19.462  13.209  -9.657  1.00  0.00     0.220 C 
HETATM   34  C11 UNL     1     -18.163  13.576 -10.297  1.00  0.00     0.117 C 
HETATM   35  O1  UNL     1     -20.230  14.166  -9.382  1.00  0.00    -0.274 OA
ENDBRANCH   8  31
TORSDOF 9
ENDMDL
