MODEL 1
REMARK VINA RESULT: -7.443620426      0.000      0.000
REMARK  8 active torsions:
REMARK  status: ('A' for Active; 'I' for Inactive)
REMARK    1  A    between atoms: C6_6  and  S1_7 
REMARK    2  A    between atoms: S1_7  and  N1_10 
REMARK    3  A    between atoms: N1_10  and  C7_12 
REMARK    4  A    between atoms: C7_12  and  C8_13 
REMARK    5  A    between atoms: C8_13  and  C9_14 
REMARK    6  A    between atoms: C9_14  and  C10_15 
REMARK    7  A    between atoms: C10_15  and  C11_16 
REMARK    8  A    between atoms: C11_16  and  N2_17 
ROOT
HETATM    1  C7  UNL     1     -11.785  11.318  -9.677  1.00  0.00     0.132 C 
ENDROOT
BRANCH   1   2
HETATM    2  N1  UNL     1     -10.691  12.178 -10.056  1.00  0.00    -0.315 N 
ATOM      3  H1  UNL     1      -9.780  11.877 -10.402  1.00  0.00     0.172 HD
BRANCH   2   4
HETATM    4  S1  UNL     1     -11.200  13.808  -9.819  1.00  0.00     0.259 S 
HETATM    5  O1  UNL     1     -12.696  13.944  -9.833  1.00  0.00    -0.201 OA
HETATM    6  O2  UNL     1     -10.785  14.160  -8.393  1.00  0.00    -0.201 OA
BRANCH   4   7
HETATM    7  C6  UNL     1     -10.397  14.943 -10.851  1.00  0.00     0.086 A 
HETATM    8  C4  UNL     1     -10.637  14.914 -12.204  1.00  0.00    -0.038 A 
HETATM    9  C3  UNL     1     -10.002  15.816 -13.061  1.00  0.00     0.015 A 
HETATM   10  C5  UNL     1     -11.582  13.915 -12.753  1.00  0.00     0.050 C 
HETATM   11  C2  UNL     1      -9.125  16.748 -12.563  1.00  0.00    -0.056 A 
HETATM   12  C1  UNL     1      -8.471  17.687 -13.499  1.00  0.00     0.049 C 
HETATM   13  C20 UNL     1      -8.867  16.799 -11.223  1.00  0.00    -0.055 A 
HETATM   14  C19 UNL     1      -9.503  15.901 -10.393  1.00  0.00     0.033 A 
HETATM   15  C21 UNL     1      -7.926  17.785 -10.620  1.00  0.00     0.049 C 
ENDBRANCH   4   7
ENDBRANCH   2   4
ENDBRANCH   1   2
BRANCH   1  16
HETATM   16  C8  UNL     1     -11.399   9.853  -9.653  1.00  0.00     0.020 C 
BRANCH  16  17
HETATM   17  C9  UNL     1     -12.200   9.219  -8.541  1.00  0.00     0.003 C 
BRANCH  17  18
HETATM   18  C10 UNL     1     -12.741   7.864  -8.899  1.00  0.00     0.020 C 
BRANCH  18  19
HETATM   19  C11 UNL     1     -14.214   7.743  -8.569  1.00  0.00     0.125 C 
BRANCH  19  20
HETATM   20  N2  UNL     1     -15.029   8.076  -9.735  1.00  0.00    -0.358 N 
HETATM   21  C12 UNL     1     -14.488   7.851 -11.072  1.00  0.00     0.136 C 
HETATM   22  C13 UNL     1     -15.577   7.882 -12.086  1.00  0.00    -0.011 C 
HETATM   23  C14 UNL     1     -15.258   7.011 -13.299  1.00  0.00     0.018 C 
HETATM   24  C15 UNL     1     -15.803   9.311 -12.570  1.00  0.00     0.018 C 
HETATM   25  C16 UNL     1     -16.868   7.369 -11.515  1.00  0.00     0.089 C 
HETATM   26  C17 UNL     1     -17.886   7.168 -12.586  1.00  0.00     0.033 C 
HETATM   27  N3  UNL     1     -17.301   8.373 -10.534  1.00  0.00    -0.362 N 
HETATM   28  C18 UNL     1     -16.323   8.609  -9.499  1.00  0.00     0.170 C 
ATOM     29  H3  UNL     1     -18.201   8.853 -10.580  1.00  0.00     0.162 HD
HETATM   30  S2  UNL     1     -16.710   9.435  -8.155  1.00  0.00    -0.041 SA
ENDBRANCH  19  20
ENDBRANCH  18  19
ENDBRANCH  17  18
ENDBRANCH  16  17
ENDBRANCH   1  16
TORSDOF 8
ENDMDL
MODEL 2
REMARK VINA RESULT: -7.236935021      5.143      7.618
REMARK  8 active torsions:
REMARK  status: ('A' for Active; 'I' for Inactive)
REMARK    1  A    between atoms: C6_6  and  S1_7 
REMARK    2  A    between atoms: S1_7  and  N1_10 
REMARK    3  A    between atoms: N1_10  and  C7_12 
REMARK    4  A    between atoms: C7_12  and  C8_13 
REMARK    5  A    between atoms: C8_13  and  C9_14 
REMARK    6  A    between atoms: C9_14  and  C10_15 
REMARK    7  A    between atoms: C10_15  and  C11_16 
REMARK    8  A    between atoms: C11_16  and  N2_17 
ROOT
HETATM    1  C7  UNL     1     -14.446   7.981 -11.540  1.00  0.00     0.132 C 
ENDROOT
BRANCH   1   2
HETATM    2  N1  UNL     1     -13.438   7.416 -10.676  1.00  0.00    -0.315 N 
ATOM      3  H1  UNL     1     -13.083   6.460 -10.710  1.00  0.00     0.172 HD
BRANCH   2   4
HETATM    4  S1  UNL     1     -12.939   8.646  -9.577  1.00  0.00     0.259 S 
HETATM    5  O1  UNL     1     -11.443   8.747  -9.478  1.00  0.00    -0.201 OA
HETATM    6  O2  UNL     1     -13.381   9.962 -10.212  1.00  0.00    -0.201 OA
BRANCH   4   7
HETATM    7  C6  UNL     1     -13.726   8.562  -8.038  1.00  0.00     0.086 A 
HETATM    8  C4  UNL     1     -13.312   9.388  -7.021  1.00  0.00    -0.038 A 
HETATM    9  C3  UNL     1     -13.927   9.342  -5.767  1.00  0.00     0.015 A 
HETATM   10  C5  UNL     1     -12.202  10.339  -7.263  1.00  0.00     0.050 C 
HETATM   11  C2  UNL     1     -14.958   8.466  -5.531  1.00  0.00    -0.056 A 
HETATM   12  C1  UNL     1     -15.586   8.443  -4.193  1.00  0.00     0.049 C 
HETATM   13  C20 UNL     1     -15.390   7.632  -6.524  1.00  0.00    -0.055 A 
HETATM   14  C19 UNL     1     -14.771   7.694  -7.753  1.00  0.00     0.033 A 
HETATM   15  C21 UNL     1     -16.502   6.659  -6.333  1.00  0.00     0.049 C 
ENDBRANCH   4   7
ENDBRANCH   2   4
ENDBRANCH   1   2
BRANCH   1  16
HETATM   16  C8  UNL     1     -14.738   7.114 -12.747  1.00  0.00     0.020 C 
BRANCH  16  17
HETATM   17  C9  UNL     1     -16.214   7.258 -13.029  1.00  0.00     0.003 C 
BRANCH  17  18
HETATM   18  C10 UNL     1     -17.048   7.358 -11.784  1.00  0.00     0.020 C 
BRANCH  18  19
HETATM   19  C11 UNL     1     -18.190   8.338 -11.951  1.00  0.00     0.125 C 
BRANCH  19  20
HETATM   20  N2  UNL     1     -18.419   9.074 -10.710  1.00  0.00    -0.358 N 
HETATM   21  C12 UNL     1     -17.308   9.275  -9.784  1.00  0.00     0.136 C 
HETATM   22  C13 UNL     1     -17.636  10.346  -8.804  1.00  0.00    -0.011 C 
HETATM   23  C14 UNL     1     -16.388  11.073  -8.308  1.00  0.00     0.018 C 
HETATM   24  C15 UNL     1     -18.352   9.750  -7.595  1.00  0.00     0.018 C 
HETATM   25  C16 UNL     1     -18.527  11.389  -9.413  1.00  0.00     0.089 C 
HETATM   26  C17 UNL     1     -18.653  12.576  -8.519  1.00  0.00     0.033 C 
HETATM   27  N3  UNL     1     -19.824  10.733  -9.630  1.00  0.00    -0.362 N 
HETATM   28  C18 UNL     1     -19.730   9.562 -10.470  1.00  0.00     0.170 C 
ATOM     29  H3  UNL     1     -20.700  11.069  -9.229  1.00  0.00     0.162 HD
HETATM   30  S2  UNL     1     -21.061   8.869 -11.090  1.00  0.00    -0.041 SA
ENDBRANCH  19  20
ENDBRANCH  18  19
ENDBRANCH  17  18
ENDBRANCH  16  17
ENDBRANCH   1  16
TORSDOF 8
ENDMDL
MODEL 3
REMARK VINA RESULT: -7.233934182      5.831      7.642
REMARK  8 active torsions:
REMARK  status: ('A' for Active; 'I' for Inactive)
REMARK    1  A    between atoms: C6_6  and  S1_7 
REMARK    2  A    between atoms: S1_7  and  N1_10 
REMARK    3  A    between atoms: N1_10  and  C7_12 
REMARK    4  A    between atoms: C7_12  and  C8_13 
REMARK    5  A    between atoms: C8_13  and  C9_14 
REMARK    6  A    between atoms: C9_14  and  C10_15 
REMARK    7  A    between atoms: C10_15  and  C11_16 
REMARK    8  A    between atoms: C11_16  and  N2_17 
ROOT
HETATM    1  C7  UNL     1     -14.302   7.954 -10.956  1.00  0.00     0.132 C 
ENDROOT
BRANCH   1   2
HETATM    2  N1  UNL     1     -14.064   8.953  -9.942  1.00  0.00    -0.315 N 
ATOM      3  H1  UNL     1     -14.379   9.923  -9.968  1.00  0.00     0.172 HD
BRANCH   2   4
HETATM    4  S1  UNL     1     -13.152   8.214  -8.680  1.00  0.00     0.259 S 
HETATM    5  O1  UNL     1     -12.914   6.752  -8.932  1.00  0.00    -0.201 OA
HETATM    6  O2  UNL     1     -11.769   8.856  -8.748  1.00  0.00    -0.201 OA
BRANCH   4   7
HETATM    7  C6  UNL     1     -13.763   8.547  -7.095  1.00  0.00     0.086 A 
HETATM    8  C4  UNL     1     -14.942   7.971  -6.690  1.00  0.00    -0.038 A 
HETATM    9  C3  UNL     1     -15.461   8.223  -5.418  1.00  0.00     0.015 A 
HETATM   10  C5  UNL     1     -15.667   7.071  -7.617  1.00  0.00     0.050 C 
HETATM   11  C2  UNL     1     -14.797   9.055  -4.549  1.00  0.00    -0.056 A 
HETATM   12  C1  UNL     1     -15.374   9.300  -3.210  1.00  0.00     0.049 C 
HETATM   13  C20 UNL     1     -13.622   9.642  -4.925  1.00  0.00    -0.055 A 
HETATM   14  C19 UNL     1     -13.127   9.380  -6.185  1.00  0.00     0.033 A 
HETATM   15  C21 UNL     1     -12.854  10.553  -4.032  1.00  0.00     0.049 C 
ENDBRANCH   4   7
ENDBRANCH   2   4
ENDBRANCH   1   2
BRANCH   1  16
HETATM   16  C8  UNL     1     -15.073   8.493 -12.142  1.00  0.00     0.020 C 
BRANCH  16  17
HETATM   17  C9  UNL     1     -16.150   7.480 -12.447  1.00  0.00     0.003 C 
BRANCH  17  18
HETATM   18  C10 UNL     1     -17.326   7.566 -11.516  1.00  0.00     0.020 C 
BRANCH  18  19
HETATM   19  C11 UNL     1     -18.051   8.888 -11.649  1.00  0.00     0.125 C 
BRANCH  19  20
HETATM   20  N2  UNL     1     -18.408   9.410 -10.332  1.00  0.00    -0.358 N 
HETATM   21  C12 UNL     1     -17.371   9.549  -9.314  1.00  0.00     0.136 C 
HETATM   22  C13 UNL     1     -17.839  10.433  -8.212  1.00  0.00    -0.011 C 
HETATM   23  C14 UNL     1     -16.684  11.165  -7.532  1.00  0.00     0.018 C 
HETATM   24  C15 UNL     1     -18.571   9.612  -7.154  1.00  0.00     0.018 C 
HETATM   25  C16 UNL     1     -18.777  11.489  -8.721  1.00  0.00     0.089 C 
HETATM   26  C17 UNL     1     -19.049  12.516  -7.674  1.00  0.00     0.033 C 
HETATM   27  N3  UNL     1     -20.002  10.781  -9.118  1.00  0.00    -0.362 N 
HETATM   28  C18 UNL     1     -19.766   9.760 -10.112  1.00  0.00     0.170 C 
ATOM     29  H3  UNL     1     -20.924  10.989  -8.732  1.00  0.00     0.162 HD
HETATM   30  S2  UNL     1     -20.999   9.074 -10.916  1.00  0.00    -0.041 SA
ENDBRANCH  19  20
ENDBRANCH  18  19
ENDBRANCH  17  18
ENDBRANCH  16  17
ENDBRANCH   1  16
TORSDOF 8
ENDMDL
MODEL 4
REMARK VINA RESULT: -7.163722657      5.467      8.208
REMARK  8 active torsions:
REMARK  status: ('A' for Active; 'I' for Inactive)
REMARK    1  A    between atoms: C6_6  and  S1_7 
REMARK    2  A    between atoms: S1_7  and  N1_10 
REMARK    3  A    between atoms: N1_10  and  C7_12 
REMARK    4  A    between atoms: C7_12  and  C8_13 
REMARK    5  A    between atoms: C8_13  and  C9_14 
REMARK    6  A    between atoms: C9_14  and  C10_15 
REMARK    7  A    between atoms: C10_15  and  C11_16 
REMARK    8  A    between atoms: C11_16  and  N2_17 
ROOT
HETATM    1  C7  UNL     1     -15.143  10.991  -9.381  1.00  0.00     0.132 C 
ENDROOT
BRANCH   1   2
HETATM    2  N1  UNL     1     -15.151  10.327  -8.100  1.00  0.00    -0.315 N 
ATOM      3  H1  UNL     1     -14.962  10.761  -7.196  1.00  0.00     0.172 HD
BRANCH   2   4
HETATM    4  S1  UNL     1     -15.538   8.669  -8.371  1.00  0.00     0.259 S 
HETATM    5  O1  UNL     1     -14.924   7.767  -7.338  1.00  0.00    -0.201 OA
HETATM    6  O2  UNL     1     -17.043   8.561  -8.144  1.00  0.00    -0.201 OA
BRANCH   4   7
HETATM    7  C6  UNL     1     -15.254   8.147  -9.996  1.00  0.00     0.086 A 
HETATM    8  C4  UNL     1     -13.967   7.912 -10.416  1.00  0.00    -0.038 A 
HETATM    9  C3  UNL     1     -13.707   7.491 -11.722  1.00  0.00     0.015 A 
HETATM   10  C5  UNL     1     -12.846   8.108  -9.468  1.00  0.00     0.050 C 
HETATM   11  C2  UNL     1     -14.738   7.306 -12.611  1.00  0.00    -0.056 A 
HETATM   12  C1  UNL     1     -14.427   6.860 -13.986  1.00  0.00     0.049 C 
HETATM   13  C20 UNL     1     -16.028   7.531 -12.221  1.00  0.00    -0.055 A 
HETATM   14  C19 UNL     1     -16.263   7.946 -10.928  1.00  0.00     0.033 A 
HETATM   15  C21 UNL     1     -17.190   7.349 -13.135  1.00  0.00     0.049 C 
ENDBRANCH   4   7
ENDBRANCH   2   4
ENDBRANCH   1   2
BRANCH   1  16
HETATM   16  C8  UNL     1     -16.459  11.671  -9.697  1.00  0.00     0.020 C 
BRANCH  16  17
HETATM   17  C9  UNL     1     -16.638  11.578 -11.194  1.00  0.00     0.003 C 
BRANCH  17  18
HETATM   18  C10 UNL     1     -18.037  11.211 -11.602  1.00  0.00     0.020 C 
BRANCH  18  19
HETATM   19  C11 UNL     1     -18.777  10.499 -10.490  1.00  0.00     0.125 C 
BRANCH  19  20
HETATM   20  N2  UNL     1     -20.096  11.094 -10.290  1.00  0.00    -0.358 N 
HETATM   21  C12 UNL     1     -20.212  12.330  -9.523  1.00  0.00     0.136 C 
HETATM   22  C13 UNL     1     -21.538  12.965  -9.756  1.00  0.00    -0.011 C 
HETATM   23  C14 UNL     1     -21.485  14.483  -9.599  1.00  0.00     0.018 C 
HETATM   24  C15 UNL     1     -22.563  12.419  -8.766  1.00  0.00     0.018 C 
HETATM   25  C16 UNL     1     -22.035  12.694 -11.146  1.00  0.00     0.089 C 
HETATM   26  C17 UNL     1     -23.232  13.526 -11.460  1.00  0.00     0.033 C 
HETATM   27  N3  UNL     1     -22.344  11.258 -11.190  1.00  0.00    -0.362 N 
HETATM   28  C18 UNL     1     -21.210  10.427 -10.863  1.00  0.00     0.170 C 
ATOM     29  H3  UNL     1     -23.265  10.887 -11.427  1.00  0.00     0.162 HD
HETATM   30  S2  UNL     1     -21.235   8.828 -11.148  1.00  0.00    -0.041 SA
ENDBRANCH  19  20
ENDBRANCH  18  19
ENDBRANCH  17  18
ENDBRANCH  16  17
ENDBRANCH   1  16
TORSDOF 8
ENDMDL
MODEL 5
REMARK VINA RESULT: -7.100129478      6.237      8.698
REMARK  8 active torsions:
REMARK  status: ('A' for Active; 'I' for Inactive)
REMARK    1  A    between atoms: C6_6  and  S1_7 
REMARK    2  A    between atoms: S1_7  and  N1_10 
REMARK    3  A    between atoms: N1_10  and  C7_12 
REMARK    4  A    between atoms: C7_12  and  C8_13 
REMARK    5  A    between atoms: C8_13  and  C9_14 
REMARK    6  A    between atoms: C9_14  and  C10_15 
REMARK    7  A    between atoms: C10_15  and  C11_16 
REMARK    8  A    between atoms: C11_16  and  N2_17 
ROOT
HETATM    1  C7  UNL     1     -15.674   9.416  -9.447  1.00  0.00     0.132 C 
ENDROOT
BRANCH   1   2
HETATM    2  N1  UNL     1     -15.212   8.049  -9.464  1.00  0.00    -0.315 N 
ATOM      3  H1  UNL     1     -15.599   7.290 -10.026  1.00  0.00     0.172 HD
BRANCH   2   4
HETATM    4  S1  UNL     1     -13.889   7.928  -8.367  1.00  0.00     0.259 S 
HETATM    5  O1  UNL     1     -13.184   6.605  -8.469  1.00  0.00    -0.201 OA
HETATM    6  O2  UNL     1     -12.868   8.956  -8.847  1.00  0.00    -0.201 OA
BRANCH   4   7
HETATM    7  C6  UNL     1     -14.292   8.369  -6.742  1.00  0.00     0.086 A 
HETATM    8  C4  UNL     1     -15.360   7.766  -6.123  1.00  0.00    -0.038 A 
HETATM    9  C3  UNL     1     -15.710   8.102  -4.813  1.00  0.00     0.015 A 
HETATM   10  C5  UNL     1     -16.144   6.746  -6.858  1.00  0.00     0.050 C 
HETATM   11  C2  UNL     1     -14.989   9.045  -4.122  1.00  0.00    -0.056 A 
HETATM   12  C1  UNL     1     -15.387   9.377  -2.737  1.00  0.00     0.049 C 
HETATM   13  C20 UNL     1     -13.922   9.661  -4.712  1.00  0.00    -0.055 A 
HETATM   14  C19 UNL     1     -13.593   9.315  -6.005  1.00  0.00     0.033 A 
HETATM   15  C21 UNL     1     -13.101  10.691  -4.018  1.00  0.00     0.049 C 
ENDBRANCH   4   7
ENDBRANCH   2   4
ENDBRANCH   1   2
BRANCH   1  16
HETATM   16  C8  UNL     1     -17.185   9.524  -9.449  1.00  0.00     0.020 C 
BRANCH  16  17
HETATM   17  C9  UNL     1     -17.577  10.048  -8.088  1.00  0.00     0.003 C 
BRANCH  17  18
HETATM   18  C10 UNL     1     -18.948  10.661  -8.060  1.00  0.00     0.020 C 
BRANCH  18  19
HETATM   19  C11 UNL     1     -19.997   9.712  -8.598  1.00  0.00     0.125 C 
BRANCH  19  20
HETATM   20  N2  UNL     1     -21.111  10.458  -9.180  1.00  0.00    -0.358 N 
HETATM   21  C12 UNL     1     -21.807  11.451  -8.369  1.00  0.00     0.136 C 
HETATM   22  C13 UNL     1     -22.624  12.348  -9.231  1.00  0.00    -0.011 C 
HETATM   23  C14 UNL     1     -22.789  13.738  -8.621  1.00  0.00     0.018 C 
HETATM   24  C15 UNL     1     -24.013  11.752  -9.442  1.00  0.00     0.018 C 
HETATM   25  C16 UNL     1     -21.985  12.541 -10.576  1.00  0.00     0.089 C 
HETATM   26  C17 UNL     1     -22.666  13.624 -11.343  1.00  0.00     0.033 C 
HETATM   27  N3  UNL     1     -22.086  11.244 -11.259  1.00  0.00    -0.362 N 
HETATM   28  C18 UNL     1     -21.459  10.170 -10.526  1.00  0.00     0.170 C 
ATOM     29  H3  UNL     1     -22.551  11.116 -12.159  1.00  0.00     0.162 HD
HETATM   30  S2  UNL     1     -21.179   8.731 -11.226  1.00  0.00    -0.041 SA
ENDBRANCH  19  20
ENDBRANCH  18  19
ENDBRANCH  17  18
ENDBRANCH  16  17
ENDBRANCH   1  16
TORSDOF 8
ENDMDL
