MODEL 1
REMARK VINA RESULT: -7.141204191      0.000      0.000
REMARK  8 active torsions:
REMARK  status: ('A' for Active; 'I' for Inactive)
REMARK    1  A    between atoms: C5_5  and  C6_6 
REMARK    2  A    between atoms: C10_10  and  N1_11 
REMARK    3  A    between atoms: N1_11  and  S1_13 
REMARK    4  A    between atoms: S1_13  and  C11_16 
REMARK    5  A    between atoms: C11_16  and  C12_17 
REMARK    6  A    between atoms: C12_17  and  N2_18 
REMARK       I    between atoms: N2_18  and  C13_20 
REMARK       I    between atoms: C13_20  and  N3_22 
REMARK    7  A    between atoms: N3_22  and  C14_23 
REMARK    8  A    between atoms: N3_22  and  C17_26 
ROOT
HETATM    1  S1  UNL     1      -6.279  18.390 -10.423  1.00  0.00     0.228 S 
HETATM    2  O1  UNL     1      -5.019  18.196 -11.271  1.00  0.00    -0.206 OA
HETATM    3  O2  UNL     1      -6.646  19.872 -10.421  1.00  0.00    -0.206 OA
ENDROOT
BRANCH   1   4
HETATM    4  N1  UNL     1      -7.522  17.401 -10.883  1.00  0.00    -0.314 N 
ATOM      5  H1  UNL     1      -7.418  16.389 -10.810  1.00  0.00     0.172 HD
BRANCH   4   6
HETATM    6  C10 UNL     1      -8.761  17.964 -11.392  1.00  0.00     0.101 C 
HETATM    7  C5  UNL     1      -8.663  18.487 -12.772  1.00  0.00     0.017 C 
HETATM    8  C4  UNL     1      -8.784  17.442 -13.851  1.00  0.00     0.008 C 
HETATM    9  C3  UNL     1      -9.360  16.144 -13.382  1.00  0.00     0.005 C 
HETATM   10  C2  UNL     1     -10.408  16.279 -12.339  1.00  0.00    -0.013 C 
HETATM   11  C1  UNL     1     -10.795  14.848 -11.927  1.00  0.00     0.010 C 
HETATM   12  C20 UNL     1      -9.904  16.986 -11.141  1.00  0.00     0.009 C 
HETATM   13  C21 UNL     1     -11.068  17.680 -10.470  1.00  0.00     0.012 C 
BRANCH   7  14
HETATM   14  C6  UNL     1      -9.322  19.779 -13.114  1.00  0.00    -0.046 C 
HETATM   15  C7  UNL     1     -10.618  19.512 -13.929  1.00  0.00     0.015 C 
HETATM   16  C8  UNL     1      -9.809  20.604 -11.950  1.00  0.00     0.015 C 
HETATM   17  C9  UNL     1      -8.543  20.697 -13.992  1.00  0.00     0.015 C 
ENDBRANCH   7  14
ENDBRANCH   4   6
ENDBRANCH   1   4
BRANCH   1  18
HETATM   18  C11 UNL     1      -5.761  18.046  -8.767  1.00  0.00     0.182 C 
BRANCH  18  19
HETATM   19  C12 UNL     1      -6.868  17.469  -7.901  1.00  0.00     0.141 C 
BRANCH  19  20
HETATM   20  N2  UNL     1      -6.434  16.212  -7.381  1.00  0.00    -0.342 N 
HETATM   21  C13 UNL     1      -5.606  16.184  -6.227  1.00  0.00     0.319 C 
HETATM   22  O3  UNL     1      -5.261  17.294  -5.671  1.00  0.00    -0.247 OA
HETATM   23  N3  UNL     1      -5.132  14.978  -5.649  1.00  0.00    -0.326 N 
ATOM     24  H2  UNL     1      -6.714  15.342  -7.833  1.00  0.00     0.164 HD
BRANCH  23  25
HETATM   25  C14 UNL     1      -4.281  15.114  -4.450  1.00  0.00     0.081 C 
HETATM   26  C15 UNL     1      -3.095  14.213  -4.594  1.00  0.00     0.032 C 
HETATM   27  C16 UNL     1      -5.079  14.675  -3.244  1.00  0.00     0.032 C 
ENDBRANCH  23  25
BRANCH  23  28
HETATM   28  C17 UNL     1      -5.438  13.663  -6.168  1.00  0.00     0.089 A 
HETATM   29  C18 UNL     1      -6.697  12.980  -5.696  1.00  0.00     0.027 A 
HETATM   30  C19 UNL     1      -6.594  13.508  -7.088  1.00  0.00     0.027 A 
ENDBRANCH  23  28
ENDBRANCH  19  20
ENDBRANCH  18  19
ENDBRANCH   1  18
TORSDOF 8
ENDMDL
MODEL 2
REMARK VINA RESULT: -7.133831555     11.687     14.665
REMARK  8 active torsions:
REMARK  status: ('A' for Active; 'I' for Inactive)
REMARK    1  A    between atoms: C5_5  and  C6_6 
REMARK    2  A    between atoms: C10_10  and  N1_11 
REMARK    3  A    between atoms: N1_11  and  S1_13 
REMARK    4  A    between atoms: S1_13  and  C11_16 
REMARK    5  A    between atoms: C11_16  and  C12_17 
REMARK    6  A    between atoms: C12_17  and  N2_18 
REMARK       I    between atoms: N2_18  and  C13_20 
REMARK       I    between atoms: C13_20  and  N3_22 
REMARK    7  A    between atoms: N3_22  and  C14_23 
REMARK    8  A    between atoms: N3_22  and  C17_26 
ROOT
HETATM    1  S1  UNL     1     -17.600   8.163 -11.951  1.00  0.00     0.228 S 
HETATM    2  O1  UNL     1     -16.740   8.716 -13.091  1.00  0.00    -0.206 OA
HETATM    3  O2  UNL     1     -18.464   7.029 -12.494  1.00  0.00    -0.206 OA
ENDROOT
BRANCH   1   4
HETATM    4  N1  UNL     1     -16.710   7.741 -10.623  1.00  0.00    -0.314 N 
ATOM      5  H1  UNL     1     -16.607   6.757 -10.373  1.00  0.00     0.172 HD
BRANCH   4   6
HETATM    6  C10 UNL     1     -16.074   8.762  -9.809  1.00  0.00     0.101 C 
HETATM    7  C5  UNL     1     -16.304   8.605  -8.356  1.00  0.00     0.017 C 
HETATM    8  C4  UNL     1     -15.398   7.609  -7.679  1.00  0.00     0.008 C 
HETATM    9  C3  UNL     1     -14.189   7.243  -8.479  1.00  0.00     0.005 C 
HETATM   10  C2  UNL     1     -13.623   8.357  -9.282  1.00  0.00    -0.013 C 
HETATM   11  C1  UNL     1     -12.462   7.758 -10.095  1.00  0.00     0.010 C 
HETATM   12  C20 UNL     1     -14.615   8.912 -10.229  1.00  0.00     0.009 C 
HETATM   13  C21 UNL     1     -14.274  10.363 -10.483  1.00  0.00     0.012 C 
BRANCH   7  14
HETATM   14  C6  UNL     1     -16.597   9.808  -7.526  1.00  0.00    -0.046 C 
HETATM   15  C7  UNL     1     -17.512   9.417  -6.333  1.00  0.00     0.015 C 
HETATM   16  C8  UNL     1     -15.411  10.455  -6.856  1.00  0.00     0.015 C 
HETATM   17  C9  UNL     1     -17.354  10.899  -8.201  1.00  0.00     0.015 C 
ENDBRANCH   7  14
ENDBRANCH   4   6
ENDBRANCH   1   4
BRANCH   1  18
HETATM   18  C11 UNL     1     -18.737   9.465 -11.578  1.00  0.00     0.182 C 
BRANCH  18  19
HETATM   19  C12 UNL     1     -20.123   8.962 -11.210  1.00  0.00     0.141 C 
BRANCH  19  20
HETATM   20  N2  UNL     1     -20.814   9.997 -10.509  1.00  0.00    -0.342 N 
HETATM   21  C13 UNL     1     -20.925   9.926  -9.095  1.00  0.00     0.319 C 
HETATM   22  O3  UNL     1     -20.402   8.928  -8.470  1.00  0.00    -0.247 OA
HETATM   23  N3  UNL     1     -21.596  10.912  -8.326  1.00  0.00    -0.326 N 
ATOM     24  H2  UNL     1     -21.224  10.780 -11.019  1.00  0.00     0.164 HD
BRANCH  23  25
HETATM   25  C14 UNL     1     -21.628  10.697  -6.865  1.00  0.00     0.081 C 
HETATM   26  C15 UNL     1     -22.949  11.157  -6.336  1.00  0.00     0.032 C 
HETATM   27  C16 UNL     1     -20.537  11.532  -6.235  1.00  0.00     0.032 C 
ENDBRANCH  23  25
BRANCH  23  28
HETATM   28  C17 UNL     1     -22.230  12.082  -8.894  1.00  0.00     0.089 A 
HETATM   29  C18 UNL     1     -21.433  13.359  -8.981  1.00  0.00     0.027 A 
HETATM   30  C19 UNL     1     -21.760  12.581 -10.211  1.00  0.00     0.027 A 
ENDBRANCH  23  28
ENDBRANCH  19  20
ENDBRANCH  18  19
ENDBRANCH   1  18
TORSDOF 8
ENDMDL
MODEL 3
REMARK VINA RESULT: -7.085517057      1.040      1.746
REMARK  8 active torsions:
REMARK  status: ('A' for Active; 'I' for Inactive)
REMARK    1  A    between atoms: C5_5  and  C6_6 
REMARK    2  A    between atoms: C10_10  and  N1_11 
REMARK    3  A    between atoms: N1_11  and  S1_13 
REMARK    4  A    between atoms: S1_13  and  C11_16 
REMARK    5  A    between atoms: C11_16  and  C12_17 
REMARK    6  A    between atoms: C12_17  and  N2_18 
REMARK       I    between atoms: N2_18  and  C13_20 
REMARK       I    between atoms: C13_20  and  N3_22 
REMARK    7  A    between atoms: N3_22  and  C14_23 
REMARK    8  A    between atoms: N3_22  and  C17_26 
ROOT
HETATM    1  S1  UNL     1      -6.336  18.403 -10.073  1.00  0.00     0.228 S 
HETATM    2  O1  UNL     1      -5.105  18.195 -10.959  1.00  0.00    -0.206 OA
HETATM    3  O2  UNL     1      -6.656  19.894 -10.020  1.00  0.00    -0.206 OA
ENDROOT
BRANCH   1   4
HETATM    4  N1  UNL     1      -7.620  17.466 -10.529  1.00  0.00    -0.314 N 
ATOM      5  H1  UNL     1      -7.593  16.458 -10.371  1.00  0.00     0.172 HD
BRANCH   4   6
HETATM    6  C10 UNL     1      -8.786  18.068 -11.153  1.00  0.00     0.101 C 
HETATM    7  C5  UNL     1      -8.516  18.670 -12.477  1.00  0.00     0.017 C 
HETATM    8  C4  UNL     1      -8.503  17.692 -13.623  1.00  0.00     0.008 C 
HETATM    9  C3  UNL     1      -9.134  16.373 -13.307  1.00  0.00     0.005 C 
HETATM   10  C2  UNL     1     -10.304  16.455 -12.396  1.00  0.00    -0.013 C 
HETATM   11  C1  UNL     1     -10.740  15.005 -12.121  1.00  0.00     0.010 C 
HETATM   12  C20 UNL     1      -9.952  17.086 -11.104  1.00  0.00     0.009 C 
HETATM   13  C21 UNL     1     -11.190  17.749 -10.543  1.00  0.00     0.012 C 
BRANCH   7  14
HETATM   14  C6  UNL     1      -9.127  19.985 -12.821  1.00  0.00    -0.046 C 
HETATM   15  C7  UNL     1     -10.346  19.773 -13.761  1.00  0.00     0.015 C 
HETATM   16  C8  UNL     1      -9.708  20.768 -11.671  1.00  0.00     0.015 C 
HETATM   17  C9  UNL     1      -8.261  20.927 -13.584  1.00  0.00     0.015 C 
ENDBRANCH   7  14
ENDBRANCH   4   6
ENDBRANCH   1   4
BRANCH   1  18
HETATM   18  C11 UNL     1      -5.788  17.996  -8.442  1.00  0.00     0.182 C 
BRANCH  18  19
HETATM   19  C12 UNL     1      -6.593  16.878  -7.801  1.00  0.00     0.141 C 
BRANCH  19  20
HETATM   20  N2  UNL     1      -5.855  16.359  -6.694  1.00  0.00    -0.342 N 
HETATM   21  C13 UNL     1      -6.404  15.297  -5.928  1.00  0.00     0.319 C 
HETATM   22  O3  UNL     1      -7.559  14.822  -6.244  1.00  0.00    -0.247 OA
HETATM   23  N3  UNL     1      -5.735  14.726  -4.814  1.00  0.00    -0.326 N 
ATOM     24  H2  UNL     1      -4.942  16.747  -6.455  1.00  0.00     0.164 HD
BRANCH  23  25
HETATM   25  C14 UNL     1      -6.436  13.628  -4.118  1.00  0.00     0.081 C 
HETATM   26  C15 UNL     1      -6.210  13.766  -2.645  1.00  0.00     0.032 C 
HETATM   27  C16 UNL     1      -5.845  12.316  -4.578  1.00  0.00     0.032 C 
ENDBRANCH  23  25
BRANCH  23  28
HETATM   28  C17 UNL     1      -4.438  15.161  -4.345  1.00  0.00     0.089 A 
HETATM   29  C18 UNL     1      -3.226  14.352  -4.735  1.00  0.00     0.027 A 
HETATM   30  C19 UNL     1      -3.465  15.699  -5.331  1.00  0.00     0.027 A 
ENDBRANCH  23  28
ENDBRANCH  19  20
ENDBRANCH  18  19
ENDBRANCH   1  18
TORSDOF 8
ENDMDL
MODEL 4
REMARK VINA RESULT: -6.919761787     12.128     15.403
REMARK  8 active torsions:
REMARK  status: ('A' for Active; 'I' for Inactive)
REMARK    1  A    between atoms: C5_5  and  C6_6 
REMARK    2  A    between atoms: C10_10  and  N1_11 
REMARK    3  A    between atoms: N1_11  and  S1_13 
REMARK    4  A    between atoms: S1_13  and  C11_16 
REMARK    5  A    between atoms: C11_16  and  C12_17 
REMARK    6  A    between atoms: C12_17  and  N2_18 
REMARK       I    between atoms: N2_18  and  C13_20 
REMARK       I    between atoms: C13_20  and  N3_22 
REMARK    7  A    between atoms: N3_22  and  C14_23 
REMARK    8  A    between atoms: N3_22  and  C17_26 
ROOT
HETATM    1  S1  UNL     1     -19.697   9.776  -7.236  1.00  0.00     0.228 S 
HETATM    2  O1  UNL     1     -19.411  10.562  -8.518  1.00  0.00    -0.206 OA
HETATM    3  O2  UNL     1     -21.029   9.048  -7.394  1.00  0.00    -0.206 OA
ENDROOT
BRANCH   1   4
HETATM    4  N1  UNL     1     -18.448   8.784  -6.799  1.00  0.00    -0.314 N 
ATOM      5  H1  UNL     1     -18.610   7.783  -6.691  1.00  0.00     0.172 HD
BRANCH   4   6
HETATM    6  C10 UNL     1     -17.122   9.330  -6.568  1.00  0.00     0.101 C 
HETATM    7  C5  UNL     1     -16.373   8.657  -5.485  1.00  0.00     0.017 C 
HETATM    8  C4  UNL     1     -15.691   7.376  -5.893  1.00  0.00     0.008 C 
HETATM    9  C3  UNL     1     -15.555   7.201  -7.371  1.00  0.00     0.005 C 
HETATM   10  C2  UNL     1     -15.307   8.461  -8.118  1.00  0.00    -0.013 C 
HETATM   11  C1  UNL     1     -15.296   8.084  -9.610  1.00  0.00     0.010 C 
HETATM   12  C20 UNL     1     -16.383   9.452  -7.897  1.00  0.00     0.009 C 
HETATM   13  C21 UNL     1     -15.800  10.837  -8.064  1.00  0.00     0.012 C 
BRANCH   7  14
HETATM   14  C6  UNL     1     -15.582   9.474  -4.522  1.00  0.00    -0.046 C 
HETATM   15  C7  UNL     1     -15.646   8.835  -3.107  1.00  0.00     0.015 C 
HETATM   16  C8  UNL     1     -14.101   9.568  -4.792  1.00  0.00     0.015 C 
HETATM   17  C9  UNL     1     -16.064  10.865  -4.297  1.00  0.00     0.015 C 
ENDBRANCH   7  14
ENDBRANCH   4   6
ENDBRANCH   1   4
BRANCH   1  18
HETATM   18  C11 UNL     1     -19.996  11.014  -6.009  1.00  0.00     0.182 C 
BRANCH  18  19
HETATM   19  C12 UNL     1     -21.459  11.410  -5.902  1.00  0.00     0.141 C 
BRANCH  19  20
HETATM   20  N2  UNL     1     -21.938  11.750  -7.203  1.00  0.00    -0.342 N 
HETATM   21  C13 UNL     1     -21.827  13.091  -7.657  1.00  0.00     0.319 C 
HETATM   22  O3  UNL     1     -21.296  13.977  -6.886  1.00  0.00    -0.247 OA
HETATM   23  N3  UNL     1     -22.279  13.511  -8.935  1.00  0.00    -0.326 N 
ATOM     24  H2  UNL     1     -22.357  11.038  -7.801  1.00  0.00     0.164 HD
BRANCH  23  25
HETATM   25  C14 UNL     1     -22.093  14.939  -9.262  1.00  0.00     0.081 C 
HETATM   26  C15 UNL     1     -23.217  15.384 -10.144  1.00  0.00     0.032 C 
HETATM   27  C16 UNL     1     -20.794  15.092 -10.019  1.00  0.00     0.032 C 
ENDBRANCH  23  25
BRANCH  23  28
HETATM   28  C17 UNL     1     -22.894  12.627  -9.901  1.00  0.00     0.089 A 
HETATM   29  C18 UNL     1     -22.071  12.162 -11.075  1.00  0.00     0.027 A 
HETATM   30  C19 UNL     1     -22.431  11.218  -9.977  1.00  0.00     0.027 A 
ENDBRANCH  23  28
ENDBRANCH  19  20
ENDBRANCH  18  19
ENDBRANCH   1  18
TORSDOF 8
ENDMDL
MODEL 5
REMARK VINA RESULT: -6.866789132     11.595     14.471
REMARK  8 active torsions:
REMARK  status: ('A' for Active; 'I' for Inactive)
REMARK    1  A    between atoms: C5_5  and  C6_6 
REMARK    2  A    between atoms: C10_10  and  N1_11 
REMARK    3  A    between atoms: N1_11  and  S1_13 
REMARK    4  A    between atoms: S1_13  and  C11_16 
REMARK    5  A    between atoms: C11_16  and  C12_17 
REMARK    6  A    between atoms: C12_17  and  N2_18 
REMARK       I    between atoms: N2_18  and  C13_20 
REMARK       I    between atoms: C13_20  and  N3_22 
REMARK    7  A    between atoms: N3_22  and  C14_23 
REMARK    8  A    between atoms: N3_22  and  C17_26 
ROOT
HETATM    1  S1  UNL     1     -17.435   8.339 -11.668  1.00  0.00     0.228 S 
HETATM    2  O1  UNL     1     -16.263   8.961 -12.432  1.00  0.00    -0.206 OA
HETATM    3  O2  UNL     1     -18.053   7.239 -12.528  1.00  0.00    -0.206 OA
ENDROOT
BRANCH   1   4
HETATM    4  N1  UNL     1     -17.017   7.835 -10.149  1.00  0.00    -0.314 N 
ATOM      5  H1  UNL     1     -17.532   7.073  -9.708  1.00  0.00     0.172 HD
BRANCH   4   6
HETATM    6  C10 UNL     1     -15.922   8.473  -9.439  1.00  0.00     0.101 C 
HETATM    7  C5  UNL     1     -16.134   9.912  -9.171  1.00  0.00     0.017 C 
HETATM    8  C4  UNL     1     -16.988  10.208  -7.964  1.00  0.00     0.008 C 
HETATM    9  C3  UNL     1     -17.151   9.049  -7.033  1.00  0.00     0.005 C 
HETATM   10  C2  UNL     1     -15.952   8.182  -6.916  1.00  0.00    -0.013 C 
HETATM   11  C1  UNL     1     -16.352   7.011  -6.002  1.00  0.00     0.010 C 
HETATM   12  C20 UNL     1     -15.543   7.629  -8.227  1.00  0.00     0.009 C 
HETATM   13  C21 UNL     1     -14.052   7.372  -8.194  1.00  0.00     0.012 C 
BRANCH   7  14
HETATM   14  C6  UNL     1     -15.004  10.866  -9.351  1.00  0.00    -0.046 C 
HETATM   15  C7  UNL     1     -15.512  12.163 -10.040  1.00  0.00     0.015 C 
HETATM   16  C8  UNL     1     -14.357  11.374  -8.088  1.00  0.00     0.015 C 
HETATM   17  C9  UNL     1     -13.900  10.410 -10.242  1.00  0.00     0.015 C 
ENDBRANCH   7  14
ENDBRANCH   4   6
ENDBRANCH   1   4
BRANCH   1  18
HETATM   18  C11 UNL     1     -18.659   9.614 -11.610  1.00  0.00     0.182 C 
BRANCH  18  19
HETATM   19  C12 UNL     1     -20.045   9.100 -11.261  1.00  0.00     0.141 C 
BRANCH  19  20
HETATM   20  N2  UNL     1     -20.731  10.104 -10.513  1.00  0.00    -0.342 N 
HETATM   21  C13 UNL     1     -20.868   9.954  -9.108  1.00  0.00     0.319 C 
HETATM   22  O3  UNL     1     -20.372   8.914  -8.533  1.00  0.00    -0.247 OA
HETATM   23  N3  UNL     1     -21.536  10.906  -8.294  1.00  0.00    -0.326 N 
ATOM     24  H2  UNL     1     -21.120  10.922 -10.984  1.00  0.00     0.164 HD
BRANCH  23  25
HETATM   25  C14 UNL     1     -21.596  10.609  -6.849  1.00  0.00     0.081 C 
HETATM   26  C15 UNL     1     -22.874  11.154  -6.294  1.00  0.00     0.032 C 
HETATM   27  C16 UNL     1     -20.438  11.302  -6.169  1.00  0.00     0.032 C 
ENDBRANCH  23  25
BRANCH  23  28
HETATM   28  C17 UNL     1     -22.141  12.117  -8.804  1.00  0.00     0.089 A 
HETATM   29  C18 UNL     1     -21.328  13.386  -8.791  1.00  0.00     0.027 A 
HETATM   30  C19 UNL     1     -21.631  12.691 -10.075  1.00  0.00     0.027 A 
ENDBRANCH  23  28
ENDBRANCH  19  20
ENDBRANCH  18  19
ENDBRANCH   1  18
TORSDOF 8
ENDMDL
