MODEL 1
REMARK VINA RESULT: -7.569652393      0.000      0.000
REMARK  9 active torsions:
REMARK  status: ('A' for Active; 'I' for Inactive)
REMARK    1  A    between atoms: C2_2  and  C3_3 
REMARK    2  A    between atoms: C3_3  and  C4_4 
REMARK    3  A    between atoms: N2_10  and  C7_11 
REMARK    4  A    between atoms: C7_11  and  C8_12 
REMARK    5  A    between atoms: C8_12  and  N3_13 
REMARK    6  A    between atoms: C8_12  and  C20_27 
REMARK       I    between atoms: N3_13  and  C9_15 
REMARK    7  A    between atoms: C9_15  and  C10_17 
REMARK    8  A    between atoms: C10_17  and  C11_18 
REMARK    9  A    between atoms: C11_18  and  C12_19 
ROOT
HETATM    1  C8  UNL     1     -22.192  11.427  -9.382  1.00  0.00     0.110 C 
ENDROOT
BRANCH   1   2
HETATM    2  C7  UNL     1     -22.165  11.197  -7.932  1.00  0.00     0.163 C 
BRANCH   2   3
HETATM    3  N2  UNL     1     -20.906  10.972  -7.273  1.00  0.00    -0.266 N 
HETATM    4  C6  UNL     1     -20.242   9.720  -7.111  1.00  0.00     0.326 A 
HETATM    5  N1  UNL     1     -19.013   9.919  -6.494  1.00  0.00    -0.324 N 
HETATM    6  O1  UNL     1     -20.768   8.612  -7.500  1.00  0.00    -0.247 OA
HETATM    7  C3  UNL     1     -18.793  11.318  -6.297  1.00  0.00     0.115 A 
ATOM      8  H1  UNL     1     -18.365   9.178  -6.223  1.00  0.00     0.165 HD
HETATM    9  C24 UNL     1     -20.071  11.965  -6.744  1.00  0.00     0.256 A 
HETATM   10  O3  UNL     1     -20.241  13.223  -6.610  1.00  0.00    -0.270 OA
BRANCH   7  11
HETATM   11  C2  UNL     1     -18.593  11.708  -4.880  1.00  0.00     0.037 C 
HETATM   12  C1  UNL     1     -19.704  11.466  -3.922  1.00  0.00     0.008 C 
ENDBRANCH   7  11
BRANCH   7  13
HETATM   13  C4  UNL     1     -17.725  11.736  -7.265  1.00  0.00     0.037 C 
HETATM   14  C5  UNL     1     -16.715  10.709  -7.596  1.00  0.00     0.008 C 
ENDBRANCH   7  13
ENDBRANCH   2   3
ENDBRANCH   1   2
BRANCH   1  15
HETATM   15  N3  UNL     1     -21.036  10.625  -9.897  1.00  0.00    -0.354 N 
HETATM   16  C9  UNL     1     -21.222   9.639 -10.864  1.00  0.00     0.218 C 
HETATM   17  O2  UNL     1     -22.396   9.407 -11.328  1.00  0.00    -0.274 OA
ATOM     18  H3  UNL     1     -20.099  10.804  -9.535  1.00  0.00     0.162 HD
BRANCH  16  19
HETATM   19  C10 UNL     1     -20.122   8.829 -11.396  1.00  0.00     0.107 C 
BRANCH  19  20
HETATM   20  C11 UNL     1     -18.812   9.190 -10.725  1.00  0.00     0.048 C 
BRANCH  20  21
HETATM   21  C12 UNL     1     -17.634   8.553 -11.336  1.00  0.00    -0.057 A 
HETATM   22  C13 UNL     1     -17.780   7.892 -12.547  1.00  0.00     0.007 A 
HETATM   23  C14 UNL     1     -16.699   7.289 -13.174  1.00  0.00     0.008 A 
HETATM   24  C15 UNL     1     -15.445   7.340 -12.593  1.00  0.00    -0.056 A 
HETATM   25  C16 UNL     1     -14.256   6.703 -13.247  1.00  0.00     0.049 C 
HETATM   26  C17 UNL     1     -15.314   8.001 -11.386  1.00  0.00    -0.056 A 
HETATM   27  C18 UNL     1     -13.959   8.058 -10.773  1.00  0.00     0.049 C 
HETATM   28  C19 UNL     1     -16.391   8.591 -10.779  1.00  0.00     0.014 A 
ENDBRANCH  20  21
ENDBRANCH  19  20
ENDBRANCH  16  19
ENDBRANCH   1  15
BRANCH   1  29
HETATM   29  C20 UNL     1     -22.046  12.762  -9.964  1.00  0.00    -0.029 C 
HETATM   30  C21 UNL     1     -22.735  12.909 -11.320  1.00  0.00     0.016 C 
HETATM   31  C22 UNL     1     -20.638  13.275 -10.124  1.00  0.00     0.016 C 
HETATM   32  C23 UNL     1     -22.730  13.750  -8.981  1.00  0.00     0.016 C 
ENDBRANCH   1  29
TORSDOF 9
ENDMDL
MODEL 2
REMARK VINA RESULT: -7.419521159      2.724      4.319
REMARK  9 active torsions:
REMARK  status: ('A' for Active; 'I' for Inactive)
REMARK    1  A    between atoms: C2_2  and  C3_3 
REMARK    2  A    between atoms: C3_3  and  C4_4 
REMARK    3  A    between atoms: N2_10  and  C7_11 
REMARK    4  A    between atoms: C7_11  and  C8_12 
REMARK    5  A    between atoms: C8_12  and  N3_13 
REMARK    6  A    between atoms: C8_12  and  C20_27 
REMARK       I    between atoms: N3_13  and  C9_15 
REMARK    7  A    between atoms: C9_15  and  C10_17 
REMARK    8  A    between atoms: C10_17  and  C11_18 
REMARK    9  A    between atoms: C11_18  and  C12_19 
ROOT
HETATM    1  C8  UNL     1     -19.156  10.663  -6.174  1.00  0.00     0.110 C 
ENDROOT
BRANCH   1   2
HETATM    2  C7  UNL     1     -17.725  10.682  -6.505  1.00  0.00     0.163 C 
BRANCH   2   3
HETATM    3  N2  UNL     1     -16.805   9.905  -5.719  1.00  0.00    -0.266 N 
HETATM    4  C6  UNL     1     -16.624   8.491  -5.771  1.00  0.00     0.326 A 
HETATM    5  N1  UNL     1     -15.589   8.120  -4.922  1.00  0.00    -0.324 N 
HETATM    6  O1  UNL     1     -17.351   7.736  -6.517  1.00  0.00    -0.247 OA
HETATM    7  C3  UNL     1     -15.003   9.286  -4.337  1.00  0.00     0.115 A 
ATOM      8  H1  UNL     1     -15.291   7.161  -4.742  1.00  0.00     0.165 HD
HETATM    9  C24 UNL     1     -15.864  10.419  -4.817  1.00  0.00     0.256 A 
HETATM   10  O3  UNL     1     -15.664  11.607  -4.396  1.00  0.00    -0.270 OA
BRANCH   7  11
HETATM   11  C2  UNL     1     -15.054   9.315  -2.855  1.00  0.00     0.037 C 
HETATM   12  C1  UNL     1     -16.344   8.988  -2.190  1.00  0.00     0.008 C 
ENDBRANCH   7  11
BRANCH   7  13
HETATM   13  C4  UNL     1     -13.653   9.463  -4.965  1.00  0.00     0.037 C 
HETATM   14  C5  UNL     1     -12.595  10.002  -4.084  1.00  0.00     0.008 C 
ENDBRANCH   7  13
ENDBRANCH   2   3
ENDBRANCH   1   2
BRANCH   1  15
HETATM   15  N3  UNL     1     -19.837  10.776  -7.504  1.00  0.00    -0.354 N 
HETATM   16  C9  UNL     1     -20.473   9.677  -8.079  1.00  0.00     0.218 C 
HETATM   17  O2  UNL     1     -20.483   8.548  -7.468  1.00  0.00    -0.274 OA
ATOM     18  H3  UNL     1     -19.835  11.669  -7.996  1.00  0.00     0.162 HD
BRANCH  16  19
HETATM   19  C10 UNL     1     -21.149   9.740  -9.378  1.00  0.00     0.107 C 
BRANCH  19  20
HETATM   20  C11 UNL     1     -20.511  10.786 -10.269  1.00  0.00     0.048 C 
BRANCH  20  21
HETATM   21  C12 UNL     1     -19.352  10.293 -11.031  1.00  0.00    -0.057 A 
HETATM   22  C13 UNL     1     -18.324  11.172 -11.338  1.00  0.00     0.007 A 
HETATM   23  C14 UNL     1     -17.203  10.755 -12.039  1.00  0.00     0.008 A 
HETATM   24  C15 UNL     1     -17.092   9.438 -12.447  1.00  0.00    -0.056 A 
HETATM   25  C16 UNL     1     -15.891   8.954 -13.202  1.00  0.00     0.049 C 
HETATM   26  C17 UNL     1     -18.123   8.572 -12.135  1.00  0.00    -0.056 A 
HETATM   27  C18 UNL     1     -17.991   7.154 -12.570  1.00  0.00     0.049 C 
HETATM   28  C19 UNL     1     -19.225   9.000 -11.442  1.00  0.00     0.014 A 
ENDBRANCH  20  21
ENDBRANCH  19  20
ENDBRANCH  16  19
ENDBRANCH   1  15
BRANCH   1  29
HETATM   29  C20 UNL     1     -19.773  11.678  -5.320  1.00  0.00    -0.029 C 
HETATM   30  C21 UNL     1     -19.468  11.487  -3.835  1.00  0.00     0.016 C 
HETATM   31  C22 UNL     1     -21.266  11.847  -5.447  1.00  0.00     0.016 C 
HETATM   32  C23 UNL     1     -19.171  13.044  -5.750  1.00  0.00     0.016 C 
ENDBRANCH   1  29
TORSDOF 9
ENDMDL
MODEL 3
REMARK VINA RESULT: -7.047249966      2.293      3.868
REMARK  9 active torsions:
REMARK  status: ('A' for Active; 'I' for Inactive)
REMARK    1  A    between atoms: C2_2  and  C3_3 
REMARK    2  A    between atoms: C3_3  and  C4_4 
REMARK    3  A    between atoms: N2_10  and  C7_11 
REMARK    4  A    between atoms: C7_11  and  C8_12 
REMARK    5  A    between atoms: C8_12  and  N3_13 
REMARK    6  A    between atoms: C8_12  and  C20_27 
REMARK       I    between atoms: N3_13  and  C9_15 
REMARK    7  A    between atoms: C9_15  and  C10_17 
REMARK    8  A    between atoms: C10_17  and  C11_18 
REMARK    9  A    between atoms: C11_18  and  C12_19 
ROOT
HETATM    1  C8  UNL     1     -19.831  11.079  -6.552  1.00  0.00     0.110 C 
ENDROOT
BRANCH   1   2
HETATM    2  C7  UNL     1     -18.396  11.391  -6.593  1.00  0.00     0.163 C 
BRANCH   2   3
HETATM    3  N2  UNL     1     -17.439  10.376  -6.240  1.00  0.00    -0.266 N 
HETATM    4  C6  UNL     1     -16.757  10.247  -4.994  1.00  0.00     0.326 A 
HETATM    5  N1  UNL     1     -15.977   9.097  -5.005  1.00  0.00    -0.324 N 
HETATM    6  O1  UNL     1     -16.893  11.108  -4.048  1.00  0.00    -0.247 OA
HETATM    7  C3  UNL     1     -16.176   8.391  -6.233  1.00  0.00     0.115 A 
ATOM      8  H1  UNL     1     -15.355   8.802  -4.252  1.00  0.00     0.165 HD
HETATM    9  C24 UNL     1     -17.072   9.286  -7.039  1.00  0.00     0.256 A 
HETATM   10  O3  UNL     1     -17.373   8.986  -8.242  1.00  0.00    -0.270 OA
BRANCH   7  11
HETATM   11  C2  UNL     1     -14.941   8.197  -7.031  1.00  0.00     0.037 C 
HETATM   12  C1  UNL     1     -13.724   8.953  -6.635  1.00  0.00     0.008 C 
ENDBRANCH   7  11
BRANCH   7  13
HETATM   13  C4  UNL     1     -16.965   7.157  -5.907  1.00  0.00     0.037 C 
HETATM   14  C5  UNL     1     -16.372   5.876  -6.344  1.00  0.00     0.008 C 
ENDBRANCH   7  13
ENDBRANCH   2   3
ENDBRANCH   1   2
BRANCH   1  15
HETATM   15  N3  UNL     1     -20.208  10.922  -7.993  1.00  0.00    -0.354 N 
HETATM   16  C9  UNL     1     -20.594   9.683  -8.502  1.00  0.00     0.218 C 
HETATM   17  O2  UNL     1     -20.630   8.656  -7.733  1.00  0.00    -0.274 OA
ATOM     18  H3  UNL     1     -20.183  11.733  -8.611  1.00  0.00     0.162 HD
BRANCH  16  19
HETATM   19  C10 UNL     1     -20.968   9.482  -9.905  1.00  0.00     0.107 C 
BRANCH  19  20
HETATM   20  C11 UNL     1     -20.089  10.305 -10.823  1.00  0.00     0.048 C 
BRANCH  20  21
HETATM   21  C12 UNL     1     -18.985   9.544 -11.431  1.00  0.00    -0.057 A 
HETATM   22  C13 UNL     1     -19.204   8.227 -11.809  1.00  0.00     0.007 A 
HETATM   23  C14 UNL     1     -18.204   7.471 -12.401  1.00  0.00     0.008 A 
HETATM   24  C15 UNL     1     -16.958   8.027 -12.628  1.00  0.00    -0.056 A 
HETATM   25  C16 UNL     1     -15.857   7.238 -13.270  1.00  0.00     0.049 C 
HETATM   26  C17 UNL     1     -16.753   9.340 -12.247  1.00  0.00    -0.056 A 
HETATM   27  C18 UNL     1     -15.412   9.932 -12.503  1.00  0.00     0.049 C 
HETATM   28  C19 UNL     1     -17.751  10.073 -11.662  1.00  0.00     0.014 A 
ENDBRANCH  20  21
ENDBRANCH  19  20
ENDBRANCH  16  19
ENDBRANCH   1  15
BRANCH   1  29
HETATM   29  C20 UNL     1     -20.814  11.999  -5.978  1.00  0.00    -0.029 C 
HETATM   30  C21 UNL     1     -22.231  11.429  -5.948  1.00  0.00     0.016 C 
HETATM   31  C22 UNL     1     -20.899  13.368  -6.604  1.00  0.00     0.016 C 
HETATM   32  C23 UNL     1     -20.378  12.251  -4.509  1.00  0.00     0.016 C 
ENDBRANCH   1  29
TORSDOF 9
ENDMDL
MODEL 4
REMARK VINA RESULT: -7.027710130      1.503      4.766
REMARK  9 active torsions:
REMARK  status: ('A' for Active; 'I' for Inactive)
REMARK    1  A    between atoms: C2_2  and  C3_3 
REMARK    2  A    between atoms: C3_3  and  C4_4 
REMARK    3  A    between atoms: N2_10  and  C7_11 
REMARK    4  A    between atoms: C7_11  and  C8_12 
REMARK    5  A    between atoms: C8_12  and  N3_13 
REMARK    6  A    between atoms: C8_12  and  C20_27 
REMARK       I    between atoms: N3_13  and  C9_15 
REMARK    7  A    between atoms: C9_15  and  C10_17 
REMARK    8  A    between atoms: C10_17  and  C11_18 
REMARK    9  A    between atoms: C11_18  and  C12_19 
ROOT
HETATM    1  C8  UNL     1     -18.693  11.322  -5.774  1.00  0.00     0.110 C 
ENDROOT
BRANCH   1   2
HETATM    2  C7  UNL     1     -20.081  11.141  -6.216  1.00  0.00     0.163 C 
BRANCH   2   3
HETATM    3  N2  UNL     1     -20.356  10.874  -7.603  1.00  0.00    -0.266 N 
HETATM    4  C6  UNL     1     -20.646   9.604  -8.183  1.00  0.00     0.326 A 
HETATM    5  N1  UNL     1     -20.935   9.761  -9.533  1.00  0.00    -0.324 N 
HETATM    6  O1  UNL     1     -20.621   8.516  -7.495  1.00  0.00    -0.247 OA
HETATM    7  C3  UNL     1     -20.918  11.150  -9.871  1.00  0.00     0.115 A 
ATOM      8  H1  UNL     1     -21.130   9.000 -10.184  1.00  0.00     0.165 HD
HETATM    9  C24 UNL     1     -20.466  11.836  -8.615  1.00  0.00     0.256 A 
HETATM   10  O3  UNL     1     -20.254  13.095  -8.605  1.00  0.00    -0.270 OA
BRANCH   7  11
HETATM   11  C2  UNL     1     -19.938  11.508 -10.925  1.00  0.00     0.037 C 
HETATM   12  C1  UNL     1     -18.767  10.614 -11.128  1.00  0.00     0.008 C 
ENDBRANCH   7  11
BRANCH   7  13
HETATM   13  C4  UNL     1     -22.340  11.562 -10.110  1.00  0.00     0.037 C 
HETATM   14  C5  UNL     1     -22.569  12.458 -11.263  1.00  0.00     0.008 C 
ENDBRANCH   7  13
ENDBRANCH   2   3
ENDBRANCH   1   2
BRANCH   1  15
HETATM   15  N3  UNL     1     -18.052   9.994  -6.040  1.00  0.00    -0.354 N 
HETATM   16  C9  UNL     1     -17.179   9.822  -7.112  1.00  0.00     0.218 C 
HETATM   17  O2  UNL     1     -16.911  10.808  -7.888  1.00  0.00    -0.274 OA
ATOM     18  H3  UNL     1     -18.259   9.205  -5.428  1.00  0.00     0.162 HD
BRANCH  16  19
HETATM   19  C10 UNL     1     -16.532   8.541  -7.412  1.00  0.00     0.107 C 
BRANCH  19  20
HETATM   20  C11 UNL     1     -15.209   8.756  -8.117  1.00  0.00     0.048 C 
BRANCH  20  21
HETATM   21  C12 UNL     1     -15.199   8.300  -9.517  1.00  0.00    -0.057 A 
HETATM   22  C13 UNL     1     -13.983   8.122 -10.159  1.00  0.00     0.007 A 
HETATM   23  C14 UNL     1     -13.917   7.678 -11.471  1.00  0.00     0.008 A 
HETATM   24  C15 UNL     1     -15.080   7.402 -12.167  1.00  0.00    -0.056 A 
HETATM   25  C16 UNL     1     -15.044   6.915 -13.585  1.00  0.00     0.049 C 
HETATM   26  C17 UNL     1     -16.286   7.583 -11.516  1.00  0.00    -0.056 A 
HETATM   27  C18 UNL     1     -17.532   7.274 -12.270  1.00  0.00     0.049 C 
HETATM   28  C19 UNL     1     -16.334   8.023 -10.220  1.00  0.00     0.014 A 
ENDBRANCH  20  21
ENDBRANCH  19  20
ENDBRANCH  16  19
ENDBRANCH   1  15
BRANCH   1  29
HETATM   29  C20 UNL     1     -18.351  11.663  -4.393  1.00  0.00    -0.029 C 
HETATM   30  C21 UNL     1     -17.169  10.863  -3.846  1.00  0.00     0.016 C 
HETATM   31  C22 UNL     1     -19.463  11.560  -3.380  1.00  0.00     0.016 C 
HETATM   32  C23 UNL     1     -17.942  13.161  -4.395  1.00  0.00     0.016 C 
ENDBRANCH   1  29
TORSDOF 9
ENDMDL
MODEL 5
REMARK VINA RESULT: -6.997278123      1.838      2.832
REMARK  9 active torsions:
REMARK  status: ('A' for Active; 'I' for Inactive)
REMARK    1  A    between atoms: C2_2  and  C3_3 
REMARK    2  A    between atoms: C3_3  and  C4_4 
REMARK    3  A    between atoms: N2_10  and  C7_11 
REMARK    4  A    between atoms: C7_11  and  C8_12 
REMARK    5  A    between atoms: C8_12  and  N3_13 
REMARK    6  A    between atoms: C8_12  and  C20_27 
REMARK       I    between atoms: N3_13  and  C9_15 
REMARK    7  A    between atoms: C9_15  and  C10_17 
REMARK    8  A    between atoms: C10_17  and  C11_18 
REMARK    9  A    between atoms: C11_18  and  C12_19 
ROOT
HETATM    1  C8  UNL     1     -21.573  12.211  -7.042  1.00  0.00     0.110 C 
ENDROOT
BRANCH   1   2
HETATM    2  C7  UNL     1     -21.027  11.213  -6.114  1.00  0.00     0.163 C 
BRANCH   2   3
HETATM    3  N2  UNL     1     -19.821  10.509  -6.458  1.00  0.00    -0.266 N 
HETATM    4  C6  UNL     1     -19.729   9.278  -7.174  1.00  0.00     0.326 A 
HETATM    5  N1  UNL     1     -18.393   8.957  -7.383  1.00  0.00    -0.324 N 
HETATM    6  O1  UNL     1     -20.772   8.619  -7.537  1.00  0.00    -0.247 OA
HETATM    7  C3  UNL     1     -17.561  10.004  -6.876  1.00  0.00     0.115 A 
ATOM      8  H1  UNL     1     -18.057   8.104  -7.830  1.00  0.00     0.165 HD
HETATM    9  C24 UNL     1     -18.515  10.957  -6.218  1.00  0.00     0.256 A 
HETATM   10  O3  UNL     1     -18.079  11.970  -5.577  1.00  0.00    -0.270 OA
BRANCH   7  11
HETATM   11  C2  UNL     1     -16.606   9.569  -5.828  1.00  0.00     0.037 C 
HETATM   12  C1  UNL     1     -16.346   8.113  -5.676  1.00  0.00     0.008 C 
ENDBRANCH   7  11
BRANCH   7  13
HETATM   13  C4  UNL     1     -16.977  10.715  -8.061  1.00  0.00     0.037 C 
HETATM   14  C5  UNL     1     -15.869  10.020  -8.751  1.00  0.00     0.008 C 
ENDBRANCH   7  13
ENDBRANCH   2   3
ENDBRANCH   1   2
BRANCH   1  15
HETATM   15  N3  UNL     1     -21.221  11.677  -8.397  1.00  0.00    -0.354 N 
HETATM   16  C9  UNL     1     -22.205  11.451  -9.356  1.00  0.00     0.218 C 
HETATM   17  O2  UNL     1     -23.435  11.701  -9.086  1.00  0.00    -0.274 OA
ATOM     18  H3  UNL     1     -20.246  11.477  -8.620  1.00  0.00     0.162 HD
BRANCH  16  19
HETATM   19  C10 UNL     1     -21.907  10.928 -10.692  1.00  0.00     0.107 C 
BRANCH  19  20
HETATM   20  C11 UNL     1     -21.172   9.606 -10.603  1.00  0.00     0.048 C 
BRANCH  20  21
HETATM   21  C12 UNL     1     -19.804   9.647 -11.147  1.00  0.00    -0.057 A 
HETATM   22  C13 UNL     1     -19.245   8.482 -11.651  1.00  0.00     0.007 A 
HETATM   23  C14 UNL     1     -17.967   8.470 -12.189  1.00  0.00     0.008 A 
HETATM   24  C15 UNL     1     -17.223   9.635 -12.231  1.00  0.00    -0.056 A 
HETATM   25  C16 UNL     1     -15.840   9.657 -12.810  1.00  0.00     0.049 C 
HETATM   26  C17 UNL     1     -17.792  10.789 -11.725  1.00  0.00    -0.056 A 
HETATM   27  C18 UNL     1     -16.987  12.040 -11.783  1.00  0.00     0.049 C 
HETATM   28  C19 UNL     1     -19.055  10.784 -11.196  1.00  0.00     0.014 A 
ENDBRANCH  20  21
ENDBRANCH  19  20
ENDBRANCH  16  19
ENDBRANCH   1  15
BRANCH   1  29
HETATM   29  C20 UNL     1     -21.133  13.607  -7.034  1.00  0.00    -0.029 C 
HETATM   30  C21 UNL     1     -22.233  14.590  -7.434  1.00  0.00     0.016 C 
HETATM   31  C22 UNL     1     -19.921  13.935  -7.868  1.00  0.00     0.016 C 
HETATM   32  C23 UNL     1     -20.722  13.933  -5.572  1.00  0.00     0.016 C 
ENDBRANCH   1  29
TORSDOF 9
ENDMDL
