MODEL 1
REMARK VINA RESULT: -6.513462180      0.000      0.000
REMARK  11 active torsions:
REMARK  status: ('A' for Active; 'I' for Inactive)
REMARK    1  A    between atoms: C2_2  and  C3_3 
REMARK    2  A    between atoms: C3_3  and  N1_4 
REMARK    3  A    between atoms: N1_4  and  C4_5 
REMARK    4  A    between atoms: N1_4  and  C17_22 
REMARK    5  A    between atoms: C4_5  and  C5_6 
REMARK    6  A    between atoms: C5_6  and  C6_7 
REMARK    7  A    between atoms: C12_13  and  C13_14 
REMARK    8  A    between atoms: C13_14  and  N2_15 
REMARK       I    between atoms: N2_15  and  C14_17 
REMARK       I    between atoms: C14_17  and  N3_19 
REMARK    9  A    between atoms: C17_22  and  O2_23 
REMARK   10  A    between atoms: C17_22  and  C18_25 
REMARK   11  A    between atoms: C25_32  and  O3_33 
ROOT
HETATM    1  N1  UNL     1      19.494   9.528  11.049  1.00  0.00    -0.361 N 
ENDROOT
BRANCH   1   2
HETATM    2  C3  UNL     1      19.214   8.175  11.677  1.00  0.00     0.124 C 
BRANCH   2   3
HETATM    3  C2  UNL     1      18.023   8.178  12.552  1.00  0.00     0.015 C 
HETATM    4  C1  UNL     1      17.106   7.018  12.081  1.00  0.00     0.006 C 
ENDBRANCH   2   3
ENDBRANCH   1   2
BRANCH   1   5
HETATM    5  C4  UNL     1      18.513  10.506  11.401  1.00  0.00     0.129 C 
BRANCH   5   6
HETATM    6  C5  UNL     1      17.513  10.827  10.310  1.00  0.00     0.059 C 
BRANCH   6   7
HETATM    7  C6  UNL     1      18.037  11.614   9.187  1.00  0.00    -0.044 A 
HETATM    8  C7  UNL     1      18.565  12.852   9.470  1.00  0.00     0.008 A 
HETATM    9  C8  UNL     1      19.055  13.691   8.504  1.00  0.00     0.001 A 
HETATM   10  C9  UNL     1      19.029  13.300   7.194  1.00  0.00     0.007 A 
HETATM   11  C10 UNL     1      18.495  12.028   6.849  1.00  0.00    -0.050 A 
HETATM   12  C11 UNL     1      18.598  11.636   5.420  1.00  0.00     0.049 C 
HETATM   13  C12 UNL     1      18.006  11.202   7.829  1.00  0.00    -0.008 A 
BRANCH  13  14
HETATM   14  C13 UNL     1      17.520   9.853   7.653  1.00  0.00     0.105 C 
BRANCH  14  15
HETATM   15  N2  UNL     1      16.164   9.564   7.404  1.00  0.00    -0.318 N 
HETATM   16  C14 UNL     1      15.517   8.442   8.027  1.00  0.00     0.321 C 
HETATM   17  O1  UNL     1      16.162   7.703   8.804  1.00  0.00    -0.247 OA
HETATM   18  N3  UNL     1      14.145   8.117   7.803  1.00  0.00    -0.343 N 
HETATM   19  C15 UNL     1      13.529   6.979   8.457  1.00  0.00     0.154 C 
HETATM   20  C16 UNL     1      13.323   8.914   6.917  1.00  0.00     0.154 C 
ATOM     21  H2  UNL     1      15.633  10.162   6.771  1.00  0.00     0.170 HD
ENDBRANCH  14  15
ENDBRANCH  13  14
ENDBRANCH   6   7
ENDBRANCH   5   6
ENDBRANCH   1   5
BRANCH   1  22
HETATM   22  C17 UNL     1      20.638   9.517  10.288  1.00  0.00     0.151 C 
BRANCH  22  23
HETATM   23  O2  UNL     1      21.336   8.376  10.507  1.00  0.00    -0.345 OA
ATOM     24  H2  UNL     1      21.691   8.047   9.690  1.00  0.00     0.219 HD
ENDBRANCH  22  23
BRANCH  22  25
HETATM   25  C18 UNL     1      21.328  10.335   9.348  1.00  0.00     0.054 A 
HETATM   26  C19 UNL     1      21.952  11.537   9.522  1.00  0.00    -0.044 A 
HETATM   27  C20 UNL     1      21.955  12.242  10.825  1.00  0.00     0.049 C 
HETATM   28  C21 UNL     1      22.532  12.247   8.457  1.00  0.00     0.014 A 
HETATM   29  C22 UNL     1      22.494  11.765   7.177  1.00  0.00    -0.059 A 
HETATM   30  C23 UNL     1      23.115  12.524   6.054  1.00  0.00     0.048 C 
HETATM   31  C24 UNL     1      21.868  10.556   6.955  1.00  0.00     0.044 A 
HETATM   32  C25 UNL     1      21.313   9.879   8.000  1.00  0.00     0.081 A 
BRANCH  32  33
HETATM   33  O3  UNL     1      20.699   8.675   7.728  1.00  0.00    -0.360 OA
ATOM     34  H3  UNL     1      19.967   8.413   8.275  1.00  0.00     0.217 HD
ENDBRANCH  32  33
ENDBRANCH  22  25
ENDBRANCH   1  22
TORSDOF 11
ENDMDL
MODEL 2
REMARK VINA RESULT: -6.382285349      1.692      1.890
REMARK  11 active torsions:
REMARK  status: ('A' for Active; 'I' for Inactive)
REMARK    1  A    between atoms: C2_2  and  C3_3 
REMARK    2  A    between atoms: C3_3  and  N1_4 
REMARK    3  A    between atoms: N1_4  and  C4_5 
REMARK    4  A    between atoms: N1_4  and  C17_22 
REMARK    5  A    between atoms: C4_5  and  C5_6 
REMARK    6  A    between atoms: C5_6  and  C6_7 
REMARK    7  A    between atoms: C12_13  and  C13_14 
REMARK    8  A    between atoms: C13_14  and  N2_15 
REMARK       I    between atoms: N2_15  and  C14_17 
REMARK       I    between atoms: C14_17  and  N3_19 
REMARK    9  A    between atoms: C17_22  and  O2_23 
REMARK   10  A    between atoms: C17_22  and  C18_25 
REMARK   11  A    between atoms: C25_32  and  O3_33 
ROOT
HETATM    1  N1  UNL     1      19.241   9.404  10.641  1.00  0.00    -0.361 N 
ENDROOT
BRANCH   1   2
HETATM    2  C3  UNL     1      19.162   8.276  11.653  1.00  0.00     0.124 C 
BRANCH   2   3
HETATM    3  C2  UNL     1      17.899   8.275  12.421  1.00  0.00     0.015 C 
HETATM    4  C1  UNL     1      17.142   6.970  12.056  1.00  0.00     0.006 C 
ENDBRANCH   2   3
ENDBRANCH   1   2
BRANCH   1   5
HETATM    5  C4  UNL     1      18.013  10.129  10.535  1.00  0.00     0.129 C 
BRANCH   5   6
HETATM    6  C5  UNL     1      17.439  10.208   9.136  1.00  0.00     0.059 C 
BRANCH   6   7
HETATM    7  C6  UNL     1      17.993  11.269   8.287  1.00  0.00    -0.044 A 
HETATM    8  C7  UNL     1      18.316  12.463   8.889  1.00  0.00     0.008 A 
HETATM    9  C8  UNL     1      18.810  13.536   8.197  1.00  0.00     0.001 A 
HETATM   10  C9  UNL     1      19.001  13.439   6.847  1.00  0.00     0.007 A 
HETATM   11  C10 UNL     1      18.684  12.226   6.176  1.00  0.00    -0.050 A 
HETATM   12  C11 UNL     1      19.017  12.167   4.729  1.00  0.00     0.049 C 
HETATM   13  C12 UNL     1      18.188  11.161   6.884  1.00  0.00    -0.008 A 
BRANCH  13  14
HETATM   14  C13 UNL     1      17.908   9.841   6.369  1.00  0.00     0.105 C 
BRANCH  14  15
HETATM   15  N2  UNL     1      17.189   9.632   5.175  1.00  0.00    -0.318 N 
HETATM   16  C14 UNL     1      15.767   9.837   5.119  1.00  0.00     0.321 C 
HETATM   17  O1  UNL     1      15.150  10.208   6.143  1.00  0.00    -0.247 OA
HETATM   18  N3  UNL     1      15.003   9.640   3.930  1.00  0.00    -0.343 N 
HETATM   19  C15 UNL     1      13.571   9.864   3.915  1.00  0.00     0.154 C 
HETATM   20  C16 UNL     1      15.632   9.208   2.699  1.00  0.00     0.154 C 
ATOM     21  H2  UNL     1      17.686   9.330   4.338  1.00  0.00     0.170 HD
ENDBRANCH  14  15
ENDBRANCH  13  14
ENDBRANCH   6   7
ENDBRANCH   5   6
ENDBRANCH   1   5
BRANCH   1  22
HETATM   22  C17 UNL     1      20.482   9.487  10.056  1.00  0.00     0.151 C 
BRANCH  22  23
HETATM   23  O2  UNL     1      21.256   8.447  10.451  1.00  0.00    -0.345 OA
ATOM     24  H2  UNL     1      21.108   7.696   9.889  1.00  0.00     0.219 HD
ENDBRANCH  22  23
BRANCH  22  25
HETATM   25  C18 UNL     1      21.215  10.330   9.173  1.00  0.00     0.054 A 
HETATM   26  C19 UNL     1      21.773  11.557   9.392  1.00  0.00    -0.044 A 
HETATM   27  C20 UNL     1      21.638  12.265  10.687  1.00  0.00     0.049 C 
HETATM   28  C21 UNL     1      22.412  12.288   8.376  1.00  0.00     0.014 A 
HETATM   29  C22 UNL     1      22.501  11.802   7.100  1.00  0.00    -0.059 A 
HETATM   30  C23 UNL     1      23.183  12.583   6.029  1.00  0.00     0.048 C 
HETATM   31  C24 UNL     1      21.945  10.568   6.833  1.00  0.00     0.044 A 
HETATM   32  C25 UNL     1      21.332   9.872   7.832  1.00  0.00     0.081 A 
BRANCH  32  33
HETATM   33  O3  UNL     1      20.792   8.643   7.516  1.00  0.00    -0.360 OA
ATOM     34  H3  UNL     1      21.211   7.866   7.867  1.00  0.00     0.217 HD
ENDBRANCH  32  33
ENDBRANCH  22  25
ENDBRANCH   1  22
TORSDOF 11
ENDMDL
MODEL 3
REMARK VINA RESULT: -6.320140515      2.057      4.523
REMARK  11 active torsions:
REMARK  status: ('A' for Active; 'I' for Inactive)
REMARK    1  A    between atoms: C2_2  and  C3_3 
REMARK    2  A    between atoms: C3_3  and  N1_4 
REMARK    3  A    between atoms: N1_4  and  C4_5 
REMARK    4  A    between atoms: N1_4  and  C17_22 
REMARK    5  A    between atoms: C4_5  and  C5_6 
REMARK    6  A    between atoms: C5_6  and  C6_7 
REMARK    7  A    between atoms: C12_13  and  C13_14 
REMARK    8  A    between atoms: C13_14  and  N2_15 
REMARK       I    between atoms: N2_15  and  C14_17 
REMARK       I    between atoms: C14_17  and  N3_19 
REMARK    9  A    between atoms: C17_22  and  O2_23 
REMARK   10  A    between atoms: C17_22  and  C18_25 
REMARK   11  A    between atoms: C25_32  and  O3_33 
ROOT
HETATM    1  N1  UNL     1      19.001   9.896  11.299  1.00  0.00    -0.361 N 
ENDROOT
BRANCH   1   2
HETATM    2  C3  UNL     1      18.123  11.027  10.793  1.00  0.00     0.124 C 
BRANCH   2   3
HETATM    3  C2  UNL     1      17.331  11.666  11.864  1.00  0.00     0.015 C 
HETATM    4  C1  UNL     1      15.859  11.721  11.374  1.00  0.00     0.006 C 
ENDBRANCH   2   3
ENDBRANCH   1   2
BRANCH   1   5
HETATM    5  C4  UNL     1      18.299   9.009  12.172  1.00  0.00     0.129 C 
BRANCH   5   6
HETATM    6  C5  UNL     1      17.697   7.794  11.497  1.00  0.00     0.059 C 
BRANCH   6   7
HETATM    7  C6  UNL     1      16.271   7.569  11.764  1.00  0.00    -0.044 A 
HETATM    8  C7  UNL     1      15.929   7.039  12.987  1.00  0.00     0.008 A 
HETATM    9  C8  UNL     1      14.636   6.755  13.339  1.00  0.00     0.001 A 
HETATM   10  C9  UNL     1      13.624   7.002  12.453  1.00  0.00     0.007 A 
HETATM   11  C10 UNL     1      13.925   7.551  11.176  1.00  0.00    -0.050 A 
HETATM   12  C11 UNL     1      12.763   7.885  10.313  1.00  0.00     0.049 C 
HETATM   13  C12 UNL     1      15.225   7.827  10.839  1.00  0.00    -0.008 A 
BRANCH  13  14
HETATM   14  C13 UNL     1      15.682   8.468   9.627  1.00  0.00     0.105 C 
BRANCH  14  15
HETATM   15  N2  UNL     1      16.013   7.742   8.466  1.00  0.00    -0.318 N 
HETATM   16  C14 UNL     1      15.642   8.218   7.161  1.00  0.00     0.321 C 
HETATM   17  O1  UNL     1      15.015   9.294   7.045  1.00  0.00    -0.247 OA
HETATM   18  N3  UNL     1      15.961   7.514   5.961  1.00  0.00    -0.343 N 
HETATM   19  C15 UNL     1      15.574   8.032   4.663  1.00  0.00     0.154 C 
HETATM   20  C16 UNL     1      16.682   6.258   5.999  1.00  0.00     0.154 C 
ATOM     21  H2  UNL     1      16.524   6.863   8.553  1.00  0.00     0.170 HD
ENDBRANCH  14  15
ENDBRANCH  13  14
ENDBRANCH   6   7
ENDBRANCH   5   6
ENDBRANCH   1   5
BRANCH   1  22
HETATM   22  C17 UNL     1      20.278   9.969  10.795  1.00  0.00     0.151 C 
BRANCH  22  23
HETATM   23  O2  UNL     1      21.084   9.084  11.431  1.00  0.00    -0.345 OA
ATOM     24  H2  UNL     1      21.956   9.107  11.056  1.00  0.00     0.219 HD
ENDBRANCH  22  23
BRANCH  22  25
HETATM   25  C18 UNL     1      21.024  10.692   9.820  1.00  0.00     0.054 A 
HETATM   26  C19 UNL     1      21.136  10.491   8.474  1.00  0.00    -0.044 A 
HETATM   27  C20 UNL     1      20.473   9.358   7.788  1.00  0.00     0.049 C 
HETATM   28  C21 UNL     1      21.980  11.269   7.663  1.00  0.00     0.014 A 
HETATM   29  C22 UNL     1      22.744  12.274   8.191  1.00  0.00    -0.059 A 
HETATM   30  C23 UNL     1      23.634  13.096   7.321  1.00  0.00     0.048 C 
HETATM   31  C24 UNL     1      22.665  12.508   9.547  1.00  0.00     0.044 A 
HETATM   32  C25 UNL     1      21.839  11.745  10.319  1.00  0.00     0.081 A 
BRANCH  32  33
HETATM   33  O3  UNL     1      21.795  12.018  11.670  1.00  0.00    -0.360 OA
ATOM     34  H3  UNL     1      21.869  11.289  12.275  1.00  0.00     0.217 HD
ENDBRANCH  32  33
ENDBRANCH  22  25
ENDBRANCH   1  22
TORSDOF 11
ENDMDL
MODEL 4
REMARK VINA RESULT: -6.288292060     12.914     15.411
REMARK  11 active torsions:
REMARK  status: ('A' for Active; 'I' for Inactive)
REMARK    1  A    between atoms: C2_2  and  C3_3 
REMARK    2  A    between atoms: C3_3  and  N1_4 
REMARK    3  A    between atoms: N1_4  and  C4_5 
REMARK    4  A    between atoms: N1_4  and  C17_22 
REMARK    5  A    between atoms: C4_5  and  C5_6 
REMARK    6  A    between atoms: C5_6  and  C6_7 
REMARK    7  A    between atoms: C12_13  and  C13_14 
REMARK    8  A    between atoms: C13_14  and  N2_15 
REMARK       I    between atoms: N2_15  and  C14_17 
REMARK       I    between atoms: C14_17  and  N3_19 
REMARK    9  A    between atoms: C17_22  and  O2_23 
REMARK   10  A    between atoms: C17_22  and  C18_25 
REMARK   11  A    between atoms: C25_32  and  O3_33 
ROOT
HETATM    1  N1  UNL     1       7.809  22.356  12.960  1.00  0.00    -0.361 N 
ENDROOT
BRANCH   1   2
HETATM    2  C3  UNL     1       8.088  23.554  13.849  1.00  0.00     0.124 C 
BRANCH   2   3
HETATM    3  C2  UNL     1       8.969  24.555  13.212  1.00  0.00     0.015 C 
HETATM    4  C1  UNL     1      10.418  24.003  13.288  1.00  0.00     0.006 C 
ENDBRANCH   2   3
ENDBRANCH   1   2
BRANCH   1   5
HETATM    5  C4  UNL     1       7.271  22.732  11.691  1.00  0.00     0.129 C 
BRANCH   5   6
HETATM    6  C5  UNL     1       8.252  22.670  10.539  1.00  0.00     0.059 C 
BRANCH   6   7
HETATM    7  C6  UNL     1       8.558  21.322  10.046  1.00  0.00    -0.044 A 
HETATM    8  C7  UNL     1       7.510  20.559   9.586  1.00  0.00     0.008 A 
HETATM    9  C8  UNL     1       7.666  19.276   9.131  1.00  0.00     0.001 A 
HETATM   10  C9  UNL     1       8.910  18.709   9.124  1.00  0.00     0.007 A 
HETATM   11  C10 UNL     1      10.028  19.456   9.588  1.00  0.00    -0.050 A 
HETATM   12  C11 UNL     1      11.356  18.806   9.451  1.00  0.00     0.049 C 
HETATM   13  C12 UNL     1       9.853  20.738  10.042  1.00  0.00    -0.008 A 
BRANCH  13  14
HETATM   14  C13 UNL     1      10.892  21.653  10.455  1.00  0.00     0.105 C 
BRANCH  14  15
HETATM   15  N2  UNL     1      11.642  22.412   9.535  1.00  0.00    -0.318 N 
HETATM   16  C14 UNL     1      13.064  22.242   9.416  1.00  0.00     0.321 C 
HETATM   17  O1  UNL     1      13.655  21.408  10.139  1.00  0.00    -0.247 OA
HETATM   18  N3  UNL     1      13.859  22.989   8.495  1.00  0.00    -0.343 N 
HETATM   19  C15 UNL     1      15.291  22.782   8.402  1.00  0.00     0.154 C 
HETATM   20  C16 UNL     1      13.262  23.977   7.622  1.00  0.00     0.154 C 
ATOM     21  H2  UNL     1      11.167  23.093   8.943  1.00  0.00     0.170 HD
ENDBRANCH  14  15
ENDBRANCH  13  14
ENDBRANCH   6   7
ENDBRANCH   5   6
ENDBRANCH   1   5
BRANCH   1  22
HETATM   22  C17 UNL     1       8.146  21.171  13.570  1.00  0.00     0.151 C 
BRANCH  22  23
HETATM   23  O2  UNL     1       8.127  21.316  14.917  1.00  0.00    -0.345 OA
ATOM     24  H2  UNL     1       7.264  21.112  15.257  1.00  0.00     0.219 HD
ENDBRANCH  22  23
BRANCH  22  25
HETATM   25  C18 UNL     1       8.520  19.840  13.229  1.00  0.00     0.054 A 
HETATM   26  C19 UNL     1       7.755  18.800  12.781  1.00  0.00    -0.044 A 
HETATM   27  C20 UNL     1       6.287  18.914  12.621  1.00  0.00     0.049 C 
HETATM   28  C21 UNL     1       8.283  17.518  12.555  1.00  0.00     0.014 A 
HETATM   29  C22 UNL     1       9.605  17.244  12.781  1.00  0.00    -0.059 A 
HETATM   30  C23 UNL     1      10.156  15.881  12.534  1.00  0.00     0.048 C 
HETATM   31  C24 UNL     1      10.412  18.264  13.239  1.00  0.00     0.044 A 
HETATM   32  C25 UNL     1       9.884  19.502  13.450  1.00  0.00     0.081 A 
BRANCH  32  33
HETATM   33  O3  UNL     1      10.731  20.490  13.908  1.00  0.00    -0.360 OA
ATOM     34  H3  UNL     1      10.447  21.016  14.646  1.00  0.00     0.217 HD
ENDBRANCH  32  33
ENDBRANCH  22  25
ENDBRANCH   1  22
TORSDOF 11
ENDMDL
MODEL 5
REMARK VINA RESULT: -6.189512234     12.249     14.952
REMARK  11 active torsions:
REMARK  status: ('A' for Active; 'I' for Inactive)
REMARK    1  A    between atoms: C2_2  and  C3_3 
REMARK    2  A    between atoms: C3_3  and  N1_4 
REMARK    3  A    between atoms: N1_4  and  C4_5 
REMARK    4  A    between atoms: N1_4  and  C17_22 
REMARK    5  A    between atoms: C4_5  and  C5_6 
REMARK    6  A    between atoms: C5_6  and  C6_7 
REMARK    7  A    between atoms: C12_13  and  C13_14 
REMARK    8  A    between atoms: C13_14  and  N2_15 
REMARK       I    between atoms: N2_15  and  C14_17 
REMARK       I    between atoms: C14_17  and  N3_19 
REMARK    9  A    between atoms: C17_22  and  O2_23 
REMARK   10  A    between atoms: C17_22  and  C18_25 
REMARK   11  A    between atoms: C25_32  and  O3_33 
ROOT
HETATM    1  N1  UNL     1       8.086  21.619  12.413  1.00  0.00    -0.361 N 
ENDROOT
BRANCH   1   2
HETATM    2  C3  UNL     1       8.598  23.015  12.108  1.00  0.00     0.124 C 
BRANCH   2   3
HETATM    3  C2  UNL     1       8.324  23.981  13.192  1.00  0.00     0.015 C 
HETATM    4  C1  UNL     1       6.999  24.706  12.836  1.00  0.00     0.006 C 
ENDBRANCH   2   3
ENDBRANCH   1   2
BRANCH   1   5
HETATM    5  C4  UNL     1       8.382  21.210  13.750  1.00  0.00     0.129 C 
BRANCH   5   6
HETATM    6  C5  UNL     1       9.681  20.448  13.912  1.00  0.00     0.059 C 
BRANCH   6   7
HETATM    7  C6  UNL     1       9.700  19.104  13.322  1.00  0.00    -0.044 A 
HETATM    8  C7  UNL     1       8.957  18.127  13.942  1.00  0.00     0.008 A 
HETATM    9  C8  UNL     1       8.920  16.829  13.504  1.00  0.00     0.001 A 
HETATM   10  C9  UNL     1       9.646  16.467  12.404  1.00  0.00     0.007 A 
HETATM   11  C10 UNL     1      10.430  17.441  11.725  1.00  0.00    -0.050 A 
HETATM   12  C11 UNL     1      11.105  16.991  10.481  1.00  0.00     0.049 C 
HETATM   13  C12 UNL     1      10.456  18.735  12.178  1.00  0.00    -0.008 A 
BRANCH  13  14
HETATM   14  C13 UNL     1      11.123  19.852  11.550  1.00  0.00     0.105 C 
BRANCH  14  15
HETATM   15  N2  UNL     1      12.465  19.790  11.126  1.00  0.00    -0.318 N 
HETATM   16  C14 UNL     1      12.855  20.259   9.824  1.00  0.00     0.321 C 
HETATM   17  O1  UNL     1      11.994  20.731   9.048  1.00  0.00    -0.247 OA
HETATM   18  N3  UNL     1      14.203  20.216   9.357  1.00  0.00    -0.343 N 
HETATM   19  C15 UNL     1      14.555  20.706   8.039  1.00  0.00     0.154 C 
HETATM   20  C16 UNL     1      15.265  19.683  10.185  1.00  0.00     0.154 C 
ATOM     21  H2  UNL     1      13.172  19.406  11.753  1.00  0.00     0.170 HD
ENDBRANCH  14  15
ENDBRANCH  13  14
ENDBRANCH   6   7
ENDBRANCH   5   6
ENDBRANCH   1   5
BRANCH   1  22
HETATM   22  C17 UNL     1       7.440  21.059  11.336  1.00  0.00     0.151 C 
BRANCH  22  23
HETATM   23  O2  UNL     1       6.529  21.928  10.834  1.00  0.00    -0.345 OA
ATOM     24  H2  UNL     1       6.586  21.951   9.886  1.00  0.00     0.219 HD
ENDBRANCH  22  23
BRANCH  22  25
HETATM   25  C18 UNL     1       7.420  19.847  10.589  1.00  0.00     0.054 A 
HETATM   26  C19 UNL     1       6.774  18.671  10.842  1.00  0.00    -0.044 A 
HETATM   27  C20 UNL     1       5.970  18.461  12.068  1.00  0.00     0.049 C 
HETATM   28  C21 UNL     1       6.920  17.539  10.022  1.00  0.00     0.014 A 
HETATM   29  C22 UNL     1       7.732  17.559   8.920  1.00  0.00    -0.059 A 
HETATM   30  C23 UNL     1       7.877  16.354   8.055  1.00  0.00     0.048 C 
HETATM   31  C24 UNL     1       8.407  18.726   8.631  1.00  0.00     0.044 A 
HETATM   32  C25 UNL     1       8.252  19.816   9.436  1.00  0.00     0.081 A 
BRANCH  32  33
HETATM   33  O3  UNL     1       8.948  20.959   9.105  1.00  0.00    -0.360 OA
ATOM     34  H3  UNL     1       9.252  21.055   8.210  1.00  0.00     0.217 HD
ENDBRANCH  32  33
ENDBRANCH  22  25
ENDBRANCH   1  22
TORSDOF 11
ENDMDL
