MODEL 1
REMARK VINA RESULT: -7.886194011      0.000      0.000
REMARK  8 active torsions:
REMARK  status: ('A' for Active; 'I' for Inactive)
REMARK    1  A    between atoms: C2_2  and  C3_3 
REMARK    2  A    between atoms: C10_13  and  C11_14 
REMARK    3  A    between atoms: C13_16  and  C14_17 
REMARK       I    between atoms: C14_17  and  N2_19 
REMARK    4  A    between atoms: N2_19  and  C15_21 
REMARK    5  A    between atoms: C15_21  and  C16_22 
REMARK    6  A    between atoms: C16_22  and  C17_23 
REMARK    7  A    between atoms: C17_23  and  N3_24 
REMARK       I    between atoms: N3_24  and  C19_26 
REMARK    8  A    between atoms: C19_26  and  C20_28 
ROOT
HETATM    1  C3  UNL     1      19.519   9.813   9.405  1.00  0.00    -0.019 A 
HETATM    2  C4  UNL     1      20.871   9.812   9.806  1.00  0.00     0.086 A 
HETATM    3  C5  UNL     1      21.252   9.190  10.970  1.00  0.00     0.246 A 
HETATM    4  O1  UNL     1      22.480   9.191  11.332  1.00  0.00    -0.268 OA
HETATM    5  N1  UNL     1      20.375   8.579  11.743  1.00  0.00    -0.323 N 
ATOM      6  H1  UNL     1      20.698   8.129  12.600  1.00  0.00     0.169 HD
HETATM    7  C6  UNL     1      19.050   8.532  11.430  1.00  0.00     0.047 A 
HETATM    8  C7  UNL     1      18.167   7.877  12.252  1.00  0.00     0.042 A 
HETATM    9  C8  UNL     1      16.840   7.823  11.924  1.00  0.00    -0.023 A 
HETATM   10  C9  UNL     1      15.952   7.170  12.755  1.00  0.00     0.020 A 
HETATM   11  C10 UNL     1      14.596   7.135  12.396  1.00  0.00    -0.042 A 
HETATM   12  C13 UNL     1      14.192   7.741  11.244  1.00  0.00     0.039 A 
HETATM   13  C22 UNL     1      15.119   8.403  10.412  1.00  0.00     0.030 A 
HETATM   14  C23 UNL     1      16.438   8.439  10.762  1.00  0.00    -0.024 A 
HETATM   15  C24 UNL     1      17.319   9.114   9.903  1.00  0.00     0.027 A 
HETATM   16  C25 UNL     1      18.645   9.163  10.244  1.00  0.00     0.002 A 
ENDROOT
BRANCH  12  17
HETATM   17  C14 UNL     1      12.845   7.702  10.737  1.00  0.00     0.252 C 
HETATM   18  O2  UNL     1      12.318   6.563  10.566  1.00  0.00    -0.268 OA
HETATM   19  N2  UNL     1      12.108   8.859  10.440  1.00  0.00    -0.357 N 
ATOM     20  H2  UNL     1      12.532   9.774  10.595  1.00  0.00     0.162 HD
BRANCH  19  21
HETATM   21  C15 UNL     1      10.735   8.783   9.909  1.00  0.00     0.124 C 
BRANCH  21  22
HETATM   22  C16 UNL     1      10.573   9.759   8.777  1.00  0.00     0.039 C 
BRANCH  22  23
HETATM   23  C17 UNL     1      11.832  10.346   8.258  1.00  0.00     0.127 C 
BRANCH  23  24
HETATM   24  N3  UNL     1      12.043  10.271   6.851  1.00  0.00    -0.356 N 
HETATM   25  C18 UNL     1      11.176  11.080   5.993  1.00  0.00     0.152 C 
HETATM   26  C19 UNL     1      13.028   9.455   6.248  1.00  0.00     0.218 C 
HETATM   27  O3  UNL     1      13.147   9.421   4.974  1.00  0.00    -0.273 OA
BRANCH  26  28
HETATM   28  C20 UNL     1      13.978   8.596   7.015  1.00  0.00     0.098 C 
HETATM   29  C21 UNL     1      15.429   8.850   6.586  1.00  0.00     0.014 C 
ENDBRANCH  26  28
ENDBRANCH  23  24
ENDBRANCH  22  23
ENDBRANCH  21  22
ENDBRANCH  19  21
ENDBRANCH  12  17
BRANCH  11  30
HETATM   30  C11 UNL     1      13.619   6.520  13.323  1.00  0.00     0.035 C 
HETATM   31  C12 UNL     1      13.910   6.943  14.759  1.00  0.00     0.010 C 
ENDBRANCH  11  30
BRANCH   1  32
HETATM   32  C2  UNL     1      19.179  10.471   8.169  1.00  0.00     0.002 C 
HETATM   33  C1  UNL     1      19.418  10.088   6.941  1.00  0.00     0.012 C 
ENDBRANCH   1  32
TORSDOF 8
ENDMDL
MODEL 2
REMARK VINA RESULT: -7.700877698      2.495      6.210
REMARK  8 active torsions:
REMARK  status: ('A' for Active; 'I' for Inactive)
REMARK    1  A    between atoms: C2_2  and  C3_3 
REMARK    2  A    between atoms: C10_13  and  C11_14 
REMARK    3  A    between atoms: C13_16  and  C14_17 
REMARK       I    between atoms: C14_17  and  N2_19 
REMARK    4  A    between atoms: N2_19  and  C15_21 
REMARK    5  A    between atoms: C15_21  and  C16_22 
REMARK    6  A    between atoms: C16_22  and  C17_23 
REMARK    7  A    between atoms: C17_23  and  N3_24 
REMARK       I    between atoms: N3_24  and  C19_26 
REMARK    8  A    between atoms: C19_26  and  C20_28 
ROOT
HETATM    1  C3  UNL     1      13.598   7.273  11.729  1.00  0.00    -0.019 A 
HETATM    2  C4  UNL     1      13.064   6.822  12.953  1.00  0.00     0.086 A 
HETATM    3  C5  UNL     1      13.851   6.765  14.078  1.00  0.00     0.246 A 
HETATM    4  O1  UNL     1      13.364   6.354  15.189  1.00  0.00    -0.268 OA
HETATM    5  N1  UNL     1      15.119   7.127  14.050  1.00  0.00    -0.323 N 
ATOM      6  H1  UNL     1      15.670   7.069  14.907  1.00  0.00     0.169 HD
HETATM    7  C6  UNL     1      15.714   7.575  12.909  1.00  0.00     0.047 A 
HETATM    8  C7  UNL     1      17.033   7.955  12.920  1.00  0.00     0.042 A 
HETATM    9  C8  UNL     1      17.619   8.417  11.773  1.00  0.00    -0.023 A 
HETATM   10  C9  UNL     1      18.947   8.793  11.783  1.00  0.00     0.020 A 
HETATM   11  C10 UNL     1      19.524   9.257  10.591  1.00  0.00    -0.042 A 
HETATM   12  C13 UNL     1      18.765   9.327   9.462  1.00  0.00     0.039 A 
HETATM   13  C22 UNL     1      17.409   8.937   9.477  1.00  0.00     0.030 A 
HETATM   14  C23 UNL     1      16.848   8.483  10.636  1.00  0.00    -0.024 A 
HETATM   15  C24 UNL     1      15.498   8.102  10.597  1.00  0.00     0.027 A 
HETATM   16  C25 UNL     1      14.922   7.639  11.752  1.00  0.00     0.002 A 
ENDROOT
BRANCH  12  17
HETATM   17  C14 UNL     1      19.225   9.860   8.206  1.00  0.00     0.252 C 
HETATM   18  O2  UNL     1      20.033   9.152   7.533  1.00  0.00    -0.268 OA
HETATM   19  N2  UNL     1      18.811  11.105   7.707  1.00  0.00    -0.357 N 
ATOM     20  H2  UNL     1      18.149  11.662   8.245  1.00  0.00     0.162 HD
BRANCH  19  21
HETATM   21  C15 UNL     1      19.314  11.625   6.422  1.00  0.00     0.124 C 
BRANCH  21  22
HETATM   22  C16 UNL     1      18.401  11.195   5.308  1.00  0.00     0.039 C 
BRANCH  22  23
HETATM   23  C17 UNL     1      17.002  10.907   5.707  1.00  0.00     0.127 C 
BRANCH  23  24
HETATM   24  N3  UNL     1      16.236  10.095   4.823  1.00  0.00    -0.356 N 
HETATM   25  C18 UNL     1      15.549  10.764   3.716  1.00  0.00     0.152 C 
HETATM   26  C19 UNL     1      16.097   8.695   4.964  1.00  0.00     0.218 C 
HETATM   27  O3  UNL     1      15.373   8.032   4.142  1.00  0.00    -0.273 OA
BRANCH  26  28
HETATM   28  C20 UNL     1      16.756   7.901   6.042  1.00  0.00     0.098 C 
HETATM   29  C21 UNL     1      15.726   7.115   6.864  1.00  0.00     0.014 C 
ENDBRANCH  26  28
ENDBRANCH  23  24
ENDBRANCH  22  23
ENDBRANCH  21  22
ENDBRANCH  19  21
ENDBRANCH  12  17
BRANCH  11  30
HETATM   30  C11 UNL     1      20.970   9.575  10.564  1.00  0.00     0.035 C 
HETATM   31  C12 UNL     1      21.749   8.577  11.415  1.00  0.00     0.010 C 
ENDBRANCH  11  30
BRANCH   1  32
HETATM   32  C2  UNL     1      12.723   7.322  10.585  1.00  0.00     0.002 C 
HETATM   33  C1  UNL     1      11.904   8.274  10.218  1.00  0.00     0.012 C 
ENDBRANCH   1  32
TORSDOF 8
ENDMDL
MODEL 3
REMARK VINA RESULT: -7.568992432      2.983      7.909
REMARK  8 active torsions:
REMARK  status: ('A' for Active; 'I' for Inactive)
REMARK    1  A    between atoms: C2_2  and  C3_3 
REMARK    2  A    between atoms: C10_13  and  C11_14 
REMARK    3  A    between atoms: C13_16  and  C14_17 
REMARK       I    between atoms: C14_17  and  N2_19 
REMARK    4  A    between atoms: N2_19  and  C15_21 
REMARK    5  A    between atoms: C15_21  and  C16_22 
REMARK    6  A    between atoms: C16_22  and  C17_23 
REMARK    7  A    between atoms: C17_23  and  N3_24 
REMARK       I    between atoms: N3_24  and  C19_26 
REMARK    8  A    between atoms: C19_26  and  C20_28 
ROOT
HETATM    1  C3  UNL     1      13.547   7.261  11.735  1.00  0.00    -0.019 A 
HETATM    2  C4  UNL     1      13.066   6.794  12.975  1.00  0.00     0.086 A 
HETATM    3  C5  UNL     1      13.890   6.755  14.074  1.00  0.00     0.246 A 
HETATM    4  O1  UNL     1      13.452   6.329  15.198  1.00  0.00    -0.268 OA
HETATM    5  N1  UNL     1      15.147   7.150  14.005  1.00  0.00    -0.323 N 
ATOM      6  H1  UNL     1      15.728   7.105  14.842  1.00  0.00     0.169 HD
HETATM    7  C6  UNL     1      15.692   7.617  12.846  1.00  0.00     0.047 A 
HETATM    8  C7  UNL     1      17.000   8.031  12.814  1.00  0.00     0.042 A 
HETATM    9  C8  UNL     1      17.536   8.511  11.650  1.00  0.00    -0.023 A 
HETATM   10  C9  UNL     1      18.853   8.921  11.617  1.00  0.00     0.020 A 
HETATM   11  C10 UNL     1      19.378   9.403  10.409  1.00  0.00    -0.042 A 
HETATM   12  C13 UNL     1      18.580   9.456   9.305  1.00  0.00     0.039 A 
HETATM   13  C22 UNL     1      17.237   9.030   9.364  1.00  0.00     0.030 A 
HETATM   14  C23 UNL     1      16.726   8.559  10.540  1.00  0.00    -0.024 A 
HETATM   15  C24 UNL     1      15.386   8.143  10.544  1.00  0.00     0.027 A 
HETATM   16  C25 UNL     1      14.862   7.662  11.716  1.00  0.00     0.002 A 
ENDROOT
BRANCH  12  17
HETATM   17  C14 UNL     1      18.985  10.003   8.036  1.00  0.00     0.252 C 
HETATM   18  O2  UNL     1      19.529   9.214   7.208  1.00  0.00    -0.268 OA
HETATM   19  N2  UNL     1      18.793  11.349   7.690  1.00  0.00    -0.357 N 
ATOM     20  H2  UNL     1      18.340  11.976   8.355  1.00  0.00     0.162 HD
BRANCH  19  21
HETATM   21  C15 UNL     1      19.232  11.879   6.386  1.00  0.00     0.124 C 
BRANCH  21  22
HETATM   22  C16 UNL     1      20.524  12.630   6.551  1.00  0.00     0.039 C 
BRANCH  22  23
HETATM   23  C17 UNL     1      20.908  12.934   7.951  1.00  0.00     0.127 C 
BRANCH  23  24
HETATM   24  N3  UNL     1      22.152  12.408   8.405  1.00  0.00    -0.356 N 
HETATM   25  C18 UNL     1      22.807  11.403   7.565  1.00  0.00     0.152 C 
HETATM   26  C19 UNL     1      22.772  12.793   9.615  1.00  0.00     0.218 C 
HETATM   27  O3  UNL     1      23.880  12.261   9.971  1.00  0.00    -0.273 OA
BRANCH  26  28
HETATM   28  C20 UNL     1      22.209  13.814  10.548  1.00  0.00     0.098 C 
HETATM   29  C21 UNL     1      23.202  14.153  11.667  1.00  0.00     0.014 C 
ENDBRANCH  26  28
ENDBRANCH  23  24
ENDBRANCH  22  23
ENDBRANCH  21  22
ENDBRANCH  19  21
ENDBRANCH  12  17
BRANCH  11  30
HETATM   30  C11 UNL     1      20.814   9.758  10.335  1.00  0.00     0.035 C 
HETATM   31  C12 UNL     1      21.628   8.877  11.277  1.00  0.00     0.010 C 
ENDBRANCH  11  30
BRANCH   1  32
HETATM   32  C2  UNL     1      12.633   7.290  10.621  1.00  0.00     0.002 C 
HETATM   33  C1  UNL     1      11.895   8.280  10.190  1.00  0.00     0.012 C 
ENDBRANCH   1  32
TORSDOF 8
ENDMDL
MODEL 4
REMARK VINA RESULT: -7.497300270      1.861      2.711
REMARK  8 active torsions:
REMARK  status: ('A' for Active; 'I' for Inactive)
REMARK    1  A    between atoms: C2_2  and  C3_3 
REMARK    2  A    between atoms: C10_13  and  C11_14 
REMARK    3  A    between atoms: C13_16  and  C14_17 
REMARK       I    between atoms: C14_17  and  N2_19 
REMARK    4  A    between atoms: N2_19  and  C15_21 
REMARK    5  A    between atoms: C15_21  and  C16_22 
REMARK    6  A    between atoms: C16_22  and  C17_23 
REMARK    7  A    between atoms: C17_23  and  N3_24 
REMARK       I    between atoms: N3_24  and  C19_26 
REMARK    8  A    between atoms: C19_26  and  C20_28 
ROOT
HETATM    1  C3  UNL     1      19.806   9.953   9.277  1.00  0.00    -0.019 A 
HETATM    2  C4  UNL     1      21.126   9.946   9.775  1.00  0.00     0.086 A 
HETATM    3  C5  UNL     1      21.417   9.334  10.971  1.00  0.00     0.246 A 
HETATM    4  O1  UNL     1      22.614   9.329  11.421  1.00  0.00    -0.268 OA
HETATM    5  N1  UNL     1      20.480   8.739  11.685  1.00  0.00    -0.323 N 
ATOM      6  H1  UNL     1      20.736   8.296  12.568  1.00  0.00     0.169 HD
HETATM    7  C6  UNL     1      19.181   8.699  11.277  1.00  0.00     0.047 A 
HETATM    8  C7  UNL     1      18.235   8.060  12.040  1.00  0.00     0.042 A 
HETATM    9  C8  UNL     1      16.935   8.013  11.617  1.00  0.00    -0.023 A 
HETATM   10  C9  UNL     1      15.984   7.376  12.388  1.00  0.00     0.020 A 
HETATM   11  C10 UNL     1      14.657   7.349  11.932  1.00  0.00    -0.042 A 
HETATM   12  C13 UNL     1      14.342   7.944  10.748  1.00  0.00     0.039 A 
HETATM   13  C22 UNL     1      15.333   8.589   9.978  1.00  0.00     0.030 A 
HETATM   14  C23 UNL     1      16.623   8.618  10.422  1.00  0.00    -0.024 A 
HETATM   15  C24 UNL     1      17.570   9.277   9.622  1.00  0.00     0.027 A 
HETATM   16  C25 UNL     1      18.868   9.320  10.058  1.00  0.00     0.002 A 
ENDROOT
BRANCH  12  17
HETATM   17  C14 UNL     1      13.035   7.911  10.144  1.00  0.00     0.252 C 
HETATM   18  O2  UNL     1      12.678   6.831   9.585  1.00  0.00    -0.268 OA
HETATM   19  N2  UNL     1      12.158   9.006  10.162  1.00  0.00    -0.357 N 
ATOM     20  H2  UNL     1      12.445   9.867  10.628  1.00  0.00     0.162 HD
BRANCH  19  21
HETATM   21  C15 UNL     1      10.832   8.941   9.522  1.00  0.00     0.124 C 
BRANCH  21  22
HETATM   22  C16 UNL     1      10.107  10.243   9.722  1.00  0.00     0.039 C 
BRANCH  22  23
HETATM   23  C17 UNL     1      10.514  11.344   8.816  1.00  0.00     0.127 C 
BRANCH  23  24
HETATM   24  N3  UNL     1       9.788  11.475   7.598  1.00  0.00    -0.356 N 
HETATM   25  C18 UNL     1      10.357  10.850   6.401  1.00  0.00     0.152 C 
HETATM   26  C19 UNL     1       8.567  12.178   7.484  1.00  0.00     0.218 C 
HETATM   27  O3  UNL     1       7.980  12.273   6.350  1.00  0.00    -0.273 OA
BRANCH  26  28
HETATM   28  C20 UNL     1       7.884  12.845   8.631  1.00  0.00     0.098 C 
HETATM   29  C21 UNL     1       8.180  14.350   8.657  1.00  0.00     0.014 C 
ENDBRANCH  26  28
ENDBRANCH  23  24
ENDBRANCH  22  23
ENDBRANCH  21  22
ENDBRANCH  19  21
ENDBRANCH  12  17
BRANCH  11  30
HETATM   30  C11 UNL     1      13.610   6.751  12.792  1.00  0.00     0.035 C 
HETATM   31  C12 UNL     1      14.021   6.828  14.260  1.00  0.00     0.010 C 
ENDBRANCH  11  30
BRANCH   1  32
HETATM   32  C2  UNL     1      19.563  10.600   8.013  1.00  0.00     0.002 C 
HETATM   33  C1  UNL     1      19.875  10.194   6.809  1.00  0.00     0.012 C 
ENDBRANCH   1  32
TORSDOF 8
ENDMDL
MODEL 5
REMARK VINA RESULT: -7.474983269      2.630      6.363
REMARK  8 active torsions:
REMARK  status: ('A' for Active; 'I' for Inactive)
REMARK    1  A    between atoms: C2_2  and  C3_3 
REMARK    2  A    between atoms: C10_13  and  C11_14 
REMARK    3  A    between atoms: C13_16  and  C14_17 
REMARK       I    between atoms: C14_17  and  N2_19 
REMARK    4  A    between atoms: N2_19  and  C15_21 
REMARK    5  A    between atoms: C15_21  and  C16_22 
REMARK    6  A    between atoms: C16_22  and  C17_23 
REMARK    7  A    between atoms: C17_23  and  N3_24 
REMARK       I    between atoms: N3_24  and  C19_26 
REMARK    8  A    between atoms: C19_26  and  C20_28 
ROOT
HETATM    1  C3  UNL     1      13.578   7.268  11.669  1.00  0.00    -0.019 A 
HETATM    2  C4  UNL     1      13.038   6.798  12.883  1.00  0.00     0.086 A 
HETATM    3  C5  UNL     1      13.821   6.719  14.010  1.00  0.00     0.246 A 
HETATM    4  O1  UNL     1      13.330   6.291  15.111  1.00  0.00    -0.268 OA
HETATM    5  N1  UNL     1      15.091   7.078  13.992  1.00  0.00    -0.323 N 
ATOM      6  H1  UNL     1      15.639   7.004  14.849  1.00  0.00     0.169 HD
HETATM    7  C6  UNL     1      15.691   7.545  12.861  1.00  0.00     0.047 A 
HETATM    8  C7  UNL     1      17.011   7.920  12.882  1.00  0.00     0.042 A 
HETATM    9  C8  UNL     1      17.602   8.400  11.746  1.00  0.00    -0.023 A 
HETATM   10  C9  UNL     1      18.931   8.772  11.767  1.00  0.00     0.020 A 
HETATM   11  C10 UNL     1      19.513   9.255  10.585  1.00  0.00    -0.042 A 
HETATM   12  C13 UNL     1      18.758   9.347   9.455  1.00  0.00     0.039 A 
HETATM   13  C22 UNL     1      17.401   8.960   9.459  1.00  0.00     0.030 A 
HETATM   14  C23 UNL     1      16.835   8.488  10.608  1.00  0.00    -0.024 A 
HETATM   15  C24 UNL     1      15.484   8.111  10.558  1.00  0.00     0.027 A 
HETATM   16  C25 UNL     1      14.903   7.630  11.702  1.00  0.00     0.002 A 
ENDROOT
BRANCH  12  17
HETATM   17  C14 UNL     1      19.224   9.900   8.209  1.00  0.00     0.252 C 
HETATM   18  O2  UNL     1      19.840   9.123   7.421  1.00  0.00    -0.268 OA
HETATM   19  N2  UNL     1      19.016  11.238   7.843  1.00  0.00    -0.357 N 
ATOM     20  H2  UNL     1      18.505  11.854   8.475  1.00  0.00     0.162 HD
BRANCH  19  21
HETATM   21  C15 UNL     1      19.519  11.774   6.565  1.00  0.00     0.124 C 
BRANCH  21  22
HETATM   22  C16 UNL     1      18.365  12.056   5.643  1.00  0.00     0.039 C 
BRANCH  22  23
HETATM   23  C17 UNL     1      17.671  10.859   5.108  1.00  0.00     0.127 C 
BRANCH  23  24
HETATM   24  N3  UNL     1      16.291  11.006   4.790  1.00  0.00    -0.356 N 
HETATM   25  C18 UNL     1      15.385  11.390   5.875  1.00  0.00     0.152 C 
HETATM   26  C19 UNL     1      15.756  10.790   3.500  1.00  0.00     0.218 C 
HETATM   27  O3  UNL     1      14.499  10.920   3.292  1.00  0.00    -0.273 OA
BRANCH  26  28
HETATM   28  C20 UNL     1      16.577  10.408   2.314  1.00  0.00     0.098 C 
HETATM   29  C21 UNL     1      16.369   8.934   1.944  1.00  0.00     0.014 C 
ENDBRANCH  26  28
ENDBRANCH  23  24
ENDBRANCH  22  23
ENDBRANCH  21  22
ENDBRANCH  19  21
ENDBRANCH  12  17
BRANCH  11  30
HETATM   30  C11 UNL     1      20.960   9.569  10.568  1.00  0.00     0.035 C 
HETATM   31  C12 UNL     1      21.731   8.567  11.422  1.00  0.00     0.010 C 
ENDBRANCH  11  30
BRANCH   1  32
HETATM   32  C2  UNL     1      12.707   7.339  10.523  1.00  0.00     0.002 C 
HETATM   33  C1  UNL     1      11.736   8.182  10.281  1.00  0.00     0.012 C 
ENDBRANCH   1  32
TORSDOF 8
ENDMDL
