MODEL 1
REMARK VINA RESULT: -7.025975542      0.000      0.000
REMARK  10 active torsions:
REMARK  status: ('A' for Active; 'I' for Inactive)
REMARK    1  A    between atoms: C2_2  and  C3_3 
REMARK    2  A    between atoms: C3_3  and  C4_4 
REMARK    3  A    between atoms: C4_4  and  N1_5 
REMARK    4  A    between atoms: C6_7  and  O1_8 
REMARK    5  A    between atoms: C6_7  and  C7_10 
REMARK    6  A    between atoms: N2_13  and  N3_14 
REMARK       I    between atoms: N3_14  and  C10_16 
REMARK    7  A    between atoms: C10_16  and  C11_18 
REMARK    8  A    between atoms: C16_26  and  C17_27 
REMARK    9  A    between atoms: C17_27  and  C18_28 
REMARK   10  A    between atoms: C19_29  and  C20_30 
ROOT
HETATM    1  C7  UNL     1      17.597   9.739   9.971  1.00  0.00     0.030 C 
HETATM    2  C8  UNL     1      18.125  10.899  10.209  1.00  0.00     0.045 C 
HETATM    3  C9  UNL     1      17.683  12.272   9.828  1.00  0.00     0.071 C 
HETATM    4  N2  UNL     1      19.454  10.759  10.793  1.00  0.00    -0.225 N 
HETATM    5  C15 UNL     1      19.717   9.370  10.888  1.00  0.00     0.252 C 
HETATM    6  O3  UNL     1      20.887   8.879  10.997  1.00  0.00    -0.270 OA
HETATM    7  C16 UNL     1      18.408   8.742  10.830  1.00  0.00     0.122 C 
ENDROOT
BRANCH   4   8
HETATM    8  N3  UNL     1      20.314  11.788  11.187  1.00  0.00    -0.255 N 
HETATM    9  C10 UNL     1      21.217  12.367  10.276  1.00  0.00     0.287 C 
HETATM   10  O2  UNL     1      21.260  11.962   9.087  1.00  0.00    -0.264 OA
ATOM     11  H3  UNL     1      20.287  12.124  12.149  1.00  0.00     0.191 HD
BRANCH   9  12
HETATM   12  C11 UNL     1      22.120  13.439  10.671  1.00  0.00     0.102 A 
HETATM   13  C12 UNL     1      22.562  14.496   9.907  1.00  0.00     0.036 A 
HETATM   14  C13 UNL     1      23.401  15.269  10.676  1.00  0.00     0.019 A 
HETATM   15  C14 UNL     1      23.472  14.680  11.921  1.00  0.00     0.088 A 
HETATM   16  N4  UNL     1      22.699  13.590  11.891  1.00  0.00    -0.361 N 
ATOM     17  H4  UNL     1      22.561  12.958  12.679  1.00  0.00     0.165 HD
ENDBRANCH   9  12
ENDBRANCH   4   8
BRANCH   1  18
HETATM   18  C6  UNL     1      16.433   9.309   9.257  1.00  0.00     0.146 C 
HETATM   19  N1  UNL     1      15.133   9.646   9.031  1.00  0.00    -0.366 N 
HETATM   20  C5  UNL     1      14.394  10.772   9.495  1.00  0.00     0.151 C 
BRANCH  19  21
HETATM   21  C4  UNL     1      14.292   8.754   8.147  1.00  0.00     0.124 C 
BRANCH  21  22
HETATM   22  C3  UNL     1      13.791   9.495   6.966  1.00  0.00     0.019 C 
BRANCH  22  23
HETATM   23  C2  UNL     1      14.829   9.533   5.891  1.00  0.00    -0.003 C 
HETATM   24  C1  UNL     1      15.191   8.157   5.377  1.00  0.00     0.005 C 
ENDBRANCH  22  23
ENDBRANCH  21  22
ENDBRANCH  19  21
BRANCH  18  25
HETATM   25  O1  UNL     1      16.769   8.168   8.577  1.00  0.00    -0.346 OA
ATOM     26  H1  UNL     1      17.493   7.721   9.000  1.00  0.00     0.219 HD
ENDBRANCH  18  25
ENDBRANCH   1  18
BRANCH   7  27
HETATM   27  C17 UNL     1      17.868   8.702  12.246  1.00  0.00     0.046 C 
BRANCH  27  28
HETATM   28  C18 UNL     1      17.541   7.381  12.764  1.00  0.00    -0.029 C 
HETATM   29  C19 UNL     1      16.397   6.880  13.150  1.00  0.00    -0.022 C 
BRANCH  29  30
HETATM   30  C20 UNL     1      15.128   7.625  13.124  1.00  0.00    -0.034 C 
HETATM   31  C21 UNL     1      14.163   7.029  14.116  1.00  0.00     0.018 C 
HETATM   32  C22 UNL     1      14.460   7.501  11.747  1.00  0.00     0.018 C 
HETATM   33  C23 UNL     1      15.303   9.094  13.392  1.00  0.00     0.018 C 
ENDBRANCH  29  30
ENDBRANCH  27  28
ENDBRANCH   7  27
TORSDOF 10
ENDMDL
MODEL 2
REMARK VINA RESULT: -6.952690146      2.486      7.731
REMARK  10 active torsions:
REMARK  status: ('A' for Active; 'I' for Inactive)
REMARK    1  A    between atoms: C2_2  and  C3_3 
REMARK    2  A    between atoms: C3_3  and  C4_4 
REMARK    3  A    between atoms: C4_4  and  N1_5 
REMARK    4  A    between atoms: C6_7  and  O1_8 
REMARK    5  A    between atoms: C6_7  and  C7_10 
REMARK    6  A    between atoms: N2_13  and  N3_14 
REMARK       I    between atoms: N3_14  and  C10_16 
REMARK    7  A    between atoms: C10_16  and  C11_18 
REMARK    8  A    between atoms: C16_26  and  C17_27 
REMARK    9  A    between atoms: C17_27  and  C18_28 
REMARK   10  A    between atoms: C19_29  and  C20_30 
ROOT
HETATM    1  C7  UNL     1      20.221  11.090  10.824  1.00  0.00     0.030 C 
HETATM    2  C8  UNL     1      18.959  10.811  10.932  1.00  0.00     0.045 C 
HETATM    3  C9  UNL     1      17.768  11.701  11.065  1.00  0.00     0.071 C 
HETATM    4  N2  UNL     1      18.753   9.381  11.127  1.00  0.00    -0.225 N 
HETATM    5  C15 UNL     1      20.036   8.780  11.142  1.00  0.00     0.252 C 
HETATM    6  O3  UNL     1      20.273   7.634  11.648  1.00  0.00    -0.270 OA
HETATM    7  C16 UNL     1      20.904   9.744  10.488  1.00  0.00     0.122 C 
ENDROOT
BRANCH   4   8
HETATM    8  N3  UNL     1      17.532   8.717  11.272  1.00  0.00    -0.255 N 
HETATM    9  C10 UNL     1      16.987   8.472  12.545  1.00  0.00     0.287 C 
HETATM   10  O2  UNL     1      17.598   8.850  13.576  1.00  0.00    -0.264 OA
ATOM     11  H3  UNL     1      17.028   8.406  10.442  1.00  0.00     0.191 HD
BRANCH   9  12
HETATM   12  C11 UNL     1      15.715   7.781  12.714  1.00  0.00     0.102 A 
HETATM   13  C12 UNL     1      14.677   7.691  11.814  1.00  0.00     0.036 A 
HETATM   14  C13 UNL     1      13.671   6.943  12.383  1.00  0.00     0.019 A 
HETATM   15  C14 UNL     1      14.099   6.574  13.641  1.00  0.00     0.088 A 
HETATM   16  N4  UNL     1      15.321   7.086  13.813  1.00  0.00    -0.361 N 
ATOM     17  H4  UNL     1      15.883   6.970  14.656  1.00  0.00     0.165 HD
ENDBRANCH   9  12
ENDBRANCH   4   8
BRANCH   1  18
HETATM   18  C6  UNL     1      20.967  12.311  10.809  1.00  0.00     0.146 C 
HETATM   19  N1  UNL     1      20.983  13.546  10.238  1.00  0.00    -0.366 N 
HETATM   20  C5  UNL     1      20.062  14.136   9.326  1.00  0.00     0.151 C 
BRANCH  19  21
HETATM   21  C4  UNL     1      22.102  14.499  10.590  1.00  0.00     0.124 C 
BRANCH  21  22
HETATM   22  C3  UNL     1      22.887  14.866   9.389  1.00  0.00     0.019 C 
BRANCH  22  23
HETATM   23  C2  UNL     1      23.773  13.736   8.973  1.00  0.00    -0.003 C 
HETATM   24  C1  UNL     1      23.711  13.459   7.487  1.00  0.00     0.005 C 
ENDBRANCH  22  23
ENDBRANCH  21  22
ENDBRANCH  19  21
BRANCH  18  25
HETATM   25  O1  UNL     1      22.017  12.158  11.676  1.00  0.00    -0.346 OA
ATOM     26  H1  UNL     1      21.901  12.697  12.450  1.00  0.00     0.219 HD
ENDBRANCH  18  25
ENDBRANCH   1  18
BRANCH   7  27
HETATM   27  C17 UNL     1      20.832   9.471   8.998  1.00  0.00     0.046 C 
BRANCH  27  28
HETATM   28  C18 UNL     1      21.362  10.515   8.135  1.00  0.00    -0.029 C 
HETATM   29  C19 UNL     1      20.824  11.126   7.112  1.00  0.00    -0.022 C 
BRANCH  29  30
HETATM   30  C20 UNL     1      19.468  10.843   6.612  1.00  0.00    -0.034 C 
HETATM   31  C21 UNL     1      19.380  11.189   5.148  1.00  0.00     0.018 C 
HETATM   32  C22 UNL     1      18.437  11.728   7.326  1.00  0.00     0.018 C 
HETATM   33  C23 UNL     1      19.047   9.417   6.833  1.00  0.00     0.018 C 
ENDBRANCH  29  30
ENDBRANCH  27  28
ENDBRANCH   7  27
TORSDOF 10
ENDMDL
MODEL 3
REMARK VINA RESULT: -6.903603019     11.474     13.913
REMARK  10 active torsions:
REMARK  status: ('A' for Active; 'I' for Inactive)
REMARK    1  A    between atoms: C2_2  and  C3_3 
REMARK    2  A    between atoms: C3_3  and  C4_4 
REMARK    3  A    between atoms: C4_4  and  N1_5 
REMARK    4  A    between atoms: C6_7  and  O1_8 
REMARK    5  A    between atoms: C6_7  and  C7_10 
REMARK    6  A    between atoms: N2_13  and  N3_14 
REMARK       I    between atoms: N3_14  and  C10_16 
REMARK    7  A    between atoms: C10_16  and  C11_18 
REMARK    8  A    between atoms: C16_26  and  C17_27 
REMARK    9  A    between atoms: C17_27  and  C18_28 
REMARK   10  A    between atoms: C19_29  and  C20_30 
ROOT
HETATM    1  C7  UNL     1      10.279  21.116  12.131  1.00  0.00     0.030 C 
HETATM    2  C8  UNL     1      10.722  20.055  12.731  1.00  0.00     0.045 C 
HETATM    3  C9  UNL     1      10.759  19.693  14.178  1.00  0.00     0.071 C 
HETATM    4  N2  UNL     1      11.448  19.194  11.805  1.00  0.00    -0.225 N 
HETATM    5  C15 UNL     1      11.426  19.837  10.543  1.00  0.00     0.252 C 
HETATM    6  O3  UNL     1      12.249  19.580   9.605  1.00  0.00    -0.270 OA
HETATM    7  C16 UNL     1      10.317  20.772  10.625  1.00  0.00     0.122 C 
ENDROOT
BRANCH   4   8
HETATM    8  N3  UNL     1      12.054  17.967  12.093  1.00  0.00    -0.255 N 
HETATM    9  C10 UNL     1      11.424  16.753  11.765  1.00  0.00     0.287 C 
HETATM   10  O2  UNL     1      10.299  16.757  11.203  1.00  0.00    -0.264 OA
ATOM     11  H3  UNL     1      12.966  17.952  12.548  1.00  0.00     0.191 HD
BRANCH   9  12
HETATM   12  C11 UNL     1      12.041  15.466  12.058  1.00  0.00     0.102 A 
HETATM   13  C12 UNL     1      11.444  14.344  12.587  1.00  0.00     0.036 A 
HETATM   14  C13 UNL     1      12.395  13.356  12.697  1.00  0.00     0.019 A 
HETATM   15  C14 UNL     1      13.583  13.879  12.231  1.00  0.00     0.088 A 
HETATM   16  N4  UNL     1      13.344  15.139  11.856  1.00  0.00    -0.361 N 
ATOM     17  H4  UNL     1      14.046  15.770  11.470  1.00  0.00     0.165 HD
ENDBRANCH   9  12
ENDBRANCH   4   8
BRANCH   1  18
HETATM   18  C6  UNL     1       9.687  22.336  12.588  1.00  0.00     0.146 C 
HETATM   19  N1  UNL     1       8.730  22.809  13.432  1.00  0.00    -0.366 N 
HETATM   20  C5  UNL     1       7.877  22.100  14.326  1.00  0.00     0.151 C 
BRANCH  19  21
HETATM   21  C4  UNL     1       8.492  24.300  13.503  1.00  0.00     0.124 C 
BRANCH  21  22
HETATM   22  C3  UNL     1       7.113  24.639  13.078  1.00  0.00     0.019 C 
BRANCH  22  23
HETATM   23  C2  UNL     1       7.021  24.692  11.588  1.00  0.00    -0.003 C 
HETATM   24  C1  UNL     1       5.874  23.869  11.042  1.00  0.00     0.005 C 
ENDBRANCH  22  23
ENDBRANCH  21  22
ENDBRANCH  19  21
BRANCH  18  25
HETATM   25  O1  UNL     1      10.320  23.364  11.938  1.00  0.00    -0.346 OA
ATOM     26  H1  UNL     1      11.015  23.036  11.380  1.00  0.00     0.219 HD
ENDBRANCH  18  25
ENDBRANCH   1  18
BRANCH   7  27
HETATM   27  C17 UNL     1       9.066  20.017  10.222  1.00  0.00     0.046 C 
BRANCH  27  28
HETATM   28  C18 UNL     1       7.806  20.583  10.681  1.00  0.00    -0.029 C 
HETATM   29  C19 UNL     1       6.774  20.013  11.246  1.00  0.00    -0.022 C 
BRANCH  29  30
HETATM   30  C20 UNL     1       6.699  18.573  11.545  1.00  0.00    -0.034 C 
HETATM   31  C21 UNL     1       5.293  18.207  11.947  1.00  0.00     0.018 C 
HETATM   32  C22 UNL     1       7.593  18.227  12.745  1.00  0.00     0.018 C 
HETATM   33  C23 UNL     1       7.151  17.710  10.401  1.00  0.00     0.018 C 
ENDBRANCH  29  30
ENDBRANCH  27  28
ENDBRANCH   7  27
TORSDOF 10
ENDMDL
MODEL 4
REMARK VINA RESULT: -6.828639357     12.015     15.376
REMARK  10 active torsions:
REMARK  status: ('A' for Active; 'I' for Inactive)
REMARK    1  A    between atoms: C2_2  and  C3_3 
REMARK    2  A    between atoms: C3_3  and  C4_4 
REMARK    3  A    between atoms: C4_4  and  N1_5 
REMARK    4  A    between atoms: C6_7  and  O1_8 
REMARK    5  A    between atoms: C6_7  and  C7_10 
REMARK    6  A    between atoms: N2_13  and  N3_14 
REMARK       I    between atoms: N3_14  and  C10_16 
REMARK    7  A    between atoms: C10_16  and  C11_18 
REMARK    8  A    between atoms: C16_26  and  C17_27 
REMARK    9  A    between atoms: C17_27  and  C18_28 
REMARK   10  A    between atoms: C19_29  and  C20_30 
ROOT
HETATM    1  C7  UNL     1       7.742  20.559  10.633  1.00  0.00     0.030 C 
HETATM    2  C8  UNL     1       7.691  19.921   9.506  1.00  0.00     0.045 C 
HETATM    3  C9  UNL     1       8.053  20.347   8.123  1.00  0.00     0.071 C 
HETATM    4  N2  UNL     1       6.991  18.650   9.655  1.00  0.00    -0.225 N 
HETATM    5  C15 UNL     1       6.591  18.558  11.011  1.00  0.00     0.252 C 
HETATM    6  O3  UNL     1       5.662  17.789  11.423  1.00  0.00    -0.270 OA
HETATM    7  C16 UNL     1       7.453  19.493  11.714  1.00  0.00     0.122 C 
ENDROOT
BRANCH   4   8
HETATM    8  N3  UNL     1       6.754  17.697   8.661  1.00  0.00    -0.255 N 
HETATM    9  C10 UNL     1       5.680  17.838   7.763  1.00  0.00     0.287 C 
HETATM   10  O2  UNL     1       4.916  18.833   7.845  1.00  0.00    -0.264 OA
ATOM     11  H3  UNL     1       7.368  16.886   8.585  1.00  0.00     0.191 HD
BRANCH   9  12
HETATM   12  C11 UNL     1       5.419  16.853   6.721  1.00  0.00     0.102 A 
HETATM   13  C12 UNL     1       4.635  16.999   5.599  1.00  0.00     0.036 A 
HETATM   14  C13 UNL     1       4.668  15.821   4.889  1.00  0.00     0.019 A 
HETATM   15  C14 UNL     1       5.479  14.948   5.583  1.00  0.00     0.088 A 
HETATM   16  N4  UNL     1       5.913  15.589   6.673  1.00  0.00    -0.361 N 
ATOM     17  H4  UNL     1       6.534  15.183   7.373  1.00  0.00     0.165 HD
ENDBRANCH   9  12
ENDBRANCH   4   8
BRANCH   1  18
HETATM   18  C6  UNL     1       8.131  21.887  11.002  1.00  0.00     0.146 C 
HETATM   19  N1  UNL     1       9.233  22.657  11.214  1.00  0.00    -0.366 N 
HETATM   20  C5  UNL     1      10.611  22.328  11.071  1.00  0.00     0.151 C 
BRANCH  19  21
HETATM   21  C4  UNL     1       9.047  24.093  11.646  1.00  0.00     0.124 C 
BRANCH  21  22
HETATM   22  C3  UNL     1       9.570  24.309  13.015  1.00  0.00     0.019 C 
BRANCH  22  23
HETATM   23  C2  UNL     1       8.514  24.019  14.033  1.00  0.00    -0.003 C 
HETATM   24  C1  UNL     1       8.619  22.622  14.605  1.00  0.00     0.005 C 
ENDBRANCH  22  23
ENDBRANCH  21  22
ENDBRANCH  19  21
BRANCH  18  25
HETATM   25  O1  UNL     1       6.983  22.606  11.203  1.00  0.00    -0.346 OA
ATOM     26  H1  UNL     1       6.215  22.090  10.987  1.00  0.00     0.219 HD
ENDBRANCH  18  25
ENDBRANCH   1  18
BRANCH   7  27
HETATM   27  C17 UNL     1       8.723  18.746  12.074  1.00  0.00     0.046 C 
BRANCH  27  28
HETATM   28  C18 UNL     1       8.578  17.685  13.060  1.00  0.00    -0.029 C 
HETATM   29  C19 UNL     1       9.190  16.535  13.166  1.00  0.00    -0.022 C 
BRANCH  29  30
HETATM   30  C20 UNL     1      10.224  16.070  12.227  1.00  0.00    -0.034 C 
HETATM   31  C21 UNL     1       9.601  15.758  10.891  1.00  0.00     0.018 C 
HETATM   32  C22 UNL     1      10.853  14.761  12.726  1.00  0.00     0.018 C 
HETATM   33  C23 UNL     1      11.347  17.056  12.056  1.00  0.00     0.018 C 
ENDBRANCH  29  30
ENDBRANCH  27  28
ENDBRANCH   7  27
TORSDOF 10
ENDMDL
MODEL 5
REMARK VINA RESULT: -6.753304648      1.617      2.240
REMARK  10 active torsions:
REMARK  status: ('A' for Active; 'I' for Inactive)
REMARK    1  A    between atoms: C2_2  and  C3_3 
REMARK    2  A    between atoms: C3_3  and  C4_4 
REMARK    3  A    between atoms: C4_4  and  N1_5 
REMARK    4  A    between atoms: C6_7  and  O1_8 
REMARK    5  A    between atoms: C6_7  and  C7_10 
REMARK    6  A    between atoms: N2_13  and  N3_14 
REMARK       I    between atoms: N3_14  and  C10_16 
REMARK    7  A    between atoms: C10_16  and  C11_18 
REMARK    8  A    between atoms: C16_26  and  C17_27 
REMARK    9  A    between atoms: C17_27  and  C18_28 
REMARK   10  A    between atoms: C19_29  and  C20_30 
ROOT
HETATM    1  C7  UNL     1      17.719   9.757   8.048  1.00  0.00     0.030 C 
HETATM    2  C8  UNL     1      18.330  10.886   8.235  1.00  0.00     0.045 C 
HETATM    3  C9  UNL     1      18.550  12.043   7.320  1.00  0.00     0.071 C 
HETATM    4  N2  UNL     1      19.048  10.888   9.504  1.00  0.00    -0.225 N 
HETATM    5  C15 UNL     1      18.831   9.621  10.101  1.00  0.00     0.252 C 
HETATM    6  O3  UNL     1      19.580   9.131  11.009  1.00  0.00    -0.270 OA
HETATM    7  C16 UNL     1      17.642   9.103   9.446  1.00  0.00     0.122 C 
ENDROOT
BRANCH   4   8
HETATM    8  N3  UNL     1      19.807  11.932  10.042  1.00  0.00    -0.255 N 
HETATM    9  C10 UNL     1      21.187  12.027   9.790  1.00  0.00     0.287 C 
HETATM   10  O2  UNL     1      21.759  11.168   9.073  1.00  0.00    -0.264 OA
ATOM     11  H3  UNL     1      19.353  12.634  10.624  1.00  0.00     0.191 HD
BRANCH   9  12
HETATM   12  C11 UNL     1      21.993  13.108  10.343  1.00  0.00     0.102 A 
HETATM   13  C12 UNL     1      22.411  14.258   9.712  1.00  0.00     0.036 A 
HETATM   14  C13 UNL     1      23.149  15.001  10.605  1.00  0.00     0.019 A 
HETATM   15  C14 UNL     1      23.181  14.300  11.791  1.00  0.00     0.088 A 
HETATM   16  N4  UNL     1      22.484  13.174  11.608  1.00  0.00    -0.361 N 
ATOM     17  H4  UNL     1      22.340  12.461  12.323  1.00  0.00     0.165 HD
ENDBRANCH   9  12
ENDBRANCH   4   8
BRANCH   1  18
HETATM   18  C6  UNL     1      17.048   9.169   6.928  1.00  0.00     0.146 C 
HETATM   19  N1  UNL     1      15.899   9.257   6.204  1.00  0.00    -0.366 N 
HETATM   20  C5  UNL     1      14.809  10.165   6.339  1.00  0.00     0.151 C 
BRANCH  19  21
HETATM   21  C4  UNL     1      15.684   8.298   5.057  1.00  0.00     0.124 C 
BRANCH  21  22
HETATM   22  C3  UNL     1      15.044   8.979   3.907  1.00  0.00     0.019 C 
BRANCH  22  23
HETATM   23  C2  UNL     1      15.928   8.922   2.704  1.00  0.00    -0.003 C 
HETATM   24  C1  UNL     1      16.651  10.226   2.445  1.00  0.00     0.005 C 
ENDBRANCH  22  23
ENDBRANCH  21  22
ENDBRANCH  19  21
BRANCH  18  25
HETATM   25  O1  UNL     1      17.864   8.185   6.436  1.00  0.00    -0.346 OA
ATOM     26  H1  UNL     1      17.957   7.475   7.061  1.00  0.00     0.219 HD
ENDBRANCH  18  25
ENDBRANCH   1  18
BRANCH   7  27
HETATM   27  C17 UNL     1      16.445   9.630  10.213  1.00  0.00     0.046 C 
BRANCH  27  28
HETATM   28  C18 UNL     1      15.256   8.790  10.190  1.00  0.00    -0.029 C 
HETATM   29  C19 UNL     1      14.789   7.955  11.080  1.00  0.00    -0.022 C 
BRANCH  29  30
HETATM   30  C20 UNL     1      15.438   7.694  12.375  1.00  0.00    -0.034 C 
HETATM   31  C21 UNL     1      14.572   6.783  13.207  1.00  0.00     0.018 C 
HETATM   32  C22 UNL     1      15.585   8.996  13.174  1.00  0.00     0.018 C 
HETATM   33  C23 UNL     1      16.817   7.110  12.235  1.00  0.00     0.018 C 
ENDBRANCH  29  30
ENDBRANCH  27  28
ENDBRANCH   7  27
TORSDOF 10
ENDMDL
