MODEL 1
REMARK VINA RESULT: -7.002978604      0.000      0.000
REMARK  11 active torsions:
REMARK  status: ('A' for Active; 'I' for Inactive)
REMARK    1  A    between atoms: C2_2  and  C3_3 
REMARK    2  A    between atoms: C3_3  and  C4_4 
REMARK    3  A    between atoms: C4_4  and  O1_5 
REMARK    4  A    between atoms: N1_7  and  C5_9 
REMARK    5  A    between atoms: C9_15  and  N3_16 
REMARK    6  A    between atoms: N3_16  and  C10_17 
REMARK    7  A    between atoms: C10_17  and  C11_18 
REMARK    8  A    between atoms: C14_21  and  C15_22 
REMARK       I    between atoms: C15_22  and  N4_24 
REMARK    9  A    between atoms: N4_24  and  C17_26 
REMARK   10  A    between atoms: C17_26  and  C18_27 
REMARK   11  A    between atoms: C17_26  and  C20_29 
ROOT
HETATM    1  N3  UNL     1      16.129   9.680   3.437  1.00  0.00    -0.399 NA
ENDROOT
BRANCH   1   2
HETATM    2  C9  UNL     1      16.910  10.591   3.363  1.00  0.00     0.194 A 
HETATM    3  C8  UNL     1      16.555  11.812   2.752  1.00  0.00     0.089 A 
HETATM    4  C6  UNL     1      17.416  12.857   2.602  1.00  0.00     0.027 A 
HETATM    5  N2  UNL     1      18.689  12.694   3.084  1.00  0.00    -0.195 N 
HETATM    6  C7  UNL     1      17.001  14.142   1.942  1.00  0.00     0.069 C 
HETATM    7  C5  UNL     1      19.018  11.551   3.668  1.00  0.00     0.686 A 
ATOM      8  H2  UNL     1      19.374  13.444   2.994  1.00  0.00     0.184 HD
HETATM    9  N5  UNL     1      18.181  10.510   3.810  1.00  0.00    -0.164 N 
ATOM     10  H5  UNL     1      18.507   9.654   4.258  1.00  0.00     0.187 HD
BRANCH   7  11
HETATM   11  N1  UNL     1      20.219  11.394   4.129  1.00  0.00    -0.174 N 
HETATM   12  C4  UNL     1      20.692  11.414   5.397  1.00  0.00     0.131 C 
ATOM     13  H1  UNL     1      20.929  11.227   3.415  1.00  0.00     0.186 HD
BRANCH  12  14
HETATM   14  C3  UNL     1      20.344  10.489   6.465  1.00  0.00     0.084 C 
BRANCH  14  15
HETATM   15  C2  UNL     1      20.972  11.041   7.759  1.00  0.00     0.003 C 
HETATM   16  C1  UNL     1      20.856  10.042   8.885  1.00  0.00     0.005 C 
ENDBRANCH  14  15
ENDBRANCH  12  14
BRANCH  12  17
HETATM   17  O1  UNL     1      21.564  12.341   5.739  1.00  0.00    -0.349 OA
ATOM     18  H1  UNL     1      21.183  13.189   5.929  1.00  0.00     0.219 HD
ENDBRANCH  12  17
ENDBRANCH   7  11
ENDBRANCH   1   2
BRANCH   1  19
HETATM   19  C10 UNL     1      15.246   8.732   3.562  1.00  0.00     0.196 C 
BRANCH  19  20
HETATM   20  C11 UNL     1      14.952   8.274   4.962  1.00  0.00    -0.001 A 
HETATM   21  C12 UNL     1      15.792   7.476   5.639  1.00  0.00     0.015 A 
HETATM   22  C13 UNL     1      15.708   7.354   7.066  1.00  0.00     0.018 A 
HETATM   23  C14 UNL     1      14.752   8.067   7.736  1.00  0.00     0.032 A 
HETATM   24  C22 UNL     1      13.888   8.872   6.995  1.00  0.00     0.024 A 
HETATM   25  C23 UNL     1      13.984   8.974   5.641  1.00  0.00    -0.048 A 
HETATM   26  C24 UNL     1      12.916   9.678   4.818  1.00  0.00     0.049 C 
BRANCH  23  27
HETATM   27  C15 UNL     1      14.654   7.976   9.193  1.00  0.00     0.253 C 
HETATM   28  O2  UNL     1      13.704   7.347   9.703  1.00  0.00    -0.267 OA
HETATM   29  N4  UNL     1      15.676   8.604   9.972  1.00  0.00    -0.348 N 
HETATM   30  C16 UNL     1      16.830   9.286   9.319  1.00  0.00     0.153 C 
BRANCH  29  31
HETATM   31  C17 UNL     1      15.677   8.615  11.420  1.00  0.00     0.086 C 
BRANCH  31  32
HETATM   32  C18 UNL     1      16.245   7.349  12.038  1.00  0.00     0.021 C 
HETATM   33  C19 UNL     1      15.174   6.890  13.046  1.00  0.00     0.007 C 
ENDBRANCH  31  32
BRANCH  31  34
HETATM   34  C20 UNL     1      16.231   9.892  11.968  1.00  0.00     0.021 C 
HETATM   35  C21 UNL     1      15.077  10.863  12.050  1.00  0.00     0.007 C 
ENDBRANCH  31  34
ENDBRANCH  29  31
ENDBRANCH  23  27
ENDBRANCH  19  20
ENDBRANCH   1  19
TORSDOF 11
ENDMDL
MODEL 2
REMARK VINA RESULT: -6.925417957      2.937      8.280
REMARK  11 active torsions:
REMARK  status: ('A' for Active; 'I' for Inactive)
REMARK    1  A    between atoms: C2_2  and  C3_3 
REMARK    2  A    between atoms: C3_3  and  C4_4 
REMARK    3  A    between atoms: C4_4  and  O1_5 
REMARK    4  A    between atoms: N1_7  and  C5_9 
REMARK    5  A    between atoms: C9_15  and  N3_16 
REMARK    6  A    between atoms: N3_16  and  C10_17 
REMARK    7  A    between atoms: C10_17  and  C11_18 
REMARK    8  A    between atoms: C14_21  and  C15_22 
REMARK       I    between atoms: C15_22  and  N4_24 
REMARK    9  A    between atoms: N4_24  and  C17_26 
REMARK   10  A    between atoms: C17_26  and  C18_27 
REMARK   11  A    between atoms: C17_26  and  C20_29 
ROOT
HETATM    1  N3  UNL     1      13.430   7.093  10.693  1.00  0.00    -0.399 NA
ENDROOT
BRANCH   1   2
HETATM    2  C9  UNL     1      13.966   7.131  11.768  1.00  0.00     0.194 A 
HETATM    3  C8  UNL     1      13.279   6.762  12.943  1.00  0.00     0.089 A 
HETATM    4  C6  UNL     1      13.826   6.832  14.189  1.00  0.00     0.027 A 
HETATM    5  N2  UNL     1      15.118   7.279  14.282  1.00  0.00    -0.195 N 
HETATM    6  C7  UNL     1      13.059   6.433  15.419  1.00  0.00     0.069 C 
HETATM    7  C5  UNL     1      15.768   7.614  13.176  1.00  0.00     0.686 A 
ATOM      8  H2  UNL     1      15.574   7.354  15.192  1.00  0.00     0.184 HD
HETATM    9  N5  UNL     1      15.233   7.562  11.945  1.00  0.00    -0.164 N 
ATOM     10  H5  UNL     1      15.788   7.849  11.139  1.00  0.00     0.187 HD
BRANCH   7  11
HETATM   11  N1  UNL     1      16.991   8.034  13.259  1.00  0.00    -0.174 N 
HETATM   12  C4  UNL     1      17.769   8.681  12.361  1.00  0.00     0.131 C 
ATOM     13  H1  UNL     1      17.445   7.843  14.153  1.00  0.00     0.186 HD
BRANCH  12  14
HETATM   14  C3  UNL     1      17.532  10.006  11.805  1.00  0.00     0.084 C 
BRANCH  14  15
HETATM   15  C2  UNL     1      17.538   9.857  10.272  1.00  0.00     0.003 C 
HETATM   16  C1  UNL     1      16.172  10.145   9.696  1.00  0.00     0.005 C 
ENDBRANCH  14  15
ENDBRANCH  12  14
BRANCH  12  17
HETATM   17  O1  UNL     1      18.866   8.095  11.925  1.00  0.00    -0.349 OA
ATOM     18  H1  UNL     1      19.150   7.353  12.447  1.00  0.00     0.219 HD
ENDBRANCH  12  17
ENDBRANCH   7  11
ENDBRANCH   1   2
BRANCH   1  19
HETATM   19  C10 UNL     1      12.883   6.992   9.517  1.00  0.00     0.196 C 
BRANCH  19  20
HETATM   20  C11 UNL     1      13.456   7.865   8.437  1.00  0.00    -0.001 A 
HETATM   21  C12 UNL     1      14.516   7.487   7.706  1.00  0.00     0.015 A 
HETATM   22  C13 UNL     1      14.819   8.123   6.456  1.00  0.00     0.018 A 
HETATM   23  C14 UNL     1      14.006   9.130   6.013  1.00  0.00     0.032 A 
HETATM   24  C22 UNL     1      12.924   9.505   6.809  1.00  0.00     0.024 A 
HETATM   25  C23 UNL     1      12.654   8.888   7.992  1.00  0.00    -0.048 A 
HETATM   26  C24 UNL     1      11.610   9.434   8.954  1.00  0.00     0.049 C 
BRANCH  23  27
HETATM   27  C15 UNL     1      14.279   9.786   4.734  1.00  0.00     0.253 C 
HETATM   28  O2  UNL     1      13.467   9.655   3.795  1.00  0.00    -0.267 OA
HETATM   29  N4  UNL     1      15.470  10.569   4.626  1.00  0.00    -0.348 N 
HETATM   30  C16 UNL     1      16.378  10.754   5.795  1.00  0.00     0.153 C 
BRANCH  29  31
HETATM   31  C17 UNL     1      15.873  11.240   3.407  1.00  0.00     0.086 C 
BRANCH  31  32
HETATM   32  C18 UNL     1      15.992  12.747   3.554  1.00  0.00     0.021 C 
HETATM   33  C19 UNL     1      14.552  13.272   3.395  1.00  0.00     0.007 C 
ENDBRANCH  31  32
BRANCH  31  34
HETATM   34  C20 UNL     1      17.045  10.571   2.762  1.00  0.00     0.021 C 
HETATM   35  C21 UNL     1      16.493   9.423   1.950  1.00  0.00     0.007 C 
ENDBRANCH  31  34
ENDBRANCH  29  31
ENDBRANCH  23  27
ENDBRANCH  19  20
ENDBRANCH   1  19
TORSDOF 11
ENDMDL
MODEL 3
REMARK VINA RESULT: -6.891813350      6.687     10.382
REMARK  11 active torsions:
REMARK  status: ('A' for Active; 'I' for Inactive)
REMARK    1  A    between atoms: C2_2  and  C3_3 
REMARK    2  A    between atoms: C3_3  and  C4_4 
REMARK    3  A    between atoms: C4_4  and  O1_5 
REMARK    4  A    between atoms: N1_7  and  C5_9 
REMARK    5  A    between atoms: C9_15  and  N3_16 
REMARK    6  A    between atoms: N3_16  and  C10_17 
REMARK    7  A    between atoms: C10_17  and  C11_18 
REMARK    8  A    between atoms: C14_21  and  C15_22 
REMARK       I    between atoms: C15_22  and  N4_24 
REMARK    9  A    between atoms: N4_24  and  C17_26 
REMARK   10  A    between atoms: C17_26  and  C18_27 
REMARK   11  A    between atoms: C17_26  and  C20_29 
ROOT
HETATM    1  N3  UNL     1      14.556  12.814  11.718  1.00  0.00    -0.399 NA
ENDROOT
BRANCH   1   2
HETATM    2  C9  UNL     1      14.608  11.664  11.372  1.00  0.00     0.194 A 
HETATM    3  C8  UNL     1      13.598  11.095  10.568  1.00  0.00     0.089 A 
HETATM    4  C6  UNL     1      13.586   9.786  10.188  1.00  0.00     0.027 A 
HETATM    5  N2  UNL     1      14.625   9.001  10.614  1.00  0.00    -0.195 N 
HETATM    6  C7  UNL     1      12.489   9.216   9.333  1.00  0.00     0.069 C 
HETATM    7  C5  UNL     1      15.580   9.539  11.359  1.00  0.00     0.686 A 
ATOM      8  H2  UNL     1      14.663   8.013  10.360  1.00  0.00     0.184 HD
HETATM    9  N5  UNL     1      15.594  10.824  11.750  1.00  0.00    -0.164 N 
ATOM     10  H5  UNL     1      16.355  11.167  12.336  1.00  0.00     0.187 HD
BRANCH   7  11
HETATM   11  N1  UNL     1      16.567   8.801  11.760  1.00  0.00    -0.174 N 
HETATM   12  C4  UNL     1      16.669   7.947  12.804  1.00  0.00     0.131 C 
ATOM     13  H1  UNL     1      17.411   8.878  11.192  1.00  0.00     0.186 HD
BRANCH  12  14
HETATM   14  C3  UNL     1      15.899   6.727  13.003  1.00  0.00     0.084 C 
BRANCH  14  15
HETATM   15  C2  UNL     1      14.642   7.116  13.804  1.00  0.00     0.003 C 
HETATM   16  C1  UNL     1      13.386   6.706  13.071  1.00  0.00     0.005 C 
ENDBRANCH  14  15
ENDBRANCH  12  14
BRANCH  12  17
HETATM   17  O1  UNL     1      17.545   8.200  13.755  1.00  0.00    -0.349 OA
ATOM     18  H1  UNL     1      17.276   8.871  14.371  1.00  0.00     0.219 HD
ENDBRANCH  12  17
ENDBRANCH   7  11
ENDBRANCH   1   2
BRANCH   1  19
HETATM   19  C10 UNL     1      14.458  14.071  12.039  1.00  0.00     0.196 C 
BRANCH  19  20
HETATM   20  C11 UNL     1      13.083  14.673  11.968  1.00  0.00    -0.001 A 
HETATM   21  C12 UNL     1      12.007  14.045  12.466  1.00  0.00     0.015 A 
HETATM   22  C13 UNL     1      10.793  14.760  12.740  1.00  0.00     0.018 A 
HETATM   23  C14 UNL     1      10.745  16.103  12.486  1.00  0.00     0.032 A 
HETATM   24  C22 UNL     1      11.879  16.716  11.953  1.00  0.00     0.024 A 
HETATM   25  C23 UNL     1      13.021  16.019  11.701  1.00  0.00    -0.048 A 
HETATM   26  C24 UNL     1      14.175  16.638  10.927  1.00  0.00     0.049 C 
BRANCH  23  27
HETATM   27  C15 UNL     1       9.527  16.862  12.772  1.00  0.00     0.253 C 
HETATM   28  O2  UNL     1       9.055  16.845  13.928  1.00  0.00    -0.267 OA
HETATM   29  N4  UNL     1       8.939  17.609  11.705  1.00  0.00    -0.348 N 
HETATM   30  C16 UNL     1       9.575  17.655  10.357  1.00  0.00     0.153 C 
BRANCH  29  31
HETATM   31  C17 UNL     1       7.717  18.373  11.848  1.00  0.00     0.086 C 
BRANCH  31  32
HETATM   32  C18 UNL     1       7.926  19.876  11.767  1.00  0.00     0.021 C 
HETATM   33  C19 UNL     1       8.171  20.317  13.223  1.00  0.00     0.007 C 
ENDBRANCH  31  32
BRANCH  31  34
HETATM   34  C20 UNL     1       6.619  17.837  10.985  1.00  0.00     0.021 C 
HETATM   35  C21 UNL     1       5.342  17.973  11.779  1.00  0.00     0.007 C 
ENDBRANCH  31  34
ENDBRANCH  29  31
ENDBRANCH  23  27
ENDBRANCH  19  20
ENDBRANCH   1  19
TORSDOF 11
ENDMDL
MODEL 4
REMARK VINA RESULT: -6.844724794      5.930      9.358
REMARK  11 active torsions:
REMARK  status: ('A' for Active; 'I' for Inactive)
REMARK    1  A    between atoms: C2_2  and  C3_3 
REMARK    2  A    between atoms: C3_3  and  C4_4 
REMARK    3  A    between atoms: C4_4  and  O1_5 
REMARK    4  A    between atoms: N1_7  and  C5_9 
REMARK    5  A    between atoms: C9_15  and  N3_16 
REMARK    6  A    between atoms: N3_16  and  C10_17 
REMARK    7  A    between atoms: C10_17  and  C11_18 
REMARK    8  A    between atoms: C14_21  and  C15_22 
REMARK       I    between atoms: C15_22  and  N4_24 
REMARK    9  A    between atoms: N4_24  and  C17_26 
REMARK   10  A    between atoms: C17_26  and  C18_27 
REMARK   11  A    between atoms: C17_26  and  C20_29 
ROOT
HETATM    1  N3  UNL     1      17.166  12.217  11.714  1.00  0.00    -0.399 NA
ENDROOT
BRANCH   1   2
HETATM    2  C9  UNL     1      17.606  11.108  11.856  1.00  0.00     0.194 A 
HETATM    3  C8  UNL     1      18.795  10.704  11.213  1.00  0.00     0.089 A 
HETATM    4  C6  UNL     1      19.310   9.446  11.303  1.00  0.00     0.027 A 
HETATM    5  N2  UNL     1      18.625   8.542  12.072  1.00  0.00    -0.195 N 
HETATM    6  C7  UNL     1      20.579   9.053  10.600  1.00  0.00     0.069 C 
HETATM    7  C5  UNL     1      17.514   8.926  12.686  1.00  0.00     0.686 A 
ATOM      8  H2  UNL     1      18.966   7.586  12.172  1.00  0.00     0.184 HD
HETATM    9  N5  UNL     1      16.991  10.159  12.593  1.00  0.00    -0.164 N 
ATOM     10  H5  UNL     1      16.124  10.381  13.081  1.00  0.00     0.187 HD
BRANCH   7  11
HETATM   11  N1  UNL     1      16.865   8.076  13.418  1.00  0.00    -0.174 N 
HETATM   12  C4  UNL     1      15.590   7.630  13.341  1.00  0.00     0.131 C 
ATOM     13  H1  UNL     1      17.408   7.675  14.183  1.00  0.00     0.186 HD
BRANCH  12  14
HETATM   14  C3  UNL     1      15.002   6.876  12.244  1.00  0.00     0.084 C 
BRANCH  14  15
HETATM   15  C2  UNL     1      13.479   6.859  12.476  1.00  0.00     0.003 C 
HETATM   16  C1  UNL     1      12.734   7.147  11.195  1.00  0.00     0.005 C 
ENDBRANCH  14  15
ENDBRANCH  12  14
BRANCH  12  17
HETATM   17  O1  UNL     1      14.766   7.873  14.340  1.00  0.00    -0.349 OA
ATOM     18  H1  UNL     1      14.170   7.162  14.541  1.00  0.00     0.219 HD
ENDBRANCH  12  17
ENDBRANCH   7  11
ENDBRANCH   1   2
BRANCH   1  19
HETATM   19  C10 UNL     1      16.666  13.416  11.626  1.00  0.00     0.196 C 
BRANCH  19  20
HETATM   20  C11 UNL     1      15.176  13.506  11.459  1.00  0.00    -0.001 A 
HETATM   21  C12 UNL     1      14.335  13.361  12.494  1.00  0.00     0.015 A 
HETATM   22  C13 UNL     1      12.976  13.816  12.415  1.00  0.00     0.018 A 
HETATM   23  C14 UNL     1      12.543  14.406  11.259  1.00  0.00     0.032 A 
HETATM   24  C22 UNL     1      13.443  14.525  10.201  1.00  0.00     0.024 A 
HETATM   25  C23 UNL     1      14.728  14.086  10.297  1.00  0.00    -0.048 A 
HETATM   26  C24 UNL     1      15.639  14.021   9.080  1.00  0.00     0.049 C 
BRANCH  23  27
HETATM   27  C15 UNL     1      11.168  14.896  11.156  1.00  0.00     0.253 C 
HETATM   28  O2  UNL     1      10.258  14.099  10.847  1.00  0.00    -0.267 OA
HETATM   29  N4  UNL     1      10.929  16.278  11.434  1.00  0.00    -0.348 N 
HETATM   30  C16 UNL     1      12.036  17.179  11.866  1.00  0.00     0.153 C 
BRANCH  29  31
HETATM   31  C17 UNL     1       9.621  16.894  11.335  1.00  0.00     0.086 C 
BRANCH  31  32
HETATM   32  C18 UNL     1       9.309  17.845  12.477  1.00  0.00     0.021 C 
HETATM   33  C19 UNL     1       8.849  16.934  13.631  1.00  0.00     0.007 C 
ENDBRANCH  31  32
BRANCH  31  34
HETATM   34  C20 UNL     1       9.364  17.440   9.966  1.00  0.00     0.021 C 
HETATM   35  C21 UNL     1       8.128  16.743   9.449  1.00  0.00     0.007 C 
ENDBRANCH  31  34
ENDBRANCH  29  31
ENDBRANCH  23  27
ENDBRANCH  19  20
ENDBRANCH   1  19
TORSDOF 11
ENDMDL
MODEL 5
REMARK VINA RESULT: -6.843883847      9.797     13.061
REMARK  11 active torsions:
REMARK  status: ('A' for Active; 'I' for Inactive)
REMARK    1  A    between atoms: C2_2  and  C3_3 
REMARK    2  A    between atoms: C3_3  and  C4_4 
REMARK    3  A    between atoms: C4_4  and  O1_5 
REMARK    4  A    between atoms: N1_7  and  C5_9 
REMARK    5  A    between atoms: C9_15  and  N3_16 
REMARK    6  A    between atoms: N3_16  and  C10_17 
REMARK    7  A    between atoms: C10_17  and  C11_18 
REMARK    8  A    between atoms: C14_21  and  C15_22 
REMARK       I    between atoms: C15_22  and  N4_24 
REMARK    9  A    between atoms: N4_24  and  C17_26 
REMARK   10  A    between atoms: C17_26  and  C18_27 
REMARK   11  A    between atoms: C17_26  and  C20_29 
ROOT
HETATM    1  N3  UNL     1       9.665  13.686   9.194  1.00  0.00    -0.399 NA
ENDROOT
BRANCH   1   2
HETATM    2  C9  UNL     1       8.969  13.269   8.308  1.00  0.00     0.194 A 
HETATM    3  C8  UNL     1       9.393  12.206   7.483  1.00  0.00     0.089 A 
HETATM    4  C6  UNL     1       8.663  11.728   6.437  1.00  0.00     0.027 A 
HETATM    5  N2  UNL     1       7.451  12.319   6.196  1.00  0.00    -0.195 N 
HETATM    6  C7  UNL     1       9.150  10.594   5.578  1.00  0.00     0.069 C 
HETATM    7  C5  UNL     1       7.048  13.311   6.979  1.00  0.00     0.686 A 
ATOM      8  H2  UNL     1       6.865  12.001   5.423  1.00  0.00     0.184 HD
HETATM    9  N5  UNL     1       7.765  13.798   8.004  1.00  0.00    -0.164 N 
ATOM     10  H5  UNL     1       7.399  14.574   8.556  1.00  0.00     0.187 HD
BRANCH   7  11
HETATM   11  N1  UNL     1       5.900  13.871   6.757  1.00  0.00    -0.174 N 
HETATM   12  C4  UNL     1       5.566  14.938   5.995  1.00  0.00     0.131 C 
ATOM     13  H1  UNL     1       5.115  13.433   7.240  1.00  0.00     0.186 HD
BRANCH  12  14
HETATM   14  C3  UNL     1       5.708  15.049   4.551  1.00  0.00     0.084 C 
BRANCH  14  15
HETATM   15  C2  UNL     1       5.018  13.816   3.937  1.00  0.00     0.003 C 
HETATM   16  C1  UNL     1       5.972  13.045   3.057  1.00  0.00     0.005 C 
ENDBRANCH  14  15
ENDBRANCH  12  14
BRANCH  12  17
HETATM   17  O1  UNL     1       5.050  16.002   6.577  1.00  0.00    -0.349 OA
ATOM     18  H1  UNL     1       5.564  16.344   7.299  1.00  0.00     0.219 HD
ENDBRANCH  12  17
ENDBRANCH   7  11
ENDBRANCH   1   2
BRANCH   1  19
HETATM   19  C10 UNL     1      10.420  14.200  10.122  1.00  0.00     0.196 C 
BRANCH  19  20
HETATM   20  C11 UNL     1      10.020  15.554  10.634  1.00  0.00    -0.001 A 
HETATM   21  C12 UNL     1       9.394  16.451   9.856  1.00  0.00     0.015 A 
HETATM   22  C13 UNL     1       8.686  17.561  10.427  1.00  0.00     0.018 A 
HETATM   23  C14 UNL     1       8.657  17.696  11.788  1.00  0.00     0.032 A 
HETATM   24  C22 UNL     1       9.333  16.754  12.561  1.00  0.00     0.024 A 
HETATM   25  C23 UNL     1       9.998  15.707  11.999  1.00  0.00    -0.048 A 
HETATM   26  C24 UNL     1      10.908  14.808  12.823  1.00  0.00     0.049 C 
BRANCH  23  27
HETATM   27  C15 UNL     1       7.929  18.809  12.400  1.00  0.00     0.253 C 
HETATM   28  O2  UNL     1       6.741  18.642  12.748  1.00  0.00    -0.267 OA
HETATM   29  N4  UNL     1       8.627  20.042  12.588  1.00  0.00    -0.348 N 
HETATM   30  C16 UNL     1      10.066  20.175  12.219  1.00  0.00     0.153 C 
BRANCH  29  31
HETATM   31  C17 UNL     1       8.011  21.226  13.150  1.00  0.00     0.086 C 
BRANCH  31  32
HETATM   32  C18 UNL     1       8.496  21.557  14.551  1.00  0.00     0.021 C 
HETATM   33  C19 UNL     1       8.863  23.052  14.496  1.00  0.00     0.007 C 
ENDBRANCH  31  32
BRANCH  31  34
HETATM   34  C20 UNL     1       8.023  22.372  12.188  1.00  0.00     0.021 C 
HETATM   35  C21 UNL     1       6.971  22.071  11.147  1.00  0.00     0.007 C 
ENDBRANCH  31  34
ENDBRANCH  29  31
ENDBRANCH  23  27
ENDBRANCH  19  20
ENDBRANCH   1  19
TORSDOF 11
ENDMDL
