MODEL 1
REMARK VINA RESULT: -6.984642538      0.000      0.000
REMARK  12 active torsions:
REMARK  status: ('A' for Active; 'I' for Inactive)
REMARK       I    between atoms: C2_2  and  N1_4 
REMARK    1  A    between atoms: N1_4  and  C3_5 
REMARK    2  A    between atoms: C3_5  and  C5_7 
REMARK    3  A    between atoms: C3_5  and  C22_31 
REMARK    4  A    between atoms: C5_7  and  O2_8 
REMARK    5  A    between atoms: C5_7  and  N2_10 
REMARK    6  A    between atoms: N2_10  and  C6_11 
REMARK    7  A    between atoms: N2_10  and  C19_28 
REMARK    8  A    between atoms: C6_11  and  C7_12 
REMARK    9  A    between atoms: C7_12  and  O3_13 
REMARK   10  A    between atoms: N3_15  and  C8_17 
REMARK   11  A    between atoms: C8_17  and  C9_18 
REMARK   12  A    between atoms: C12_21  and  C13_22 
ROOT
HETATM    1  C6  UNL     1      20.144   8.015  11.503  1.00  0.00     0.208 C 
ENDROOT
BRANCH   1   2
HETATM    2  N2  UNL     1      19.100   8.964  11.502  1.00  0.00    -0.351 N 
BRANCH   2   3
HETATM    3  C5  UNL     1      19.000  10.198  10.910  1.00  0.00     0.157 C 
BRANCH   3   4
HETATM    4  C3  UNL     1      18.532  10.717   9.564  1.00  0.00     0.160 C 
HETATM    5  C4  UNL     1      18.932  12.224   9.578  1.00  0.00     0.064 C 
BRANCH   4   6
HETATM    6  N1  UNL     1      19.391  10.046   8.596  1.00  0.00    -0.395 NA
HETATM    7  C2  UNL     1      20.152   9.432   7.762  1.00  0.00     0.283 C 
HETATM    8  C1  UNL     1      20.311  10.628   6.474  1.00  0.00     0.134 C 
HETATM    9  O1  UNL     1      20.838   8.621   7.255  1.00  0.00    -0.258 OA
ENDBRANCH   4   6
BRANCH   4  10
HETATM   10  C22 UNL     1      17.103  10.636   9.276  1.00  0.00     0.027 C 
HETATM   11  C23 UNL     1      16.621   9.336   8.619  1.00  0.00     0.014 C 
HETATM   12  C24 UNL     1      16.903  11.632   8.047  1.00  0.00     0.014 C 
ENDBRANCH   4  10
ENDBRANCH   3   4
BRANCH   3  13
HETATM   13  O2  UNL     1      19.365  11.192  11.687  1.00  0.00    -0.347 OA
ATOM     14  H2  UNL     1      19.169  10.994  12.595  1.00  0.00     0.219 HD
ENDBRANCH   3  13
ENDBRANCH   2   3
BRANCH   2  15
HETATM   15  C19 UNL     1      17.720   8.447  11.960  1.00  0.00     0.078 C 
HETATM   16  C20 UNL     1      16.994   9.399  12.797  1.00  0.00     0.032 C 
HETATM   17  C21 UNL     1      17.895   7.046  12.374  1.00  0.00     0.032 C 
ENDBRANCH   2  15
ENDBRANCH   1   2
BRANCH   1  18
HETATM   18  C7  UNL     1      21.561   8.517  11.471  1.00  0.00     0.130 C 
HETATM   19  N3  UNL     1      22.134   9.565  11.311  1.00  0.00    -0.369 N 
ATOM     20  H3  UNL     1      21.370  10.238  11.256  1.00  0.00     0.161 HD
BRANCH  18  21
HETATM   21  O3  UNL     1      22.331   7.348  11.702  1.00  0.00    -0.348 OA
ATOM     22  H3  UNL     1      23.222   7.676  11.750  1.00  0.00     0.219 HD
ENDBRANCH  18  21
BRANCH  19  23
HETATM   23  C8  UNL     1      23.329  10.410  11.151  1.00  0.00     0.160 C 
BRANCH  23  24
HETATM   24  C9  UNL     1      22.878  11.702  10.549  1.00  0.00    -0.041 A 
HETATM   25  C10 UNL     1      22.749  11.786   9.175  1.00  0.00     0.009 A 
HETATM   26  C11 UNL     1      22.373  13.021   8.636  1.00  0.00     0.008 A 
HETATM   27  C12 UNL     1      22.118  14.149   9.364  1.00  0.00    -0.051 A 
HETATM   28  C17 UNL     1      22.254  14.011  10.751  1.00  0.00     0.008 A 
HETATM   29  C18 UNL     1      22.628  12.805  11.289  1.00  0.00     0.009 A 
BRANCH  27  30
HETATM   30  C13 UNL     1      21.711  15.372   8.695  1.00  0.00    -0.024 C 
HETATM   31  C14 UNL     1      21.758  15.126   7.177  1.00  0.00     0.019 C 
HETATM   32  C15 UNL     1      22.654  16.516   8.944  1.00  0.00     0.019 C 
HETATM   33  C16 UNL     1      20.321  15.858   9.036  1.00  0.00     0.019 C 
ENDBRANCH  27  30
ENDBRANCH  23  24
ENDBRANCH  19  23
ENDBRANCH   1  18
TORSDOF 12
ENDMDL
MODEL 2
REMARK VINA RESULT: -6.877262211     12.041     15.062
REMARK  12 active torsions:
REMARK  status: ('A' for Active; 'I' for Inactive)
REMARK       I    between atoms: C2_2  and  N1_4 
REMARK    1  A    between atoms: N1_4  and  C3_5 
REMARK    2  A    between atoms: C3_5  and  C5_7 
REMARK    3  A    between atoms: C3_5  and  C22_31 
REMARK    4  A    between atoms: C5_7  and  O2_8 
REMARK    5  A    between atoms: C5_7  and  N2_10 
REMARK    6  A    between atoms: N2_10  and  C6_11 
REMARK    7  A    between atoms: N2_10  and  C19_28 
REMARK    8  A    between atoms: C6_11  and  C7_12 
REMARK    9  A    between atoms: C7_12  and  O3_13 
REMARK   10  A    between atoms: N3_15  and  C8_17 
REMARK   11  A    between atoms: C8_17  and  C9_18 
REMARK   12  A    between atoms: C12_21  and  C13_22 
ROOT
HETATM    1  C6  UNL     1       7.782  22.379  12.295  1.00  0.00     0.208 C 
ENDROOT
BRANCH   1   2
HETATM    2  N2  UNL     1       9.089  22.761  11.926  1.00  0.00    -0.351 N 
BRANCH   2   3
HETATM    3  C5  UNL     1       9.797  22.564  10.767  1.00  0.00     0.157 C 
BRANCH   3   4
HETATM    4  C3  UNL     1      10.513  21.394  10.122  1.00  0.00     0.160 C 
HETATM    5  C4  UNL     1       9.976  21.380   8.659  1.00  0.00     0.064 C 
BRANCH   4   6
HETATM    6  N1  UNL     1      11.910  21.806  10.071  1.00  0.00    -0.395 NA
HETATM    7  C2  UNL     1      13.146  22.161  10.054  1.00  0.00     0.283 C 
HETATM    8  C1  UNL     1      13.284  22.902   8.458  1.00  0.00     0.134 C 
HETATM    9  O1  UNL     1      14.264  22.351  10.369  1.00  0.00    -0.258 OA
ENDBRANCH   4   6
BRANCH   4  10
HETATM   10  C22 UNL     1      10.284  20.071  10.696  1.00  0.00     0.027 C 
HETATM   11  C23 UNL     1      11.006  19.776  12.018  1.00  0.00     0.014 C 
HETATM   12  C24 UNL     1      11.099  19.091   9.737  1.00  0.00     0.014 C 
ENDBRANCH   4  10
ENDBRANCH   3   4
BRANCH   3  13
HETATM   13  O2  UNL     1       9.859  23.625   9.996  1.00  0.00    -0.347 OA
ATOM     14  H2  UNL     1       9.968  24.411  10.518  1.00  0.00     0.219 HD
ENDBRANCH   3  13
ENDBRANCH   2   3
BRANCH   2  15
HETATM   15  C19 UNL     1       9.748  23.841  12.811  1.00  0.00     0.078 C 
HETATM   16  C20 UNL     1      11.006  23.406  13.413  1.00  0.00     0.032 C 
HETATM   17  C21 UNL     1       8.683  24.448  13.623  1.00  0.00     0.032 C 
ENDBRANCH   2  15
ENDBRANCH   1   2
BRANCH   1  18
HETATM   18  C7  UNL     1       7.558  20.965  12.756  1.00  0.00     0.130 C 
HETATM   19  N3  UNL     1       7.023  19.966  12.346  1.00  0.00    -0.369 N 
ATOM     20  H3  UNL     1       6.731  20.232  11.405  1.00  0.00     0.161 HD
BRANCH  18  21
HETATM   21  O3  UNL     1       8.195  20.926  14.024  1.00  0.00    -0.348 OA
ATOM     22  H3  UNL     1       8.202  20.000  14.239  1.00  0.00     0.219 HD
ENDBRANCH  18  21
BRANCH  19  23
HETATM   23  C8  UNL     1       6.557  18.574  12.454  1.00  0.00     0.160 C 
BRANCH  23  24
HETATM   24  C9  UNL     1       7.757  17.695  12.313  1.00  0.00    -0.041 A 
HETATM   25  C10 UNL     1       8.070  17.192  11.064  1.00  0.00     0.009 A 
HETATM   26  C11 UNL     1       9.170  16.333  10.970  1.00  0.00     0.008 A 
HETATM   27  C12 UNL     1       9.961  15.956  12.018  1.00  0.00    -0.051 A 
HETATM   28  C17 UNL     1       9.609  16.497  13.261  1.00  0.00     0.008 A 
HETATM   29  C18 UNL     1       8.528  17.337  13.364  1.00  0.00     0.009 A 
BRANCH  27  30
HETATM   30  C13 UNL     1      11.094  15.075  11.796  1.00  0.00    -0.024 C 
HETATM   31  C14 UNL     1      12.364  15.939  11.709  1.00  0.00     0.019 C 
HETATM   32  C15 UNL     1      11.017  14.345  10.484  1.00  0.00     0.019 C 
HETATM   33  C16 UNL     1      11.321  14.037  12.871  1.00  0.00     0.019 C 
ENDBRANCH  27  30
ENDBRANCH  23  24
ENDBRANCH  19  23
ENDBRANCH   1  18
TORSDOF 12
ENDMDL
MODEL 3
REMARK VINA RESULT: -6.644859030     12.225     15.144
REMARK  12 active torsions:
REMARK  status: ('A' for Active; 'I' for Inactive)
REMARK       I    between atoms: C2_2  and  N1_4 
REMARK    1  A    between atoms: N1_4  and  C3_5 
REMARK    2  A    between atoms: C3_5  and  C5_7 
REMARK    3  A    between atoms: C3_5  and  C22_31 
REMARK    4  A    between atoms: C5_7  and  O2_8 
REMARK    5  A    between atoms: C5_7  and  N2_10 
REMARK    6  A    between atoms: N2_10  and  C6_11 
REMARK    7  A    between atoms: N2_10  and  C19_28 
REMARK    8  A    between atoms: C6_11  and  C7_12 
REMARK    9  A    between atoms: C7_12  and  O3_13 
REMARK   10  A    between atoms: N3_15  and  C8_17 
REMARK   11  A    between atoms: C8_17  and  C9_18 
REMARK   12  A    between atoms: C12_21  and  C13_22 
ROOT
HETATM    1  C6  UNL     1       7.877  22.201  13.160  1.00  0.00     0.208 C 
ENDROOT
BRANCH   1   2
HETATM    2  N2  UNL     1       8.816  22.736  12.255  1.00  0.00    -0.351 N 
BRANCH   2   3
HETATM    3  C5  UNL     1       8.918  22.633  10.890  1.00  0.00     0.157 C 
BRANCH   3   4
HETATM    4  C3  UNL     1       9.623  21.700   9.925  1.00  0.00     0.160 C 
HETATM    5  C4  UNL     1      10.717  22.593   9.265  1.00  0.00     0.064 C 
BRANCH   4   6
HETATM    6  N1  UNL     1      10.303  20.736  10.781  1.00  0.00    -0.395 NA
HETATM    7  C2  UNL     1      10.883  19.892  11.558  1.00  0.00     0.283 C 
HETATM    8  C1  UNL     1      12.286  19.423  10.594  1.00  0.00     0.134 C 
HETATM    9  O1  UNL     1      11.144  19.213  12.483  1.00  0.00    -0.258 OA
ENDBRANCH   4   6
BRANCH   4  10
HETATM   10  C22 UNL     1       8.819  21.112   8.857  1.00  0.00     0.027 C 
HETATM   11  C23 UNL     1       7.741  20.112   9.297  1.00  0.00     0.014 C 
HETATM   12  C24 UNL     1       9.822  20.104   8.135  1.00  0.00     0.014 C 
ENDBRANCH   4  10
ENDBRANCH   3   4
BRANCH   3  13
HETATM   13  O2  UNL     1       8.220  23.533  10.236  1.00  0.00    -0.347 OA
ATOM     14  H2  UNL     1       8.747  23.932   9.555  1.00  0.00     0.219 HD
ENDBRANCH   3  13
ENDBRANCH   2   3
BRANCH   2  15
HETATM   15  C19 UNL     1       9.701  23.878  12.800  1.00  0.00     0.078 C 
HETATM   16  C20 UNL     1      11.035  23.435  13.198  1.00  0.00     0.032 C 
HETATM   17  C21 UNL     1       8.864  24.684  13.702  1.00  0.00     0.032 C 
ENDBRANCH   2  15
ENDBRANCH   1   2
BRANCH   1  18
HETATM   18  C7  UNL     1       7.749  20.705  13.252  1.00  0.00     0.130 C 
HETATM   19  N3  UNL     1       7.082  19.833  12.753  1.00  0.00    -0.369 N 
ATOM     20  H3  UNL     1       6.537  20.335  12.051  1.00  0.00     0.161 HD
BRANCH  18  21
HETATM   21  O3  UNL     1       8.727  20.347  14.215  1.00  0.00    -0.348 OA
ATOM     22  H3  UNL     1       9.512  20.215  13.695  1.00  0.00     0.219 HD
ENDBRANCH  18  21
BRANCH  19  23
HETATM   23  C8  UNL     1       6.620  18.444  12.597  1.00  0.00     0.160 C 
BRANCH  23  24
HETATM   24  C9  UNL     1       7.837  17.591  12.430  1.00  0.00    -0.041 A 
HETATM   25  C10 UNL     1       8.242  17.256  11.152  1.00  0.00     0.009 A 
HETATM   26  C11 UNL     1       9.354  16.416  11.027  1.00  0.00     0.008 A 
HETATM   27  C12 UNL     1      10.073  15.907  12.072  1.00  0.00    -0.051 A 
HETATM   28  C17 UNL     1       9.628  16.282  13.346  1.00  0.00     0.008 A 
HETATM   29  C18 UNL     1       8.534  17.100  13.478  1.00  0.00     0.009 A 
BRANCH  27  30
HETATM   30  C13 UNL     1      11.227  15.062  11.819  1.00  0.00    -0.024 C 
HETATM   31  C14 UNL     1      12.479  15.956  11.794  1.00  0.00     0.019 C 
HETATM   32  C15 UNL     1      11.181  14.400  10.471  1.00  0.00     0.019 C 
HETATM   33  C16 UNL     1      11.464  13.975  12.843  1.00  0.00     0.019 C 
ENDBRANCH  27  30
ENDBRANCH  23  24
ENDBRANCH  19  23
ENDBRANCH   1  18
TORSDOF 12
ENDMDL
MODEL 4
REMARK VINA RESULT: -6.528299537      2.558      6.841
REMARK  12 active torsions:
REMARK  status: ('A' for Active; 'I' for Inactive)
REMARK       I    between atoms: C2_2  and  N1_4 
REMARK    1  A    between atoms: N1_4  and  C3_5 
REMARK    2  A    between atoms: C3_5  and  C5_7 
REMARK    3  A    between atoms: C3_5  and  C22_31 
REMARK    4  A    between atoms: C5_7  and  O2_8 
REMARK    5  A    between atoms: C5_7  and  N2_10 
REMARK    6  A    between atoms: N2_10  and  C6_11 
REMARK    7  A    between atoms: N2_10  and  C19_28 
REMARK    8  A    between atoms: C6_11  and  C7_12 
REMARK    9  A    between atoms: C7_12  and  O3_13 
REMARK   10  A    between atoms: N3_15  and  C8_17 
REMARK   11  A    between atoms: C8_17  and  C9_18 
REMARK   12  A    between atoms: C12_21  and  C13_22 
ROOT
HETATM    1  C6  UNL     1      20.819  10.331   9.871  1.00  0.00     0.208 C 
ENDROOT
BRANCH   1   2
HETATM    2  N2  UNL     1      20.692  10.307   8.466  1.00  0.00    -0.351 N 
BRANCH   2   3
HETATM    3  C5  UNL     1      19.767   9.704   7.652  1.00  0.00     0.157 C 
BRANCH   3   4
HETATM    4  C3  UNL     1      18.417  10.089   7.076  1.00  0.00     0.160 C 
HETATM    5  C4  UNL     1      18.766  10.815   5.741  1.00  0.00     0.064 C 
BRANCH   4   6
HETATM    6  N1  UNL     1      17.793   8.817   6.731  1.00  0.00    -0.395 NA
HETATM    7  C2  UNL     1      17.263   7.682   6.446  1.00  0.00     0.283 C 
HETATM    8  C1  UNL     1      16.088   8.137   5.209  1.00  0.00     0.134 C 
HETATM    9  O1  UNL     1      17.018   6.531   6.422  1.00  0.00    -0.258 OA
ENDBRANCH   4   6
BRANCH   4  10
HETATM   10  C22 UNL     1      17.584  10.986   7.870  1.00  0.00     0.027 C 
HETATM   11  C23 UNL     1      16.093  11.020   7.506  1.00  0.00     0.014 C 
HETATM   12  C24 UNL     1      18.001  12.441   7.367  1.00  0.00     0.014 C 
ENDBRANCH   4  10
ENDBRANCH   3   4
BRANCH   3  13
HETATM   13  O2  UNL     1      20.127   8.514   7.229  1.00  0.00    -0.347 OA
ATOM     14  H2  UNL     1      19.513   7.854   7.529  1.00  0.00     0.219 HD
ENDBRANCH   3  13
ENDBRANCH   2   3
BRANCH   2  15
HETATM   15  C19 UNL     1      21.510  11.369   7.699  1.00  0.00     0.078 C 
HETATM   16  C20 UNL     1      22.408  10.795   6.700  1.00  0.00     0.032 C 
HETATM   17  C21 UNL     1      21.993  12.345   8.687  1.00  0.00     0.032 C 
ENDBRANCH   2  15
ENDBRANCH   1   2
BRANCH   1  18
HETATM   18  C7  UNL     1      20.333   9.139  10.649  1.00  0.00     0.130 C 
HETATM   19  N3  UNL     1      19.339   8.807  11.246  1.00  0.00    -0.369 N 
ATOM     20  H3  UNL     1      18.694   9.576  11.063  1.00  0.00     0.161 HD
BRANCH  18  21
HETATM   21  O3  UNL     1      21.426   8.237  10.590  1.00  0.00    -0.348 OA
ATOM     22  H3  UNL     1      21.224   7.600  11.266  1.00  0.00     0.219 HD
ENDBRANCH  18  21
BRANCH  19  23
HETATM   23  C8  UNL     1      18.544   7.904  12.094  1.00  0.00     0.160 C 
BRANCH  23  24
HETATM   24  C9  UNL     1      17.147   7.917  11.563  1.00  0.00    -0.041 A 
HETATM   25  C10 UNL     1      16.107   7.612  12.420  1.00  0.00     0.009 A 
HETATM   26  C11 UNL     1      14.815   7.584  11.884  1.00  0.00     0.008 A 
HETATM   27  C12 UNL     1      14.503   7.840  10.578  1.00  0.00    -0.051 A 
HETATM   28  C17 UNL     1      15.589   8.153   9.751  1.00  0.00     0.008 A 
HETATM   29  C18 UNL     1      16.861   8.177  10.267  1.00  0.00     0.009 A 
BRANCH  27  30
HETATM   30  C13 UNL     1      13.119   7.805  10.139  1.00  0.00    -0.024 C 
HETATM   31  C14 UNL     1      13.045   6.965   8.852  1.00  0.00     0.019 C 
HETATM   32  C15 UNL     1      12.591   9.161   9.763  1.00  0.00     0.019 C 
HETATM   33  C16 UNL     1      12.146   7.207  11.130  1.00  0.00     0.019 C 
ENDBRANCH  27  30
ENDBRANCH  23  24
ENDBRANCH  19  23
ENDBRANCH   1  18
TORSDOF 12
ENDMDL
MODEL 5
REMARK VINA RESULT: -6.495816090      2.397      6.948
REMARK  12 active torsions:
REMARK  status: ('A' for Active; 'I' for Inactive)
REMARK       I    between atoms: C2_2  and  N1_4 
REMARK    1  A    between atoms: N1_4  and  C3_5 
REMARK    2  A    between atoms: C3_5  and  C5_7 
REMARK    3  A    between atoms: C3_5  and  C22_31 
REMARK    4  A    between atoms: C5_7  and  O2_8 
REMARK    5  A    between atoms: C5_7  and  N2_10 
REMARK    6  A    between atoms: N2_10  and  C6_11 
REMARK    7  A    between atoms: N2_10  and  C19_28 
REMARK    8  A    between atoms: C6_11  and  C7_12 
REMARK    9  A    between atoms: C7_12  and  O3_13 
REMARK   10  A    between atoms: N3_15  and  C8_17 
REMARK   11  A    between atoms: C8_17  and  C9_18 
REMARK   12  A    between atoms: C12_21  and  C13_22 
ROOT
HETATM    1  C6  UNL     1      20.604  10.409  10.547  1.00  0.00     0.208 C 
ENDROOT
BRANCH   1   2
HETATM    2  N2  UNL     1      20.980  10.518   9.192  1.00  0.00    -0.351 N 
BRANCH   2   3
HETATM    3  C5  UNL     1      20.401  10.024   8.050  1.00  0.00     0.157 C 
BRANCH   3   4
HETATM    4  C3  UNL     1      19.381  10.529   7.048  1.00  0.00     0.160 C 
HETATM    5  C4  UNL     1      18.435   9.310   6.822  1.00  0.00     0.064 C 
BRANCH   4   6
HETATM    6  N1  UNL     1      18.624  11.539   7.777  1.00  0.00    -0.395 NA
HETATM    7  C2  UNL     1      17.969  12.452   8.403  1.00  0.00     0.283 C 
HETATM    8  C1  UNL     1      17.171  11.515   9.669  1.00  0.00     0.134 C 
HETATM    9  O1  UNL     1      17.533  13.493   8.735  1.00  0.00    -0.258 OA
ENDBRANCH   4   6
BRANCH   4  10
HETATM   10  C22 UNL     1      19.879  10.957   5.745  1.00  0.00     0.027 C 
HETATM   11  C23 UNL     1      20.459  12.377   5.678  1.00  0.00     0.014 C 
HETATM   12  C24 UNL     1      18.555  11.183   4.884  1.00  0.00     0.014 C 
ENDBRANCH   4  10
ENDBRANCH   3   4
BRANCH   3  13
HETATM   13  O2  UNL     1      20.843   8.838   7.701  1.00  0.00    -0.347 OA
ATOM     14  H2  UNL     1      20.887   8.263   8.455  1.00  0.00     0.219 HD
ENDBRANCH   3  13
ENDBRANCH   2   3
BRANCH   2  15
HETATM   15  C19 UNL     1      22.016  11.616   8.868  1.00  0.00     0.078 C 
HETATM   16  C20 UNL     1      23.379  11.254   9.248  1.00  0.00     0.032 C 
HETATM   17  C21 UNL     1      21.428  12.902   9.271  1.00  0.00     0.032 C 
ENDBRANCH   2  15
ENDBRANCH   1   2
BRANCH   1  18
HETATM   18  C7  UNL     1      20.176   9.062  11.060  1.00  0.00     0.130 C 
HETATM   19  N3  UNL     1      19.212   8.575  11.596  1.00  0.00    -0.369 N 
ATOM     20  H3  UNL     1      18.540   9.343  11.601  1.00  0.00     0.161 HD
BRANCH  18  21
HETATM   21  O3  UNL     1      21.291   8.231  10.779  1.00  0.00    -0.348 OA
ATOM     22  H3  UNL     1      21.986   8.607  11.306  1.00  0.00     0.219 HD
ENDBRANCH  18  21
BRANCH  19  23
HETATM   23  C8  UNL     1      18.469   7.484  12.247  1.00  0.00     0.160 C 
BRANCH  23  24
HETATM   24  C9  UNL     1      17.059   7.556  11.756  1.00  0.00    -0.041 A 
HETATM   25  C10 UNL     1      16.829   7.943  10.450  1.00  0.00     0.009 A 
HETATM   26  C11 UNL     1      15.497   8.048  10.032  1.00  0.00     0.008 A 
HETATM   27  C12 UNL     1      14.408   7.793  10.817  1.00  0.00    -0.051 A 
HETATM   28  C17 UNL     1      14.693   7.397  12.130  1.00  0.00     0.008 A 
HETATM   29  C18 UNL     1      15.995   7.297  12.550  1.00  0.00     0.009 A 
BRANCH  27  30
HETATM   30  C13 UNL     1      13.069   7.914  10.266  1.00  0.00    -0.024 C 
HETATM   31  C14 UNL     1      13.032   7.158   8.927  1.00  0.00     0.019 C 
HETATM   32  C15 UNL     1      12.700   9.333   9.935  1.00  0.00     0.019 C 
HETATM   33  C16 UNL     1      11.965   7.357  11.135  1.00  0.00     0.019 C 
ENDBRANCH  27  30
ENDBRANCH  23  24
ENDBRANCH  19  23
ENDBRANCH   1  18
TORSDOF 12
ENDMDL
