MODEL 1
REMARK VINA RESULT: -8.048609498      0.000      0.000
REMARK  14 active torsions:
REMARK  status: ('A' for Active; 'I' for Inactive)
REMARK    1  A    between atoms: O1_2  and  C2_3 
REMARK    2  A    between atoms: C2_3  and  C4_5 
REMARK    3  A    between atoms: C2_3  and  C12_17 
REMARK    4  A    between atoms: C4_5  and  C5_6 
REMARK    5  A    between atoms: C5_6  and  C6_7 
REMARK    6  A    between atoms: C6_7  and  C7_8 
REMARK    7  A    between atoms: C7_8  and  C8_9 
REMARK    8  A    between atoms: C8_9  and  C9_10 
REMARK    9  A    between atoms: C9_10  and  C10_12 
REMARK   10  A    between atoms: C10_12  and  C11_14 
REMARK   11  A    between atoms: C11_14  and  O4_15 
REMARK   12  A    between atoms: C17_22  and  O5_23 
REMARK   13  A    between atoms: C21_28  and  O6_29 
REMARK   14  A    between atoms: C23_32  and  O7_33 
ROOT
HETATM    1  C12 UNL     1      20.170  37.993  21.693  1.00  0.00     0.028 C 
HETATM    2  C13 UNL     1      20.993  37.320  22.805  1.00  0.00     0.009 C 
HETATM    3  C14 UNL     1      21.364  38.468  23.682  1.00  0.00     0.006 C 
HETATM    4  C15 UNL     1      20.073  39.320  23.538  1.00  0.00     0.001 C 
HETATM    5  C16 UNL     1      20.288  40.490  24.384  1.00  0.00     0.024 C 
HETATM    6  C17 UNL     1      19.108  41.156  25.015  1.00  0.00     0.127 C 
HETATM    7  C18 UNL     1      19.684  41.850  26.284  1.00  0.00     0.067 C 
HETATM    8  C19 UNL     1      20.466  42.979  25.626  1.00  0.00    -0.068 C 
HETATM    9  C20 UNL     1      20.069  44.183  25.871  1.00  0.00     0.008 C 
HETATM   10  C21 UNL     1      20.711  45.396  25.316  1.00  0.00     0.143 C 
HETATM   11  C22 UNL     1      21.249  44.982  23.959  1.00  0.00     0.068 C 
HETATM   12  C23 UNL     1      22.214  43.798  24.139  1.00  0.00     0.133 C 
HETATM   13  C24 UNL     1      21.602  42.609  24.767  1.00  0.00     0.009 C 
HETATM   14  C25 UNL     1      22.659  42.156  25.835  1.00  0.00     0.023 C 
HETATM   15  C26 UNL     1      21.359  41.440  23.893  1.00  0.00     0.007 C 
HETATM   16  C27 UNL     1      21.111  41.681  22.449  1.00  0.00     0.007 C 
HETATM   17  C28 UNL     1      20.988  40.436  21.614  1.00  0.00     0.010 C 
HETATM   18  C29 UNL     1      20.024  39.427  22.042  1.00  0.00    -0.034 C 
HETATM   19  C30 UNL     1      18.637  39.866  21.557  1.00  0.00     0.016 C 
ENDROOT
BRANCH   1  20
HETATM   20  C2  UNL     1      20.577  37.452  20.409  1.00  0.00     0.061 C 
HETATM   21  C3  UNL     1      19.282  37.419  19.473  1.00  0.00     0.046 C 
BRANCH  20  22
HETATM   22  O1  UNL     1      20.798  36.091  20.495  1.00  0.00    -0.385 OA
HETATM   23  C1  UNL     1      20.240  35.238  19.639  1.00  0.00     0.202 C 
ENDBRANCH  20  22
BRANCH  20  24
HETATM   24  C4  UNL     1      21.559  38.022  19.502  1.00  0.00     0.038 C 
BRANCH  24  25
HETATM   25  C5  UNL     1      21.173  38.727  18.251  1.00  0.00     0.003 C 
BRANCH  25  26
HETATM   26  C6  UNL     1      21.831  40.076  18.020  1.00  0.00     0.001 C 
BRANCH  26  27
HETATM   27  C7  UNL     1      22.704  40.076  16.811  1.00  0.00     0.008 C 
BRANCH  27  28
HETATM   28  C8  UNL     1      23.890  39.193  17.019  1.00  0.00     0.087 C 
BRANCH  28  29
HETATM   29  C9  UNL     1      24.143  38.240  15.917  1.00  0.00     0.197 C 
HETATM   30  O2  UNL     1      24.531  38.545  14.764  1.00  0.00    -0.289 OA
BRANCH  29  31
HETATM   31  C10 UNL     1      23.936  36.799  16.143  1.00  0.00     0.217 C 
HETATM   32  O3  UNL     1      23.615  36.402  17.279  1.00  0.00    -0.287 OA
BRANCH  31  33
HETATM   33  C11 UNL     1      24.097  35.816  15.073  1.00  0.00     0.251 C 
BRANCH  33  34
HETATM   34  O4  UNL     1      23.239  36.059  14.014  1.00  0.00    -0.393 OA
ATOM     35  H4  UNL     1      22.501  35.461  14.010  1.00  0.00     0.210 HD
ENDBRANCH  33  34
ENDBRANCH  31  33
ENDBRANCH  29  31
ENDBRANCH  28  29
ENDBRANCH  27  28
ENDBRANCH  26  27
ENDBRANCH  25  26
ENDBRANCH  24  25
ENDBRANCH  20  24
ENDBRANCH   1  20
BRANCH   6  36
HETATM   36  O5  UNL     1      18.576  42.236  24.329  1.00  0.00    -0.395 OA
ATOM     37  H5  UNL     1      17.658  42.172  24.093  1.00  0.00     0.210 HD
ENDBRANCH   6  36
BRANCH  12  38
HETATM   38  O7  UNL     1      23.240  44.364  24.951  1.00  0.00    -0.394 OA
ATOM     39  H7  UNL     1      22.849  44.337  25.817  1.00  0.00     0.210 HD
ENDBRANCH  12  38
BRANCH  10  40
HETATM   40  O6  UNL     1      21.667  45.940  26.128  1.00  0.00    -0.392 OA
ATOM     41  H6  UNL     1      21.445  45.921  27.052  1.00  0.00     0.210 HD
ENDBRANCH  10  40
TORSDOF 14
ENDMDL
MODEL 2
REMARK VINA RESULT: -7.915465414      1.911      2.716
REMARK  14 active torsions:
REMARK  status: ('A' for Active; 'I' for Inactive)
REMARK    1  A    between atoms: O1_2  and  C2_3 
REMARK    2  A    between atoms: C2_3  and  C4_5 
REMARK    3  A    between atoms: C2_3  and  C12_17 
REMARK    4  A    between atoms: C4_5  and  C5_6 
REMARK    5  A    between atoms: C5_6  and  C6_7 
REMARK    6  A    between atoms: C6_7  and  C7_8 
REMARK    7  A    between atoms: C7_8  and  C8_9 
REMARK    8  A    between atoms: C8_9  and  C9_10 
REMARK    9  A    between atoms: C9_10  and  C10_12 
REMARK   10  A    between atoms: C10_12  and  C11_14 
REMARK   11  A    between atoms: C11_14  and  O4_15 
REMARK   12  A    between atoms: C17_22  and  O5_23 
REMARK   13  A    between atoms: C21_28  and  O6_29 
REMARK   14  A    between atoms: C23_32  and  O7_33 
ROOT
HETATM    1  C12 UNL     1      19.808  38.819  20.365  1.00  0.00     0.028 C 
HETATM    2  C13 UNL     1      18.528  38.499  21.156  1.00  0.00     0.009 C 
HETATM    3  C14 UNL     1      18.332  39.728  21.979  1.00  0.00     0.006 C 
HETATM    4  C15 UNL     1      18.845  40.789  20.967  1.00  0.00     0.001 C 
HETATM    5  C16 UNL     1      18.683  42.074  21.643  1.00  0.00     0.024 C 
HETATM    6  C17 UNL     1      18.432  43.298  20.824  1.00  0.00     0.127 C 
HETATM    7  C18 UNL     1      17.678  44.263  21.785  1.00  0.00     0.067 C 
HETATM    8  C19 UNL     1      18.821  44.643  22.716  1.00  0.00    -0.068 C 
HETATM    9  C20 UNL     1      19.187  45.881  22.716  1.00  0.00     0.008 C 
HETATM   10  C21 UNL     1      20.278  46.423  23.557  1.00  0.00     0.143 C 
HETATM   11  C22 UNL     1      21.271  45.286  23.710  1.00  0.00     0.068 C 
HETATM   12  C23 UNL     1      20.557  44.072  24.328  1.00  0.00     0.133 C 
HETATM   13  C24 UNL     1      19.415  43.574  23.535  1.00  0.00     0.009 C 
HETATM   14  C25 UNL     1      18.286  43.340  24.599  1.00  0.00     0.023 C 
HETATM   15  C26 UNL     1      19.600  42.287  22.828  1.00  0.00     0.007 C 
HETATM   16  C27 UNL     1      20.972  41.910  22.403  1.00  0.00     0.007 C 
HETATM   17  C28 UNL     1      21.089  40.539  21.796  1.00  0.00     0.010 C 
HETATM   18  C29 UNL     1      20.201  40.213  20.684  1.00  0.00    -0.034 C 
HETATM   19  C30 UNL     1      20.807  40.809  19.407  1.00  0.00     0.016 C 
ENDROOT
BRANCH   1  20
HETATM   20  C2  UNL     1      20.673  37.653  20.373  1.00  0.00     0.061 C 
HETATM   21  C3  UNL     1      20.100  36.628  19.289  1.00  0.00     0.046 C 
BRANCH  20  22
HETATM   22  O1  UNL     1      20.460  36.890  21.504  1.00  0.00    -0.385 OA
HETATM   23  C1  UNL     1      20.546  35.562  21.476  1.00  0.00     0.202 C 
ENDBRANCH  20  22
BRANCH  20  24
HETATM   24  C4  UNL     1      22.091  37.625  20.057  1.00  0.00     0.038 C 
BRANCH  24  25
HETATM   25  C5  UNL     1      22.595  37.429  18.671  1.00  0.00     0.003 C 
BRANCH  25  26
HETATM   26  C6  UNL     1      23.612  38.447  18.185  1.00  0.00     0.001 C 
BRANCH  26  27
HETATM   27  C7  UNL     1      23.551  38.640  16.708  1.00  0.00     0.008 C 
BRANCH  27  28
HETATM   28  C8  UNL     1      24.686  37.935  16.039  1.00  0.00     0.087 C 
BRANCH  28  29
HETATM   29  C9  UNL     1      24.290  37.086  14.896  1.00  0.00     0.197 C 
HETATM   30  O2  UNL     1      24.390  37.398  13.686  1.00  0.00    -0.289 OA
BRANCH  29  31
HETATM   31  C10 UNL     1      23.723  35.749  15.149  1.00  0.00     0.217 C 
HETATM   32  O3  UNL     1      22.853  35.303  14.378  1.00  0.00    -0.287 OA
BRANCH  31  33
HETATM   33  C11 UNL     1      24.152  34.927  16.278  1.00  0.00     0.251 C 
BRANCH  33  34
HETATM   34  O4  UNL     1      23.195  33.990  16.630  1.00  0.00    -0.393 OA
ATOM     35  H4  UNL     1      23.564  33.280  17.142  1.00  0.00     0.210 HD
ENDBRANCH  33  34
ENDBRANCH  31  33
ENDBRANCH  29  31
ENDBRANCH  28  29
ENDBRANCH  27  28
ENDBRANCH  26  27
ENDBRANCH  25  26
ENDBRANCH  24  25
ENDBRANCH  20  24
ENDBRANCH   1  20
BRANCH   6  36
HETATM   36  O5  UNL     1      19.547  44.054  20.496  1.00  0.00    -0.395 OA
ATOM     37  H5  UNL     1      19.877  44.631  21.174  1.00  0.00     0.210 HD
ENDBRANCH   6  36
BRANCH  12  38
HETATM   38  O7  UNL     1      20.149  44.576  25.597  1.00  0.00    -0.394 OA
ATOM     39  H7  UNL     1      19.225  44.355  25.614  1.00  0.00     0.210 HD
ENDBRANCH  12  38
BRANCH  10  40
HETATM   40  O6  UNL     1      19.857  46.931  24.754  1.00  0.00    -0.392 OA
ATOM     41  H6  UNL     1      20.376  47.662  25.067  1.00  0.00     0.210 HD
ENDBRANCH  10  40
TORSDOF 14
ENDMDL
MODEL 3
REMARK VINA RESULT: -7.637696125      2.045      3.034
REMARK  14 active torsions:
REMARK  status: ('A' for Active; 'I' for Inactive)
REMARK    1  A    between atoms: O1_2  and  C2_3 
REMARK    2  A    between atoms: C2_3  and  C4_5 
REMARK    3  A    between atoms: C2_3  and  C12_17 
REMARK    4  A    between atoms: C4_5  and  C5_6 
REMARK    5  A    between atoms: C5_6  and  C6_7 
REMARK    6  A    between atoms: C6_7  and  C7_8 
REMARK    7  A    between atoms: C7_8  and  C8_9 
REMARK    8  A    between atoms: C8_9  and  C9_10 
REMARK    9  A    between atoms: C9_10  and  C10_12 
REMARK   10  A    between atoms: C10_12  and  C11_14 
REMARK   11  A    between atoms: C11_14  and  O4_15 
REMARK   12  A    between atoms: C17_22  and  O5_23 
REMARK   13  A    between atoms: C21_28  and  O6_29 
REMARK   14  A    between atoms: C23_32  and  O7_33 
ROOT
HETATM    1  C12 UNL     1      19.681  38.992  21.004  1.00  0.00     0.028 C 
HETATM    2  C13 UNL     1      18.328  38.794  21.708  1.00  0.00     0.009 C 
HETATM    3  C14 UNL     1      18.085  40.125  22.337  1.00  0.00     0.006 C 
HETATM    4  C15 UNL     1      18.710  41.035  21.244  1.00  0.00     0.001 C 
HETATM    5  C16 UNL     1      18.515  42.401  21.723  1.00  0.00     0.024 C 
HETATM    6  C17 UNL     1      18.366  43.505  20.727  1.00  0.00     0.127 C 
HETATM    7  C18 UNL     1      17.548  44.598  21.476  1.00  0.00     0.067 C 
HETATM    8  C19 UNL     1      18.609  45.090  22.450  1.00  0.00    -0.068 C 
HETATM    9  C20 UNL     1      19.000  46.313  22.318  1.00  0.00     0.008 C 
HETATM   10  C21 UNL     1      20.022  46.954  23.176  1.00  0.00     0.143 C 
HETATM   11  C22 UNL     1      20.972  45.840  23.571  1.00  0.00     0.068 C 
HETATM   12  C23 UNL     1      20.180  44.728  24.278  1.00  0.00     0.133 C 
HETATM   13  C24 UNL     1      19.104  44.136  23.456  1.00  0.00     0.009 C 
HETATM   14  C25 UNL     1      17.877  44.059  24.433  1.00  0.00     0.023 C 
HETATM   15  C26 UNL     1      19.324  42.764  22.949  1.00  0.00     0.007 C 
HETATM   16  C27 UNL     1      20.721  42.320  22.708  1.00  0.00     0.007 C 
HETATM   17  C28 UNL     1      20.863  40.879  22.304  1.00  0.00     0.010 C 
HETATM   18  C29 UNL     1      20.073  40.413  21.168  1.00  0.00    -0.034 C 
HETATM   19  C30 UNL     1      20.806  40.825  19.884  1.00  0.00     0.016 C 
ENDROOT
BRANCH   1  20
HETATM   20  C2  UNL     1      20.517  37.831  21.248  1.00  0.00     0.061 C 
HETATM   21  C3  UNL     1      19.625  36.758  22.030  1.00  0.00     0.046 C 
BRANCH  20  22
HETATM   22  O1  UNL     1      21.439  38.089  22.244  1.00  0.00    -0.385 OA
HETATM   23  C1  UNL     1      21.426  37.422  23.397  1.00  0.00     0.202 C 
ENDBRANCH  20  22
BRANCH  20  24
HETATM   24  C4  UNL     1      21.145  36.989  20.244  1.00  0.00     0.038 C 
BRANCH  24  25
HETATM   25  C5  UNL     1      21.799  37.550  19.032  1.00  0.00     0.003 C 
BRANCH  25  26
HETATM   26  C6  UNL     1      23.317  37.603  19.063  1.00  0.00     0.001 C 
BRANCH  26  27
HETATM   27  C7  UNL     1      23.864  38.588  18.086  1.00  0.00     0.008 C 
BRANCH  27  28
HETATM   28  C8  UNL     1      23.236  38.402  16.744  1.00  0.00     0.087 C 
BRANCH  28  29
HETATM   29  C9  UNL     1      24.120  37.779  15.736  1.00  0.00     0.197 C 
HETATM   30  O2  UNL     1      25.109  38.327  15.195  1.00  0.00    -0.289 OA
BRANCH  29  31
HETATM   31  C10 UNL     1      23.857  36.397  15.296  1.00  0.00     0.217 C 
HETATM   32  O3  UNL     1      23.154  36.205  14.287  1.00  0.00    -0.287 OA
BRANCH  31  33
HETATM   33  C11 UNL     1      24.398  35.242  16.009  1.00  0.00     0.251 C 
BRANCH  33  34
HETATM   34  O4  UNL     1      23.429  34.593  16.755  1.00  0.00    -0.393 OA
ATOM     35  H4  UNL     1      22.862  34.057  16.213  1.00  0.00     0.210 HD
ENDBRANCH  33  34
ENDBRANCH  31  33
ENDBRANCH  29  31
ENDBRANCH  28  29
ENDBRANCH  27  28
ENDBRANCH  26  27
ENDBRANCH  25  26
ENDBRANCH  24  25
ENDBRANCH  20  24
ENDBRANCH   1  20
BRANCH   6  36
HETATM   36  O5  UNL     1      19.521  44.199  20.406  1.00  0.00    -0.395 OA
ATOM     37  H5  UNL     1      19.547  44.592  19.541  1.00  0.00     0.210 HD
ENDBRANCH   6  36
BRANCH  12  38
HETATM   38  O7  UNL     1      19.669  45.402  25.425  1.00  0.00    -0.394 OA
ATOM     39  H7  UNL     1      19.057  46.019  25.040  1.00  0.00     0.210 HD
ENDBRANCH  12  38
BRANCH  10  40
HETATM   40  O6  UNL     1      19.505  47.624  24.250  1.00  0.00    -0.392 OA
ATOM     41  H6  UNL     1      18.595  47.876  24.146  1.00  0.00     0.210 HD
ENDBRANCH  10  40
TORSDOF 14
ENDMDL
MODEL 4
REMARK VINA RESULT: -7.505158739      1.622      2.385
REMARK  14 active torsions:
REMARK  status: ('A' for Active; 'I' for Inactive)
REMARK    1  A    between atoms: O1_2  and  C2_3 
REMARK    2  A    between atoms: C2_3  and  C4_5 
REMARK    3  A    between atoms: C2_3  and  C12_17 
REMARK    4  A    between atoms: C4_5  and  C5_6 
REMARK    5  A    between atoms: C5_6  and  C6_7 
REMARK    6  A    between atoms: C6_7  and  C7_8 
REMARK    7  A    between atoms: C7_8  and  C8_9 
REMARK    8  A    between atoms: C8_9  and  C9_10 
REMARK    9  A    between atoms: C9_10  and  C10_12 
REMARK   10  A    between atoms: C10_12  and  C11_14 
REMARK   11  A    between atoms: C11_14  and  O4_15 
REMARK   12  A    between atoms: C17_22  and  O5_23 
REMARK   13  A    between atoms: C21_28  and  O6_29 
REMARK   14  A    between atoms: C23_32  and  O7_33 
ROOT
HETATM    1  C12 UNL     1      19.941  39.085  20.651  1.00  0.00     0.028 C 
HETATM    2  C13 UNL     1      18.536  38.841  21.228  1.00  0.00     0.009 C 
HETATM    3  C14 UNL     1      18.417  39.905  22.268  1.00  0.00     0.006 C 
HETATM    4  C15 UNL     1      19.206  41.038  21.556  1.00  0.00     0.001 C 
HETATM    5  C16 UNL     1      19.147  42.178  22.467  1.00  0.00     0.024 C 
HETATM    6  C17 UNL     1      19.186  43.561  21.902  1.00  0.00     0.127 C 
HETATM    7  C18 UNL     1      18.462  44.437  22.966  1.00  0.00     0.067 C 
HETATM    8  C19 UNL     1      19.517  44.433  24.063  1.00  0.00    -0.068 C 
HETATM    9  C20 UNL     1      20.057  45.568  24.359  1.00  0.00     0.008 C 
HETATM   10  C21 UNL     1      21.097  45.746  25.397  1.00  0.00     0.143 C 
HETATM   11  C22 UNL     1      21.885  44.450  25.404  1.00  0.00     0.068 C 
HETATM   12  C23 UNL     1      20.927  43.279  25.681  1.00  0.00     0.133 C 
HETATM   13  C24 UNL     1      19.837  43.142  24.693  1.00  0.00     0.009 C 
HETATM   14  C25 UNL     1      18.557  42.903  25.569  1.00  0.00     0.023 C 
HETATM   15  C26 UNL     1      19.923  42.002  23.755  1.00  0.00     0.007 C 
HETATM   16  C27 UNL     1      21.268  41.486  23.396  1.00  0.00     0.007 C 
HETATM   17  C28 UNL     1      21.262  40.257  22.529  1.00  0.00     0.010 C 
HETATM   18  C29 UNL     1      20.489  40.305  21.292  1.00  0.00    -0.034 C 
HETATM   19  C30 UNL     1      21.336  41.023  20.234  1.00  0.00     0.016 C 
ENDROOT
BRANCH   1  20
HETATM   20  C2  UNL     1      20.618  37.810  20.499  1.00  0.00     0.061 C 
HETATM   21  C3  UNL     1      19.896  37.026  19.308  1.00  0.00     0.046 C 
BRANCH  20  22
HETATM   22  O1  UNL     1      20.291  36.952  21.531  1.00  0.00    -0.385 OA
HETATM   23  C1  UNL     1      20.468  35.637  21.428  1.00  0.00     0.202 C 
ENDBRANCH  20  22
BRANCH  20  24
HETATM   24  C4  UNL     1      22.016  37.607  20.156  1.00  0.00     0.038 C 
BRANCH  24  25
HETATM   25  C5  UNL     1      22.470  37.402  18.755  1.00  0.00     0.003 C 
BRANCH  25  26
HETATM   26  C6  UNL     1      23.574  38.327  18.274  1.00  0.00     0.001 C 
BRANCH  26  27
HETATM   27  C7  UNL     1      23.495  38.580  16.807  1.00  0.00     0.008 C 
BRANCH  27  28
HETATM   28  C8  UNL     1      24.644  37.939  16.099  1.00  0.00     0.087 C 
BRANCH  28  29
HETATM   29  C9  UNL     1      24.259  37.102  14.943  1.00  0.00     0.197 C 
HETATM   30  O2  UNL     1      24.349  37.437  13.738  1.00  0.00    -0.289 OA
BRANCH  29  31
HETATM   31  C10 UNL     1      23.719  35.750  15.174  1.00  0.00     0.217 C 
HETATM   32  O3  UNL     1      22.865  35.296  14.390  1.00  0.00    -0.287 OA
BRANCH  31  33
HETATM   33  C11 UNL     1      24.154  34.924  16.298  1.00  0.00     0.251 C 
BRANCH  33  34
HETATM   34  O4  UNL     1      23.192  33.998  16.663  1.00  0.00    -0.393 OA
ATOM     35  H4  UNL     1      23.040  33.995  17.601  1.00  0.00     0.210 HD
ENDBRANCH  33  34
ENDBRANCH  31  33
ENDBRANCH  29  31
ENDBRANCH  28  29
ENDBRANCH  27  28
ENDBRANCH  26  27
ENDBRANCH  25  26
ENDBRANCH  24  25
ENDBRANCH  20  24
ENDBRANCH   1  20
BRANCH   6  36
HETATM   36  O5  UNL     1      20.432  44.165  21.850  1.00  0.00    -0.395 OA
ATOM     37  H5  UNL     1      20.450  45.062  21.536  1.00  0.00     0.210 HD
ENDBRANCH   6  36
BRANCH  12  38
HETATM   38  O7  UNL     1      20.435  43.592  26.982  1.00  0.00    -0.394 OA
ATOM     39  H7  UNL     1      21.237  43.745  27.469  1.00  0.00     0.210 HD
ENDBRANCH  12  38
BRANCH  10  40
HETATM   40  O6  UNL     1      20.602  46.079  26.627  1.00  0.00    -0.392 OA
ATOM     41  H6  UNL     1      20.990  46.863  26.999  1.00  0.00     0.210 HD
ENDBRANCH  10  40
TORSDOF 14
ENDMDL
MODEL 5
REMARK VINA RESULT: -7.432951771      2.446      2.879
REMARK  14 active torsions:
REMARK  status: ('A' for Active; 'I' for Inactive)
REMARK    1  A    between atoms: O1_2  and  C2_3 
REMARK    2  A    between atoms: C2_3  and  C4_5 
REMARK    3  A    between atoms: C2_3  and  C12_17 
REMARK    4  A    between atoms: C4_5  and  C5_6 
REMARK    5  A    between atoms: C5_6  and  C6_7 
REMARK    6  A    between atoms: C6_7  and  C7_8 
REMARK    7  A    between atoms: C7_8  and  C8_9 
REMARK    8  A    between atoms: C8_9  and  C9_10 
REMARK    9  A    between atoms: C9_10  and  C10_12 
REMARK   10  A    between atoms: C10_12  and  C11_14 
REMARK   11  A    between atoms: C11_14  and  O4_15 
REMARK   12  A    between atoms: C17_22  and  O5_23 
REMARK   13  A    between atoms: C21_28  and  O6_29 
REMARK   14  A    between atoms: C23_32  and  O7_33 
ROOT
HETATM    1  C12 UNL     1      20.213  38.412  21.876  1.00  0.00     0.028 C 
HETATM    2  C13 UNL     1      21.360  38.866  22.796  1.00  0.00     0.009 C 
HETATM    3  C14 UNL     1      21.148  40.341  22.884  1.00  0.00     0.006 C 
HETATM    4  C15 UNL     1      19.595  40.371  22.852  1.00  0.00     0.001 C 
HETATM    5  C16 UNL     1      19.237  41.783  22.961  1.00  0.00     0.024 C 
HETATM    6  C17 UNL     1      17.943  42.155  23.611  1.00  0.00     0.127 C 
HETATM    7  C18 UNL     1      18.176  43.597  24.148  1.00  0.00     0.067 C 
HETATM    8  C19 UNL     1      18.188  44.362  22.832  1.00  0.00    -0.068 C 
HETATM    9  C20 UNL     1      17.242  45.221  22.648  1.00  0.00     0.008 C 
HETATM   10  C21 UNL     1      17.100  46.050  21.430  1.00  0.00     0.143 C 
HETATM   11  C22 UNL     1      17.655  45.203  20.300  1.00  0.00     0.068 C 
HETATM   12  C23 UNL     1      19.109  44.821  20.623  1.00  0.00     0.133 C 
HETATM   13  C24 UNL     1      19.270  44.062  21.880  1.00  0.00     0.009 C 
HETATM   14  C25 UNL     1      20.495  44.745  22.584  1.00  0.00     0.023 C 
HETATM   15  C26 UNL     1      19.602  42.625  21.758  1.00  0.00     0.007 C 
HETATM   16  C27 UNL     1      19.140  41.897  20.549  1.00  0.00     0.007 C 
HETATM   17  C28 UNL     1      19.617  40.474  20.450  1.00  0.00     0.010 C 
HETATM   18  C29 UNL     1      19.367  39.596  21.588  1.00  0.00    -0.034 C 
HETATM   19  C30 UNL     1      17.919  39.097  21.490  1.00  0.00     0.016 C 
ENDROOT
BRANCH   1  20
HETATM   20  C2  UNL     1      20.730  37.462  20.908  1.00  0.00     0.061 C 
HETATM   21  C3  UNL     1      19.668  37.370  19.717  1.00  0.00     0.046 C 
BRANCH  20  22
HETATM   22  O1  UNL     1      20.616  36.168  21.379  1.00  0.00    -0.385 OA
HETATM   23  C1  UNL     1      20.421  35.141  20.556  1.00  0.00     0.202 C 
ENDBRANCH  20  22
BRANCH  20  24
HETATM   24  C4  UNL     1      21.972  37.575  20.163  1.00  0.00     0.038 C 
BRANCH  24  25
HETATM   25  C5  UNL     1      22.016  38.052  18.755  1.00  0.00     0.003 C 
BRANCH  25  26
HETATM   26  C6  UNL     1      22.574  39.449  18.546  1.00  0.00     0.001 C 
BRANCH  26  27
HETATM   27  C7  UNL     1      23.603  39.487  17.468  1.00  0.00     0.008 C 
BRANCH  27  28
HETATM   28  C8  UNL     1      24.068  38.107  17.135  1.00  0.00     0.087 C 
BRANCH  28  29
HETATM   29  C9  UNL     1      24.146  37.821  15.687  1.00  0.00     0.197 C 
HETATM   30  O2  UNL     1      24.404  38.659  14.790  1.00  0.00    -0.289 OA
BRANCH  29  31
HETATM   31  C10 UNL     1      23.907  36.449  15.205  1.00  0.00     0.217 C 
HETATM   32  O3  UNL     1      23.174  36.272  14.214  1.00  0.00    -0.287 OA
BRANCH  31  33
HETATM   33  C11 UNL     1      24.506  35.285  15.854  1.00  0.00     0.251 C 
BRANCH  33  34
HETATM   34  O4  UNL     1      23.595  34.607  16.646  1.00  0.00    -0.393 OA
ATOM     35  H4  UNL     1      22.816  35.124  16.814  1.00  0.00     0.210 HD
ENDBRANCH  33  34
ENDBRANCH  31  33
ENDBRANCH  29  31
ENDBRANCH  28  29
ENDBRANCH  27  28
ENDBRANCH  26  27
ENDBRANCH  25  26
ENDBRANCH  24  25
ENDBRANCH  20  24
ENDBRANCH   1  20
BRANCH   6  36
HETATM   36  O5  UNL     1      16.866  42.350  22.761  1.00  0.00    -0.395 OA
ATOM     37  H5  UNL     1      16.423  43.187  22.831  1.00  0.00     0.210 HD
ENDBRANCH   6  36
BRANCH  12  38
HETATM   38  O7  UNL     1      19.751  46.092  20.679  1.00  0.00    -0.394 OA
ATOM     39  H7  UNL     1      20.306  46.072  19.908  1.00  0.00     0.210 HD
ENDBRANCH  12  38
BRANCH  10  40
HETATM   40  O6  UNL     1      17.694  47.278  21.521  1.00  0.00    -0.392 OA
ATOM     41  H6  UNL     1      18.401  47.412  20.900  1.00  0.00     0.210 HD
ENDBRANCH  10  40
TORSDOF 14
ENDMDL
