MODEL 1
REMARK VINA RESULT: -7.835259994      0.000      0.000
REMARK  12 active torsions:
REMARK  status: ('A' for Active; 'I' for Inactive)
REMARK    1  A    between atoms: C5_5  and  O1_6 
REMARK    2  A    between atoms: C7_8  and  C8_9 
REMARK    3  A    between atoms: C8_9  and  C9_10 
REMARK    4  A    between atoms: C10_11  and  C12_13 
REMARK    5  A    between atoms: C13_14  and  C14_15 
REMARK    6  A    between atoms: C18_19  and  O2_21 
REMARK    7  A    between atoms: C20_23  and  C21_24 
REMARK       I    between atoms: C21_24  and  N1_26 
REMARK    8  A    between atoms: N1_26  and  C22_28 
REMARK    9  A    between atoms: C22_28  and  C23_29 
REMARK   10  A    between atoms: C22_28  and  C26_36 
REMARK   11  A    between atoms: C23_29  and  C24_30 
REMARK       I    between atoms: C24_30  and  N2_32 
REMARK   12  A    between atoms: N2_32  and  O5_34 
ROOT
HETATM    1  C14 UNL     1      19.957  36.745  22.312  1.00  0.00     0.014 C 
HETATM    2  C15 UNL     1      20.367  37.644  21.443  1.00  0.00    -0.021 C 
HETATM    3  C16 UNL     1      20.034  39.067  21.537  1.00  0.00     0.049 C 
HETATM    4  C17 UNL     1      21.220  39.890  21.046  1.00  0.00     0.044 C 
HETATM    5  C18 UNL     1      21.371  39.764  19.538  1.00  0.00     0.076 C 
HETATM    6  C19 UNL     1      20.060  39.914  18.834  1.00  0.00     0.047 C 
HETATM    7  C20 UNL     1      22.144  38.531  19.270  1.00  0.00     0.178 C 
HETATM    8  S1  UNL     1      21.379  37.109  20.049  1.00  0.00    -0.117 SA
ENDROOT
BRANCH   1   9
HETATM    9  C13 UNL     1      19.131  37.023  23.460  1.00  0.00     0.002 C 
HETATM   10  C12 UNL     1      19.442  36.599  24.647  1.00  0.00     0.006 C 
BRANCH  10  11
HETATM   11  C10 UNL     1      18.609  36.870  25.799  1.00  0.00    -0.066 C 
HETATM   12  C9  UNL     1      18.933  37.641  26.813  1.00  0.00    -0.019 C 
HETATM   13  C11 UNL     1      17.275  36.150  25.813  1.00  0.00     0.048 C 
BRANCH  12  14
HETATM   14  C8  UNL     1      20.157  38.380  26.926  1.00  0.00     0.039 C 
BRANCH  14  15
HETATM   15  C7  UNL     1      20.424  39.544  26.081  1.00  0.00     0.046 C 
HETATM   16  C2  UNL     1      21.526  39.545  25.136  1.00  0.00    -0.082 C 
HETATM   17  C1  UNL     1      22.411  38.667  24.807  1.00  0.00     0.015 C 
HETATM   18  C3  UNL     1      21.425  40.920  24.513  1.00  0.00     0.036 C 
HETATM   19  C4  UNL     1      21.097  41.781  25.712  1.00  0.00     0.037 C 
HETATM   20  C5  UNL     1      20.735  40.820  26.854  1.00  0.00     0.129 C 
BRANCH  20  21
HETATM   21  O1  UNL     1      19.666  41.244  27.592  1.00  0.00    -0.390 OA
HETATM   22  C6  UNL     1      18.694  41.897  26.842  1.00  0.00     0.202 C 
ENDBRANCH  20  21
ENDBRANCH  14  15
ENDBRANCH  12  14
ENDBRANCH  10  11
ENDBRANCH   1   9
BRANCH   7  23
HETATM   23  C21 UNL     1      22.402  38.243  17.835  1.00  0.00     0.235 C 
HETATM   24  O3  UNL     1      21.607  38.709  16.954  1.00  0.00    -0.272 OA
HETATM   25  N1  UNL     1      23.494  37.475  17.448  1.00  0.00    -0.345 N 
ATOM     26  H1  UNL     1      24.143  37.097  18.138  1.00  0.00     0.163 HD
BRANCH  25  27
HETATM   27  C22 UNL     1      23.685  37.221  15.984  1.00  0.00     0.194 C 
BRANCH  27  28
HETATM   28  C23 UNL     1      24.321  35.862  15.937  1.00  0.00     0.141 C 
BRANCH  28  29
HETATM   29  C24 UNL     1      23.473  34.752  15.518  1.00  0.00     0.243 C 
HETATM   30  O4  UNL     1      23.270  33.760  16.236  1.00  0.00    -0.271 OA
HETATM   31  N2  UNL     1      22.863  34.818  14.239  1.00  0.00    -0.235 N 
ATOM     32  H2  UNL     1      23.015  35.623  13.632  1.00  0.00     0.197 HD
BRANCH  31  33
HETATM   33  O5  UNL     1      22.080  33.799  13.841  1.00  0.00    -0.283 OA
HETATM   34  C25 UNL     1      21.692  33.907  12.502  1.00  0.00     0.237 C 
ENDBRANCH  31  33
ENDBRANCH  28  29
ENDBRANCH  27  28
BRANCH  27  35
HETATM   35  C26 UNL     1      24.514  38.318  15.457  1.00  0.00     0.197 C 
HETATM   36  O6  UNL     1      25.761  38.257  15.574  1.00  0.00    -0.646 OA
HETATM   37  O7  UNL     1      23.980  39.407  14.844  1.00  0.00    -0.646 OA
ENDBRANCH  27  35
ENDBRANCH  25  27
ENDBRANCH   7  23
BRANCH   5  38
HETATM   38  O2  UNL     1      22.195  40.850  19.141  1.00  0.00    -0.389 OA
ATOM     39  H2  UNL     1      22.345  40.732  18.210  1.00  0.00     0.210 HD
ENDBRANCH   5  38
TORSDOF 12
ENDMDL
MODEL 2
REMARK VINA RESULT: -7.635219018      2.802      4.550
REMARK  12 active torsions:
REMARK  status: ('A' for Active; 'I' for Inactive)
REMARK    1  A    between atoms: C5_5  and  O1_6 
REMARK    2  A    between atoms: C7_8  and  C8_9 
REMARK    3  A    between atoms: C8_9  and  C9_10 
REMARK    4  A    between atoms: C10_11  and  C12_13 
REMARK    5  A    between atoms: C13_14  and  C14_15 
REMARK    6  A    between atoms: C18_19  and  O2_21 
REMARK    7  A    between atoms: C20_23  and  C21_24 
REMARK       I    between atoms: C21_24  and  N1_26 
REMARK    8  A    between atoms: N1_26  and  C22_28 
REMARK    9  A    between atoms: C22_28  and  C23_29 
REMARK   10  A    between atoms: C22_28  and  C26_36 
REMARK   11  A    between atoms: C23_29  and  C24_30 
REMARK       I    between atoms: C24_30  and  N2_32 
REMARK   12  A    between atoms: N2_32  and  O5_34 
ROOT
HETATM    1  C14 UNL     1      20.551  36.451  22.452  1.00  0.00     0.014 C 
HETATM    2  C15 UNL     1      20.753  37.406  21.570  1.00  0.00    -0.021 C 
HETATM    3  C16 UNL     1      20.169  38.745  21.683  1.00  0.00     0.049 C 
HETATM    4  C17 UNL     1      21.162  39.770  21.147  1.00  0.00     0.044 C 
HETATM    5  C18 UNL     1      21.272  39.668  19.634  1.00  0.00     0.076 C 
HETATM    6  C19 UNL     1      19.929  39.572  18.985  1.00  0.00     0.047 C 
HETATM    7  C20 UNL     1      22.247  38.597  19.329  1.00  0.00     0.178 C 
HETATM    8  S1  UNL     1      21.788  37.061  20.134  1.00  0.00    -0.117 SA
ENDROOT
BRANCH   1   9
HETATM    9  C13 UNL     1      19.736  36.577  23.634  1.00  0.00     0.002 C 
HETATM   10  C12 UNL     1      18.882  35.662  23.979  1.00  0.00     0.006 C 
BRANCH  10  11
HETATM   11  C10 UNL     1      18.056  35.793  25.161  1.00  0.00    -0.066 C 
HETATM   12  C9  UNL     1      17.338  34.834  25.701  1.00  0.00    -0.019 C 
HETATM   13  C11 UNL     1      18.017  37.181  25.769  1.00  0.00     0.048 C 
BRANCH  12  14
HETATM   14  C8  UNL     1      17.286  33.480  25.232  1.00  0.00     0.039 C 
BRANCH  14  15
HETATM   15  C7  UNL     1      18.498  32.769  24.822  1.00  0.00     0.046 C 
HETATM   16  C2  UNL     1      18.683  32.339  23.448  1.00  0.00    -0.082 C 
HETATM   17  C1  UNL     1      17.974  32.461  22.378  1.00  0.00     0.015 C 
HETATM   18  C3  UNL     1      20.032  31.656  23.496  1.00  0.00     0.036 C 
HETATM   19  C4  UNL     1      19.955  30.908  24.808  1.00  0.00     0.037 C 
HETATM   20  C5  UNL     1      18.723  31.450  25.549  1.00  0.00     0.129 C 
BRANCH  20  21
HETATM   21  O1  UNL     1      18.940  31.632  26.885  1.00  0.00    -0.390 OA
HETATM   22  C6  UNL     1      20.193  31.206  27.312  1.00  0.00     0.202 C 
ENDBRANCH  20  21
ENDBRANCH  14  15
ENDBRANCH  12  14
ENDBRANCH  10  11
ENDBRANCH   1   9
BRANCH   7  23
HETATM   23  C21 UNL     1      22.494  38.355  17.884  1.00  0.00     0.235 C 
HETATM   24  O3  UNL     1      21.834  39.022  17.020  1.00  0.00    -0.272 OA
HETATM   25  N1  UNL     1      23.431  37.416  17.470  1.00  0.00    -0.345 N 
ATOM     26  H1  UNL     1      23.971  36.877  18.146  1.00  0.00     0.163 HD
BRANCH  25  27
HETATM   27  C22 UNL     1      23.620  37.223  15.996  1.00  0.00     0.194 C 
BRANCH  27  28
HETATM   28  C23 UNL     1      24.260  35.869  15.892  1.00  0.00     0.141 C 
BRANCH  28  29
HETATM   29  C24 UNL     1      23.407  34.769  15.459  1.00  0.00     0.243 C 
HETATM   30  O4  UNL     1      23.183  33.778  16.172  1.00  0.00    -0.271 OA
HETATM   31  N2  UNL     1      22.815  34.843  14.171  1.00  0.00    -0.235 N 
ATOM     32  H2  UNL     1      22.985  35.647  13.568  1.00  0.00     0.197 HD
BRANCH  31  33
HETATM   33  O5  UNL     1      22.028  33.833  13.760  1.00  0.00    -0.283 OA
HETATM   34  C25 UNL     1      21.665  33.944  12.415  1.00  0.00     0.237 C 
ENDBRANCH  31  33
ENDBRANCH  28  29
ENDBRANCH  27  28
BRANCH  27  35
HETATM   35  C26 UNL     1      24.446  38.343  15.513  1.00  0.00     0.197 C 
HETATM   36  O6  UNL     1      25.671  38.363  15.777  1.00  0.00    -0.646 OA
HETATM   37  O7  UNL     1      23.930  39.369  14.786  1.00  0.00    -0.646 OA
ENDBRANCH  27  35
ENDBRANCH  25  27
ENDBRANCH   7  23
BRANCH   5  38
HETATM   38  O2  UNL     1      21.866  40.885  19.207  1.00  0.00    -0.389 OA
ATOM     39  H2  UNL     1      22.676  40.961  19.697  1.00  0.00     0.210 HD
ENDBRANCH   5  38
TORSDOF 12
ENDMDL
MODEL 3
REMARK VINA RESULT: -7.472351663      2.461      4.484
REMARK  12 active torsions:
REMARK  status: ('A' for Active; 'I' for Inactive)
REMARK    1  A    between atoms: C5_5  and  O1_6 
REMARK    2  A    between atoms: C7_8  and  C8_9 
REMARK    3  A    between atoms: C8_9  and  C9_10 
REMARK    4  A    between atoms: C10_11  and  C12_13 
REMARK    5  A    between atoms: C13_14  and  C14_15 
REMARK    6  A    between atoms: C18_19  and  O2_21 
REMARK    7  A    between atoms: C20_23  and  C21_24 
REMARK       I    between atoms: C21_24  and  N1_26 
REMARK    8  A    between atoms: N1_26  and  C22_28 
REMARK    9  A    between atoms: C22_28  and  C23_29 
REMARK   10  A    between atoms: C22_28  and  C26_36 
REMARK   11  A    between atoms: C23_29  and  C24_30 
REMARK       I    between atoms: C24_30  and  N2_32 
REMARK   12  A    between atoms: N2_32  and  O5_34 
ROOT
HETATM    1  C14 UNL     1      20.695  36.864  22.572  1.00  0.00     0.014 C 
HETATM    2  C15 UNL     1      20.828  37.740  21.600  1.00  0.00    -0.021 C 
HETATM    3  C16 UNL     1      20.158  39.043  21.591  1.00  0.00     0.049 C 
HETATM    4  C17 UNL     1      21.077  40.073  20.945  1.00  0.00     0.044 C 
HETATM    5  C18 UNL     1      21.183  39.832  19.448  1.00  0.00     0.076 C 
HETATM    6  C19 UNL     1      19.845  39.586  18.829  1.00  0.00     0.047 C 
HETATM    7  C20 UNL     1      22.225  38.802  19.236  1.00  0.00     0.178 C 
HETATM    8  S1  UNL     1      21.874  37.325  20.191  1.00  0.00    -0.117 SA
ENDROOT
BRANCH   1   9
HETATM    9  C13 UNL     1      19.882  37.051  23.747  1.00  0.00     0.002 C 
HETATM   10  C12 UNL     1      18.698  36.527  23.853  1.00  0.00     0.006 C 
BRANCH  10  11
HETATM   11  C10 UNL     1      17.877  36.723  25.029  1.00  0.00    -0.066 C 
HETATM   12  C9  UNL     1      17.717  35.854  26.002  1.00  0.00    -0.019 C 
HETATM   13  C11 UNL     1      17.127  38.039  25.078  1.00  0.00     0.048 C 
BRANCH  12  14
HETATM   14  C8  UNL     1      18.366  34.578  26.082  1.00  0.00     0.039 C 
BRANCH  14  15
HETATM   15  C7  UNL     1      17.766  33.380  25.495  1.00  0.00     0.046 C 
HETATM   16  C2  UNL     1      17.031  32.434  26.315  1.00  0.00    -0.082 C 
HETATM   17  C1  UNL     1      16.726  32.396  27.567  1.00  0.00     0.015 C 
HETATM   18  C3  UNL     1      16.618  31.379  25.311  1.00  0.00     0.036 C 
HETATM   19  C4  UNL     1      17.862  31.256  24.461  1.00  0.00     0.037 C 
HETATM   20  C5  UNL     1      18.767  32.440  24.834  1.00  0.00     0.129 C 
BRANCH  20  21
HETATM   21  O1  UNL     1      19.370  33.015  23.752  1.00  0.00    -0.390 OA
HETATM   22  C6  UNL     1      18.558  33.071  22.624  1.00  0.00     0.202 C 
ENDBRANCH  20  21
ENDBRANCH  14  15
ENDBRANCH  12  14
ENDBRANCH  10  11
ENDBRANCH   1   9
BRANCH   7  23
HETATM   23  C21 UNL     1      22.479  38.437  17.817  1.00  0.00     0.235 C 
HETATM   24  O3  UNL     1      21.773  38.976  16.901  1.00  0.00    -0.272 OA
HETATM   25  N1  UNL     1      23.470  37.523  17.484  1.00  0.00    -0.345 N 
ATOM     26  H1  UNL     1      24.046  37.086  18.202  1.00  0.00     0.163 HD
BRANCH  25  27
HETATM   27  C22 UNL     1      23.662  37.200  16.033  1.00  0.00     0.194 C 
BRANCH  27  28
HETATM   28  C23 UNL     1      24.275  35.829  16.049  1.00  0.00     0.141 C 
BRANCH  28  29
HETATM   29  C24 UNL     1      23.443  34.731  15.573  1.00  0.00     0.243 C 
HETATM   30  O4  UNL     1      23.192  33.734  16.268  1.00  0.00    -0.271 OA
HETATM   31  N2  UNL     1      22.906  34.814  14.262  1.00  0.00    -0.235 N 
ATOM     32  H2  UNL     1      23.098  35.624  13.673  1.00  0.00     0.197 HD
BRANCH  31  33
HETATM   33  O5  UNL     1      22.139  33.805  13.811  1.00  0.00    -0.283 OA
HETATM   34  C25 UNL     1      21.650  34.034  12.521  1.00  0.00     0.237 C 
ENDBRANCH  31  33
ENDBRANCH  28  29
ENDBRANCH  27  28
BRANCH  27  35
HETATM   35  C26 UNL     1      24.512  38.258  15.461  1.00  0.00     0.197 C 
HETATM   36  O6  UNL     1      25.747  38.241  15.681  1.00  0.00    -0.646 OA
HETATM   37  O7  UNL     1      24.011  39.265  14.698  1.00  0.00    -0.646 OA
ENDBRANCH  27  35
ENDBRANCH  25  27
ENDBRANCH   7  23
BRANCH   5  38
HETATM   38  O2  UNL     1      21.693  41.037  18.898  1.00  0.00    -0.389 OA
ATOM     39  H2  UNL     1      21.970  40.821  18.015  1.00  0.00     0.210 HD
ENDBRANCH   5  38
TORSDOF 12
ENDMDL
MODEL 4
REMARK VINA RESULT: -7.428254741      2.124      2.887
REMARK  12 active torsions:
REMARK  status: ('A' for Active; 'I' for Inactive)
REMARK    1  A    between atoms: C5_5  and  O1_6 
REMARK    2  A    between atoms: C7_8  and  C8_9 
REMARK    3  A    between atoms: C8_9  and  C9_10 
REMARK    4  A    between atoms: C10_11  and  C12_13 
REMARK    5  A    between atoms: C13_14  and  C14_15 
REMARK    6  A    between atoms: C18_19  and  O2_21 
REMARK    7  A    between atoms: C20_23  and  C21_24 
REMARK       I    between atoms: C21_24  and  N1_26 
REMARK    8  A    between atoms: N1_26  and  C22_28 
REMARK    9  A    between atoms: C22_28  and  C23_29 
REMARK   10  A    between atoms: C22_28  and  C26_36 
REMARK   11  A    between atoms: C23_29  and  C24_30 
REMARK       I    between atoms: C24_30  and  N2_32 
REMARK   12  A    between atoms: N2_32  and  O5_34 
ROOT
HETATM    1  C14 UNL     1      20.635  36.961  22.956  1.00  0.00     0.014 C 
HETATM    2  C15 UNL     1      20.797  37.825  21.977  1.00  0.00    -0.021 C 
HETATM    3  C16 UNL     1      20.236  39.178  21.994  1.00  0.00     0.049 C 
HETATM    4  C17 UNL     1      21.208  40.130  21.307  1.00  0.00     0.044 C 
HETATM    5  C18 UNL     1      21.230  39.884  19.807  1.00  0.00     0.076 C 
HETATM    6  C19 UNL     1      19.851  39.749  19.247  1.00  0.00     0.047 C 
HETATM    7  C20 UNL     1      22.173  38.772  19.552  1.00  0.00     0.178 C 
HETATM    8  S1  UNL     1      21.743  37.328  20.524  1.00  0.00    -0.117 SA
ENDROOT
BRANCH   1   9
HETATM    9  C13 UNL     1      19.891  37.212  24.164  1.00  0.00     0.002 C 
HETATM   10  C12 UNL     1      18.740  36.655  24.390  1.00  0.00     0.006 C 
BRANCH  10  11
HETATM   11  C10 UNL     1      17.988  36.915  25.599  1.00  0.00    -0.066 C 
HETATM   12  C9  UNL     1      16.753  37.362  25.650  1.00  0.00    -0.019 C 
HETATM   13  C11 UNL     1      18.744  36.675  26.891  1.00  0.00     0.048 C 
BRANCH  12  14
HETATM   14  C8  UNL     1      15.926  37.626  24.509  1.00  0.00     0.039 C 
BRANCH  14  15
HETATM   15  C7  UNL     1      15.538  38.991  24.149  1.00  0.00     0.046 C 
HETATM   16  C2  UNL     1      16.100  39.644  22.982  1.00  0.00    -0.082 C 
HETATM   17  C1  UNL     1      16.932  39.269  22.071  1.00  0.00     0.015 C 
HETATM   18  C3  UNL     1      15.438  41.004  23.015  1.00  0.00     0.036 C 
HETATM   19  C4  UNL     1      15.469  41.329  24.491  1.00  0.00     0.037 C 
HETATM   20  C5  UNL     1      15.855  40.031  25.217  1.00  0.00     0.129 C 
BRANCH  20  21
HETATM   21  O1  UNL     1      15.138  39.824  26.361  1.00  0.00    -0.390 OA
HETATM   22  C6  UNL     1      13.798  40.178  26.253  1.00  0.00     0.202 C 
ENDBRANCH  20  21
ENDBRANCH  14  15
ENDBRANCH  12  14
ENDBRANCH  10  11
ENDBRANCH   1   9
BRANCH   7  23
HETATM   23  C21 UNL     1      22.335  38.390  18.125  1.00  0.00     0.235 C 
HETATM   24  O3  UNL     1      21.444  38.743  17.283  1.00  0.00    -0.272 OA
HETATM   25  N1  UNL     1      23.438  37.658  17.704  1.00  0.00    -0.345 N 
ATOM     26  H1  UNL     1      24.161  37.370  18.363  1.00  0.00     0.163 HD
BRANCH  25  27
HETATM   27  C22 UNL     1      23.528  37.304  16.251  1.00  0.00     0.194 C 
BRANCH  27  28
HETATM   28  C23 UNL     1      24.134  35.930  16.254  1.00  0.00     0.141 C 
BRANCH  28  29
HETATM   29  C24 UNL     1      23.345  34.861  15.653  1.00  0.00     0.243 C 
HETATM   30  O4  UNL     1      23.026  33.836  16.277  1.00  0.00    -0.271 OA
HETATM   31  N2  UNL     1      22.931  35.007  14.304  1.00  0.00    -0.235 N 
ATOM     32  H2  UNL     1      23.181  35.841  13.772  1.00  0.00     0.197 HD
BRANCH  31  33
HETATM   33  O5  UNL     1      22.205  34.026  13.739  1.00  0.00    -0.283 OA
HETATM   34  C25 UNL     1      21.515  34.453  12.600  1.00  0.00     0.237 C 
ENDBRANCH  31  33
ENDBRANCH  28  29
ENDBRANCH  27  28
BRANCH  27  35
HETATM   35  C26 UNL     1      24.341  38.345  15.600  1.00  0.00     0.197 C 
HETATM   36  O6  UNL     1      23.776  39.349  15.106  1.00  0.00    -0.646 OA
HETATM   37  O7  UNL     1      25.695  38.262  15.509  1.00  0.00    -0.646 OA
ENDBRANCH  27  35
ENDBRANCH  25  27
ENDBRANCH   7  23
BRANCH   5  38
HETATM   38  O2  UNL     1      21.812  41.044  19.233  1.00  0.00    -0.389 OA
ATOM     39  H2  UNL     1      22.160  40.769  18.393  1.00  0.00     0.210 HD
ENDBRANCH   5  38
TORSDOF 12
ENDMDL
MODEL 5
REMARK VINA RESULT: -7.402019578      1.417      1.722
REMARK  12 active torsions:
REMARK  status: ('A' for Active; 'I' for Inactive)
REMARK    1  A    between atoms: C5_5  and  O1_6 
REMARK    2  A    between atoms: C7_8  and  C8_9 
REMARK    3  A    between atoms: C8_9  and  C9_10 
REMARK    4  A    between atoms: C10_11  and  C12_13 
REMARK    5  A    between atoms: C13_14  and  C14_15 
REMARK    6  A    between atoms: C18_19  and  O2_21 
REMARK    7  A    between atoms: C20_23  and  C21_24 
REMARK       I    between atoms: C21_24  and  N1_26 
REMARK    8  A    between atoms: N1_26  and  C22_28 
REMARK    9  A    between atoms: C22_28  and  C23_29 
REMARK   10  A    between atoms: C22_28  and  C26_36 
REMARK   11  A    between atoms: C23_29  and  C24_30 
REMARK       I    between atoms: C24_30  and  N2_32 
REMARK   12  A    between atoms: N2_32  and  O5_34 
ROOT
HETATM    1  C14 UNL     1      20.482  36.842  22.597  1.00  0.00     0.014 C 
HETATM    2  C15 UNL     1      20.678  37.735  21.651  1.00  0.00    -0.021 C 
HETATM    3  C16 UNL     1      20.080  39.072  21.666  1.00  0.00     0.049 C 
HETATM    4  C17 UNL     1      21.065  40.067  21.062  1.00  0.00     0.044 C 
HETATM    5  C18 UNL     1      21.182  39.859  19.561  1.00  0.00     0.076 C 
HETATM    6  C19 UNL     1      19.842  39.703  18.915  1.00  0.00     0.047 C 
HETATM    7  C20 UNL     1      22.169  38.779  19.336  1.00  0.00     0.178 C 
HETATM    8  S1  UNL     1      21.722  37.300  20.246  1.00  0.00    -0.117 SA
ENDROOT
BRANCH   1   9
HETATM    9  C13 UNL     1      19.661  37.044  23.764  1.00  0.00     0.002 C 
HETATM   10  C12 UNL     1      20.157  37.472  24.886  1.00  0.00     0.006 C 
BRANCH  10  11
HETATM   11  C10 UNL     1      19.334  37.665  26.061  1.00  0.00    -0.066 C 
HETATM   12  C9  UNL     1      19.429  38.670  26.903  1.00  0.00    -0.019 C 
HETATM   13  C11 UNL     1      18.319  36.571  26.324  1.00  0.00     0.048 C 
BRANCH  12  14
HETATM   14  C8  UNL     1      20.339  39.771  26.773  1.00  0.00     0.039 C 
BRANCH  14  15
HETATM   15  C7  UNL     1      21.627  39.780  27.467  1.00  0.00     0.046 C 
HETATM   16  C2  UNL     1      22.863  39.511  26.755  1.00  0.00    -0.082 C 
HETATM   17  C1  UNL     1      23.136  39.259  25.520  1.00  0.00     0.015 C 
HETATM   18  C3  UNL     1      23.903  39.612  27.849  1.00  0.00     0.036 C 
HETATM   19  C4  UNL     1      23.209  38.923  29.002  1.00  0.00     0.037 C 
HETATM   20  C5  UNL     1      21.738  38.757  28.590  1.00  0.00     0.129 C 
BRANCH  20  21
HETATM   21  O1  UNL     1      20.865  39.018  29.608  1.00  0.00    -0.390 OA
HETATM   22  C6  UNL     1      21.431  39.725  30.663  1.00  0.00     0.202 C 
ENDBRANCH  20  21
ENDBRANCH  14  15
ENDBRANCH  12  14
ENDBRANCH  10  11
ENDBRANCH   1   9
BRANCH   7  23
HETATM   23  C21 UNL     1      22.425  38.438  17.912  1.00  0.00     0.235 C 
HETATM   24  O3  UNL     1      21.716  38.986  17.005  1.00  0.00    -0.272 OA
HETATM   25  N1  UNL     1      23.422  37.535  17.565  1.00  0.00    -0.345 N 
ATOM     26  H1  UNL     1      24.002  37.090  18.277  1.00  0.00     0.163 HD
BRANCH  25  27
HETATM   27  C22 UNL     1      23.617  37.236  16.110  1.00  0.00     0.194 C 
BRANCH  27  28
HETATM   28  C23 UNL     1      24.225  35.863  16.105  1.00  0.00     0.141 C 
BRANCH  28  29
HETATM   29  C24 UNL     1      23.405  34.782  15.571  1.00  0.00     0.243 C 
HETATM   30  O4  UNL     1      23.086  33.791  16.246  1.00  0.00    -0.271 OA
HETATM   31  N2  UNL     1      22.963  34.875  14.226  1.00  0.00    -0.235 N 
ATOM     32  H2  UNL     1      23.212  35.680  13.652  1.00  0.00     0.197 HD
BRANCH  31  33
HETATM   33  O5  UNL     1      22.208  33.882  13.721  1.00  0.00    -0.283 OA
HETATM   34  C25 UNL     1      21.424  34.296  12.641  1.00  0.00     0.237 C 
ENDBRANCH  31  33
ENDBRANCH  28  29
ENDBRANCH  27  28
BRANCH  27  35
HETATM   35  C26 UNL     1      24.472  38.300  15.558  1.00  0.00     0.197 C 
HETATM   36  O6  UNL     1      25.709  38.262  15.760  1.00  0.00    -0.646 OA
HETATM   37  O7  UNL     1      23.973  39.334  14.831  1.00  0.00    -0.646 OA
ENDBRANCH  27  35
ENDBRANCH  25  27
ENDBRANCH   7  23
BRANCH   5  38
HETATM   38  O2  UNL     1      21.765  41.048  19.050  1.00  0.00    -0.389 OA
ATOM     39  H2  UNL     1      22.593  40.785  18.666  1.00  0.00     0.210 HD
ENDBRANCH   5  38
TORSDOF 12
ENDMDL
