MODEL 1
REMARK VINA RESULT: -9.778444562      0.000      0.000
REMARK  5 active torsions:
REMARK  status: ('A' for Active; 'I' for Inactive)
REMARK    1  A    between atoms: C8_8  and  N1_9 
REMARK    2  A    between atoms: N1_9  and  C9_11 
REMARK    3  A    between atoms: C9_11  and  C10_12 
REMARK    4  A    between atoms: C10_12  and  C11_13 
REMARK    5  A    between atoms: N2_16  and  C14_17 
ROOT
HETATM    1  C11 UNL     1      12.700  17.092 -18.547  1.00  0.00    -0.010 C 
HETATM    2  C12 UNL     1      11.389  17.017 -17.832  1.00  0.00     0.024 C 
HETATM    3  C13 UNL     1      10.645  15.798 -18.404  1.00  0.00     0.123 C 
HETATM    4  N2  UNL     1      10.856  15.875 -19.866  1.00  0.00    -0.381 N 
HETATM    5  C23 UNL     1      11.160  17.167 -20.435  1.00  0.00     0.123 C 
HETATM    6  C24 UNL     1      12.508  17.682 -19.918  1.00  0.00     0.024 C 
ENDROOT
BRANCH   4   7
HETATM    7  C14 UNL     1      10.740  14.680 -20.597  1.00  0.00     0.032 A 
HETATM    8  C15 UNL     1      10.468  13.489 -19.980  1.00  0.00     0.030 A 
HETATM    9  C16 UNL     1      10.359  12.304 -20.706  1.00  0.00     0.016 A 
HETATM   10  C17 UNL     1      10.520  12.287 -22.061  1.00  0.00    -0.008 A 
HETATM   11  C18 UNL     1      10.408  11.102 -22.764  1.00  0.00     0.036 A 
HETATM   12  C21 UNL     1      10.794  13.488 -22.685  1.00  0.00     0.045 A 
HETATM   13  C19 UNL     1      10.577  11.141 -24.118  1.00  0.00     0.050 A 
HETATM   14 BR1  UNL     1      10.438   9.548 -25.157  1.00  0.00    -0.048 Br
HETATM   15  C20 UNL     1      10.852  12.355 -24.715  1.00  0.00     0.121 A 
HETATM   16 CL1  UNL     1      11.072  12.412 -26.461  1.00  0.00    -0.063 Cl
HETATM   17  N3  UNL     1      10.961  13.506 -24.035  1.00  0.00    -0.345 N 
ATOM     18  H3  UNL     1      11.165  14.378 -24.521  1.00  0.00     0.167 HD
HETATM   19  C22 UNL     1      10.904  14.663 -21.971  1.00  0.00     0.059 A 
ENDBRANCH   4   7
BRANCH   1  20
HETATM   20  C10 UNL     1      13.793  17.746 -17.764  1.00  0.00     0.024 C 
BRANCH  20  21
HETATM   21  C9  UNL     1      15.047  17.977 -18.566  1.00  0.00     0.114 C 
BRANCH  21  22
HETATM   22  N1  UNL     1      15.764  16.748 -18.631  1.00  0.00    -0.417 N 
ATOM     23  H1  UNL     1      16.149  16.292 -17.804  1.00  0.00     0.153 HD
BRANCH  22  24
HETATM   24  C8  UNL     1      15.906  16.192 -19.962  1.00  0.00     0.080 C 
HETATM   25  C2  UNL     1      17.393  16.115 -20.238  1.00  0.00     0.004 C 
HETATM   26  C1  UNL     1      18.058  15.459 -19.069  1.00  0.00     0.012 C 
HETATM   27  C3  UNL     1      17.754  15.566 -21.565  1.00  0.00     0.006 C 
HETATM   28  C4  UNL     1      16.801  14.586 -22.163  1.00  0.00     0.000 C 
HETATM   29  C5  UNL     1      15.425  15.116 -22.403  1.00  0.00     0.000 C 
HETATM   30  C6  UNL     1      14.505  14.626 -21.294  1.00  0.00     0.002 C 
HETATM   31  C7  UNL     1      15.257  14.845 -19.977  1.00  0.00     0.025 C 
ENDBRANCH  22  24
ENDBRANCH  21  22
ENDBRANCH  20  21
ENDBRANCH   1  20
TORSDOF 5
ENDMDL
MODEL 2
REMARK VINA RESULT: -9.775085481      1.229      1.764
REMARK  5 active torsions:
REMARK  status: ('A' for Active; 'I' for Inactive)
REMARK    1  A    between atoms: C8_8  and  N1_9 
REMARK    2  A    between atoms: N1_9  and  C9_11 
REMARK    3  A    between atoms: C9_11  and  C10_12 
REMARK    4  A    between atoms: C10_12  and  C11_13 
REMARK    5  A    between atoms: N2_16  and  C14_17 
ROOT
HETATM    1  C11 UNL     1      13.110  17.207 -18.438  1.00  0.00    -0.010 C 
HETATM    2  C12 UNL     1      12.388  16.114 -17.717  1.00  0.00     0.024 C 
HETATM    3  C13 UNL     1      11.928  15.110 -18.788  1.00  0.00     0.123 C 
HETATM    4  N2  UNL     1      11.403  15.945 -19.892  1.00  0.00    -0.381 N 
HETATM    5  C23 UNL     1      10.953  17.279 -19.571  1.00  0.00     0.123 C 
HETATM    6  C24 UNL     1      12.123  18.142 -19.083  1.00  0.00     0.024 C 
ENDROOT
BRANCH   4   7
HETATM    7  C14 UNL     1      11.378  15.373 -21.175  1.00  0.00     0.032 A 
HETATM    8  C15 UNL     1      11.693  16.104 -22.289  1.00  0.00     0.030 A 
HETATM    9  C16 UNL     1      11.663  15.537 -23.562  1.00  0.00     0.016 A 
HETATM   10  C17 UNL     1      11.316  14.229 -23.746  1.00  0.00    -0.008 A 
HETATM   11  C18 UNL     1      11.292  13.685 -25.016  1.00  0.00     0.036 A 
HETATM   12  C21 UNL     1      10.998  13.491 -22.623  1.00  0.00     0.045 A 
HETATM   13  C19 UNL     1      10.939  12.372 -25.144  1.00  0.00     0.050 A 
HETATM   14 BR1  UNL     1      10.882  11.548 -26.863  1.00  0.00    -0.048 Br
HETATM   15  C20 UNL     1      10.626  11.657 -24.005  1.00  0.00     0.121 A 
HETATM   16 CL1  UNL     1      10.169   9.964 -24.163  1.00  0.00    -0.063 Cl
HETATM   17  N3  UNL     1      10.648  12.185 -22.772  1.00  0.00    -0.345 N 
ATOM     18  H3  UNL     1      10.408  11.616 -21.961  1.00  0.00     0.167 HD
HETATM   19  C22 UNL     1      11.026  14.047 -21.361  1.00  0.00     0.059 A 
ENDBRANCH   4   7
BRANCH   1  20
HETATM   20  C10 UNL     1      14.145  17.907 -17.617  1.00  0.00     0.024 C 
BRANCH  20  21
HETATM   21  C9  UNL     1      15.517  17.887 -18.241  1.00  0.00     0.114 C 
BRANCH  21  22
HETATM   22  N1  UNL     1      15.910  16.527 -18.403  1.00  0.00    -0.417 N 
ATOM     23  H1  UNL     1      16.027  15.892 -17.613  1.00  0.00     0.153 HD
BRANCH  22  24
HETATM   24  C8  UNL     1      16.129  16.113 -19.774  1.00  0.00     0.080 C 
HETATM   25  C2  UNL     1      17.630  16.101 -19.983  1.00  0.00     0.004 C 
HETATM   26  C1  UNL     1      18.258  15.345 -18.854  1.00  0.00     0.012 C 
HETATM   27  C3  UNL     1      18.067  15.698 -21.338  1.00  0.00     0.006 C 
HETATM   28  C4  UNL     1      17.172  14.761 -22.078  1.00  0.00     0.000 C 
HETATM   29  C5  UNL     1      15.794  15.279 -22.331  1.00  0.00     0.000 C 
HETATM   30  C6  UNL     1      14.838  14.656 -21.324  1.00  0.00     0.002 C 
HETATM   31  C7  UNL     1      15.521  14.759 -19.956  1.00  0.00     0.025 C 
ENDBRANCH  22  24
ENDBRANCH  21  22
ENDBRANCH  20  21
ENDBRANCH   1  20
TORSDOF 5
ENDMDL
MODEL 3
REMARK VINA RESULT: -9.754579052      1.161      2.012
REMARK  5 active torsions:
REMARK  status: ('A' for Active; 'I' for Inactive)
REMARK    1  A    between atoms: C8_8  and  N1_9 
REMARK    2  A    between atoms: N1_9  and  C9_11 
REMARK    3  A    between atoms: C9_11  and  C10_12 
REMARK    4  A    between atoms: C10_12  and  C11_13 
REMARK    5  A    between atoms: N2_16  and  C14_17 
ROOT
HETATM    1  C11 UNL     1      12.234  17.126 -18.692  1.00  0.00    -0.010 C 
HETATM    2  C12 UNL     1      12.563  16.245 -17.530  1.00  0.00     0.024 C 
HETATM    3  C13 UNL     1      12.375  14.796 -18.008  1.00  0.00     0.123 C 
HETATM    4  N2  UNL     1      11.114  14.811 -18.782  1.00  0.00    -0.381 N 
HETATM    5  C23 UNL     1      10.161  15.858 -18.496  1.00  0.00     0.123 C 
HETATM    6  C24 UNL     1      10.742  17.231 -18.856  1.00  0.00     0.024 C 
ENDROOT
BRANCH   4   7
HETATM    7  C14 UNL     1      10.934  13.798 -19.741  1.00  0.00     0.032 A 
HETATM    8  C15 UNL     1      10.683  12.503 -19.373  1.00  0.00     0.030 A 
HETATM    9  C16 UNL     1      10.510  11.500 -20.324  1.00  0.00     0.016 A 
HETATM   10  C17 UNL     1      10.584  11.771 -21.660  1.00  0.00    -0.008 A 
HETATM   11  C18 UNL     1      10.410  10.762 -22.589  1.00  0.00     0.036 A 
HETATM   12  C21 UNL     1      10.837  13.076 -22.033  1.00  0.00     0.045 A 
HETATM   13  C19 UNL     1      10.493  11.087 -23.912  1.00  0.00     0.050 A 
HETATM   14 BR1  UNL     1      10.265   9.751 -25.254  1.00  0.00    -0.048 Br
HETATM   15  C20 UNL     1      10.748  12.400 -24.256  1.00  0.00     0.121 A 
HETATM   16 CL1  UNL     1      10.858  12.826 -25.961  1.00  0.00    -0.063 Cl
HETATM   17  N3  UNL     1      10.918  13.380 -23.356  1.00  0.00    -0.345 N 
ATOM     18  H3  UNL     1      11.104  14.335 -23.659  1.00  0.00     0.167 HD
HETATM   19  C22 UNL     1      11.010  14.073 -21.095  1.00  0.00     0.059 A 
ENDBRANCH   4   7
BRANCH   1  20
HETATM   20  C10 UNL     1      12.927  18.451 -18.677  1.00  0.00     0.024 C 
BRANCH  20  21
HETATM   21  C9  UNL     1      14.398  18.360 -18.989  1.00  0.00     0.114 C 
BRANCH  21  22
HETATM   22  N1  UNL     1      14.539  17.984 -20.356  1.00  0.00    -0.417 N 
ATOM     23  H1  UNL     1      14.192  18.562 -21.122  1.00  0.00     0.153 HD
BRANCH  22  24
HETATM   24  C8  UNL     1      15.211  16.720 -20.577  1.00  0.00     0.080 C 
HETATM   25  C2  UNL     1      14.200  15.806 -21.238  1.00  0.00     0.004 C 
HETATM   26  C1  UNL     1      13.575  16.542 -22.382  1.00  0.00     0.012 C 
HETATM   27  C3  UNL     1      14.698  14.448 -21.552  1.00  0.00     0.006 C 
HETATM   28  C4  UNL     1      16.159  14.320 -21.829  1.00  0.00     0.000 C 
HETATM   29  C5  UNL     1      17.049  14.732 -20.702  1.00  0.00     0.000 C 
HETATM   30  C6  UNL     1      17.593  16.125 -20.983  1.00  0.00     0.002 C 
HETATM   31  C7  UNL     1      16.402  16.970 -21.447  1.00  0.00     0.025 C 
ENDBRANCH  22  24
ENDBRANCH  21  22
ENDBRANCH  20  21
ENDBRANCH   1  20
TORSDOF 5
ENDMDL
MODEL 4
REMARK VINA RESULT: -9.587188258      0.720      1.459
REMARK  5 active torsions:
REMARK  status: ('A' for Active; 'I' for Inactive)
REMARK    1  A    between atoms: C8_8  and  N1_9 
REMARK    2  A    between atoms: N1_9  and  C9_11 
REMARK    3  A    between atoms: C9_11  and  C10_12 
REMARK    4  A    between atoms: C10_12  and  C11_13 
REMARK    5  A    between atoms: N2_16  and  C14_17 
ROOT
HETATM    1  C11 UNL     1      12.747  16.952 -18.666  1.00  0.00    -0.010 C 
HETATM    2  C12 UNL     1      11.538  16.767 -17.807  1.00  0.00     0.024 C 
HETATM    3  C13 UNL     1      10.802  15.528 -18.343  1.00  0.00     0.123 C 
HETATM    4  N2  UNL     1      10.831  15.675 -19.815  1.00  0.00    -0.381 N 
HETATM    5  C23 UNL     1      10.990  17.006 -20.355  1.00  0.00     0.123 C 
HETATM    6  C24 UNL     1      12.359  17.583 -19.976  1.00  0.00     0.024 C 
ENDROOT
BRANCH   4   7
HETATM    7  C14 UNL     1      10.697  14.506 -20.583  1.00  0.00     0.032 A 
HETATM    8  C15 UNL     1      10.357  13.310 -20.009  1.00  0.00     0.030 A 
HETATM    9  C16 UNL     1      10.230  12.150 -20.771  1.00  0.00     0.016 A 
HETATM   10  C17 UNL     1      10.440  12.163 -22.120  1.00  0.00    -0.008 A 
HETATM   11  C18 UNL     1      10.309  11.002 -22.859  1.00  0.00     0.036 A 
HETATM   12  C21 UNL     1      10.783  13.368 -22.700  1.00  0.00     0.045 A 
HETATM   13  C19 UNL     1      10.529  11.070 -24.204  1.00  0.00     0.050 A 
HETATM   14 BR1  UNL     1      10.368   9.511 -25.291  1.00  0.00    -0.048 Br
HETATM   15  C20 UNL     1      10.871  12.288 -24.757  1.00  0.00     0.121 A 
HETATM   16 CL1  UNL     1      11.158  12.382 -26.492  1.00  0.00    -0.063 Cl
HETATM   17  N3  UNL     1      10.999  13.414 -24.041  1.00  0.00    -0.345 N 
ATOM     18  H3  UNL     1      11.254  14.291 -24.496  1.00  0.00     0.167 HD
HETATM   19  C22 UNL     1      10.910  14.519 -21.950  1.00  0.00     0.059 A 
ENDBRANCH   4   7
BRANCH   1  20
HETATM   20  C10 UNL     1      13.887  17.641 -17.987  1.00  0.00     0.024 C 
BRANCH  20  21
HETATM   21  C9  UNL     1      15.235  17.254 -18.539  1.00  0.00     0.114 C 
BRANCH  21  22
HETATM   22  N1  UNL     1      15.244  15.842 -18.732  1.00  0.00    -0.417 N 
ATOM     23  H1  UNL     1      14.660  15.209 -18.185  1.00  0.00     0.153 HD
BRANCH  22  24
HETATM   24  C8  UNL     1      16.146  15.372 -19.763  1.00  0.00     0.080 C 
HETATM   25  C2  UNL     1      15.620  14.024 -20.213  1.00  0.00     0.004 C 
HETATM   26  C1  UNL     1      14.155  14.158 -20.491  1.00  0.00     0.012 C 
HETATM   27  C3  UNL     1      16.411  13.369 -21.278  1.00  0.00     0.006 C 
HETATM   28  C4  UNL     1      17.143  14.269 -22.216  1.00  0.00     0.000 C 
HETATM   29  C5  UNL     1      18.154  15.159 -21.572  1.00  0.00     0.000 C 
HETATM   30  C6  UNL     1      17.567  16.556 -21.428  1.00  0.00     0.002 C 
HETATM   31  C7  UNL     1      16.151  16.376 -20.872  1.00  0.00     0.025 C 
ENDBRANCH  22  24
ENDBRANCH  21  22
ENDBRANCH  20  21
ENDBRANCH   1  20
TORSDOF 5
ENDMDL
MODEL 5
REMARK VINA RESULT: -9.079538628      1.419      1.972
REMARK  5 active torsions:
REMARK  status: ('A' for Active; 'I' for Inactive)
REMARK    1  A    between atoms: C8_8  and  N1_9 
REMARK    2  A    between atoms: N1_9  and  C9_11 
REMARK    3  A    between atoms: C9_11  and  C10_12 
REMARK    4  A    between atoms: C10_12  and  C11_13 
REMARK    5  A    between atoms: N2_16  and  C14_17 
ROOT
HETATM    1  C11 UNL     1      12.031  17.041 -18.430  1.00  0.00    -0.010 C 
HETATM    2  C12 UNL     1      12.473  16.131 -17.330  1.00  0.00     0.024 C 
HETATM    3  C13 UNL     1      12.344  14.696 -17.867  1.00  0.00     0.123 C 
HETATM    4  N2  UNL     1      11.045  14.669 -18.575  1.00  0.00    -0.381 N 
HETATM    5  C23 UNL     1      10.049  15.642 -18.190  1.00  0.00     0.123 C 
HETATM    6  C24 UNL     1      10.528  17.062 -18.512  1.00  0.00     0.024 C 
ENDROOT
BRANCH   4   7
HETATM    7  C14 UNL     1      10.874  13.692 -19.570  1.00  0.00     0.032 A 
HETATM    8  C15 UNL     1      10.602  12.388 -19.252  1.00  0.00     0.030 A 
HETATM    9  C16 UNL     1      10.437  11.419 -20.240  1.00  0.00     0.016 A 
HETATM   10  C17 UNL     1      10.541  11.734 -21.564  1.00  0.00    -0.008 A 
HETATM   11  C18 UNL     1      10.374  10.759 -22.530  1.00  0.00     0.036 A 
HETATM   12  C21 UNL     1      10.814  13.049 -21.887  1.00  0.00     0.045 A 
HETATM   13  C19 UNL     1      10.487  11.129 -23.840  1.00  0.00     0.050 A 
HETATM   14 BR1  UNL     1      10.271   9.841 -25.230  1.00  0.00    -0.048 Br
HETATM   15  C20 UNL     1      10.761  12.449 -24.133  1.00  0.00     0.121 A 
HETATM   16 CL1  UNL     1      10.909  12.931 -25.820  1.00  0.00    -0.063 Cl
HETATM   17  N3  UNL     1      10.924  13.396 -23.197  1.00  0.00    -0.345 N 
ATOM     18  H3  UNL     1      11.126  14.359 -23.463  1.00  0.00     0.167 HD
HETATM   19  C22 UNL     1      10.979  14.011 -20.912  1.00  0.00     0.059 A 
ENDBRANCH   4   7
BRANCH   1  20
HETATM   20  C10 UNL     1      12.644  18.404 -18.387  1.00  0.00     0.024 C 
BRANCH  20  21
HETATM   21  C9  UNL     1      12.989  18.949 -19.749  1.00  0.00     0.114 C 
BRANCH  21  22
HETATM   22  N1  UNL     1      14.253  18.414 -20.132  1.00  0.00    -0.417 N 
ATOM     23  H1  UNL     1      15.113  18.619 -19.624  1.00  0.00     0.153 HD
BRANCH  22  24
HETATM   24  C8  UNL     1      14.225  17.556 -21.299  1.00  0.00     0.080 C 
HETATM   25  C2  UNL     1      15.386  16.594 -21.153  1.00  0.00     0.004 C 
HETATM   26  C1  UNL     1      15.340  16.004 -19.778  1.00  0.00     0.012 C 
HETATM   27  C3  UNL     1      15.533  15.620 -22.257  1.00  0.00     0.006 C 
HETATM   28  C4  UNL     1      14.283  15.226 -22.970  1.00  0.00     0.000 C 
HETATM   29  C5  UNL     1      13.558  16.350 -23.633  1.00  0.00     0.000 C 
HETATM   30  C6  UNL     1      12.377  16.761 -22.764  1.00  0.00     0.002 C 
HETATM   31  C7  UNL     1      12.906  16.851 -21.329  1.00  0.00     0.025 C 
ENDBRANCH  22  24
ENDBRANCH  21  22
ENDBRANCH  20  21
ENDBRANCH   1  20
TORSDOF 5
ENDMDL
