MODEL 1
REMARK VINA RESULT: -11.320617374      0.000      0.000
REMARK  6 active torsions:
REMARK  status: ('A' for Active; 'I' for Inactive)
REMARK    1  A    between atoms: C14_14  and  C15_15 
REMARK    2  A    between atoms: C15_15  and  C16_16 
REMARK    3  A    between atoms: C16_16  and  O1_17 
REMARK    4  A    between atoms: O1_17  and  C17_18 
REMARK    5  A    between atoms: C17_18  and  C18_20 
REMARK    6  A    between atoms: C19_21  and  C20_22 
ROOT
HETATM    1  C1  UNL     1      16.619  12.944 -21.486  1.00  0.00     0.010 C 
HETATM    2  C2  UNL     1      16.691  14.483 -21.407  1.00  0.00    -0.013 C 
HETATM    3  C3  UNL     1      17.765  14.877 -20.498  1.00  0.00     0.005 C 
HETATM    4  C4  UNL     1      17.502  16.001 -19.547  1.00  0.00     0.001 C 
HETATM    5  C5  UNL     1      15.997  16.120 -19.239  1.00  0.00     0.014 C 
HETATM    6  C6  UNL     1      15.226  16.331 -20.503  1.00  0.00    -0.015 C 
HETATM    7  C7  UNL     1      16.059  17.248 -21.433  1.00  0.00     0.020 C 
HETATM    8  C8  UNL     1      15.316  14.981 -21.238  1.00  0.00     0.005 C 
HETATM    9  C9  UNL     1      14.671  15.170 -22.628  1.00  0.00     0.033 C 
HETATM   10  C10 UNL     1      13.332  15.759 -22.506  1.00  0.00    -0.019 C 
HETATM   11  C11 UNL     1      12.967  16.493 -21.522  1.00  0.00    -0.058 C 
HETATM   12  C12 UNL     1      11.596  17.103 -21.379  1.00  0.00     0.039 C 
HETATM   13  C13 UNL     1      10.876  16.639 -20.134  1.00  0.00     0.015 C 
HETATM   14  C14 UNL     1      11.794  16.058 -19.150  1.00  0.00    -0.027 C 
HETATM   15  C26 UNL     1      11.819  16.431 -17.703  1.00  0.00     0.012 C 
HETATM   16  C27 UNL     1      13.363  16.317 -17.871  1.00  0.00     0.015 C 
HETATM   17  C28 UNL     1      13.078  16.879 -19.183  1.00  0.00    -0.011 C 
HETATM   18  C29 UNL     1      12.668  18.352 -18.877  1.00  0.00     0.021 C 
HETATM   19  C30 UNL     1      13.870  16.854 -20.398  1.00  0.00    -0.056 C 
ENDROOT
BRANCH  14  20
HETATM   20  C15 UNL     1      11.830  14.581 -19.244  1.00  0.00     0.037 C 
BRANCH  20  21
HETATM   21  C16 UNL     1      10.489  13.924 -19.250  1.00  0.00     0.180 C 
BRANCH  21  22
HETATM   22  O1  UNL     1      10.487  12.541 -19.072  1.00  0.00    -0.318 OA
BRANCH  22  23
HETATM   23  C17 UNL     1      10.988  11.653 -20.073  1.00  0.00     0.282 C 
HETATM   24  O2  UNL     1      12.221  11.523 -20.009  1.00  0.00    -0.260 OA
BRANCH  23  25
HETATM   25  C18 UNL     1      10.030  11.072 -20.958  1.00  0.00     0.083 C 
HETATM   26  C19 UNL     1       9.767  11.059 -22.194  1.00  0.00     0.024 C 
BRANCH  26  27
HETATM   27  C20 UNL     1      10.334  11.630 -23.368  1.00  0.00     0.041 A 
HETATM   28  C21 UNL     1      10.666  12.917 -23.575  1.00  0.00     0.129 A 
HETATM   29  F1  UNL     1      10.756  13.862 -22.595  1.00  0.00    -0.205 F 
HETATM   30  C22 UNL     1      11.075  13.354 -24.834  1.00  0.00     0.043 A 
HETATM   31  C23 UNL     1      11.167  12.515 -25.914  1.00  0.00     0.006 A 
HETATM   32  C24 UNL     1      10.833  11.203 -25.701  1.00  0.00     0.043 A 
HETATM   33  C25 UNL     1      10.429  10.755 -24.484  1.00  0.00     0.129 A 
HETATM   34  F2  UNL     1      10.116   9.438 -24.354  1.00  0.00    -0.205 F 
ENDBRANCH  26  27
ENDBRANCH  23  25
ENDBRANCH  22  23
ENDBRANCH  21  22
ENDBRANCH  20  21
ENDBRANCH  14  20
TORSDOF 6
ENDMDL
MODEL 2
REMARK VINA RESULT: -10.811718865      1.178      1.668
REMARK  6 active torsions:
REMARK  status: ('A' for Active; 'I' for Inactive)
REMARK    1  A    between atoms: C14_14  and  C15_15 
REMARK    2  A    between atoms: C15_15  and  C16_16 
REMARK    3  A    between atoms: C16_16  and  O1_17 
REMARK    4  A    between atoms: O1_17  and  C17_18 
REMARK    5  A    between atoms: C17_18  and  C18_20 
REMARK    6  A    between atoms: C19_21  and  C20_22 
ROOT
HETATM    1  C1  UNL     1      16.818  12.474 -20.314  1.00  0.00     0.010 C 
HETATM    2  C2  UNL     1      17.081  13.951 -20.672  1.00  0.00    -0.013 C 
HETATM    3  C3  UNL     1      18.182  14.462 -19.858  1.00  0.00     0.005 C 
HETATM    4  C4  UNL     1      18.047  15.835 -19.280  1.00  0.00     0.001 C 
HETATM    5  C5  UNL     1      16.564  16.211 -19.096  1.00  0.00     0.014 C 
HETATM    6  C6  UNL     1      15.846  16.138 -20.406  1.00  0.00    -0.015 C 
HETATM    7  C7  UNL     1      16.802  16.645 -21.514  1.00  0.00     0.020 C 
HETATM    8  C8  UNL     1      15.777  14.632 -20.722  1.00  0.00     0.005 C 
HETATM    9  C9  UNL     1      15.183  14.486 -22.139  1.00  0.00     0.033 C 
HETATM   10  C10 UNL     1      13.927  15.236 -22.258  1.00  0.00    -0.019 C 
HETATM   11  C11 UNL     1      13.642  16.259 -21.543  1.00  0.00    -0.058 C 
HETATM   12  C12 UNL     1      12.357  17.039 -21.649  1.00  0.00     0.039 C 
HETATM   13  C13 UNL     1      11.564  17.040 -20.362  1.00  0.00     0.015 C 
HETATM   14  C14 UNL     1      12.387  16.664 -19.208  1.00  0.00    -0.027 C 
HETATM   15  C26 UNL     1      12.435  17.433 -17.927  1.00  0.00     0.012 C 
HETATM   16  C27 UNL     1      13.955  17.098 -17.976  1.00  0.00     0.015 C 
HETATM   17  C28 UNL     1      13.764  17.287 -19.407  1.00  0.00    -0.011 C 
HETATM   18  C29 UNL     1      13.537  18.823 -19.553  1.00  0.00     0.021 C 
HETATM   19  C30 UNL     1      14.565  16.822 -20.523  1.00  0.00    -0.056 C 
ENDROOT
BRANCH  14  20
HETATM   20  C15 UNL     1      12.238  15.229 -18.876  1.00  0.00     0.037 C 
BRANCH  20  21
HETATM   21  C16 UNL     1      10.843  14.707 -18.982  1.00  0.00     0.180 C 
BRANCH  21  22
HETATM   22  O1  UNL     1      10.719  13.385 -19.410  1.00  0.00    -0.318 OA
BRANCH  22  23
HETATM   23  C17 UNL     1      11.317  12.928 -20.625  1.00  0.00     0.282 C 
HETATM   24  O2  UNL     1      12.111  11.994 -20.432  1.00  0.00    -0.260 OA
BRANCH  23  25
HETATM   25  C18 UNL     1      10.923  13.591 -21.827  1.00  0.00     0.083 C 
HETATM   26  C19 UNL     1      10.632  13.295 -23.020  1.00  0.00     0.024 C 
BRANCH  26  27
HETATM   27  C20 UNL     1      10.533  12.097 -23.784  1.00  0.00     0.041 A 
HETATM   28  C21 UNL     1      10.219  10.867 -23.342  1.00  0.00     0.129 A 
HETATM   29  F1  UNL     1       9.684  10.596 -22.117  1.00  0.00    -0.205 F 
HETATM   30  C22 UNL     1      10.308   9.762 -24.187  1.00  0.00     0.043 A 
HETATM   31  C23 UNL     1      10.708   9.861 -25.495  1.00  0.00     0.006 A 
HETATM   32  C24 UNL     1      11.023  11.116 -25.945  1.00  0.00     0.043 A 
HETATM   33  C25 UNL     1      10.946  12.207 -25.139  1.00  0.00     0.129 A 
HETATM   34  F2  UNL     1      11.275  13.418 -25.662  1.00  0.00    -0.205 F 
ENDBRANCH  26  27
ENDBRANCH  23  25
ENDBRANCH  22  23
ENDBRANCH  21  22
ENDBRANCH  20  21
ENDBRANCH  14  20
TORSDOF 6
ENDMDL
MODEL 3
REMARK VINA RESULT: -10.684418327      1.114      1.737
REMARK  6 active torsions:
REMARK  status: ('A' for Active; 'I' for Inactive)
REMARK    1  A    between atoms: C14_14  and  C15_15 
REMARK    2  A    between atoms: C15_15  and  C16_16 
REMARK    3  A    between atoms: C16_16  and  O1_17 
REMARK    4  A    between atoms: O1_17  and  C17_18 
REMARK    5  A    between atoms: C17_18  and  C18_20 
REMARK    6  A    between atoms: C19_21  and  C20_22 
ROOT
HETATM    1  C1  UNL     1      16.902  13.638 -22.363  1.00  0.00     0.010 C 
HETATM    2  C2  UNL     1      16.630  15.125 -22.051  1.00  0.00    -0.013 C 
HETATM    3  C3  UNL     1      17.729  15.665 -21.254  1.00  0.00     0.005 C 
HETATM    4  C4  UNL     1      17.387  16.564 -20.108  1.00  0.00     0.001 C 
HETATM    5  C5  UNL     1      15.974  16.261 -19.573  1.00  0.00     0.014 C 
HETATM    6  C6  UNL     1      14.963  16.420 -20.664  1.00  0.00    -0.015 C 
HETATM    7  C7  UNL     1      15.384  17.622 -21.545  1.00  0.00     0.020 C 
HETATM    8  C8  UNL     1      15.230  15.234 -21.610  1.00  0.00     0.005 C 
HETATM    9  C9  UNL     1      14.323  15.418 -22.845  1.00  0.00     0.033 C 
HETATM   10  C10 UNL     1      12.927  15.630 -22.441  1.00  0.00    -0.019 C 
HETATM   11  C11 UNL     1      12.584  16.124 -21.311  1.00  0.00    -0.058 C 
HETATM   12  C12 UNL     1      11.158  16.346 -20.879  1.00  0.00     0.039 C 
HETATM   13  C13 UNL     1      10.796  15.569 -19.633  1.00  0.00     0.015 C 
HETATM   14  C14 UNL     1      11.983  15.126 -18.896  1.00  0.00    -0.027 C 
HETATM   15  C26 UNL     1      12.177  15.317 -17.426  1.00  0.00     0.012 C 
HETATM   16  C27 UNL     1      13.652  15.619 -17.829  1.00  0.00     0.015 C 
HETATM   17  C28 UNL     1      13.017  16.244 -18.980  1.00  0.00    -0.011 C 
HETATM   18  C29 UNL     1      12.340  17.517 -18.388  1.00  0.00     0.021 C 
HETATM   19  C30 UNL     1      13.564  16.565 -20.284  1.00  0.00    -0.056 C 
ENDROOT
BRANCH  14  20
HETATM   20  C15 UNL     1      12.341  13.728 -19.227  1.00  0.00     0.037 C 
BRANCH  20  21
HETATM   21  C16 UNL     1      11.312  12.715 -18.848  1.00  0.00     0.180 C 
BRANCH  21  22
HETATM   22  O1  UNL     1      11.066  11.715 -19.788  1.00  0.00    -0.318 OA
BRANCH  22  23
HETATM   23  C17 UNL     1      10.009  11.824 -20.744  1.00  0.00     0.282 C 
HETATM   24  O2  UNL     1       9.143  10.949 -20.584  1.00  0.00    -0.260 OA
BRANCH  23  25
HETATM   25  C18 UNL     1      10.108  12.881 -21.698  1.00  0.00     0.083 C 
HETATM   26  C19 UNL     1      10.302  13.023 -22.938  1.00  0.00     0.024 C 
BRANCH  26  27
HETATM   27  C20 UNL     1      10.512  12.157 -24.049  1.00  0.00     0.041 A 
HETATM   28  C21 UNL     1      10.582  10.814 -24.038  1.00  0.00     0.129 A 
HETATM   29  F1  UNL     1      10.205  10.026 -22.991  1.00  0.00    -0.205 F 
HETATM   30  C22 UNL     1      10.941  10.110 -25.187  1.00  0.00     0.043 A 
HETATM   31  C23 UNL     1      11.234  10.732 -26.374  1.00  0.00     0.006 A 
HETATM   32  C24 UNL     1      11.157  12.100 -26.384  1.00  0.00     0.043 A 
HETATM   33  C25 UNL     1      10.811  12.807 -25.276  1.00  0.00     0.129 A 
HETATM   34  F2  UNL     1      10.757  14.162 -25.369  1.00  0.00    -0.205 F 
ENDBRANCH  26  27
ENDBRANCH  23  25
ENDBRANCH  22  23
ENDBRANCH  21  22
ENDBRANCH  20  21
ENDBRANCH  14  20
TORSDOF 6
ENDMDL
MODEL 4
REMARK VINA RESULT: -10.632838520      1.330      1.733
REMARK  6 active torsions:
REMARK  status: ('A' for Active; 'I' for Inactive)
REMARK    1  A    between atoms: C14_14  and  C15_15 
REMARK    2  A    between atoms: C15_15  and  C16_16 
REMARK    3  A    between atoms: C16_16  and  O1_17 
REMARK    4  A    between atoms: O1_17  and  C17_18 
REMARK    5  A    between atoms: C17_18  and  C18_20 
REMARK    6  A    between atoms: C19_21  and  C20_22 
ROOT
HETATM    1  C1  UNL     1      16.726  12.283 -20.094  1.00  0.00     0.010 C 
HETATM    2  C2  UNL     1      16.870  13.575 -20.925  1.00  0.00    -0.013 C 
HETATM    3  C3  UNL     1      18.205  14.135 -20.729  1.00  0.00     0.005 C 
HETATM    4  C4  UNL     1      18.325  15.616 -20.556  1.00  0.00     0.001 C 
HETATM    5  C5  UNL     1      17.024  16.209 -19.979  1.00  0.00     0.014 C 
HETATM    6  C6  UNL     1      15.870  15.893 -20.876  1.00  0.00    -0.015 C 
HETATM    7  C7  UNL     1      16.358  15.977 -22.344  1.00  0.00     0.020 C 
HETATM    8  C8  UNL     1      15.656  14.377 -20.707  1.00  0.00     0.005 C 
HETATM    9  C9  UNL     1      14.575  13.949 -21.722  1.00  0.00     0.033 C 
HETATM   10  C10 UNL     1      13.381  14.795 -21.602  1.00  0.00    -0.019 C 
HETATM   11  C11 UNL     1      13.405  15.994 -21.154  1.00  0.00    -0.058 C 
HETATM   12  C12 UNL     1      12.189  16.875 -21.021  1.00  0.00     0.039 C 
HETATM   13  C13 UNL     1      11.931  17.304 -19.594  1.00  0.00     0.015 C 
HETATM   14  C14 UNL     1      13.114  17.136 -18.745  1.00  0.00    -0.027 C 
HETATM   15  C26 UNL     1      13.651  18.195 -17.837  1.00  0.00     0.012 C 
HETATM   16  C27 UNL     1      15.037  17.671 -18.318  1.00  0.00     0.015 C 
HETATM   17  C28 UNL     1      14.333  17.511 -19.582  1.00  0.00    -0.011 C 
HETATM   18  C29 UNL     1      14.102  18.973 -20.069  1.00  0.00     0.021 C 
HETATM   19  C30 UNL     1      14.652  16.679 -20.726  1.00  0.00    -0.056 C 
ENDROOT
BRANCH  14  20
HETATM   20  C15 UNL     1      13.068  15.864 -17.990  1.00  0.00     0.037 C 
BRANCH  20  21
HETATM   21  C16 UNL     1      11.814  15.074 -18.177  1.00  0.00     0.180 C 
BRANCH  21  22
HETATM   22  O1  UNL     1      11.970  13.689 -18.226  1.00  0.00    -0.318 OA
BRANCH  22  23
HETATM   23  C17 UNL     1      11.455  12.911 -19.308  1.00  0.00     0.282 C 
HETATM   24  O2  UNL     1      11.982  11.789 -19.369  1.00  0.00    -0.260 OA
BRANCH  23  25
HETATM   25  C18 UNL     1      10.451  13.521 -20.120  1.00  0.00     0.083 C 
HETATM   26  C19 UNL     1      10.021  13.452 -21.306  1.00  0.00     0.024 C 
BRANCH  26  27
HETATM   27  C20 UNL     1      10.331  12.686 -22.465  1.00  0.00     0.041 A 
HETATM   28  C21 UNL     1      10.763  13.139 -23.655  1.00  0.00     0.129 A 
HETATM   29  F1  UNL     1      11.230  14.401 -23.882  1.00  0.00    -0.205 F 
HETATM   30  C22 UNL     1      10.882  12.278 -24.746  1.00  0.00     0.043 A 
HETATM   31  C23 UNL     1      10.577  10.944 -24.671  1.00  0.00     0.006 A 
HETATM   32  C24 UNL     1      10.142  10.482 -23.456  1.00  0.00     0.043 A 
HETATM   33  C25 UNL     1      10.016  11.303 -22.381  1.00  0.00     0.129 A 
HETATM   34  F2  UNL     1       9.577  10.767 -21.210  1.00  0.00    -0.205 F 
ENDBRANCH  26  27
ENDBRANCH  23  25
ENDBRANCH  22  23
ENDBRANCH  21  22
ENDBRANCH  20  21
ENDBRANCH  14  20
TORSDOF 6
ENDMDL
MODEL 5
REMARK VINA RESULT: -10.612049494      1.136      1.495
REMARK  6 active torsions:
REMARK  status: ('A' for Active; 'I' for Inactive)
REMARK    1  A    between atoms: C14_14  and  C15_15 
REMARK    2  A    between atoms: C15_15  and  C16_16 
REMARK    3  A    between atoms: C16_16  and  O1_17 
REMARK    4  A    between atoms: O1_17  and  C17_18 
REMARK    5  A    between atoms: C17_18  and  C18_20 
REMARK    6  A    between atoms: C19_21  and  C20_22 
ROOT
HETATM    1  C1  UNL     1      17.211  12.394 -20.101  1.00  0.00     0.010 C 
HETATM    2  C2  UNL     1      17.592  13.858 -20.405  1.00  0.00    -0.013 C 
HETATM    3  C3  UNL     1      18.565  14.324 -19.418  1.00  0.00     0.005 C 
HETATM    4  C4  UNL     1      18.395  15.703 -18.864  1.00  0.00     0.001 C 
HETATM    5  C5  UNL     1      16.919  16.143 -18.926  1.00  0.00     0.014 C 
HETATM    6  C6  UNL     1      16.424  16.096 -20.336  1.00  0.00    -0.015 C 
HETATM    7  C7  UNL     1      17.570  16.559 -21.269  1.00  0.00     0.020 C 
HETATM    8  C8  UNL     1      16.345  14.594 -20.666  1.00  0.00     0.005 C 
HETATM    9  C9  UNL     1      15.986  14.469 -22.162  1.00  0.00     0.033 C 
HETATM   10  C10 UNL     1      14.800  15.272 -22.483  1.00  0.00    -0.019 C 
HETATM   11  C11 UNL     1      14.445  16.308 -21.820  1.00  0.00    -0.058 C 
HETATM   12  C12 UNL     1      13.229  17.142 -22.134  1.00  0.00     0.039 C 
HETATM   13  C13 UNL     1      12.236  17.180 -20.995  1.00  0.00     0.015 C 
HETATM   14  C14 UNL     1      12.840  16.773 -19.723  1.00  0.00    -0.027 C 
HETATM   15  C26 UNL     1      12.709  17.542 -18.448  1.00  0.00     0.012 C 
HETATM   16  C27 UNL     1      14.201  17.142 -18.247  1.00  0.00     0.015 C 
HETATM   17  C28 UNL     1      14.256  17.336 -19.689  1.00  0.00    -0.011 C 
HETATM   18  C29 UNL     1      14.122  18.879 -19.864  1.00  0.00     0.021 C 
HETATM   19  C30 UNL     1      15.210  16.834 -20.660  1.00  0.00    -0.056 C 
ENDROOT
BRANCH  14  20
HETATM   20  C15 UNL     1      12.578  15.346 -19.426  1.00  0.00     0.037 C 
BRANCH  20  21
HETATM   21  C16 UNL     1      11.402  15.100 -18.539  1.00  0.00     0.180 C 
BRANCH  21  22
HETATM   22  O1  UNL     1      10.765  13.870 -18.700  1.00  0.00    -0.318 OA
BRANCH  22  23
HETATM   23  C17 UNL     1      10.102  13.519 -19.916  1.00  0.00     0.282 C 
HETATM   24  O2  UNL     1       9.375  14.435 -20.334  1.00  0.00    -0.260 OA
BRANCH  23  25
HETATM   25  C18 UNL     1      10.369  12.220 -20.444  1.00  0.00     0.083 C 
HETATM   26  C19 UNL     1      10.619  11.684 -21.561  1.00  0.00     0.024 C 
BRANCH  26  27
HETATM   27  C20 UNL     1      10.781  12.135 -22.901  1.00  0.00     0.041 A 
HETATM   28  C21 UNL     1      11.116  13.370 -23.315  1.00  0.00     0.129 A 
HETATM   29  F1  UNL     1      11.615  14.350 -22.508  1.00  0.00    -0.205 F 
HETATM   30  C22 UNL     1      11.091  13.699 -24.669  1.00  0.00     0.043 A 
HETATM   31  C23 UNL     1      10.735  12.801 -25.642  1.00  0.00     0.006 A 
HETATM   32  C24 UNL     1      10.398  11.542 -25.219  1.00  0.00     0.043 A 
HETATM   33  C25 UNL     1      10.413  11.199 -23.905  1.00  0.00     0.129 A 
HETATM   34  F2  UNL     1      10.066   9.929 -23.567  1.00  0.00    -0.205 F 
ENDBRANCH  26  27
ENDBRANCH  23  25
ENDBRANCH  22  23
ENDBRANCH  21  22
ENDBRANCH  20  21
ENDBRANCH  14  20
TORSDOF 6
ENDMDL
