MODEL 1
REMARK VINA RESULT: -8.560494450      0.000      0.000
REMARK  8 active torsions:
REMARK  status: ('A' for Active; 'I' for Inactive)
REMARK    1  A    between atoms: C7_13  and  C8_14 
REMARK    2  A    between atoms: C8_14  and  O1_15 
REMARK    3  A    between atoms: C8_14  and  N5_17 
REMARK    4  A    between atoms: N5_17  and  C9_19 
REMARK    5  A    between atoms: C9_19  and  C10_20 
REMARK    6  A    between atoms: C9_19  and  C21_31 
REMARK    7  A    between atoms: C13_23  and  C14_24 
REMARK    8  A    between atoms: C24_34  and  N6_35 
ROOT
HETATM    1  C9  UNL     1       8.666  32.085  60.636  1.00  0.00     0.150 C 
ENDROOT
BRANCH   1   2
HETATM    2  N5  UNL     1       8.078  32.213  59.281  1.00  0.00    -0.356 N 
ATOM      3  H5  UNL     1       7.083  32.417  59.178  1.00  0.00     0.162 HD
BRANCH   2   4
HETATM    4  C8  UNL     1       8.863  32.060  58.161  1.00  0.00     0.166 C 
BRANCH   4   5
HETATM    5  C7  UNL     1      10.275  32.221  57.897  1.00  0.00     0.107 A 
HETATM    6  C2  UNL     1      11.281  31.189  58.023  1.00  0.00    -0.012 A 
HETATM    7  C1  UNL     1      10.960  29.806  58.452  1.00  0.00     0.052 C 
HETATM    8  C3  UNL     1      12.576  31.445  57.752  1.00  0.00     0.121 A 
HETATM    9  N1  UNL     1      12.987  32.727  57.337  1.00  0.00    -0.283 N 
HETATM   10  C4  UNL     1      14.342  33.088  57.025  1.00  0.00     0.169 C 
HETATM   11  N3  UNL     1      12.020  33.725  57.214  1.00  0.00    -0.214 N 
HETATM   12  C5  UNL     1      14.269  33.924  55.753  1.00  0.00     0.137 C 
HETATM   13  N2  UNL     1      13.513  35.119  55.907  1.00  0.00    -0.402 N 
HETATM   14  C6  UNL     1      12.402  35.082  56.784  1.00  0.00     0.286 C 
ATOM     15  H2  UNL     1      13.762  35.971  55.405  1.00  0.00     0.154 HD
HETATM   16  N4  UNL     1      10.715  33.406  57.504  1.00  0.00    -0.278 N 
ATOM     17  H4  UNL     1      10.023  34.150  57.407  1.00  0.00     0.189 HD
ENDBRANCH   4   5
BRANCH   4  18
HETATM   18  O1  UNL     1       8.179  31.688  57.104  1.00  0.00    -0.345 OA
ATOM     19  H1  UNL     1       7.289  32.020  57.099  1.00  0.00     0.219 HD
ENDBRANCH   4  18
ENDBRANCH   2   4
ENDBRANCH   1   2
BRANCH   1  20
HETATM   20  C10 UNL     1       8.484  30.693  61.112  1.00  0.00    -0.031 A 
HETATM   21  C11 UNL     1       9.400  30.107  61.959  1.00  0.00     0.010 A 
HETATM   22  C12 UNL     1       9.268  28.817  62.425  1.00  0.00     0.013 A 
HETATM   23  C13 UNL     1       8.199  28.062  62.054  1.00  0.00    -0.026 A 
HETATM   24  C19 UNL     1       7.262  28.613  61.209  1.00  0.00     0.013 A 
HETATM   25  C20 UNL     1       7.403  29.916  60.743  1.00  0.00     0.010 A 
BRANCH  23  26
HETATM   26  C14 UNL     1       8.074  26.685  62.562  1.00  0.00    -0.030 A 
HETATM   27  C15 UNL     1       7.632  25.653  61.873  1.00  0.00    -0.011 A 
HETATM   28  C16 UNL     1       7.658  24.452  62.730  1.00  0.00     0.055 A 
HETATM   29  C17 UNL     1       8.181  24.938  64.016  1.00  0.00    -0.022 A 
HETATM   30  C18 UNL     1       8.413  26.229  63.896  1.00  0.00     0.008 A 
ENDBRANCH  23  26
ENDBRANCH   1  20
BRANCH   1  31
HETATM   31  C21 UNL     1       8.134  33.093  61.558  1.00  0.00    -0.031 A 
HETATM   32  C22 UNL     1       6.810  33.500  61.427  1.00  0.00     0.012 A 
HETATM   33  C23 UNL     1       6.236  34.438  62.248  1.00  0.00     0.030 A 
HETATM   34  C24 UNL     1       6.982  35.022  63.259  1.00  0.00     0.039 A 
HETATM   35  C28 UNL     1       8.286  34.625  63.392  1.00  0.00     0.030 A 
HETATM   36  C29 UNL     1       8.864  33.682  62.567  1.00  0.00     0.012 A 
BRANCH  34  37
HETATM   37  N6  UNL     1       6.405  35.999  64.123  1.00  0.00    -0.317 N 
HETATM   38  C25 UNL     1       5.161  36.510  64.126  1.00  0.00     0.115 A 
HETATM   39  C26 UNL     1       5.034  37.424  65.131  1.00  0.00     0.106 A 
HETATM   40  N7  UNL     1       6.221  37.477  65.757  1.00  0.00    -0.360 N 
HETATM   41  C27 UNL     1       7.036  36.620  65.147  1.00  0.00     0.188 A 
ATOM     42  H7  UNL     1       6.455  38.066  66.556  1.00  0.00     0.166 HD
ENDBRANCH  34  37
ENDBRANCH   1  31
TORSDOF 8
ENDMDL
MODEL 2
REMARK VINA RESULT: -8.244378094      1.987      6.848
REMARK  8 active torsions:
REMARK  status: ('A' for Active; 'I' for Inactive)
REMARK    1  A    between atoms: C7_13  and  C8_14 
REMARK    2  A    between atoms: C8_14  and  O1_15 
REMARK    3  A    between atoms: C8_14  and  N5_17 
REMARK    4  A    between atoms: N5_17  and  C9_19 
REMARK    5  A    between atoms: C9_19  and  C10_20 
REMARK    6  A    between atoms: C9_19  and  C21_31 
REMARK    7  A    between atoms: C13_23  and  C14_24 
REMARK    8  A    between atoms: C24_34  and  N6_35 
ROOT
HETATM    1  C9  UNL     1       8.044  31.899  60.446  1.00  0.00     0.150 C 
ENDROOT
BRANCH   1   2
HETATM    2  N5  UNL     1       9.425  32.330  60.124  1.00  0.00    -0.356 N 
ATOM      3  H5  UNL     1      10.111  32.434  60.872  1.00  0.00     0.162 HD
BRANCH   2   4
HETATM    4  C8  UNL     1       9.789  32.590  58.822  1.00  0.00     0.166 C 
BRANCH   4   5
HETATM    5  C7  UNL     1      11.047  32.572  58.111  1.00  0.00     0.107 A 
HETATM    6  C2  UNL     1      11.816  31.393  57.781  1.00  0.00    -0.012 A 
HETATM    7  C1  UNL     1      11.380  30.024  58.151  1.00  0.00     0.052 C 
HETATM    8  C3  UNL     1      12.982  31.487  57.113  1.00  0.00     0.121 A 
HETATM    9  N1  UNL     1      13.487  32.741  56.715  1.00  0.00    -0.283 N 
HETATM   10  C4  UNL     1      14.716  32.935  55.999  1.00  0.00     0.169 C 
HETATM   11  N3  UNL     1      12.749  33.882  57.030  1.00  0.00    -0.214 N 
HETATM   12  C5  UNL     1      14.412  33.967  54.920  1.00  0.00     0.137 C 
HETATM   13  N2  UNL     1      13.996  35.224  55.443  1.00  0.00    -0.402 N 
HETATM   14  C6  UNL     1      13.235  35.216  56.636  1.00  0.00     0.286 C 
ATOM     15  H2  UNL     1      14.237  36.097  54.975  1.00  0.00     0.154 HD
HETATM   16  N4  UNL     1      11.566  33.724  57.714  1.00  0.00    -0.278 N 
ATOM     17  H4  UNL     1      11.041  34.571  57.935  1.00  0.00     0.189 HD
ENDBRANCH   4   5
BRANCH   4  18
HETATM   18  O1  UNL     1       8.772  32.927  58.064  1.00  0.00    -0.345 OA
ATOM     19  H1  UNL     1       7.933  32.814  58.494  1.00  0.00     0.219 HD
ENDBRANCH   4  18
ENDBRANCH   2   4
ENDBRANCH   1   2
BRANCH   1  20
HETATM   20  C10 UNL     1       7.411  32.916  61.320  1.00  0.00    -0.031 A 
HETATM   21  C11 UNL     1       6.288  33.602  60.912  1.00  0.00     0.010 A 
HETATM   22  C12 UNL     1       5.670  34.554  61.692  1.00  0.00     0.013 A 
HETATM   23  C13 UNL     1       6.163  34.853  62.925  1.00  0.00    -0.026 A 
HETATM   24  C19 UNL     1       7.283  34.188  63.368  1.00  0.00     0.013 A 
HETATM   25  C20 UNL     1       7.901  33.229  62.573  1.00  0.00     0.010 A 
BRANCH  23  26
HETATM   26  C14 UNL     1       5.488  35.874  63.746  1.00  0.00    -0.030 A 
HETATM   27  C15 UNL     1       6.066  36.618  64.666  1.00  0.00    -0.011 A 
HETATM   28  C16 UNL     1       5.059  37.517  65.264  1.00  0.00     0.055 A 
HETATM   29  C17 UNL     1       3.814  37.185  64.555  1.00  0.00    -0.022 A 
HETATM   30  C18 UNL     1       4.086  36.235  63.685  1.00  0.00     0.008 A 
ENDBRANCH  23  26
ENDBRANCH   1  20
BRANCH   1  31
HETATM   31  C21 UNL     1       8.014  30.545  61.009  1.00  0.00    -0.031 A 
HETATM   32  C22 UNL     1       6.881  29.758  60.826  1.00  0.00     0.012 A 
HETATM   33  C23 UNL     1       6.773  28.483  61.322  1.00  0.00     0.030 A 
HETATM   34  C24 UNL     1       7.821  27.928  62.040  1.00  0.00     0.039 A 
HETATM   35  C28 UNL     1       8.939  28.700  62.223  1.00  0.00     0.030 A 
HETATM   36  C29 UNL     1       9.048  29.981  61.726  1.00  0.00     0.012 A 
BRANCH  34  37
HETATM   37  N6  UNL     1       7.730  26.605  62.564  1.00  0.00    -0.317 N 
HETATM   38  C25 UNL     1       8.653  25.628  62.582  1.00  0.00     0.115 A 
HETATM   39  C26 UNL     1       8.142  24.515  63.184  1.00  0.00     0.106 A 
HETATM   40  N7  UNL     1       6.883  24.813  63.543  1.00  0.00    -0.360 N 
HETATM   41  C27 UNL     1       6.644  26.067  63.167  1.00  0.00     0.188 A 
ATOM     42  H7  UNL     1       6.228  24.192  64.018  1.00  0.00     0.166 HD
ENDBRANCH  34  37
ENDBRANCH   1  31
TORSDOF 8
ENDMDL
MODEL 3
REMARK VINA RESULT: -8.118221653      2.563      8.718
REMARK  8 active torsions:
REMARK  status: ('A' for Active; 'I' for Inactive)
REMARK    1  A    between atoms: C7_13  and  C8_14 
REMARK    2  A    between atoms: C8_14  and  O1_15 
REMARK    3  A    between atoms: C8_14  and  N5_17 
REMARK    4  A    between atoms: N5_17  and  C9_19 
REMARK    5  A    between atoms: C9_19  and  C10_20 
REMARK    6  A    between atoms: C9_19  and  C21_31 
REMARK    7  A    between atoms: C13_23  and  C14_24 
REMARK    8  A    between atoms: C24_34  and  N6_35 
ROOT
HETATM    1  C9  UNL     1       8.504  31.809  60.716  1.00  0.00     0.150 C 
ENDROOT
BRANCH   1   2
HETATM    2  N5  UNL     1       7.571  30.828  60.112  1.00  0.00    -0.356 N 
ATOM      3  H5  UNL     1       6.706  31.152  59.680  1.00  0.00     0.162 HD
BRANCH   2   4
HETATM    4  C8  UNL     1       7.863  29.483  60.131  1.00  0.00     0.166 C 
BRANCH   4   5
HETATM    5  C7  UNL     1       7.672  28.429  61.102  1.00  0.00     0.107 A 
HETATM    6  C2  UNL     1       6.398  27.900  61.536  1.00  0.00    -0.012 A 
HETATM    7  C1  UNL     1       5.103  28.401  61.014  1.00  0.00     0.052 C 
HETATM    8  C3  UNL     1       6.331  26.913  62.451  1.00  0.00     0.121 A 
HETATM    9  N1  UNL     1       7.502  26.367  63.012  1.00  0.00    -0.283 N 
HETATM   10  C4  UNL     1       7.525  25.314  63.989  1.00  0.00     0.169 C 
HETATM   11  N3  UNL     1       8.733  26.874  62.596  1.00  0.00    -0.214 N 
HETATM   12  C5  UNL     1       8.631  24.363  63.550  1.00  0.00     0.137 C 
HETATM   13  N2  UNL     1       9.918  24.970  63.517  1.00  0.00    -0.402 N 
HETATM   14  C6  UNL     1       9.987  26.336  63.153  1.00  0.00     0.286 C 
ATOM     15  H2  UNL     1      10.758  24.440  63.748  1.00  0.00     0.154 HD
HETATM   16  N4  UNL     1       8.741  27.881  61.659  1.00  0.00    -0.278 N 
ATOM     17  H4  UNL     1       9.651  28.237  61.368  1.00  0.00     0.189 HD
ENDBRANCH   4   5
BRANCH   4  18
HETATM   18  O1  UNL     1       8.440  29.069  59.027  1.00  0.00    -0.345 OA
ATOM     19  H1  UNL     1       9.292  28.677  59.176  1.00  0.00     0.219 HD
ENDBRANCH   4  18
ENDBRANCH   2   4
ENDBRANCH   1   2
BRANCH   1  20
HETATM   20  C10 UNL     1       7.721  32.853  61.418  1.00  0.00    -0.031 A 
HETATM   21  C11 UNL     1       6.519  33.300  60.910  1.00  0.00     0.010 A 
HETATM   22  C12 UNL     1       5.761  34.268  61.531  1.00  0.00     0.013 A 
HETATM   23  C13 UNL     1       6.185  34.827  62.697  1.00  0.00    -0.026 A 
HETATM   24  C19 UNL     1       7.379  34.406  63.235  1.00  0.00     0.013 A 
HETATM   25  C20 UNL     1       8.140  33.428  62.602  1.00  0.00     0.010 A 
BRANCH  23  26
HETATM   26  C14 UNL     1       5.360  35.861  63.347  1.00  0.00    -0.030 A 
HETATM   27  C15 UNL     1       5.779  36.706  64.266  1.00  0.00    -0.011 A 
HETATM   28  C16 UNL     1       4.659  37.581  64.665  1.00  0.00     0.055 A 
HETATM   29  C17 UNL     1       3.530  37.118  63.842  1.00  0.00    -0.022 A 
HETATM   30  C18 UNL     1       3.959  36.126  63.091  1.00  0.00     0.008 A 
ENDBRANCH  23  26
ENDBRANCH   1  20
BRANCH   1  31
HETATM   31  C21 UNL     1       9.441  32.348  59.726  1.00  0.00    -0.031 A 
HETATM   32  C22 UNL     1      10.735  32.674  60.122  1.00  0.00     0.012 A 
HETATM   33  C23 UNL     1      11.670  33.186  59.258  1.00  0.00     0.030 A 
HETATM   34  C24 UNL     1      11.343  33.397  57.928  1.00  0.00     0.039 A 
HETATM   35  C28 UNL     1      10.070  33.078  57.533  1.00  0.00     0.030 A 
HETATM   36  C29 UNL     1       9.129  32.565  58.401  1.00  0.00     0.012 A 
BRANCH  34  37
HETATM   37  N6  UNL     1      12.300  33.927  57.014  1.00  0.00    -0.317 N 
HETATM   38  C25 UNL     1      13.204  33.283  56.254  1.00  0.00     0.115 A 
HETATM   39  C26 UNL     1      13.922  34.183  55.521  1.00  0.00     0.106 A 
HETATM   40  N7  UNL     1      13.453  35.401  55.837  1.00  0.00    -0.360 N 
HETATM   41  C27 UNL     1      12.482  35.238  56.732  1.00  0.00     0.188 A 
ATOM     42  H7  UNL     1      13.782  36.290  55.459  1.00  0.00     0.166 HD
ENDBRANCH  34  37
ENDBRANCH   1  31
TORSDOF 8
ENDMDL
MODEL 4
REMARK VINA RESULT: -8.108703569      2.632      8.809
REMARK  8 active torsions:
REMARK  status: ('A' for Active; 'I' for Inactive)
REMARK    1  A    between atoms: C7_13  and  C8_14 
REMARK    2  A    between atoms: C8_14  and  O1_15 
REMARK    3  A    between atoms: C8_14  and  N5_17 
REMARK    4  A    between atoms: N5_17  and  C9_19 
REMARK    5  A    between atoms: C9_19  and  C10_20 
REMARK    6  A    between atoms: C9_19  and  C21_31 
REMARK    7  A    between atoms: C13_23  and  C14_24 
REMARK    8  A    between atoms: C24_34  and  N6_35 
ROOT
HETATM    1  C9  UNL     1       7.891  31.855  61.343  1.00  0.00     0.150 C 
ENDROOT
BRANCH   1   2
HETATM    2  N5  UNL     1       6.837  30.963  60.804  1.00  0.00    -0.356 N 
ATOM      3  H5  UNL     1       5.886  31.313  60.690  1.00  0.00     0.162 HD
BRANCH   2   4
HETATM    4  C8  UNL     1       7.133  29.664  60.456  1.00  0.00     0.166 C 
BRANCH   4   5
HETATM    5  C7  UNL     1       7.575  28.504  61.196  1.00  0.00     0.107 A 
HETATM    6  C2  UNL     1       8.946  28.072  61.351  1.00  0.00    -0.012 A 
HETATM    7  C1  UNL     1      10.088  28.799  60.746  1.00  0.00     0.052 C 
HETATM    8  C3  UNL     1       9.251  26.970  62.065  1.00  0.00     0.121 A 
HETATM    9  N1  UNL     1       8.241  26.206  62.681  1.00  0.00    -0.283 N 
HETATM   10  C4  UNL     1       8.474  25.022  63.460  1.00  0.00     0.169 C 
HETATM   11  N3  UNL     1       6.916  26.619  62.534  1.00  0.00    -0.214 N 
HETATM   12  C5  UNL     1       7.574  25.144  64.683  1.00  0.00     0.137 C 
HETATM   13  N2  UNL     1       6.189  25.202  64.362  1.00  0.00    -0.402 N 
HETATM   14  C6  UNL     1       5.824  25.852  63.159  1.00  0.00     0.286 C 
ATOM     15  H2  UNL     1       5.486  24.790  64.975  1.00  0.00     0.154 HD
HETATM   16  N4  UNL     1       6.665  27.751  61.795  1.00  0.00    -0.278 N 
ATOM     17  H4  UNL     1       5.690  28.036  61.700  1.00  0.00     0.189 HD
ENDBRANCH   4   5
BRANCH   4  18
HETATM   18  O1  UNL     1       6.980  29.431  59.174  1.00  0.00    -0.345 OA
ATOM     19  H1  UNL     1       6.678  30.190  58.690  1.00  0.00     0.219 HD
ENDBRANCH   4  18
ENDBRANCH   2   4
ENDBRANCH   1   2
BRANCH   1  20
HETATM   20  C10 UNL     1       7.248  33.005  62.024  1.00  0.00    -0.031 A 
HETATM   21  C11 UNL     1       6.238  33.718  61.413  1.00  0.00     0.010 A 
HETATM   22  C12 UNL     1       5.616  34.792  62.010  1.00  0.00     0.013 A 
HETATM   23  C13 UNL     1       5.988  35.192  63.257  1.00  0.00    -0.026 A 
HETATM   24  C19 UNL     1       6.992  34.505  63.899  1.00  0.00     0.013 A 
HETATM   25  C20 UNL     1       7.616  33.422  63.289  1.00  0.00     0.010 A 
BRANCH  23  26
HETATM   26  C14 UNL     1       5.310  36.342  63.880  1.00  0.00    -0.030 A 
HETATM   27  C15 UNL     1       5.850  37.164  64.756  1.00  0.00    -0.011 A 
HETATM   28  C16 UNL     1       4.854  38.184  65.141  1.00  0.00     0.055 A 
HETATM   29  C17 UNL     1       3.659  37.832  64.359  1.00  0.00    -0.022 A 
HETATM   30  C18 UNL     1       3.945  36.766  63.640  1.00  0.00     0.008 A 
ENDBRANCH  23  26
ENDBRANCH   1  20
BRANCH   1  31
HETATM   31  C21 UNL     1       8.850  32.252  60.308  1.00  0.00    -0.031 A 
HETATM   32  C22 UNL     1      10.184  32.443  60.655  1.00  0.00     0.012 A 
HETATM   33  C23 UNL     1      11.143  32.815  59.747  1.00  0.00     0.030 A 
HETATM   34  C24 UNL     1      10.799  33.017  58.420  1.00  0.00     0.039 A 
HETATM   35  C28 UNL     1       9.486  32.830  58.073  1.00  0.00     0.030 A 
HETATM   36  C29 UNL     1       8.522  32.456  58.985  1.00  0.00     0.012 A 
BRANCH  34  37
HETATM   37  N6  UNL     1      11.779  33.404  57.460  1.00  0.00    -0.317 N 
HETATM   38  C25 UNL     1      12.221  34.633  57.137  1.00  0.00     0.115 A 
HETATM   39  C26 UNL     1      13.170  34.545  56.160  1.00  0.00     0.106 A 
HETATM   40  N7  UNL     1      13.314  33.240  55.877  1.00  0.00    -0.360 N 
HETATM   41  C27 UNL     1      12.477  32.564  56.660  1.00  0.00     0.188 A 
ATOM     42  H7  UNL     1      13.950  32.840  55.187  1.00  0.00     0.166 HD
ENDBRANCH  34  37
ENDBRANCH   1  31
TORSDOF 8
ENDMDL
MODEL 5
REMARK VINA RESULT: -8.081606623      4.145      7.071
REMARK  8 active torsions:
REMARK  status: ('A' for Active; 'I' for Inactive)
REMARK    1  A    between atoms: C7_13  and  C8_14 
REMARK    2  A    between atoms: C8_14  and  O1_15 
REMARK    3  A    between atoms: C8_14  and  N5_17 
REMARK    4  A    between atoms: N5_17  and  C9_19 
REMARK    5  A    between atoms: C9_19  and  C10_20 
REMARK    6  A    between atoms: C9_19  and  C21_31 
REMARK    7  A    between atoms: C13_23  and  C14_24 
REMARK    8  A    between atoms: C24_34  and  N6_35 
ROOT
HETATM    1  C9  UNL     1       7.433  33.250  62.010  1.00  0.00     0.150 C 
ENDROOT
BRANCH   1   2
HETATM    2  N5  UNL     1       5.982  33.302  61.715  1.00  0.00    -0.356 N 
ATOM      3  H5  UNL     1       5.434  32.442  61.711  1.00  0.00     0.162 HD
BRANCH   2   4
HETATM    4  C8  UNL     1       5.367  34.504  61.447  1.00  0.00     0.166 C 
BRANCH   4   5
HETATM    5  C7  UNL     1       4.679  35.482  62.260  1.00  0.00     0.107 A 
HETATM    6  C2  UNL     1       3.272  35.804  62.185  1.00  0.00    -0.012 A 
HETATM    7  C1  UNL     1       2.348  35.142  61.232  1.00  0.00     0.052 C 
HETATM    8  C3  UNL     1       2.728  36.737  62.992  1.00  0.00     0.121 A 
HETATM    9  N1  UNL     1       3.518  37.426  63.933  1.00  0.00    -0.283 N 
HETATM   10  C4  UNL     1       3.025  38.431  64.833  1.00  0.00     0.169 C 
HETATM   11  N3  UNL     1       4.877  37.118  64.009  1.00  0.00    -0.214 N 
HETATM   12  C5  UNL     1       3.663  38.132  66.183  1.00  0.00     0.137 C 
HETATM   13  N2  UNL     1       5.084  38.208  66.165  1.00  0.00    -0.402 N 
HETATM   14  C6  UNL     1       5.744  37.813  64.977  1.00  0.00     0.286 C 
ATOM     15  H2  UNL     1       5.607  38.536  66.977  1.00  0.00     0.154 HD
HETATM   16  N4  UNL     1       5.375  36.158  63.161  1.00  0.00    -0.278 N 
ATOM     17  H4  UNL     1       6.371  35.947  63.232  1.00  0.00     0.189 HD
ENDBRANCH   4   5
BRANCH   4  18
HETATM   18  O1  UNL     1       5.416  34.832  60.177  1.00  0.00    -0.345 OA
ATOM     19  H1  UNL     1       5.610  34.096  59.609  1.00  0.00     0.219 HD
ENDBRANCH   4  18
ENDBRANCH   2   4
ENDBRANCH   1   2
BRANCH   1  20
HETATM   20  C10 UNL     1       7.930  31.877  61.753  1.00  0.00    -0.031 A 
HETATM   21  C11 UNL     1       7.153  30.955  61.083  1.00  0.00     0.010 A 
HETATM   22  C12 UNL     1       7.576  29.670  60.823  1.00  0.00     0.013 A 
HETATM   23  C13 UNL     1       8.808  29.260  61.230  1.00  0.00    -0.026 A 
HETATM   24  C19 UNL     1       9.613  30.152  61.901  1.00  0.00     0.013 A 
HETATM   25  C20 UNL     1       9.178  31.448  62.160  1.00  0.00     0.010 A 
BRANCH  23  26
HETATM   26  C14 UNL     1       9.244  27.882  60.943  1.00  0.00    -0.030 A 
HETATM   27  C15 UNL     1      10.494  27.476  60.870  1.00  0.00    -0.011 A 
HETATM   28  C16 UNL     1      10.517  26.032  60.565  1.00  0.00     0.055 A 
HETATM   29  C17 UNL     1       9.097  25.661  60.473  1.00  0.00    -0.022 A 
HETATM   30  C18 UNL     1       8.381  26.744  60.694  1.00  0.00     0.008 A 
ENDBRANCH  23  26
ENDBRANCH   1  20
BRANCH   1  31
HETATM   31  C21 UNL     1       7.732  33.734  63.361  1.00  0.00    -0.031 A 
HETATM   32  C22 UNL     1       7.383  32.950  64.456  1.00  0.00     0.012 A 
HETATM   33  C23 UNL     1       7.625  33.332  65.752  1.00  0.00     0.030 A 
HETATM   34  C24 UNL     1       8.243  34.545  66.013  1.00  0.00     0.039 A 
HETATM   35  C28 UNL     1       8.588  35.321  64.937  1.00  0.00     0.030 A 
HETATM   36  C29 UNL     1       8.344  34.938  63.635  1.00  0.00     0.012 A 
BRANCH  34  37
HETATM   37  N6  UNL     1       8.504  34.961  67.351  1.00  0.00    -0.317 N 
HETATM   38  C25 UNL     1       8.611  36.204  67.854  1.00  0.00     0.115 A 
HETATM   39  C26 UNL     1       8.868  36.143  69.193  1.00  0.00     0.106 A 
HETATM   40  N7  UNL     1       8.921  34.841  69.519  1.00  0.00    -0.360 N 
HETATM   41  C27 UNL     1       8.702  34.141  68.409  1.00  0.00     0.188 A 
ATOM     42  H7  UNL     1       9.097  34.460  70.448  1.00  0.00     0.166 HD
ENDBRANCH  34  37
ENDBRANCH   1  31
TORSDOF 8
ENDMDL
