MODEL 1
REMARK VINA RESULT: -10.685021354      0.000      0.000
REMARK  6 active torsions:
REMARK  status: ('A' for Active; 'I' for Inactive)
REMARK    1  A    between atoms: C2_2  and  C3_3 
REMARK    2  A    between atoms: C3_3  and  C4_4 
REMARK    3  A    between atoms: C10_12  and  N2_13 
REMARK       I    between atoms: N2_13  and  C11_15 
REMARK    4  A    between atoms: C11_15  and  C12_17 
REMARK    5  A    between atoms: C16_21  and  N3_22 
REMARK    6  A    between atoms: N3_22  and  C17_24 
ROOT
HETATM    1  C12 UNL     1       6.770  35.214  64.413  1.00  0.00     0.035 A 
HETATM    2  C13 UNL     1       5.528  35.267  63.826  1.00  0.00     0.017 A 
HETATM    3  C14 UNL     1       4.756  36.416  63.886  1.00  0.00     0.003 A 
HETATM    4  C15 UNL     1       5.258  37.529  64.556  1.00  0.00     0.029 A 
HETATM    5  C16 UNL     1       6.492  37.519  65.156  1.00  0.00     0.034 A 
HETATM    6  C29 UNL     1       7.221  36.326  65.057  1.00  0.00     0.046 A 
ENDROOT
BRANCH   1   7
HETATM    7  C11 UNL     1       7.549  34.019  64.339  1.00  0.00     0.270 C 
HETATM    8  N2  UNL     1       8.821  33.978  63.701  1.00  0.00    -0.154 N 
ATOM      9  H2  UNL     1       9.591  34.543  64.058  1.00  0.00     0.187 HD
HETATM   10  O1  UNL     1       7.098  32.956  64.859  1.00  0.00    -0.267 OA
BRANCH   8  11
HETATM   11  C10 UNL     1       8.996  33.224  62.671  1.00  0.00     0.701 A 
HETATM   12  N1  UNL     1       9.771  33.500  61.621  1.00  0.00    -0.178 N 
HETATM   13  C9  UNL     1       9.713  32.472  60.726  1.00  0.00     0.115 A 
ATOM     14  H1  UNL     1      10.323  34.350  61.505  1.00  0.00     0.185 HD
HETATM   15  C8  UNL     1      10.469  32.466  59.452  1.00  0.00     0.079 C 
HETATM   16  N7  UNL     1       8.875  31.549  61.254  1.00  0.00    -0.261 N 
HETATM   17  C7  UNL     1       9.583  32.346  58.257  1.00  0.00     0.008 C 
HETATM   18  C6  UNL     1       8.383  31.503  58.591  1.00  0.00     0.002 C 
HETATM   19  C5  UNL     1       8.834  30.230  59.296  1.00  0.00     0.027 C 
HETATM   20  C4  UNL     1       8.443  30.240  60.729  1.00  0.00     0.110 C 
HETATM   21  N6  UNL     1       8.451  31.997  62.411  1.00  0.00    -0.128 N 
ATOM     22  H6  UNL     1       7.807  31.503  63.028  1.00  0.00     0.206 HD
BRANCH  20  23
HETATM   23  C3  UNL     1       7.034  30.028  61.087  1.00  0.00     0.027 C 
BRANCH  23  24
HETATM   24  C2  UNL     1       6.287  28.867  60.564  1.00  0.00    -0.002 C 
HETATM   25  C1  UNL     1       5.117  28.403  61.333  1.00  0.00     0.005 C 
ENDBRANCH  23  24
ENDBRANCH  20  23
ENDBRANCH   8  11
ENDBRANCH   1   7
BRANCH   5  26
HETATM   26  N3  UNL     1       7.105  38.586  65.832  1.00  0.00    -0.342 N 
ATOM     27  H3  UNL     1       8.123  38.605  65.777  1.00  0.00     0.167 HD
BRANCH  26  28
HETATM   28  C17 UNL     1       6.531  39.626  66.570  1.00  0.00     0.112 A 
HETATM   29  N4  UNL     1       6.217  40.791  65.994  1.00  0.00    -0.340 N 
HETATM   30  C18 UNL     1       5.678  41.834  66.650  1.00  0.00     0.061 A 
ATOM     31  H4  UNL     1       6.397  40.894  64.996  1.00  0.00     0.167 HD
HETATM   32  C19 UNL     1       5.370  43.018  66.017  1.00  0.00     0.045 A 
HETATM   33  C22 UNL     1       5.417  41.739  68.001  1.00  0.00     0.060 A 
HETATM   34  C20 UNL     1       4.810  44.072  66.745  1.00  0.00    -0.011 A 
HETATM   35  C21 UNL     1       4.565  43.941  68.087  1.00  0.00     0.039 A 
HETATM   36  C28 UNL     1       4.438  45.295  66.336  1.00  0.00    -0.009 A 
HETATM   37  N5  UNL     1       4.880  42.754  68.695  1.00  0.00    -0.354 N 
HETATM   38  C26 UNL     1       4.037  45.042  68.597  1.00  0.00     0.007 A 
ATOM     39  H5  UNL     1       4.703  42.639  69.694  1.00  0.00     0.166 HD
HETATM   40  C27 UNL     1       3.906  46.023  67.504  1.00  0.00     0.057 A 
HETATM   41  C23 UNL     1       5.741  40.531  68.605  1.00  0.00     0.042 A 
HETATM   42  C24 UNL     1       6.290  39.459  67.949  1.00  0.00    -0.016 A 
HETATM   43  C25 UNL     1       6.624  38.181  68.626  1.00  0.00     0.052 C 
ENDBRANCH  26  28
ENDBRANCH   5  26
TORSDOF 6
ENDMDL
MODEL 2
REMARK VINA RESULT: -10.466276042      0.764      2.410
REMARK  6 active torsions:
REMARK  status: ('A' for Active; 'I' for Inactive)
REMARK    1  A    between atoms: C2_2  and  C3_3 
REMARK    2  A    between atoms: C3_3  and  C4_4 
REMARK    3  A    between atoms: C10_12  and  N2_13 
REMARK       I    between atoms: N2_13  and  C11_15 
REMARK    4  A    between atoms: C11_15  and  C12_17 
REMARK    5  A    between atoms: C16_21  and  N3_22 
REMARK    6  A    between atoms: N3_22  and  C17_24 
ROOT
HETATM    1  C12 UNL     1       6.778  35.310  64.426  1.00  0.00     0.035 A 
HETATM    2  C13 UNL     1       5.509  35.337  63.899  1.00  0.00     0.017 A 
HETATM    3  C14 UNL     1       4.710  36.463  64.015  1.00  0.00     0.003 A 
HETATM    4  C15 UNL     1       5.213  37.580  64.679  1.00  0.00     0.029 A 
HETATM    5  C16 UNL     1       6.474  37.594  65.220  1.00  0.00     0.034 A 
HETATM    6  C29 UNL     1       7.229  36.424  65.067  1.00  0.00     0.046 A 
ENDROOT
BRANCH   1   7
HETATM    7  C11 UNL     1       7.586  34.139  64.295  1.00  0.00     0.270 C 
HETATM    8  N2  UNL     1       8.629  34.036  63.332  1.00  0.00    -0.154 N 
ATOM      9  H2  UNL     1       9.428  34.669  63.374  1.00  0.00     0.187 HD
HETATM   10  O1  UNL     1       7.371  33.153  65.062  1.00  0.00    -0.267 OA
BRANCH   8  11
HETATM   11  C10 UNL     1       8.562  33.142  62.407  1.00  0.00     0.701 A 
HETATM   12  N1  UNL     1       7.708  32.118  62.368  1.00  0.00    -0.178 N 
HETATM   13  C9  UNL     1       7.927  31.381  61.242  1.00  0.00     0.115 A 
ATOM     14  H1  UNL     1       6.999  31.918  63.074  1.00  0.00     0.185 HD
HETATM   15  C8  UNL     1       7.136  30.177  60.897  1.00  0.00     0.079 C 
HETATM   16  N7  UNL     1       8.946  31.981  60.582  1.00  0.00    -0.261 N 
HETATM   17  C7  UNL     1       7.980  28.955  60.757  1.00  0.00     0.008 C 
HETATM   18  C6  UNL     1       9.332  29.326  60.211  1.00  0.00     0.002 C 
HETATM   19  C5  UNL     1       9.162  30.238  59.003  1.00  0.00     0.027 C 
HETATM   20  C4  UNL     1       9.600  31.625  59.308  1.00  0.00     0.110 C 
HETATM   21  N6  UNL     1       9.321  33.028  61.276  1.00  0.00    -0.128 N 
ATOM     22  H6  UNL     1      10.072  33.666  61.011  1.00  0.00     0.206 HD
BRANCH  20  23
HETATM   23  C3  UNL     1      11.036  31.913  59.418  1.00  0.00     0.027 C 
BRANCH  23  24
HETATM   24  C2  UNL     1      11.671  32.932  58.557  1.00  0.00    -0.002 C 
HETATM   25  C1  UNL     1      10.970  33.315  57.317  1.00  0.00     0.005 C 
ENDBRANCH  23  24
ENDBRANCH  20  23
ENDBRANCH   8  11
ENDBRANCH   1   7
BRANCH   5  26
HETATM   26  N3  UNL     1       7.088  38.667  65.885  1.00  0.00    -0.342 N 
ATOM     27  H3  UNL     1       8.107  38.684  65.828  1.00  0.00     0.167 HD
BRANCH  26  28
HETATM   28  C17 UNL     1       6.517  39.716  66.613  1.00  0.00     0.112 A 
HETATM   29  N4  UNL     1       6.176  40.864  66.019  1.00  0.00    -0.340 N 
HETATM   30  C18 UNL     1       5.638  41.914  66.664  1.00  0.00     0.061 A 
ATOM     31  H4  UNL     1       6.334  40.948  65.016  1.00  0.00     0.167 HD
HETATM   32  C19 UNL     1       5.301  43.080  66.013  1.00  0.00     0.045 A 
HETATM   33  C22 UNL     1       5.406  41.845  68.022  1.00  0.00     0.060 A 
HETATM   34  C20 UNL     1       4.744  44.143  66.731  1.00  0.00    -0.011 A 
HETATM   35  C21 UNL     1       4.528  44.037  68.080  1.00  0.00     0.039 A 
HETATM   36  C28 UNL     1       4.348  45.352  66.304  1.00  0.00    -0.009 A 
HETATM   37  N5  UNL     1       4.871  42.867  68.706  1.00  0.00    -0.354 N 
HETATM   38  C26 UNL     1       3.996  45.142  68.578  1.00  0.00     0.007 A 
ATOM     39  H5  UNL     1       4.716  42.772  69.710  1.00  0.00     0.166 HD
HETATM   40  C27 UNL     1       3.830  46.098  67.468  1.00  0.00     0.057 A 
HETATM   41  C23 UNL     1       5.758  40.653  68.645  1.00  0.00     0.042 A 
HETATM   42  C24 UNL     1       6.307  39.575  68.000  1.00  0.00    -0.016 A 
HETATM   43  C25 UNL     1       6.671  38.315  68.696  1.00  0.00     0.052 C 
ENDBRANCH  26  28
ENDBRANCH   5  26
TORSDOF 6
ENDMDL
MODEL 3
REMARK VINA RESULT: -10.279609119      4.124     12.196
REMARK  6 active torsions:
REMARK  status: ('A' for Active; 'I' for Inactive)
REMARK    1  A    between atoms: C2_2  and  C3_3 
REMARK    2  A    between atoms: C3_3  and  C4_4 
REMARK    3  A    between atoms: C10_12  and  N2_13 
REMARK       I    between atoms: N2_13  and  C11_15 
REMARK    4  A    between atoms: C11_15  and  C12_17 
REMARK    5  A    between atoms: C16_21  and  N3_22 
REMARK    6  A    between atoms: N3_22  and  C17_24 
ROOT
HETATM    1  C12 UNL     1       8.499  32.005  61.403  1.00  0.00     0.035 A 
HETATM    2  C13 UNL     1       9.389  32.132  60.363  1.00  0.00     0.017 A 
HETATM    3  C14 UNL     1       9.456  31.179  59.359  1.00  0.00     0.003 A 
HETATM    4  C15 UNL     1       8.604  30.079  59.417  1.00  0.00     0.029 A 
HETATM    5  C16 UNL     1       7.701  29.914  60.437  1.00  0.00     0.034 A 
HETATM    6  C29 UNL     1       7.683  30.914  61.419  1.00  0.00     0.046 A 
ENDROOT
BRANCH   1   7
HETATM    7  C11 UNL     1       8.445  32.999  62.428  1.00  0.00     0.270 C 
HETATM    8  N2  UNL     1       7.395  33.047  63.389  1.00  0.00    -0.154 N 
ATOM      9  H2  UNL     1       7.258  32.270  64.035  1.00  0.00     0.187 HD
HETATM   10  O1  UNL     1       9.362  33.872  62.489  1.00  0.00    -0.267 OA
BRANCH   8  11
HETATM   11  C10 UNL     1       6.619  34.073  63.438  1.00  0.00     0.701 A 
HETATM   12  N1  UNL     1       6.787  35.146  64.212  1.00  0.00    -0.178 N 
HETATM   13  C9  UNL     1       5.771  36.030  63.998  1.00  0.00     0.115 A 
ATOM     14  H1  UNL     1       7.559  35.284  64.865  1.00  0.00     0.185 HD
HETATM   15  C8  UNL     1       5.671  37.332  64.698  1.00  0.00     0.079 C 
HETATM   16  N7  UNL     1       4.965  35.471  63.065  1.00  0.00    -0.261 N 
HETATM   17  C7  UNL     1       4.404  37.471  65.475  1.00  0.00     0.008 C 
HETATM   18  C6  UNL     1       3.290  36.742  64.773  1.00  0.00     0.002 C 
HETATM   19  C5  UNL     1       3.287  37.116  63.296  1.00  0.00     0.027 C 
HETATM   20  C4  UNL     1       3.722  35.975  62.450  1.00  0.00     0.110 C 
HETATM   21  N6  UNL     1       5.471  34.307  62.734  1.00  0.00    -0.128 N 
ATOM     22  H6  UNL     1       5.066  33.669  62.049  1.00  0.00     0.206 HD
BRANCH  20  23
HETATM   23  C3  UNL     1       2.805  34.847  62.244  1.00  0.00     0.027 C 
BRANCH  23  24
HETATM   24  C2  UNL     1       2.315  34.508  60.892  1.00  0.00    -0.002 C 
HETATM   25  C1  UNL     1       2.900  35.233  59.749  1.00  0.00     0.005 C 
ENDBRANCH  23  24
ENDBRANCH  20  23
ENDBRANCH   8  11
ENDBRANCH   1   7
BRANCH   5  26
HETATM   26  N3  UNL     1       6.781  28.864  60.581  1.00  0.00    -0.342 N 
ATOM     27  H3  UNL     1       6.111  28.768  59.818  1.00  0.00     0.167 HD
BRANCH  26  28
HETATM   28  C17 UNL     1       6.644  27.928  61.612  1.00  0.00     0.112 A 
HETATM   29  N4  UNL     1       7.714  27.370  62.186  1.00  0.00    -0.340 N 
HETATM   30  C18 UNL     1       7.651  26.455  63.169  1.00  0.00     0.061 A 
ATOM     31  H4  UNL     1       8.636  27.657  61.858  1.00  0.00     0.167 HD
HETATM   32  C19 UNL     1       8.780  25.905  63.733  1.00  0.00     0.045 A 
HETATM   33  C22 UNL     1       6.425  26.038  63.645  1.00  0.00     0.060 A 
HETATM   34  C20 UNL     1       8.658  24.956  64.753  1.00  0.00    -0.011 A 
HETATM   35  C21 UNL     1       7.423  24.566  65.199  1.00  0.00     0.039 A 
HETATM   36  C28 UNL     1       9.612  24.301  65.434  1.00  0.00    -0.009 A 
HETATM   37  N5  UNL     1       6.313  25.127  64.623  1.00  0.00    -0.354 N 
HETATM   38  C26 UNL     1       7.514  23.664  66.165  1.00  0.00     0.007 A 
ATOM     39  H5  UNL     1       5.386  24.848  64.945  1.00  0.00     0.166 HD
HETATM   40  C27 UNL     1       8.946  23.410  66.405  1.00  0.00     0.057 A 
HETATM   41  C23 UNL     1       5.308  26.614  63.052  1.00  0.00     0.042 A 
HETATM   42  C24 UNL     1       5.359  27.549  62.049  1.00  0.00    -0.016 A 
HETATM   43  C25 UNL     1       4.145  28.146  61.437  1.00  0.00     0.052 C 
ENDBRANCH  26  28
ENDBRANCH   5  26
TORSDOF 6
ENDMDL
MODEL 4
REMARK VINA RESULT: -10.245610989      2.967      9.710
REMARK  6 active torsions:
REMARK  status: ('A' for Active; 'I' for Inactive)
REMARK    1  A    between atoms: C2_2  and  C3_3 
REMARK    2  A    between atoms: C3_3  and  C4_4 
REMARK    3  A    between atoms: C10_12  and  N2_13 
REMARK       I    between atoms: N2_13  and  C11_15 
REMARK    4  A    between atoms: C11_15  and  C12_17 
REMARK    5  A    between atoms: C16_21  and  N3_22 
REMARK    6  A    between atoms: N3_22  and  C17_24 
ROOT
HETATM    1  C12 UNL     1       8.755  36.289  68.165  1.00  0.00     0.035 A 
HETATM    2  C13 UNL     1       8.591  35.285  69.090  1.00  0.00     0.017 A 
HETATM    3  C14 UNL     1       8.503  33.959  68.698  1.00  0.00     0.003 A 
HETATM    4  C15 UNL     1       8.584  33.652  67.341  1.00  0.00     0.029 A 
HETATM    5  C16 UNL     1       8.747  34.623  66.386  1.00  0.00     0.034 A 
HETATM    6  C29 UNL     1       8.829  35.943  66.850  1.00  0.00     0.046 A 
ENDROOT
BRANCH   1   7
HETATM    7  C11 UNL     1       8.842  37.650  68.591  1.00  0.00     0.270 C 
HETATM    8  N2  UNL     1       7.737  38.341  69.166  1.00  0.00    -0.154 N 
ATOM      9  H2  UNL     1       7.333  38.017  70.044  1.00  0.00     0.187 HD
HETATM   10  O1  UNL     1       9.939  38.270  68.455  1.00  0.00    -0.267 OA
BRANCH   8  11
HETATM   11  C10 UNL     1       7.250  39.376  68.572  1.00  0.00     0.701 A 
HETATM   12  N1  UNL     1       7.533  40.648  68.857  1.00  0.00    -0.178 N 
HETATM   13  C9  UNL     1       6.833  41.470  68.024  1.00  0.00     0.115 A 
ATOM     14  H1  UNL     1       8.176  40.957  69.586  1.00  0.00     0.185 HD
HETATM   15  C8  UNL     1       6.933  42.947  68.076  1.00  0.00     0.079 C 
HETATM   16  N7  UNL     1       6.105  40.667  67.213  1.00  0.00    -0.261 N 
HETATM   17  C7  UNL     1       5.618  43.603  68.336  1.00  0.00     0.008 C 
HETATM   18  C6  UNL     1       4.511  42.801  67.707  1.00  0.00     0.002 C 
HETATM   19  C5  UNL     1       4.884  42.456  66.271  1.00  0.00     0.027 C 
HETATM   20  C4  UNL     1       5.171  41.006  66.122  1.00  0.00     0.110 C 
HETATM   21  N6  UNL     1       6.355  39.422  67.540  1.00  0.00    -0.128 N 
ATOM     22  H6  UNL     1       5.941  38.606  67.090  1.00  0.00     0.206 HD
BRANCH  20  23
HETATM   23  C3  UNL     1       4.056  40.050  66.141  1.00  0.00     0.027 C 
BRANCH  23  24
HETATM   24  C2  UNL     1       4.131  38.784  65.384  1.00  0.00    -0.002 C 
HETATM   25  C1  UNL     1       3.237  37.686  65.796  1.00  0.00     0.005 C 
ENDBRANCH  23  24
ENDBRANCH  20  23
ENDBRANCH   8  11
ENDBRANCH   1   7
BRANCH   5  26
HETATM   26  N3  UNL     1       8.866  34.426  65.002  1.00  0.00    -0.342 N 
ATOM     27  H3  UNL     1       9.816  34.265  64.668  1.00  0.00     0.167 HD
BRANCH  26  28
HETATM   28  C17 UNL     1       7.879  34.417  64.010  1.00  0.00     0.112 A 
HETATM   29  N4  UNL     1       6.775  35.161  64.127  1.00  0.00    -0.340 N 
HETATM   30  C18 UNL     1       5.783  35.186  63.219  1.00  0.00     0.061 A 
ATOM     31  H4  UNL     1       6.679  35.747  64.956  1.00  0.00     0.167 HD
HETATM   32  C19 UNL     1       4.661  35.968  63.379  1.00  0.00     0.045 A 
HETATM   33  C22 UNL     1       5.871  34.410  62.081  1.00  0.00     0.060 A 
HETATM   34  C20 UNL     1       3.659  35.957  62.404  1.00  0.00    -0.011 A 
HETATM   35  C21 UNL     1       3.781  35.173  61.287  1.00  0.00     0.039 A 
HETATM   36  C28 UNL     1       2.499  36.631  62.358  1.00  0.00    -0.009 A 
HETATM   37  N5  UNL     1       4.907  34.403  61.149  1.00  0.00    -0.354 N 
HETATM   38  C26 UNL     1       2.735  35.298  60.485  1.00  0.00     0.007 A 
ATOM     39  H5  UNL     1       5.013  33.814  60.322  1.00  0.00     0.166 HD
HETATM   40  C27 UNL     1       1.806  36.258  61.109  1.00  0.00     0.057 A 
HETATM   41  C23 UNL     1       7.017  33.634  61.954  1.00  0.00     0.042 A 
HETATM   42  C24 UNL     1       8.035  33.600  62.872  1.00  0.00    -0.016 A 
HETATM   43  C25 UNL     1       9.247  32.759  62.705  1.00  0.00     0.052 C 
ENDBRANCH  26  28
ENDBRANCH   5  26
TORSDOF 6
ENDMDL
MODEL 5
REMARK VINA RESULT: -10.207706104      1.709      2.089
REMARK  6 active torsions:
REMARK  status: ('A' for Active; 'I' for Inactive)
REMARK    1  A    between atoms: C2_2  and  C3_3 
REMARK    2  A    between atoms: C3_3  and  C4_4 
REMARK    3  A    between atoms: C10_12  and  N2_13 
REMARK       I    between atoms: N2_13  and  C11_15 
REMARK    4  A    between atoms: C11_15  and  C12_17 
REMARK    5  A    between atoms: C16_21  and  N3_22 
REMARK    6  A    between atoms: N3_22  and  C17_24 
ROOT
HETATM    1  C12 UNL     1       4.425  36.279  62.695  1.00  0.00     0.035 A 
HETATM    2  C13 UNL     1       3.070  36.415  62.884  1.00  0.00     0.017 A 
HETATM    3  C14 UNL     1       2.566  37.184  63.921  1.00  0.00     0.003 A 
HETATM    4  C15 UNL     1       3.458  37.824  64.779  1.00  0.00     0.029 A 
HETATM    5  C16 UNL     1       4.817  37.714  64.626  1.00  0.00     0.034 A 
HETATM    6  C29 UNL     1       5.260  36.923  63.558  1.00  0.00     0.046 A 
ENDROOT
BRANCH   1   7
HETATM    7  C11 UNL     1       4.924  35.481  61.620  1.00  0.00     0.270 C 
HETATM    8  N2  UNL     1       4.935  34.058  61.670  1.00  0.00    -0.154 N 
ATOM      9  H2  UNL     1       4.058  33.541  61.741  1.00  0.00     0.187 HD
HETATM   10  O1  UNL     1       5.372  36.054  60.583  1.00  0.00    -0.267 OA
BRANCH   8  11
HETATM   11  C10 UNL     1       6.056  33.425  61.624  1.00  0.00     0.701 A 
HETATM   12  N1  UNL     1       7.268  33.968  61.742  1.00  0.00    -0.178 N 
HETATM   13  C9  UNL     1       8.219  32.995  61.645  1.00  0.00     0.115 A 
ATOM     14  H1  UNL     1       7.456  34.961  61.883  1.00  0.00     0.185 HD
HETATM   15  C8  UNL     1       9.671  33.270  61.745  1.00  0.00     0.079 C 
HETATM   16  N7  UNL     1       7.557  31.828  61.462  1.00  0.00    -0.261 N 
HETATM   17  C7  UNL     1      10.421  32.846  60.527  1.00  0.00     0.008 C 
HETATM   18  C6  UNL     1       9.780  31.624  59.928  1.00  0.00     0.002 C 
HETATM   19  C5  UNL     1       9.522  30.596  61.022  1.00  0.00     0.027 C 
HETATM   20  C4  UNL     1       8.070  30.454  61.298  1.00  0.00     0.110 C 
HETATM   21  N6  UNL     1       6.271  32.085  61.451  1.00  0.00    -0.128 N 
ATOM     22  H6  UNL     1       5.537  31.388  61.330  1.00  0.00     0.206 HD
BRANCH  20  23
HETATM   23  C3  UNL     1       7.223  29.746  60.329  1.00  0.00     0.027 C 
BRANCH  23  24
HETATM   24  C2  UNL     1       6.604  28.449  60.671  1.00  0.00    -0.002 C 
HETATM   25  C1  UNL     1       5.256  28.469  61.267  1.00  0.00     0.005 C 
ENDBRANCH  23  24
ENDBRANCH  20  23
ENDBRANCH   8  11
ENDBRANCH   1   7
BRANCH   5  26
HETATM   26  N3  UNL     1       5.802  38.332  65.412  1.00  0.00    -0.342 N 
ATOM     27  H3  UNL     1       6.738  37.938  65.320  1.00  0.00     0.167 HD
BRANCH  26  28
HETATM   28  C17 UNL     1       5.695  39.407  66.301  1.00  0.00     0.112 A 
HETATM   29  N4  UNL     1       5.088  40.542  65.944  1.00  0.00    -0.340 N 
HETATM   30  C18 UNL     1       4.965  41.616  66.745  1.00  0.00     0.061 A 
ATOM     31  H4  UNL     1       4.694  40.599  65.005  1.00  0.00     0.167 HD
HETATM   32  C19 UNL     1       4.331  42.768  66.336  1.00  0.00     0.045 A 
HETATM   33  C22 UNL     1       5.483  41.585  68.023  1.00  0.00     0.060 A 
HETATM   34  C20 UNL     1       4.231  43.855  67.209  1.00  0.00    -0.011 A 
HETATM   35  C21 UNL     1       4.758  43.787  68.472  1.00  0.00     0.039 A 
HETATM   36  C28 UNL     1       3.665  45.057  67.020  1.00  0.00    -0.009 A 
HETATM   37  N5  UNL     1       5.384  42.630  68.857  1.00  0.00    -0.354 N 
HETATM   38  C26 UNL     1       4.564  44.912  69.144  1.00  0.00     0.007 A 
ATOM     39  H5  UNL     1       5.781  42.564  69.795  1.00  0.00     0.166 HD
HETATM   40  C27 UNL     1       3.834  45.840  68.260  1.00  0.00     0.057 A 
HETATM   41  C23 UNL     1       6.115  40.406  68.401  1.00  0.00     0.042 A 
HETATM   42  C24 UNL     1       6.247  39.305  67.594  1.00  0.00    -0.016 A 
HETATM   43  C25 UNL     1       6.928  38.060  68.030  1.00  0.00     0.052 C 
ENDBRANCH  26  28
ENDBRANCH   5  26
TORSDOF 6
ENDMDL
