MODEL 1
REMARK VINA RESULT: -9.334603455      0.000      0.000
REMARK  9 active torsions:
REMARK  status: ('A' for Active; 'I' for Inactive)
REMARK    1  A    between atoms: C4_4  and  C5_5 
REMARK    2  A    between atoms: C6_6  and  S1_7 
REMARK    3  A    between atoms: C6_6  and  S2_19 
REMARK    4  A    between atoms: S1_7  and  C7_8 
REMARK    5  A    between atoms: C7_8  and  C8_9 
REMARK    6  A    between atoms: C9_13  and  C10_14 
REMARK    7  A    between atoms: C10_14  and  O2_15 
REMARK    8  A    between atoms: S2_19  and  C12_20 
REMARK    9  A    between atoms: C12_20  and  C15_23 
ROOT
HETATM    1  C5  UNL     1       5.058  38.084  65.212  1.00  0.00     0.026 C 
HETATM    2  C6  UNL     1       5.746  39.004  65.836  1.00  0.00     0.038 C 
ENDROOT
BRANCH   2   3
HETATM    3  S1  UNL     1       5.087  40.585  66.208  1.00  0.00    -0.115 SA
BRANCH   3   4
HETATM    4  C7  UNL     1       6.229  41.939  66.293  1.00  0.00     0.158 C 
BRANCH   4   5
HETATM    5  C8  UNL     1       5.535  43.235  66.427  1.00  0.00     0.113 A 
HETATM    6  N1  UNL     1       5.547  44.072  67.458  1.00  0.00    -0.246 N 
HETATM    7  O1  UNL     1       4.827  45.127  67.238  1.00  0.00    -0.221 OA
ATOM      8  H1  UNL     1       6.063  43.904  68.321  1.00  0.00     0.196 HD
HETATM    9  C9  UNL     1       4.319  44.996  66.031  1.00  0.00     0.172 A 
HETATM   10  N2  UNL     1       4.733  43.845  65.504  1.00  0.00    -0.324 N 
ATOM     11  H2  UNL     1       4.494  43.486  64.579  1.00  0.00     0.169 HD
BRANCH   9  12
HETATM   12  C10 UNL     1       3.430  45.979  65.376  1.00  0.00     0.253 C 
BRANCH  12  13
HETATM   13  O2  UNL     1       2.254  45.356  65.011  1.00  0.00    -0.388 OA
HETATM   14  C11 UNL     1       1.490  44.936  66.084  1.00  0.00     0.202 C 
ENDBRANCH  12  13
ENDBRANCH   9  12
ENDBRANCH   4   5
ENDBRANCH   3   4
ENDBRANCH   2   3
BRANCH   2  15
HETATM   15  S2  UNL     1       7.404  38.610  66.380  1.00  0.00    -0.106 SA
BRANCH  15  16
HETATM   16  C12 UNL     1       7.509  38.444  68.180  1.00  0.00     0.066 C 
HETATM   17  C13 UNL     1       7.710  39.773  68.859  1.00  0.00     0.035 C 
HETATM   18  C14 UNL     1       6.270  37.725  68.656  1.00  0.00     0.035 C 
BRANCH  16  19
HETATM   19  C15 UNL     1       8.688  37.598  68.514  1.00  0.00     0.141 C 
HETATM   20  C16 UNL     1       8.540  36.182  68.977  1.00  0.00     0.092 C 
HETATM   21  O3  UNL     1       9.831  38.012  68.430  1.00  0.00    -0.297 OA
ENDBRANCH  16  19
ENDBRANCH  15  16
ENDBRANCH   2  15
BRANCH   1  22
HETATM   22  C4  UNL     1       5.587  36.770  64.892  1.00  0.00     0.010 C 
HETATM   23  C3  UNL     1       5.286  36.103  63.802  1.00  0.00    -0.044 C 
HETATM   24  C2  UNL     1       5.893  34.760  63.583  1.00  0.00    -0.029 C 
HETATM   25  C17 UNL     1       4.376  36.538  62.730  1.00  0.00     0.020 C 
HETATM   26  C1  UNL     1       6.224  33.979  64.566  1.00  0.00     0.024 C 
HETATM   27  C22 UNL     1       6.086  34.387  62.176  1.00  0.00    -0.004 C 
HETATM   28  C20 UNL     1       5.103  34.924  61.174  1.00  0.00     0.023 C 
HETATM   29  C23 UNL     1       7.100  33.650  61.780  1.00  0.00     0.156 A 
HETATM   30  C19 UNL     1       3.686  34.556  61.522  1.00  0.00     0.010 C 
HETATM   31  C21 UNL     1       5.099  36.453  61.409  1.00  0.00     0.019 C 
HETATM   32  C18 UNL     1       3.263  35.517  62.587  1.00  0.00     0.010 C 
HETATM   33  O4  UNL     1       8.068  33.178  62.699  1.00  0.00    -0.255 OA
HETATM   34  C25 UNL     1       7.469  33.171  60.474  1.00  0.00     0.284 A 
HETATM   35  C24 UNL     1       8.990  32.447  62.002  1.00  0.00     0.373 A 
HETATM   36  O5  UNL     1       9.989  31.887  62.541  1.00  0.00    -0.238 OA
HETATM   37  N3  UNL     1       8.682  32.401  60.628  1.00  0.00    -0.267 N 
ATOM     38  H3  UNL     1       9.206  31.924  59.895  1.00  0.00     0.174 HD
HETATM   39  O6  UNL     1       6.912  33.337  59.364  1.00  0.00    -0.265 OA
ENDBRANCH   1  22
TORSDOF 9
ENDMDL
MODEL 2
REMARK VINA RESULT: -9.077160865      2.739      9.475
REMARK  9 active torsions:
REMARK  status: ('A' for Active; 'I' for Inactive)
REMARK    1  A    between atoms: C4_4  and  C5_5 
REMARK    2  A    between atoms: C6_6  and  S1_7 
REMARK    3  A    between atoms: C6_6  and  S2_19 
REMARK    4  A    between atoms: S1_7  and  C7_8 
REMARK    5  A    between atoms: C7_8  and  C8_9 
REMARK    6  A    between atoms: C9_13  and  C10_14 
REMARK    7  A    between atoms: C10_14  and  O2_15 
REMARK    8  A    between atoms: S2_19  and  C12_20 
REMARK    9  A    between atoms: C12_20  and  C15_23 
ROOT
HETATM    1  C5  UNL     1       6.310  36.272  64.038  1.00  0.00     0.026 C 
HETATM    2  C6  UNL     1       6.073  35.685  62.894  1.00  0.00     0.038 C 
ENDROOT
BRANCH   2   3
HETATM    3  S1  UNL     1       6.900  34.220  62.397  1.00  0.00    -0.115 SA
BRANCH   3   4
HETATM    4  C7  UNL     1       8.446  33.857  63.186  1.00  0.00     0.158 C 
BRANCH   4   5
HETATM    5  C8  UNL     1       8.323  33.842  64.656  1.00  0.00     0.113 A 
HETATM    6  N1  UNL     1       7.472  33.147  65.403  1.00  0.00    -0.246 N 
HETATM    7  O1  UNL     1       7.641  33.369  66.669  1.00  0.00    -0.221 OA
ATOM      8  H1  UNL     1       6.769  32.513  65.025  1.00  0.00     0.196 HD
HETATM    9  C9  UNL     1       8.628  34.234  66.775  1.00  0.00     0.172 A 
HETATM   10  N2  UNL     1       9.070  34.546  65.559  1.00  0.00    -0.324 N 
ATOM     11  H2  UNL     1       9.829  35.192  65.340  1.00  0.00     0.169 HD
BRANCH   9  12
HETATM   12  C10 UNL     1       9.152  34.767  68.050  1.00  0.00     0.253 C 
BRANCH  12  13
HETATM   13  O2  UNL     1       8.107  34.943  68.934  1.00  0.00    -0.388 OA
HETATM   14  C11 UNL     1       8.407  35.783  69.990  1.00  0.00     0.202 C 
ENDBRANCH  12  13
ENDBRANCH   9  12
ENDBRANCH   4   5
ENDBRANCH   3   4
ENDBRANCH   2   3
BRANCH   2  15
HETATM   15  S2  UNL     1       4.816  36.372  61.824  1.00  0.00    -0.106 SA
BRANCH  15  16
HETATM   16  C12 UNL     1       3.160  35.771  62.245  1.00  0.00     0.066 C 
HETATM   17  C13 UNL     1       3.209  34.544  63.117  1.00  0.00     0.035 C 
HETATM   18  C14 UNL     1       2.397  36.909  62.880  1.00  0.00     0.035 C 
BRANCH  16  19
HETATM   19  C15 UNL     1       2.456  35.390  60.990  1.00  0.00     0.141 C 
HETATM   20  C16 UNL     1       2.731  36.078  59.689  1.00  0.00     0.092 C 
HETATM   21  O3  UNL     1       1.622  34.503  60.955  1.00  0.00    -0.297 OA
ENDBRANCH  16  19
ENDBRANCH  15  16
ENDBRANCH   2  15
BRANCH   1  22
HETATM   22  C4  UNL     1       5.639  37.486  64.467  1.00  0.00     0.010 C 
HETATM   23  C3  UNL     1       5.867  38.086  65.612  1.00  0.00    -0.044 C 
HETATM   24  C2  UNL     1       5.115  39.329  65.942  1.00  0.00    -0.029 C 
HETATM   25  C17 UNL     1       6.810  37.653  66.657  1.00  0.00     0.020 C 
HETATM   26  C1  UNL     1       3.917  39.555  65.495  1.00  0.00     0.024 C 
HETATM   27  C22 UNL     1       5.827  40.274  66.811  1.00  0.00    -0.004 C 
HETATM   28  C20 UNL     1       6.788  39.705  67.817  1.00  0.00     0.023 C 
HETATM   29  C23 UNL     1       5.679  41.575  66.699  1.00  0.00     0.156 A 
HETATM   30  C19 UNL     1       6.124  38.706  68.726  1.00  0.00     0.010 C 
HETATM   31  C21 UNL     1       7.731  38.800  66.989  1.00  0.00     0.019 C 
HETATM   32  C18 UNL     1       6.045  37.432  67.947  1.00  0.00     0.010 C 
HETATM   33  O4  UNL     1       4.820  42.135  65.723  1.00  0.00    -0.255 OA
HETATM   34  C25 UNL     1       6.265  42.662  67.438  1.00  0.00     0.284 A 
HETATM   35  C24 UNL     1       4.871  43.497  65.847  1.00  0.00     0.373 A 
HETATM   36  O5  UNL     1       4.211  44.290  65.114  1.00  0.00    -0.238 OA
HETATM   37  N3  UNL     1       5.741  43.888  66.884  1.00  0.00    -0.267 N 
ATOM     38  H3  UNL     1       5.955  44.840  67.181  1.00  0.00     0.174 HD
HETATM   39  O6  UNL     1       7.080  42.646  68.391  1.00  0.00    -0.265 OA
ENDBRANCH   1  22
TORSDOF 9
ENDMDL
MODEL 3
REMARK VINA RESULT: -9.010509203      1.371      1.590
REMARK  9 active torsions:
REMARK  status: ('A' for Active; 'I' for Inactive)
REMARK    1  A    between atoms: C4_4  and  C5_5 
REMARK    2  A    between atoms: C6_6  and  S1_7 
REMARK    3  A    between atoms: C6_6  and  S2_19 
REMARK    4  A    between atoms: S1_7  and  C7_8 
REMARK    5  A    between atoms: C7_8  and  C8_9 
REMARK    6  A    between atoms: C9_13  and  C10_14 
REMARK    7  A    between atoms: C10_14  and  O2_15 
REMARK    8  A    between atoms: S2_19  and  C12_20 
REMARK    9  A    between atoms: C12_20  and  C15_23 
ROOT
HETATM    1  C5  UNL     1       6.574  38.051  66.010  1.00  0.00     0.026 C 
HETATM    2  C6  UNL     1       6.458  38.372  67.272  1.00  0.00     0.038 C 
ENDROOT
BRANCH   2   3
HETATM    3  S1  UNL     1       6.151  40.013  67.804  1.00  0.00    -0.115 SA
BRANCH   3   4
HETATM    4  C7  UNL     1       6.090  41.271  66.555  1.00  0.00     0.158 C 
BRANCH   4   5
HETATM    5  C8  UNL     1       5.350  42.463  67.013  1.00  0.00     0.113 A 
HETATM    6  N1  UNL     1       5.817  43.519  67.669  1.00  0.00    -0.246 N 
HETATM    7  O1  UNL     1       4.890  44.391  67.912  1.00  0.00    -0.221 OA
ATOM      8  H1  UNL     1       6.791  43.631  67.948  1.00  0.00     0.196 HD
HETATM    9  C9  UNL     1       3.773  43.910  67.408  1.00  0.00     0.172 A 
HETATM   10  N2  UNL     1       4.019  42.728  66.848  1.00  0.00    -0.324 N 
ATOM     11  H2  UNL     1       3.338  42.128  66.381  1.00  0.00     0.169 HD
BRANCH   9  12
HETATM   12  C10 UNL     1       2.460  44.586  67.463  1.00  0.00     0.253 C 
BRANCH  12  13
HETATM   13  O2  UNL     1       1.582  43.946  66.611  1.00  0.00    -0.388 OA
HETATM   14  C11 UNL     1       0.256  44.265  66.837  1.00  0.00     0.202 C 
ENDBRANCH  12  13
ENDBRANCH   9  12
ENDBRANCH   4   5
ENDBRANCH   3   4
ENDBRANCH   2   3
BRANCH   2  15
HETATM   15  S2  UNL     1       6.560  37.072  68.496  1.00  0.00    -0.106 SA
BRANCH  15  16
HETATM   16  C12 UNL     1       8.270  36.716  68.972  1.00  0.00     0.066 C 
HETATM   17  C13 UNL     1       9.195  37.860  68.650  1.00  0.00     0.035 C 
HETATM   18  C14 UNL     1       8.281  36.350  70.437  1.00  0.00     0.035 C 
BRANCH  16  19
HETATM   19  C15 UNL     1       8.746  35.535  68.200  1.00  0.00     0.141 C 
HETATM   20  C16 UNL     1       8.814  34.168  68.808  1.00  0.00     0.092 C 
HETATM   21  O3  UNL     1       9.106  35.619  67.039  1.00  0.00    -0.297 OA
ENDBRANCH  16  19
ENDBRANCH  15  16
ENDBRANCH   2  15
BRANCH   1  22
HETATM   22  C4  UNL     1       6.830  36.699  65.549  1.00  0.00     0.010 C 
HETATM   23  C3  UNL     1       6.251  36.158  64.501  1.00  0.00    -0.044 C 
HETATM   24  C2  UNL     1       6.596  34.759  64.124  1.00  0.00    -0.029 C 
HETATM   25  C17 UNL     1       5.253  36.793  63.625  1.00  0.00     0.020 C 
HETATM   26  C1  UNL     1       6.961  33.873  65.001  1.00  0.00     0.024 C 
HETATM   27  C22 UNL     1       6.490  34.457  62.691  1.00  0.00    -0.004 C 
HETATM   28  C20 UNL     1       5.449  35.198  61.900  1.00  0.00     0.023 C 
HETATM   29  C23 UNL     1       7.296  33.608  62.093  1.00  0.00     0.156 A 
HETATM   30  C19 UNL     1       4.071  35.019  62.477  1.00  0.00     0.010 C 
HETATM   31  C21 UNL     1       5.723  36.692  62.195  1.00  0.00     0.019 C 
HETATM   32  C18 UNL     1       3.987  35.958  63.638  1.00  0.00     0.010 C 
HETATM   33  O4  UNL     1       8.319  32.939  62.808  1.00  0.00    -0.255 OA
HETATM   34  C25 UNL     1       7.363  33.169  60.724  1.00  0.00     0.284 A 
HETATM   35  C24 UNL     1       8.986  32.129  61.931  1.00  0.00     0.373 A 
HETATM   36  O5  UNL     1       9.961  31.394  62.262  1.00  0.00    -0.238 OA
HETATM   37  N3  UNL     1       8.449  32.222  60.631  1.00  0.00    -0.267 N 
ATOM     38  H3  UNL     1       8.762  31.724  59.799  1.00  0.00     0.174 HD
HETATM   39  O6  UNL     1       6.660  33.489  59.737  1.00  0.00    -0.265 OA
ENDBRANCH   1  22
TORSDOF 9
ENDMDL
MODEL 4
REMARK VINA RESULT: -8.840021298      2.371      3.263
REMARK  9 active torsions:
REMARK  status: ('A' for Active; 'I' for Inactive)
REMARK    1  A    between atoms: C4_4  and  C5_5 
REMARK    2  A    between atoms: C6_6  and  S1_7 
REMARK    3  A    between atoms: C6_6  and  S2_19 
REMARK    4  A    between atoms: S1_7  and  C7_8 
REMARK    5  A    between atoms: C7_8  and  C8_9 
REMARK    6  A    between atoms: C9_13  and  C10_14 
REMARK    7  A    between atoms: C10_14  and  O2_15 
REMARK    8  A    between atoms: S2_19  and  C12_20 
REMARK    9  A    between atoms: C12_20  and  C15_23 
ROOT
HETATM    1  C5  UNL     1       6.942  39.241  66.228  1.00  0.00     0.026 C 
HETATM    2  C6  UNL     1       6.987  39.120  67.529  1.00  0.00     0.038 C 
ENDROOT
BRANCH   2   3
HETATM    3  S1  UNL     1       7.275  40.484  68.593  1.00  0.00    -0.115 SA
BRANCH   3   4
HETATM    4  C7  UNL     1       5.866  41.447  69.074  1.00  0.00     0.158 C 
BRANCH   4   5
HETATM    5  C8  UNL     1       5.531  42.471  68.066  1.00  0.00     0.113 A 
HETATM    6  N1  UNL     1       6.285  43.473  67.630  1.00  0.00    -0.246 N 
HETATM    7  O1  UNL     1       5.679  44.186  66.734  1.00  0.00    -0.221 OA
ATOM      8  H1  UNL     1       7.231  43.659  67.961  1.00  0.00     0.196 HD
HETATM    9  C9  UNL     1       4.488  43.650  66.564  1.00  0.00     0.172 A 
HETATM   10  N2  UNL     1       4.363  42.596  67.366  1.00  0.00    -0.324 N 
ATOM     11  H2  UNL     1       3.546  41.991  67.444  1.00  0.00     0.169 HD
BRANCH   9  12
HETATM   12  C10 UNL     1       3.461  44.152  65.626  1.00  0.00     0.253 C 
BRANCH  12  13
HETATM   13  O2  UNL     1       2.283  43.464  65.831  1.00  0.00    -0.388 OA
HETATM   14  C11 UNL     1       1.325  44.192  66.513  1.00  0.00     0.202 C 
ENDBRANCH  12  13
ENDBRANCH   9  12
ENDBRANCH   4   5
ENDBRANCH   3   4
ENDBRANCH   2   3
BRANCH   2  15
HETATM   15  S2  UNL     1       6.686  37.512  68.250  1.00  0.00    -0.106 SA
BRANCH  15  16
HETATM   16  C12 UNL     1       8.214  36.723  68.820  1.00  0.00     0.066 C 
HETATM   17  C13 UNL     1       9.400  37.643  68.707  1.00  0.00     0.035 C 
HETATM   18  C14 UNL     1       7.988  36.230  70.229  1.00  0.00     0.035 C 
BRANCH  16  19
HETATM   19  C15 UNL     1       8.492  35.541  67.958  1.00  0.00     0.141 C 
HETATM   20  C16 UNL     1       8.813  34.198  68.539  1.00  0.00     0.092 C 
HETATM   21  O3  UNL     1       8.474  35.602  66.742  1.00  0.00    -0.297 OA
ENDBRANCH  16  19
ENDBRANCH  15  16
ENDBRANCH   2  15
BRANCH   1  22
HETATM   22  C4  UNL     1       6.707  38.124  65.330  1.00  0.00     0.010 C 
HETATM   23  C3  UNL     1       5.515  37.668  65.023  1.00  0.00    -0.044 C 
HETATM   24  C2  UNL     1       5.400  36.514  64.087  1.00  0.00    -0.029 C 
HETATM   25  C17 UNL     1       4.226  38.174  65.521  1.00  0.00     0.020 C 
HETATM   26  C1  UNL     1       6.319  35.601  63.993  1.00  0.00     0.024 C 
HETATM   27  C22 UNL     1       4.170  36.485  63.284  1.00  0.00    -0.004 C 
HETATM   28  C20 UNL     1       2.927  37.064  63.897  1.00  0.00     0.023 C 
HETATM   29  C23 UNL     1       4.148  36.017  62.057  1.00  0.00     0.156 A 
HETATM   30  C19 UNL     1       2.592  36.414  65.212  1.00  0.00     0.010 C 
HETATM   31  C21 UNL     1       3.335  38.488  64.344  1.00  0.00     0.019 C 
HETATM   32  C18 UNL     1       3.494  37.047  66.224  1.00  0.00     0.010 C 
HETATM   33  O4  UNL     1       5.320  35.516  61.439  1.00  0.00    -0.255 OA
HETATM   34  C25 UNL     1       3.070  35.892  61.110  1.00  0.00     0.284 A 
HETATM   35  C24 UNL     1       4.989  35.103  60.178  1.00  0.00     0.373 A 
HETATM   36  O5  UNL     1       5.821  34.604  59.366  1.00  0.00    -0.238 OA
HETATM   37  N3  UNL     1       3.621  35.305  59.910  1.00  0.00    -0.267 N 
ATOM     38  H3  UNL     1       3.122  35.084  59.049  1.00  0.00     0.174 HD
HETATM   39  O6  UNL     1       1.861  36.202  61.217  1.00  0.00    -0.265 OA
ENDBRANCH   1  22
TORSDOF 9
ENDMDL
MODEL 5
REMARK VINA RESULT: -8.519105420      4.517      7.832
REMARK  9 active torsions:
REMARK  status: ('A' for Active; 'I' for Inactive)
REMARK    1  A    between atoms: C4_4  and  C5_5 
REMARK    2  A    between atoms: C6_6  and  S1_7 
REMARK    3  A    between atoms: C6_6  and  S2_19 
REMARK    4  A    between atoms: S1_7  and  C7_8 
REMARK    5  A    between atoms: C7_8  and  C8_9 
REMARK    6  A    between atoms: C9_13  and  C10_14 
REMARK    7  A    between atoms: C10_14  and  O2_15 
REMARK    8  A    between atoms: S2_19  and  C12_20 
REMARK    9  A    between atoms: C12_20  and  C15_23 
ROOT
HETATM    1  C5  UNL     1       6.443  33.859  61.883  1.00  0.00     0.026 C 
HETATM    2  C6  UNL     1       5.447  34.705  61.895  1.00  0.00     0.038 C 
ENDROOT
BRANCH   2   3
HETATM    3  S1  UNL     1       4.687  35.247  63.379  1.00  0.00    -0.115 SA
BRANCH   3   4
HETATM    4  C7  UNL     1       4.984  36.923  63.875  1.00  0.00     0.158 C 
BRANCH   4   5
HETATM    5  C8  UNL     1       6.029  37.012  64.913  1.00  0.00     0.113 A 
HETATM    6  N1  UNL     1       7.070  36.209  65.102  1.00  0.00    -0.246 N 
HETATM    7  O1  UNL     1       7.796  36.580  66.110  1.00  0.00    -0.221 OA
ATOM      8  H1  UNL     1       7.275  35.396  64.523  1.00  0.00     0.196 HD
HETATM    9  C9  UNL     1       7.229  37.658  66.610  1.00  0.00     0.172 A 
HETATM   10  N2  UNL     1       6.142  37.952  65.899  1.00  0.00    -0.324 N 
ATOM     11  H2  UNL     1       5.509  38.735  66.062  1.00  0.00     0.169 HD
BRANCH   9  12
HETATM   12  C10 UNL     1       7.731  38.414  67.777  1.00  0.00     0.253 C 
BRANCH  12  13
HETATM   13  O2  UNL     1       9.049  38.077  68.005  1.00  0.00    -0.388 OA
HETATM   14  C11 UNL     1       9.240  37.314  69.142  1.00  0.00     0.202 C 
ENDBRANCH  12  13
ENDBRANCH   9  12
ENDBRANCH   4   5
ENDBRANCH   3   4
ENDBRANCH   2   3
BRANCH   2  15
HETATM   15  S2  UNL     1       4.879  35.378  60.338  1.00  0.00    -0.106 SA
BRANCH  15  16
HETATM   16  C12 UNL     1       3.116  35.070  60.065  1.00  0.00     0.066 C 
HETATM   17  C13 UNL     1       2.835  34.601  58.662  1.00  0.00     0.035 C 
HETATM   18  C14 UNL     1       2.644  34.092  61.114  1.00  0.00     0.035 C 
BRANCH  16  19
HETATM   19  C15 UNL     1       2.372  36.346  60.258  1.00  0.00     0.141 C 
HETATM   20  C16 UNL     1       1.652  36.656  61.535  1.00  0.00     0.092 C 
HETATM   21  O3  UNL     1       2.308  37.200  59.392  1.00  0.00    -0.297 OA
ENDBRANCH  16  19
ENDBRANCH  15  16
ENDBRANCH   2  15
BRANCH   1  22
HETATM   22  C4  UNL     1       7.084  33.396  60.665  1.00  0.00     0.010 C 
HETATM   23  C3  UNL     1       7.573  32.188  60.506  1.00  0.00    -0.044 C 
HETATM   24  C2  UNL     1       8.209  31.828  59.208  1.00  0.00    -0.029 C 
HETATM   25  C17 UNL     1       7.577  31.105  61.503  1.00  0.00     0.020 C 
HETATM   26  C1  UNL     1       8.806  32.707  58.460  1.00  0.00     0.024 C 
HETATM   27  C22 UNL     1       8.113  30.410  58.841  1.00  0.00    -0.004 C 
HETATM   28  C20 UNL     1       8.094  29.403  59.956  1.00  0.00     0.023 C 
HETATM   29  C23 UNL     1       8.001  30.017  57.592  1.00  0.00     0.156 A 
HETATM   30  C19 UNL     1       9.298  29.532  60.850  1.00  0.00     0.010 C 
HETATM   31  C21 UNL     1       6.955  29.874  60.890  1.00  0.00     0.019 C 
HETATM   32  C18 UNL     1       9.010  30.681  61.762  1.00  0.00     0.010 C 
HETATM   33  O4  UNL     1       7.962  30.951  56.528  1.00  0.00    -0.255 OA
HETATM   34  C25 UNL     1       7.900  28.700  57.018  1.00  0.00     0.284 A 
HETATM   35  C24 UNL     1       7.842  30.254  55.357  1.00  0.00     0.373 A 
HETATM   36  O5  UNL     1       7.780  30.804  54.220  1.00  0.00    -0.238 OA
HETATM   37  N3  UNL     1       7.799  28.864  55.587  1.00  0.00    -0.267 N 
ATOM     38  H3  UNL     1       7.714  28.127  54.887  1.00  0.00     0.174 HD
HETATM   39  O6  UNL     1       7.893  27.576  57.571  1.00  0.00    -0.265 OA
ENDBRANCH   1  22
TORSDOF 9
ENDMDL
