MODEL 1
REMARK VINA RESULT: -9.146377628      0.000      0.000
REMARK  6 active torsions:
REMARK  status: ('A' for Active; 'I' for Inactive)
REMARK    1  A    between atoms: C4_8  and  C5_9 
REMARK       I    between atoms: N3_14  and  C10_15 
REMARK    2  A    between atoms: C10_15  and  C11_17 
REMARK    3  A    between atoms: C11_17  and  C12_18 
REMARK    4  A    between atoms: C12_18  and  C13_19 
REMARK    5  A    between atoms: C13_19  and  N4_20 
REMARK    6  A    between atoms: C26_38  and  C27_39 
ROOT
HETATM    1  C5  UNL     1      10.311  29.293  58.706  1.00  0.00     0.155 C 
HETATM    2  C6  UNL     1       9.729  28.408  57.642  1.00  0.00     0.033 C 
HETATM    3  C7  UNL     1       8.420  28.942  57.098  1.00  0.00     0.004 C 
HETATM    4  C8  UNL     1       7.438  29.233  58.201  1.00  0.00     0.020 C 
HETATM    5  C9  UNL     1       8.002  30.007  59.339  1.00  0.00     0.127 C 
HETATM    6  N3  UNL     1       9.362  29.718  59.691  1.00  0.00    -0.340 N 
HETATM    7  C10 UNL     1       9.787  29.867  61.046  1.00  0.00     0.224 C 
HETATM    8  O1  UNL     1      10.979  29.632  61.316  1.00  0.00    -0.273 OA
ENDROOT
BRANCH   1   9
HETATM    9  C4  UNL     1      11.042  30.436  58.060  1.00  0.00     0.106 A 
HETATM   10  N2  UNL     1      10.782  31.744  58.235  1.00  0.00    -0.328 N 
HETATM   11  C3  UNL     1      11.634  32.482  57.497  1.00  0.00     0.134 A 
ATOM     12  H2  UNL     1      10.051  32.121  58.837  1.00  0.00     0.169 HD
HETATM   13  N1  UNL     1      11.798  33.817  57.316  1.00  0.00    -0.344 N 
HETATM   14  C24 UNL     1      12.465  31.615  56.830  1.00  0.00     0.078 A 
HETATM   15  C2  UNL     1      12.752  34.296  56.500  1.00  0.00     0.013 A 
ATOM     16  H1  UNL     1      11.186  34.468  57.808  1.00  0.00     0.167 HD
HETATM   17  C1  UNL     1      12.912  35.773  56.312  1.00  0.00     0.068 C 
HETATM   18  C26 UNL     1      13.625  33.472  55.795  1.00  0.00    -0.030 A 
HETATM   19  C25 UNL     1      13.438  32.121  55.997  1.00  0.00     0.043 A 
HETATM   20  N7  UNL     1      12.071  30.378  57.199  1.00  0.00    -0.341 N 
ATOM     21  H7  UNL     1      12.499  29.514  56.867  1.00  0.00     0.167 HD
BRANCH  18  22
HETATM   22  C27 UNL     1      14.676  34.014  54.898  1.00  0.00     0.012 C 
HETATM   23  C28 UNL     1      14.825  33.081  53.740  1.00  0.00     0.015 C 
HETATM   24  C29 UNL     1      15.991  34.190  55.592  1.00  0.00     0.015 C 
ENDBRANCH  18  22
ENDBRANCH   1   9
BRANCH   7  25
HETATM   25  C11 UNL     1       8.848  30.286  62.099  1.00  0.00     0.131 C 
BRANCH  25  26
HETATM   26  C12 UNL     1       9.054  31.610  62.705  1.00  0.00    -0.000 C 
BRANCH  26  27
HETATM   27  C13 UNL     1       8.593  32.841  62.066  1.00  0.00     0.087 C 
BRANCH  27  28
HETATM   28  N4  UNL     1       7.866  33.821  62.730  1.00  0.00    -0.362 N 
HETATM   29  C14 UNL     1       8.414  34.954  63.313  1.00  0.00     0.084 C 
HETATM   30  C15 UNL     1       7.622  35.495  64.499  1.00  0.00     0.175 C 
HETATM   31  N5  UNL     1       6.278  35.738  64.074  1.00  0.00    -0.329 N 
HETATM   32  C16 UNL     1       5.726  34.926  63.157  1.00  0.00     0.103 A 
HETATM   33  C22 UNL     1       5.385  36.692  64.425  1.00  0.00     0.063 A 
HETATM   34  N6  UNL     1       4.463  35.397  62.943  1.00  0.00    -0.343 N 
HETATM   35  C23 UNL     1       6.443  33.770  62.562  1.00  0.00     0.204 C 
HETATM   36  C17 UNL     1       4.231  36.475  63.706  1.00  0.00     0.060 A 
ATOM     37  H6  UNL     1       3.791  34.987  62.295  1.00  0.00     0.167 HD
HETATM   38  C18 UNL     1       3.124  37.304  63.856  1.00  0.00     0.032 A 
HETATM   39  C19 UNL     1       3.177  38.359  64.737  1.00  0.00     0.002 A 
HETATM   40  C20 UNL     1       4.333  38.567  65.450  1.00  0.00     0.002 A 
HETATM   41  C21 UNL     1       5.446  37.757  65.318  1.00  0.00     0.032 A 
ENDBRANCH  27  28
ENDBRANCH  26  27
ENDBRANCH  25  26
ENDBRANCH   7  25
TORSDOF 6
ENDMDL
MODEL 2
REMARK VINA RESULT: -9.020962505      1.115      1.525
REMARK  6 active torsions:
REMARK  status: ('A' for Active; 'I' for Inactive)
REMARK    1  A    between atoms: C4_8  and  C5_9 
REMARK       I    between atoms: N3_14  and  C10_15 
REMARK    2  A    between atoms: C10_15  and  C11_17 
REMARK    3  A    between atoms: C11_17  and  C12_18 
REMARK    4  A    between atoms: C12_18  and  C13_19 
REMARK    5  A    between atoms: C13_19  and  N4_20 
REMARK    6  A    between atoms: C26_38  and  C27_39 
ROOT
HETATM    1  C5  UNL     1      10.290  29.326  58.709  1.00  0.00     0.155 C 
HETATM    2  C6  UNL     1       9.655  28.467  57.654  1.00  0.00     0.033 C 
HETATM    3  C7  UNL     1       8.346  29.040  57.152  1.00  0.00     0.004 C 
HETATM    4  C8  UNL     1       7.403  29.345  58.285  1.00  0.00     0.020 C 
HETATM    5  C9  UNL     1       8.020  30.093  59.414  1.00  0.00     0.127 C 
HETATM    6  N3  UNL     1       9.381  29.765  59.724  1.00  0.00    -0.340 N 
HETATM    7  C10 UNL     1       9.848  29.889  61.068  1.00  0.00     0.224 C 
HETATM    8  O1  UNL     1      11.041  29.620  61.301  1.00  0.00    -0.273 OA
ENDROOT
BRANCH   1   9
HETATM    9  C4  UNL     1      11.032  30.456  58.052  1.00  0.00     0.106 A 
HETATM   10  N2  UNL     1      10.793  31.768  58.225  1.00  0.00    -0.328 N 
HETATM   11  C3  UNL     1      11.649  32.491  57.478  1.00  0.00     0.134 A 
ATOM     12  H2  UNL     1      10.072  32.158  58.832  1.00  0.00     0.169 HD
HETATM   13  N1  UNL     1      11.831  33.823  57.291  1.00  0.00    -0.344 N 
HETATM   14  C24 UNL     1      12.462  31.610  56.806  1.00  0.00     0.078 A 
HETATM   15  C2  UNL     1      12.785  34.285  56.466  1.00  0.00     0.013 A 
ATOM     16  H1  UNL     1      11.233  34.484  57.786  1.00  0.00     0.167 HD
HETATM   17  C1  UNL     1      12.965  35.759  56.271  1.00  0.00     0.068 C 
HETATM   18  C26 UNL     1      13.640  33.446  55.756  1.00  0.00    -0.030 A 
HETATM   19  C25 UNL     1      13.435  32.099  55.964  1.00  0.00     0.043 A 
HETATM   20  N7  UNL     1      12.053  30.380  57.183  1.00  0.00    -0.341 N 
ATOM     21  H7  UNL     1      12.465  29.508  56.851  1.00  0.00     0.167 HD
BRANCH  18  22
HETATM   22  C27 UNL     1      14.691  33.971  54.847  1.00  0.00     0.012 C 
HETATM   23  C28 UNL     1      14.822  33.027  53.695  1.00  0.00     0.015 C 
HETATM   24  C29 UNL     1      16.013  34.136  55.532  1.00  0.00     0.015 C 
ENDBRANCH  18  22
ENDBRANCH   1   9
BRANCH   7  25
HETATM   25  C11 UNL     1       8.950  30.322  62.151  1.00  0.00     0.131 C 
BRANCH  25  26
HETATM   26  C12 UNL     1       9.300  31.556  62.869  1.00  0.00    -0.000 C 
BRANCH  26  27
HETATM   27  C13 UNL     1       9.042  32.884  62.313  1.00  0.00     0.087 C 
BRANCH  27  28
HETATM   28  N4  UNL     1       7.835  33.553  62.459  1.00  0.00    -0.362 N 
HETATM   29  C14 UNL     1       7.612  34.600  63.340  1.00  0.00     0.084 C 
HETATM   30  C15 UNL     1       6.169  34.719  63.821  1.00  0.00     0.175 C 
HETATM   31  N5  UNL     1       5.317  34.824  62.678  1.00  0.00    -0.329 N 
HETATM   32  C16 UNL     1       5.643  34.160  61.557  1.00  0.00     0.103 A 
HETATM   33  C22 UNL     1       4.169  35.512  62.475  1.00  0.00     0.063 A 
HETATM   34  N6  UNL     1       4.669  34.450  60.646  1.00  0.00    -0.343 N 
HETATM   35  C23 UNL     1       6.851  33.305  61.445  1.00  0.00     0.204 C 
HETATM   36  C17 UNL     1       3.757  35.274  61.183  1.00  0.00     0.060 A 
ATOM     37  H6  UNL     1       4.638  34.091  59.692  1.00  0.00     0.167 HD
HETATM   38  C18 UNL     1       2.595  35.852  60.681  1.00  0.00     0.032 A 
HETATM   39  C19 UNL     1       1.841  36.674  61.485  1.00  0.00     0.002 A 
HETATM   40  C20 UNL     1       2.260  36.906  62.773  1.00  0.00     0.002 A 
HETATM   41  C21 UNL     1       3.411  36.344  63.295  1.00  0.00     0.032 A 
ENDBRANCH  27  28
ENDBRANCH  26  27
ENDBRANCH  25  26
ENDBRANCH   7  25
TORSDOF 6
ENDMDL
MODEL 3
REMARK VINA RESULT: -9.012254297      0.516      1.290
REMARK  6 active torsions:
REMARK  status: ('A' for Active; 'I' for Inactive)
REMARK    1  A    between atoms: C4_8  and  C5_9 
REMARK       I    between atoms: N3_14  and  C10_15 
REMARK    2  A    between atoms: C10_15  and  C11_17 
REMARK    3  A    between atoms: C11_17  and  C12_18 
REMARK    4  A    between atoms: C12_18  and  C13_19 
REMARK    5  A    between atoms: C13_19  and  N4_20 
REMARK    6  A    between atoms: C26_38  and  C27_39 
ROOT
HETATM    1  C5  UNL     1      10.311  29.262  58.746  1.00  0.00     0.155 C 
HETATM    2  C6  UNL     1       9.707  28.388  57.686  1.00  0.00     0.033 C 
HETATM    3  C7  UNL     1       8.391  28.931  57.169  1.00  0.00     0.004 C 
HETATM    4  C8  UNL     1       7.429  29.217  58.291  1.00  0.00     0.020 C 
HETATM    5  C9  UNL     1       8.016  29.980  59.425  1.00  0.00     0.127 C 
HETATM    6  N3  UNL     1       9.381  29.683  59.751  1.00  0.00    -0.340 N 
HETATM    7  C10 UNL     1       9.830  29.819  61.099  1.00  0.00     0.224 C 
HETATM    8  O1  UNL     1      11.026  29.577  61.347  1.00  0.00    -0.273 OA
ENDROOT
BRANCH   1   9
HETATM    9  C4  UNL     1      11.035  30.408  58.096  1.00  0.00     0.106 A 
HETATM   10  N2  UNL     1      10.768  31.714  58.267  1.00  0.00    -0.328 N 
HETATM   11  C3  UNL     1      11.615  32.455  57.527  1.00  0.00     0.134 A 
ATOM     12  H2  UNL     1      10.034  32.089  58.867  1.00  0.00     0.169 HD
HETATM   13  N1  UNL     1      11.771  33.790  57.342  1.00  0.00    -0.344 N 
HETATM   14  C24 UNL     1      12.451  31.591  56.862  1.00  0.00     0.078 A 
HETATM   15  C2  UNL     1      12.722  34.272  56.524  1.00  0.00     0.013 A 
ATOM     16  H1  UNL     1      11.155  34.439  57.832  1.00  0.00     0.167 HD
HETATM   17  C1  UNL     1      12.874  35.749  56.331  1.00  0.00     0.068 C 
HETATM   18  C26 UNL     1      13.600  33.451  55.822  1.00  0.00    -0.030 A 
HETATM   19  C25 UNL     1      13.421  32.100  56.028  1.00  0.00     0.043 A 
HETATM   20  N7  UNL     1      12.065  30.353  57.235  1.00  0.00    -0.341 N 
ATOM     21  H7  UNL     1      12.498  29.490  56.907  1.00  0.00     0.167 HD
BRANCH  18  22
HETATM   22  C27 UNL     1      14.648  33.997  54.922  1.00  0.00     0.012 C 
HETATM   23  C28 UNL     1      14.790  33.070  53.759  1.00  0.00     0.015 C 
HETATM   24  C29 UNL     1      15.966  34.167  55.612  1.00  0.00     0.015 C 
ENDBRANCH  18  22
ENDBRANCH   1   9
BRANCH   7  25
HETATM   25  C11 UNL     1       8.911  30.234  62.172  1.00  0.00     0.131 C 
BRANCH  25  26
HETATM   26  C12 UNL     1       9.143  31.545  62.795  1.00  0.00    -0.000 C 
BRANCH  26  27
HETATM   27  C13 UNL     1       8.936  32.800  62.074  1.00  0.00     0.087 C 
BRANCH  27  28
HETATM   28  N4  UNL     1       7.860  33.646  62.306  1.00  0.00    -0.362 N 
HETATM   29  C14 UNL     1       6.562  33.411  61.879  1.00  0.00     0.084 C 
HETATM   30  C15 UNL     1       5.744  34.675  61.631  1.00  0.00     0.175 C 
HETATM   31  N5  UNL     1       5.754  35.462  62.825  1.00  0.00    -0.329 N 
HETATM   32  C16 UNL     1       6.852  35.463  63.598  1.00  0.00     0.103 A 
HETATM   33  C22 UNL     1       4.812  36.260  63.381  1.00  0.00     0.063 A 
HETATM   34  N6  UNL     1       6.574  36.282  64.654  1.00  0.00    -0.343 N 
HETATM   35  C23 UNL     1       8.074  34.687  63.269  1.00  0.00     0.204 C 
HETATM   36  C17 UNL     1       5.334  36.780  64.544  1.00  0.00     0.060 A 
ATOM     37  H6  UNL     1       7.218  36.486  65.418  1.00  0.00     0.167 HD
HETATM   38  C18 UNL     1       4.590  37.645  65.342  1.00  0.00     0.032 A 
HETATM   39  C19 UNL     1       3.313  37.990  64.966  1.00  0.00     0.002 A 
HETATM   40  C20 UNL     1       2.801  37.464  63.804  1.00  0.00     0.002 A 
HETATM   41  C21 UNL     1       3.520  36.603  62.995  1.00  0.00     0.032 A 
ENDBRANCH  27  28
ENDBRANCH  26  27
ENDBRANCH  25  26
ENDBRANCH   7  25
TORSDOF 6
ENDMDL
MODEL 4
REMARK VINA RESULT: -8.794336382      3.950      7.521
REMARK  6 active torsions:
REMARK  status: ('A' for Active; 'I' for Inactive)
REMARK    1  A    between atoms: C4_8  and  C5_9 
REMARK       I    between atoms: N3_14  and  C10_15 
REMARK    2  A    between atoms: C10_15  and  C11_17 
REMARK    3  A    between atoms: C11_17  and  C12_18 
REMARK    4  A    between atoms: C12_18  and  C13_19 
REMARK    5  A    between atoms: C13_19  and  N4_20 
REMARK    6  A    between atoms: C26_38  and  C27_39 
ROOT
HETATM    1  C5  UNL     1       7.464  27.748  59.912  1.00  0.00     0.155 C 
HETATM    2  C6  UNL     1       7.626  26.776  58.779  1.00  0.00     0.033 C 
HETATM    3  C7  UNL     1       9.079  26.474  58.479  1.00  0.00     0.004 C 
HETATM    4  C8  UNL     1       9.876  27.734  58.271  1.00  0.00     0.020 C 
HETATM    5  C9  UNL     1       9.657  28.779  59.307  1.00  0.00     0.127 C 
HETATM    6  N3  UNL     1       8.325  28.889  59.826  1.00  0.00    -0.340 N 
HETATM    7  C10 UNL     1       7.846  30.156  60.278  1.00  0.00     0.224 C 
HETATM    8  O1  UNL     1       6.693  30.215  60.745  1.00  0.00    -0.273 OA
ENDROOT
BRANCH   1   9
HETATM    9  C4  UNL     1       7.585  27.015  61.219  1.00  0.00     0.106 A 
HETATM   10  N2  UNL     1       6.576  26.460  61.914  1.00  0.00    -0.328 N 
HETATM   11  C3  UNL     1       7.053  25.892  63.037  1.00  0.00     0.134 A 
ATOM     12  H2  UNL     1       5.596  26.468  61.632  1.00  0.00     0.169 HD
HETATM   13  N1  UNL     1       6.473  25.215  64.061  1.00  0.00    -0.344 N 
HETATM   14  C24 UNL     1       8.412  26.090  63.060  1.00  0.00     0.078 A 
HETATM   15  C2  UNL     1       7.203  24.744  65.085  1.00  0.00     0.013 A 
ATOM     16  H1  UNL     1       5.464  25.062  64.052  1.00  0.00     0.167 HD
HETATM   17  C1  UNL     1       6.542  24.004  66.207  1.00  0.00     0.068 C 
HETATM   18  C26 UNL     1       8.583  24.912  65.168  1.00  0.00    -0.030 A 
HETATM   19  C25 UNL     1       9.148  25.601  64.116  1.00  0.00     0.043 A 
HETATM   20  N7  UNL     1       8.697  26.780  61.935  1.00  0.00    -0.341 N 
ATOM     21  H7  UNL     1       9.633  27.081  61.664  1.00  0.00     0.167 HD
BRANCH  18  22
HETATM   22  C27 UNL     1       9.379  24.384  66.305  1.00  0.00     0.012 C 
HETATM   23  C28 UNL     1      10.181  25.510  66.873  1.00  0.00     0.015 C 
HETATM   24  C29 UNL     1      10.282  23.259  65.903  1.00  0.00     0.015 C 
ENDBRANCH  18  22
ENDBRANCH   1   9
BRANCH   7  25
HETATM   25  C11 UNL     1       8.685  31.363  60.197  1.00  0.00     0.131 C 
BRANCH  25  26
HETATM   26  C12 UNL     1       8.143  32.605  60.766  1.00  0.00    -0.000 C 
BRANCH  26  27
HETATM   27  C13 UNL     1       8.543  33.102  62.082  1.00  0.00     0.087 C 
BRANCH  27  28
HETATM   28  N4  UNL     1       7.825  34.055  62.790  1.00  0.00    -0.362 N 
HETATM   29  C14 UNL     1       8.385  35.137  63.454  1.00  0.00     0.084 C 
HETATM   30  C15 UNL     1       7.580  35.621  64.655  1.00  0.00     0.175 C 
HETATM   31  N5  UNL     1       6.252  35.923  64.219  1.00  0.00    -0.329 N 
HETATM   32  C16 UNL     1       5.701  35.183  63.242  1.00  0.00     0.103 A 
HETATM   33  C22 UNL     1       5.374  36.875  64.612  1.00  0.00     0.063 A 
HETATM   34  N6  UNL     1       4.454  35.697  63.033  1.00  0.00    -0.343 N 
HETATM   35  C23 UNL     1       6.405  34.050  62.591  1.00  0.00     0.204 C 
HETATM   36  C17 UNL     1       4.231  36.731  63.857  1.00  0.00     0.060 A 
ATOM     37  H6  UNL     1       3.787  35.344  62.347  1.00  0.00     0.167 HD
HETATM   38  C18 UNL     1       3.140  37.576  64.036  1.00  0.00     0.032 A 
HETATM   39  C19 UNL     1       3.198  38.572  64.983  1.00  0.00     0.002 A 
HETATM   40  C20 UNL     1       4.344  38.708  65.730  1.00  0.00     0.002 A 
HETATM   41  C21 UNL     1       5.440  37.881  65.571  1.00  0.00     0.032 A 
ENDBRANCH  27  28
ENDBRANCH  26  27
ENDBRANCH  25  26
ENDBRANCH   7  25
TORSDOF 6
ENDMDL
MODEL 5
REMARK VINA RESULT: -8.718675393      5.173     12.733
REMARK  6 active torsions:
REMARK  status: ('A' for Active; 'I' for Inactive)
REMARK    1  A    between atoms: C4_8  and  C5_9 
REMARK       I    between atoms: N3_14  and  C10_15 
REMARK    2  A    between atoms: C10_15  and  C11_17 
REMARK    3  A    between atoms: C11_17  and  C12_18 
REMARK    4  A    between atoms: C12_18  and  C13_19 
REMARK    5  A    between atoms: C13_19  and  N4_20 
REMARK    6  A    between atoms: C26_38  and  C27_39 
ROOT
HETATM    1  C5  UNL     1       5.441  38.476  67.403  1.00  0.00     0.155 C 
HETATM    2  C6  UNL     1       6.502  38.225  68.435  1.00  0.00     0.033 C 
HETATM    3  C7  UNL     1       7.892  38.544  67.925  1.00  0.00     0.004 C 
HETATM    4  C8  UNL     1       8.181  37.841  66.626  1.00  0.00     0.020 C 
HETATM    5  C9  UNL     1       7.101  37.959  65.609  1.00  0.00     0.127 C 
HETATM    6  N3  UNL     1       5.757  37.953  66.107  1.00  0.00    -0.340 N 
HETATM    7  C10 UNL     1       4.706  37.427  65.296  1.00  0.00     0.224 C 
HETATM    8  O1  UNL     1       3.546  37.457  65.747  1.00  0.00    -0.273 OA
ENDROOT
BRANCH   1   9
HETATM    9  C4  UNL     1       5.101  39.940  67.381  1.00  0.00     0.106 A 
HETATM   10  N2  UNL     1       5.230  40.799  68.407  1.00  0.00    -0.328 N 
HETATM   11  C3  UNL     1       4.828  42.027  68.029  1.00  0.00     0.134 A 
ATOM     12  H2  UNL     1       5.579  40.557  69.334  1.00  0.00     0.169 HD
HETATM   13  N1  UNL     1       4.754  43.224  68.665  1.00  0.00    -0.344 N 
HETATM   14  C24 UNL     1       4.430  41.948  66.716  1.00  0.00     0.078 A 
HETATM   15  C2  UNL     1       4.302  44.320  68.033  1.00  0.00     0.013 A 
ATOM     16  H1  UNL     1       5.048  43.292  69.639  1.00  0.00     0.167 HD
HETATM   17  C1  UNL     1       4.225  45.629  68.755  1.00  0.00     0.068 C 
HETATM   18  C26 UNL     1       3.884  44.307  66.705  1.00  0.00    -0.030 A 
HETATM   19  C25 UNL     1       3.969  43.080  66.082  1.00  0.00     0.043 A 
HETATM   20  N7  UNL     1       4.612  40.660  66.358  1.00  0.00    -0.341 N 
ATOM     21  H7  UNL     1       4.404  40.283  65.433  1.00  0.00     0.167 HD
BRANCH  18  22
HETATM   22  C27 UNL     1       3.387  45.527  66.019  1.00  0.00     0.012 C 
HETATM   23  C28 UNL     1       1.897  45.444  65.946  1.00  0.00     0.015 C 
HETATM   24  C29 UNL     1       3.963  45.689  64.646  1.00  0.00     0.015 C 
ENDBRANCH  18  22
ENDBRANCH   1   9
BRANCH   7  25
HETATM   25  C11 UNL     1       4.979  36.864  63.964  1.00  0.00     0.131 C 
BRANCH  25  26
HETATM   26  C12 UNL     1       5.712  35.591  63.903  1.00  0.00    -0.000 C 
BRANCH  26  27
HETATM   27  C13 UNL     1       6.825  35.374  62.979  1.00  0.00     0.087 C 
BRANCH  27  28
HETATM   28  N4  UNL     1       7.425  34.137  62.783  1.00  0.00    -0.362 N 
HETATM   29  C14 UNL     1       8.222  33.487  63.713  1.00  0.00     0.084 C 
HETATM   30  C15 UNL     1       9.272  32.564  63.104  1.00  0.00     0.175 C 
HETATM   31  N5  UNL     1       8.610  31.623  62.254  1.00  0.00    -0.329 N 
HETATM   32  C16 UNL     1       7.520  32.013  61.572  1.00  0.00     0.103 A 
HETATM   33  C22 UNL     1       8.870  30.324  61.980  1.00  0.00     0.063 A 
HETATM   34  N6  UNL     1       7.104  30.923  60.863  1.00  0.00    -0.343 N 
HETATM   35  C23 UNL     1       6.967  33.389  61.649  1.00  0.00     0.204 C 
HETATM   36  C17 UNL     1       7.912  29.879  61.096  1.00  0.00     0.060 A 
ATOM     37  H6  UNL     1       6.294  30.906  60.245  1.00  0.00     0.167 HD
HETATM   38  C18 UNL     1       7.919  28.568  60.628  1.00  0.00     0.032 A 
HETATM   39  C19 UNL     1       8.898  27.699  61.050  1.00  0.00     0.002 A 
HETATM   40  C20 UNL     1       9.849  28.153  61.933  1.00  0.00     0.002 A 
HETATM   41  C21 UNL     1       9.863  29.450  62.413  1.00  0.00     0.032 A 
ENDBRANCH  27  28
ENDBRANCH  26  27
ENDBRANCH  25  26
ENDBRANCH   7  25
TORSDOF 6
ENDMDL
