MODEL 1
REMARK VINA RESULT: -5.914073939      0.000      0.000
REMARK  10 active torsions:
REMARK  status: ('A' for Active; 'I' for Inactive)
REMARK    1  A    between atoms: C2_2  and  N1_3 
REMARK    2  A    between atoms: N1_3  and  C3_6 
REMARK    3  A    between atoms: C3_6  and  C4_7 
REMARK    4  A    between atoms: C3_6  and  C6_11 
REMARK    5  A    between atoms: C4_7  and  O2_9 
REMARK    6  A    between atoms: C6_11  and  O3_12 
REMARK    7  A    between atoms: C7_14  and  C8_15 
REMARK    8  A    between atoms: C8_15  and  C9_16 
REMARK    9  A    between atoms: C9_16  and  S1_17 
REMARK   10  A    between atoms: C20_28  and  O4_29 
ROOT
HETATM    1  C6  UNL     1     -16.837 -32.101  33.163  1.00  0.00     0.150 C 
HETATM    2  C7  UNL     1     -16.773 -33.204  32.203  1.00  0.00    -0.034 C 
HETATM    3  C11 UNL     1     -18.028 -33.510  31.430  1.00  0.00    -0.060 C 
HETATM    4  C12 UNL     1     -19.286 -33.771  32.159  1.00  0.00     0.048 C 
HETATM    5  C13 UNL     1     -18.094 -33.597  30.108  1.00  0.00    -0.019 C 
HETATM    6  C14 UNL     1     -17.043 -33.432  29.111  1.00  0.00     0.032 C 
HETATM    7  C15 UNL     1     -17.323 -32.292  28.155  1.00  0.00     0.037 C 
HETATM    8  C16 UNL     1     -18.196 -31.241  28.707  1.00  0.00    -0.087 C 
HETATM    9  C17 UNL     1     -19.689 -31.469  28.610  1.00  0.00     0.043 C 
HETATM   10  C18 UNL     1     -17.764 -30.117  29.271  1.00  0.00    -0.019 C 
HETATM   11  C19 UNL     1     -16.377 -29.704  29.454  1.00  0.00     0.095 C 
HETATM   12  C20 UNL     1     -15.910 -29.634  30.898  1.00  0.00     0.166 C 
HETATM   13  C21 UNL     1     -16.762 -28.790  31.774  1.00  0.00     0.072 C 
HETATM   14  C22 UNL     1     -16.728 -29.564  33.076  1.00  0.00     0.047 C 
HETATM   15  C23 UNL     1     -16.006 -30.873  32.801  1.00  0.00     0.098 C 
HETATM   16  C24 UNL     1     -14.628 -30.824  33.362  1.00  0.00     0.050 C 
HETATM   17  O5  UNL     1     -15.887 -30.875  31.413  1.00  0.00    -0.341 OA
ENDROOT
BRANCH   1  18
HETATM   18  C3  UNL     1     -16.981 -32.376  34.600  1.00  0.00     0.326 C 
BRANCH  18  19
HETATM   19  N1  UNL     1     -15.872 -32.097  35.480  1.00  0.00    -0.059 N 
ATOM     20  H12 UNL     1     -16.157 -31.593  36.319  1.00  0.00     0.278 HD
ATOM     21  H11 UNL     1     -15.240 -31.392  35.100  1.00  0.00     0.278 HD
BRANCH  19  22
HETATM   22  C2  UNL     1     -15.179 -33.373  35.791  1.00  0.00     0.229 C 
HETATM   23  C1  UNL     1     -13.711 -33.107  36.004  1.00  0.00     0.034 C 
ENDBRANCH  19  22
ENDBRANCH  18  19
BRANCH  18  24
HETATM   24  C4  UNL     1     -18.151 -31.831  35.301  1.00  0.00     0.293 C 
HETATM   25  O1  UNL     1     -17.966 -30.856  36.117  1.00  0.00    -0.263 OA
BRANCH  24  26
HETATM   26  O2  UNL     1     -19.469 -32.225  35.219  1.00  0.00    -0.325 OA
HETATM   27  C5  UNL     1     -20.002 -33.315  35.950  1.00  0.00     0.213 C 
ENDBRANCH  24  26
ENDBRANCH  18  24
ENDBRANCH   1  18
BRANCH   1  28
HETATM   28  O3  UNL     1     -18.134 -31.508  32.833  1.00  0.00    -0.379 OA
ATOM     29  H3  UNL     1     -18.635 -32.265  32.556  1.00  0.00     0.211 HD
ENDBRANCH   1  28
BRANCH   2  30
HETATM   30  C8  UNL     1     -16.069 -34.476  32.359  1.00  0.00     0.048 C 
BRANCH  30  31
HETATM   31  C9  UNL     1     -14.579 -34.523  32.352  1.00  0.00     0.078 C 
BRANCH  31  32
HETATM   32  S1  UNL     1     -13.965 -35.121  30.706  1.00  0.00    -0.173 SA
HETATM   33  C10 UNL     1     -15.075 -36.456  30.199  1.00  0.00     0.089 C 
ENDBRANCH  31  32
ENDBRANCH  30  31
ENDBRANCH   2  30
BRANCH  12  34
HETATM   34  O4  UNL     1     -14.668 -28.990  30.814  1.00  0.00    -0.365 OA
ATOM     35  H4  UNL     1     -14.614 -28.500  31.626  1.00  0.00     0.213 HD
ENDBRANCH  12  34
TORSDOF 10
ENDMDL
MODEL 2
REMARK VINA RESULT: -5.835298841      3.909      7.327
REMARK  10 active torsions:
REMARK  status: ('A' for Active; 'I' for Inactive)
REMARK    1  A    between atoms: C2_2  and  N1_3 
REMARK    2  A    between atoms: N1_3  and  C3_6 
REMARK    3  A    between atoms: C3_6  and  C4_7 
REMARK    4  A    between atoms: C3_6  and  C6_11 
REMARK    5  A    between atoms: C4_7  and  O2_9 
REMARK    6  A    between atoms: C6_11  and  O3_12 
REMARK    7  A    between atoms: C7_14  and  C8_15 
REMARK    8  A    between atoms: C8_15  and  C9_16 
REMARK    9  A    between atoms: C9_16  and  S1_17 
REMARK   10  A    between atoms: C20_28  and  O4_29 
ROOT
HETATM    1  C6  UNL     1     -16.973 -32.095  27.512  1.00  0.00     0.150 C 
HETATM    2  C7  UNL     1     -17.353 -31.091  28.507  1.00  0.00    -0.034 C 
HETATM    3  C11 UNL     1     -18.652 -31.310  29.235  1.00  0.00    -0.060 C 
HETATM    4  C12 UNL     1     -19.895 -31.505  28.461  1.00  0.00     0.048 C 
HETATM    5  C13 UNL     1     -18.783 -31.313  30.555  1.00  0.00    -0.019 C 
HETATM    6  C14 UNL     1     -17.775 -31.117  31.590  1.00  0.00     0.032 C 
HETATM    7  C15 UNL     1     -17.634 -32.321  32.498  1.00  0.00     0.037 C 
HETATM    8  C16 UNL     1     -18.035 -33.595  31.878  1.00  0.00    -0.087 C 
HETATM    9  C17 UNL     1     -19.506 -33.945  31.918  1.00  0.00     0.043 C 
HETATM   10  C18 UNL     1     -17.197 -34.452  31.299  1.00  0.00    -0.019 C 
HETATM   11  C19 UNL     1     -15.752 -34.309  31.163  1.00  0.00     0.095 C 
HETATM   12  C20 UNL     1     -15.253 -34.136  29.738  1.00  0.00     0.166 C 
HETATM   13  C21 UNL     1     -15.702 -35.197  28.802  1.00  0.00     0.072 C 
HETATM   14  C22 UNL     1     -15.923 -34.409  27.526  1.00  0.00     0.047 C 
HETATM   15  C23 UNL     1     -15.752 -32.939  27.871  1.00  0.00     0.098 C 
HETATM   16  C24 UNL     1     -14.441 -32.446  27.368  1.00  0.00     0.050 C 
HETATM   17  O5  UNL     1     -15.682 -32.954  29.262  1.00  0.00    -0.341 OA
ENDROOT
BRANCH   1  18
HETATM   18  C3  UNL     1     -17.168 -31.831  26.079  1.00  0.00     0.326 C 
BRANCH  18  19
HETATM   19  N1  UNL     1     -16.045 -31.964  25.183  1.00  0.00    -0.059 N 
ATOM     20  H12 UNL     1     -16.025 -32.870  24.715  1.00  0.00     0.278 HD
ATOM     21  H11 UNL     1     -15.157 -32.042  25.679  1.00  0.00     0.278 HD
BRANCH  19  22
HETATM   22  C2  UNL     1     -16.064 -30.830  24.225  1.00  0.00     0.229 C 
HETATM   23  C1  UNL     1     -14.744 -30.106  24.278  1.00  0.00     0.034 C 
ENDBRANCH  19  22
ENDBRANCH  18  19
BRANCH  18  24
HETATM   24  C4  UNL     1     -18.271 -32.512  25.388  1.00  0.00     0.293 C 
HETATM   25  O1  UNL     1     -18.154 -33.770  25.156  1.00  0.00    -0.263 OA
BRANCH  24  26
HETATM   26  O2  UNL     1     -19.458 -31.985  24.926  1.00  0.00    -0.325 OA
HETATM   27  C5  UNL     1     -19.863 -32.052  23.570  1.00  0.00     0.213 C 
ENDBRANCH  24  26
ENDBRANCH  18  24
ENDBRANCH   1  18
BRANCH   1  28
HETATM   28  O3  UNL     1     -17.961 -33.143  27.768  1.00  0.00    -0.379 OA
ATOM     29  H3  UNL     1     -18.736 -32.794  27.344  1.00  0.00     0.211 HD
ENDBRANCH   1  28
BRANCH   2  30
HETATM   30  C8  UNL     1     -17.172 -29.643  28.419  1.00  0.00     0.048 C 
BRANCH  30  31
HETATM   31  C9  UNL     1     -15.824 -29.035  28.608  1.00  0.00     0.078 C 
BRANCH  31  32
HETATM   32  S1  UNL     1     -15.494 -27.784  27.278  1.00  0.00    -0.173 SA
HETATM   33  C10 UNL     1     -16.982 -27.720  26.253  1.00  0.00     0.089 C 
ENDBRANCH  31  32
ENDBRANCH  30  31
ENDBRANCH   2  30
BRANCH  12  34
HETATM   34  O4  UNL     1     -13.863 -34.272  29.855  1.00  0.00    -0.365 OA
ATOM     35  H4  UNL     1     -13.557 -33.379  29.956  1.00  0.00     0.213 HD
ENDBRANCH  12  34
TORSDOF 10
ENDMDL
MODEL 3
REMARK VINA RESULT: -5.786759963      3.632      7.113
REMARK  10 active torsions:
REMARK  status: ('A' for Active; 'I' for Inactive)
REMARK    1  A    between atoms: C2_2  and  N1_3 
REMARK    2  A    between atoms: N1_3  and  C3_6 
REMARK    3  A    between atoms: C3_6  and  C4_7 
REMARK    4  A    between atoms: C3_6  and  C6_11 
REMARK    5  A    between atoms: C4_7  and  O2_9 
REMARK    6  A    between atoms: C6_11  and  O3_12 
REMARK    7  A    between atoms: C7_14  and  C8_15 
REMARK    8  A    between atoms: C8_15  and  C9_16 
REMARK    9  A    between atoms: C9_16  and  S1_17 
REMARK   10  A    between atoms: C20_28  and  O4_29 
ROOT
HETATM    1  C6  UNL     1     -16.763 -32.145  27.742  1.00  0.00     0.150 C 
HETATM    2  C7  UNL     1     -17.203 -31.148  28.719  1.00  0.00    -0.034 C 
HETATM    3  C11 UNL     1     -18.527 -31.392  29.394  1.00  0.00    -0.060 C 
HETATM    4  C12 UNL     1     -19.733 -31.612  28.571  1.00  0.00     0.048 C 
HETATM    5  C13 UNL     1     -18.711 -31.395  30.707  1.00  0.00    -0.019 C 
HETATM    6  C14 UNL     1     -17.751 -31.178  31.783  1.00  0.00     0.032 C 
HETATM    7  C15 UNL     1     -17.623 -32.378  32.698  1.00  0.00     0.037 C 
HETATM    8  C16 UNL     1     -17.973 -33.661  32.065  1.00  0.00    -0.087 C 
HETATM    9  C17 UNL     1     -19.437 -34.040  32.046  1.00  0.00     0.043 C 
HETATM   10  C18 UNL     1     -17.095 -34.501  31.522  1.00  0.00    -0.019 C 
HETATM   11  C19 UNL     1     -15.649 -34.329  31.444  1.00  0.00     0.095 C 
HETATM   12  C20 UNL     1     -15.095 -34.148  30.041  1.00  0.00     0.166 C 
HETATM   13  C21 UNL     1     -15.485 -35.220  29.089  1.00  0.00     0.072 C 
HETATM   14  C22 UNL     1     -15.670 -34.438  27.804  1.00  0.00     0.047 C 
HETATM   15  C23 UNL     1     -15.542 -32.964  28.153  1.00  0.00     0.098 C 
HETATM   16  C24 UNL     1     -14.221 -32.446  27.702  1.00  0.00     0.050 C 
HETATM   17  O5  UNL     1     -15.528 -32.976  29.546  1.00  0.00    -0.341 OA
ENDROOT
BRANCH   1  18
HETATM   18  C3  UNL     1     -16.905 -31.886  26.302  1.00  0.00     0.326 C 
BRANCH  18  19
HETATM   19  N1  UNL     1     -15.717 -31.723  25.500  1.00  0.00    -0.059 N 
ATOM     20  H12 UNL     1     -15.575 -32.496  24.851  1.00  0.00     0.278 HD
ATOM     21  H11 UNL     1     -14.861 -31.835  26.043  1.00  0.00     0.278 HD
BRANCH  19  22
HETATM   22  C2  UNL     1     -15.786 -30.409  24.813  1.00  0.00     0.229 C 
HETATM   23  C1  UNL     1     -15.145 -30.520  23.453  1.00  0.00     0.034 C 
ENDBRANCH  19  22
ENDBRANCH  18  19
BRANCH  18  24
HETATM   24  C4  UNL     1     -17.759 -32.784  25.513  1.00  0.00     0.293 C 
HETATM   25  O1  UNL     1     -17.188 -33.670  24.778  1.00  0.00    -0.263 OA
BRANCH  24  26
HETATM   26  O2  UNL     1     -19.135 -32.820  25.432  1.00  0.00    -0.325 OA
HETATM   27  C5  UNL     1     -19.842 -32.823  24.204  1.00  0.00     0.213 C 
ENDBRANCH  24  26
ENDBRANCH  18  24
ENDBRANCH   1  18
BRANCH   1  28
HETATM   28  O3  UNL     1     -17.740 -33.212  27.960  1.00  0.00    -0.379 OA
ATOM     29  H3  UNL     1     -17.244 -33.988  27.727  1.00  0.00     0.211 HD
ENDBRANCH   1  28
BRANCH   2  30
HETATM   30  C8  UNL     1     -17.048 -29.697  28.636  1.00  0.00     0.048 C 
BRANCH  30  31
HETATM   31  C9  UNL     1     -15.692 -29.082  28.568  1.00  0.00     0.078 C 
BRANCH  31  32
HETATM   32  S1  UNL     1     -14.796 -29.328  30.175  1.00  0.00    -0.173 SA
HETATM   33  C10 UNL     1     -15.518 -28.157  31.348  1.00  0.00     0.089 C 
ENDBRANCH  31  32
ENDBRANCH  30  31
ENDBRANCH   2  30
BRANCH  12  34
HETATM   34  O4  UNL     1     -13.709 -34.257  30.215  1.00  0.00    -0.365 OA
ATOM     35  H4  UNL     1     -13.357 -34.033  29.361  1.00  0.00     0.213 HD
ENDBRANCH  12  34
TORSDOF 10
ENDMDL
MODEL 4
REMARK VINA RESULT: -5.634336244      2.363      5.586
REMARK  10 active torsions:
REMARK  status: ('A' for Active; 'I' for Inactive)
REMARK    1  A    between atoms: C2_2  and  N1_3 
REMARK    2  A    between atoms: N1_3  and  C3_6 
REMARK    3  A    between atoms: C3_6  and  C4_7 
REMARK    4  A    between atoms: C3_6  and  C6_11 
REMARK    5  A    between atoms: C4_7  and  O2_9 
REMARK    6  A    between atoms: C6_11  and  O3_12 
REMARK    7  A    between atoms: C7_14  and  C8_15 
REMARK    8  A    between atoms: C8_15  and  C9_16 
REMARK    9  A    between atoms: C9_16  and  S1_17 
REMARK   10  A    between atoms: C20_28  and  O4_29 
ROOT
HETATM    1  C6  UNL     1     -16.479 -31.217  31.750  1.00  0.00     0.150 C 
HETATM    2  C7  UNL     1     -17.655 -31.726  31.043  1.00  0.00    -0.034 C 
HETATM    3  C11 UNL     1     -17.712 -33.209  30.793  1.00  0.00    -0.060 C 
HETATM    4  C12 UNL     1     -16.589 -33.874  30.100  1.00  0.00     0.048 C 
HETATM    5  C13 UNL     1     -18.731 -33.989  31.127  1.00  0.00    -0.019 C 
HETATM    6  C14 UNL     1     -19.988 -33.649  31.782  1.00  0.00     0.032 C 
HETATM    7  C15 UNL     1     -20.168 -34.364  33.104  1.00  0.00     0.037 C 
HETATM    8  C16 UNL     1     -18.906 -34.757  33.755  1.00  0.00    -0.087 C 
HETATM    9  C17 UNL     1     -18.288 -36.067  33.319  1.00  0.00     0.043 C 
HETATM   10  C18 UNL     1     -18.286 -34.047  34.694  1.00  0.00    -0.019 C 
HETATM   11  C19 UNL     1     -18.715 -32.772  35.256  1.00  0.00     0.095 C 
HETATM   12  C20 UNL     1     -17.815 -31.590  34.935  1.00  0.00     0.166 C 
HETATM   13  C21 UNL     1     -16.389 -31.795  35.294  1.00  0.00     0.072 C 
HETATM   14  C22 UNL     1     -15.681 -31.082  34.158  1.00  0.00     0.047 C 
HETATM   15  C23 UNL     1     -16.745 -30.675  33.152  1.00  0.00     0.098 C 
HETATM   16  C24 UNL     1     -17.009 -29.213  33.252  1.00  0.00     0.050 C 
HETATM   17  O5  UNL     1     -17.880 -31.333  33.618  1.00  0.00    -0.341 OA
ENDROOT
BRANCH   1  18
HETATM   18  C3  UNL     1     -15.393 -30.562  31.006  1.00  0.00     0.326 C 
BRANCH  18  19
HETATM   19  N1  UNL     1     -15.057 -29.194  31.318  1.00  0.00    -0.059 N 
ATOM     20  H12 UNL     1     -14.150 -29.110  31.777  1.00  0.00     0.278 HD
ATOM     21  H11 UNL     1     -15.631 -28.812  32.069  1.00  0.00     0.278 HD
BRANCH  19  22
HETATM   22  C2  UNL     1     -15.140 -28.389  30.073  1.00  0.00     0.229 C 
HETATM   23  C1  UNL     1     -14.816 -26.950  30.384  1.00  0.00     0.034 C 
ENDBRANCH  19  22
ENDBRANCH  18  19
BRANCH  18  24
HETATM   24  C4  UNL     1     -14.096 -31.246  30.917  1.00  0.00     0.293 C 
HETATM   25  O1  UNL     1     -13.231 -31.023  31.840  1.00  0.00    -0.263 OA
BRANCH  24  26
HETATM   26  O2  UNL     1     -13.645 -32.123  29.953  1.00  0.00    -0.325 OA
HETATM   27  C5  UNL     1     -13.834 -31.916  28.564  1.00  0.00     0.213 C 
ENDBRANCH  24  26
ENDBRANCH  18  24
ENDBRANCH   1  18
BRANCH   1  28
HETATM   28  O3  UNL     1     -15.844 -32.461  32.187  1.00  0.00    -0.379 OA
ATOM     29  H3  UNL     1     -14.921 -32.253  32.106  1.00  0.00     0.211 HD
ENDBRANCH   1  28
BRANCH   2  30
HETATM   30  C8  UNL     1     -18.362 -31.096  29.929  1.00  0.00     0.048 C 
BRANCH  30  31
HETATM   31  C9  UNL     1     -17.726 -31.002  28.584  1.00  0.00     0.078 C 
BRANCH  31  32
HETATM   32  S1  UNL     1     -19.026 -30.979  27.260  1.00  0.00    -0.173 SA
HETATM   33  C10 UNL     1     -19.393 -29.239  26.933  1.00  0.00     0.089 C 
ENDBRANCH  31  32
ENDBRANCH  30  31
ENDBRANCH   2  30
BRANCH  12  34
HETATM   34  O4  UNL     1     -18.292 -30.573  35.774  1.00  0.00    -0.365 OA
ATOM     35  H4  UNL     1     -17.515 -30.066  35.977  1.00  0.00     0.213 HD
ENDBRANCH  12  34
TORSDOF 10
ENDMDL
MODEL 5
REMARK VINA RESULT: -5.614894886      2.504      5.796
REMARK  10 active torsions:
REMARK  status: ('A' for Active; 'I' for Inactive)
REMARK    1  A    between atoms: C2_2  and  N1_3 
REMARK    2  A    between atoms: N1_3  and  C3_6 
REMARK    3  A    between atoms: C3_6  and  C4_7 
REMARK    4  A    between atoms: C3_6  and  C6_11 
REMARK    5  A    between atoms: C4_7  and  O2_9 
REMARK    6  A    between atoms: C6_11  and  O3_12 
REMARK    7  A    between atoms: C7_14  and  C8_15 
REMARK    8  A    between atoms: C8_15  and  C9_16 
REMARK    9  A    between atoms: C9_16  and  S1_17 
REMARK   10  A    between atoms: C20_28  and  O4_29 
ROOT
HETATM    1  C6  UNL     1     -16.777 -31.017  31.159  1.00  0.00     0.150 C 
HETATM    2  C7  UNL     1     -17.999 -31.662  30.677  1.00  0.00    -0.034 C 
HETATM    3  C11 UNL     1     -17.969 -33.161  30.536  1.00  0.00    -0.060 C 
HETATM    4  C12 UNL     1     -16.911 -33.794  29.723  1.00  0.00     0.048 C 
HETATM    5  C13 UNL     1     -18.860 -33.984  31.074  1.00  0.00    -0.019 C 
HETATM    6  C14 UNL     1     -20.030 -33.685  31.890  1.00  0.00     0.032 C 
HETATM    7  C15 UNL     1     -19.951 -34.307  33.268  1.00  0.00     0.037 C 
HETATM    8  C16 UNL     1     -18.579 -34.556  33.741  1.00  0.00    -0.087 C 
HETATM    9  C17 UNL     1     -17.926 -35.849  33.302  1.00  0.00     0.043 C 
HETATM   10  C18 UNL     1     -17.887 -33.734  34.525  1.00  0.00    -0.019 C 
HETATM   11  C19 UNL     1     -18.332 -32.453  35.062  1.00  0.00     0.095 C 
HETATM   12  C20 UNL     1     -17.591 -31.238  34.530  1.00  0.00     0.166 C 
HETATM   13  C21 UNL     1     -16.115 -31.312  34.677  1.00  0.00     0.072 C 
HETATM   14  C22 UNL     1     -15.645 -30.640  33.402  1.00  0.00     0.047 C 
HETATM   15  C23 UNL     1     -16.876 -30.389  32.547  1.00  0.00     0.098 C 
HETATM   16  C24 UNL     1     -17.242 -28.947  32.591  1.00  0.00     0.050 C 
HETATM   17  O5  UNL     1     -17.871 -31.089  33.224  1.00  0.00    -0.341 OA
ENDROOT
BRANCH   1  18
HETATM   18  C3  UNL     1     -15.871 -30.345  30.216  1.00  0.00     0.326 C 
BRANCH  18  19
HETATM   19  N1  UNL     1     -16.171 -28.998  29.796  1.00  0.00    -0.059 N 
ATOM     20  H12 UNL     1     -15.739 -28.297  30.398  1.00  0.00     0.278 HD
ATOM     21  H11 UNL     1     -17.145 -28.745  29.963  1.00  0.00     0.278 HD
BRANCH  19  22
HETATM   22  C2  UNL     1     -15.780 -28.845  28.373  1.00  0.00     0.229 C 
HETATM   23  C1  UNL     1     -15.088 -27.519  28.182  1.00  0.00     0.034 C 
ENDBRANCH  19  22
ENDBRANCH  18  19
BRANCH  18  24
HETATM   24  C4  UNL     1     -14.435 -30.321  30.524  1.00  0.00     0.293 C 
HETATM   25  O1  UNL     1     -13.741 -31.368  30.252  1.00  0.00    -0.263 OA
BRANCH  24  26
HETATM   26  O2  UNL     1     -13.688 -29.309  31.087  1.00  0.00    -0.325 OA
HETATM   27  C5  UNL     1     -12.469 -28.842  30.535  1.00  0.00     0.213 C 
ENDBRANCH  24  26
ENDBRANCH  18  24
ENDBRANCH   1  18
BRANCH   1  28
HETATM   28  O3  UNL     1     -15.984 -32.175  31.574  1.00  0.00    -0.379 OA
ATOM     29  H3  UNL     1     -15.428 -32.317  30.817  1.00  0.00     0.211 HD
ENDBRANCH   1  28
BRANCH   2  30
HETATM   30  C8  UNL     1     -18.913 -31.173  29.646  1.00  0.00     0.048 C 
BRANCH  30  31
HETATM   31  C9  UNL     1     -18.636 -31.429  28.204  1.00  0.00     0.078 C 
BRANCH  31  32
HETATM   32  S1  UNL     1     -19.192 -29.986  27.178  1.00  0.00    -0.173 SA
HETATM   33  C10 UNL     1     -18.785 -30.389  25.463  1.00  0.00     0.089 C 
ENDBRANCH  31  32
ENDBRANCH  30  31
ENDBRANCH   2  30
BRANCH  12  34
HETATM   34  O4  UNL     1     -18.020 -30.196  35.364  1.00  0.00    -0.365 OA
ATOM     35  H4  UNL     1     -17.987 -29.431  34.802  1.00  0.00     0.213 HD
ENDBRANCH  12  34
TORSDOF 10
ENDMDL
