MODEL 1
REMARK VINA RESULT: -6.494477835      0.000      0.000
REMARK  11 active torsions:
REMARK  status: ('A' for Active; 'I' for Inactive)
REMARK    1  A    between atoms: C3_5  and  N2_6 
REMARK    2  A    between atoms: C4_9  and  C5_10 
REMARK    3  A    between atoms: C8_16  and  C9_17 
REMARK    4  A    between atoms: C9_17  and  N4_18 
REMARK    5  A    between atoms: N4_18  and  C10_21 
REMARK    6  A    between atoms: C10_21  and  C11_22 
REMARK    7  A    between atoms: C14_25  and  C15_26 
REMARK    8  A    between atoms: C15_26  and  C16_27 
REMARK    9  A    between atoms: C16_27  and  C17_28 
REMARK   10  A    between atoms: C21_34  and  O1_35 
REMARK   11  A    between atoms: O1_35  and  C22_36 
ROOT
HETATM    1  C5  UNL     1     -16.325 -33.342  27.611  1.00  0.00     0.066 A 
HETATM    2  C6  UNL     1     -14.987 -33.580  27.389  1.00  0.00     0.119 A 
HETATM    3  N3  UNL     1     -14.249 -34.093  28.379  1.00  0.00    -0.356 N 
ATOM      4  H3  UNL     1     -13.257 -34.275  28.228  1.00  0.00     0.166 HD
HETATM    5  C7  UNL     1     -14.816 -34.377  29.602  1.00  0.00     0.103 A 
HETATM    6  S1  UNL     1     -14.242 -35.015  31.075  1.00  0.00    -0.071 SA
HETATM    7  C8  UNL     1     -15.697 -34.975  31.963  1.00  0.00     0.031 A 
HETATM    8  C14 UNL     1     -16.604 -34.464  31.092  1.00  0.00     0.062 A 
HETATM    9  C20 UNL     1     -16.137 -34.149  29.846  1.00  0.00     0.087 A 
HETATM   10  N5  UNL     1     -16.855 -33.622  28.795  1.00  0.00    -0.351 N 
ATOM     11  H5  UNL     1     -17.848 -33.436  28.935  1.00  0.00     0.166 HD
ENDROOT
BRANCH   1  12
HETATM   12  C4  UNL     1     -17.164 -32.775  26.528  1.00  0.00     0.086 A 
HETATM   13  C3  UNL     1     -17.305 -33.463  25.354  1.00  0.00     0.117 A 
HETATM   14  N1  UNL     1     -18.064 -32.987  24.327  1.00  0.00    -0.332 N 
HETATM   15  C2  UNL     1     -18.698 -31.816  24.452  1.00  0.00     0.080 A 
ATOM     16  H1  UNL     1     -18.148 -33.523  23.463  1.00  0.00     0.168 HD
HETATM   17  C1  UNL     1     -19.546 -31.259  23.339  1.00  0.00     0.089 C 
HETATM   18  N6  UNL     1     -18.559 -31.128  25.622  1.00  0.00    -0.326 N 
HETATM   19  C21 UNL     1     -17.822 -31.561  26.655  1.00  0.00     0.160 A 
ATOM     20  H6  UNL     1     -19.043 -30.236  25.716  1.00  0.00     0.169 HD
BRANCH  13  21
HETATM   21  N2  UNL     1     -16.688 -34.593  25.242  1.00  0.00    -0.385 N 
ATOM     22  H22 UNL     1     -16.026 -34.697  24.474  1.00  0.00     0.157 HD
ATOM     23  H21 UNL     1     -16.868 -35.347  25.905  1.00  0.00     0.157 HD
ENDBRANCH  13  21
BRANCH  19  24
HETATM   24  O1  UNL     1     -17.707 -30.841  27.818  1.00  0.00    -0.330 OA
BRANCH  24  25
HETATM   25  C22 UNL     1     -18.633 -30.604  28.813  1.00  0.00     0.122 C 
HETATM   26  C23 UNL     1     -19.762 -31.634  28.753  1.00  0.00     0.040 C 
HETATM   27  C24 UNL     1     -18.045 -30.768  30.216  1.00  0.00     0.040 C 
ENDBRANCH  24  25
ENDBRANCH  19  24
ENDBRANCH   1  12
BRANCH   8  28
HETATM   28  C15 UNL     1     -18.012 -34.278  31.518  1.00  0.00    -0.063 C 
BRANCH  28  29
HETATM   29  C16 UNL     1     -19.160 -34.109  31.875  1.00  0.00    -0.096 C 
BRANCH  29  30
HETATM   30  C17 UNL     1     -20.535 -33.884  32.319  1.00  0.00     0.065 A 
HETATM   31  C18 UNL     1     -20.786 -33.509  33.762  1.00  0.00     0.018 A 
HETATM   32  C19 UNL     1     -21.105 -34.898  33.339  1.00  0.00     0.018 A 
ENDBRANCH  29  30
ENDBRANCH  28  29
ENDBRANCH   8  28
BRANCH   7  33
HETATM   33  C9  UNL     1     -15.951 -35.402  33.390  1.00  0.00     0.280 C 
BRANCH  33  34
HETATM   34  N4  UNL     1     -15.664 -34.249  34.231  1.00  0.00    -0.070 N 
ATOM     35  H42 UNL     1     -14.951 -34.458  34.930  1.00  0.00     0.277 HD
ATOM     36  H41 UNL     1     -15.165 -33.521  33.719  1.00  0.00     0.277 HD
BRANCH  34  37
HETATM   37  C10 UNL     1     -16.873 -33.747  34.834  1.00  0.00     0.237 C 
BRANCH  37  38
HETATM   38  C11 UNL     1     -16.788 -32.230  34.820  1.00  0.00     0.011 A 
HETATM   39  C12 UNL     1     -18.045 -31.542  35.318  1.00  0.00     0.007 A 
HETATM   40  C13 UNL     1     -17.603 -31.434  33.896  1.00  0.00     0.007 A 
ENDBRANCH  37  38
ENDBRANCH  34  37
ENDBRANCH  33  34
ENDBRANCH   7  33
TORSDOF 11
ENDMDL
MODEL 2
REMARK VINA RESULT: -6.356376812      3.446      7.955
REMARK  11 active torsions:
REMARK  status: ('A' for Active; 'I' for Inactive)
REMARK    1  A    between atoms: C3_5  and  N2_6 
REMARK    2  A    between atoms: C4_9  and  C5_10 
REMARK    3  A    between atoms: C8_16  and  C9_17 
REMARK    4  A    between atoms: C9_17  and  N4_18 
REMARK    5  A    between atoms: N4_18  and  C10_21 
REMARK    6  A    between atoms: C10_21  and  C11_22 
REMARK    7  A    between atoms: C14_25  and  C15_26 
REMARK    8  A    between atoms: C15_26  and  C16_27 
REMARK    9  A    between atoms: C16_27  and  C17_28 
REMARK   10  A    between atoms: C21_34  and  O1_35 
REMARK   11  A    between atoms: O1_35  and  C22_36 
ROOT
HETATM    1  C5  UNL     1     -17.353 -30.000  33.072  1.00  0.00     0.066 A 
HETATM    2  C6  UNL     1     -17.133 -28.788  33.687  1.00  0.00     0.119 A 
HETATM    3  N3  UNL     1     -16.431 -27.851  33.038  1.00  0.00    -0.356 N 
ATOM      4  H3  UNL     1     -16.262 -26.949  33.482  1.00  0.00     0.166 HD
HETATM    5  C7  UNL     1     -15.937 -28.096  31.776  1.00  0.00     0.103 A 
HETATM    6  S1  UNL     1     -15.024 -27.200  30.649  1.00  0.00    -0.071 SA
HETATM    7  C8  UNL     1     -14.926 -28.364  29.406  1.00  0.00     0.031 A 
HETATM    8  C14 UNL     1     -15.607 -29.430  29.896  1.00  0.00     0.062 A 
HETATM    9  C20 UNL     1     -16.140 -29.287  31.148  1.00  0.00     0.087 A 
HETATM   10  N5  UNL     1     -16.868 -30.217  31.856  1.00  0.00    -0.351 N 
ATOM     11  H5  UNL     1     -17.045 -31.123  31.421  1.00  0.00     0.166 HD
ENDROOT
BRANCH   1  12
HETATM   12  C4  UNL     1     -18.128 -31.052  33.771  1.00  0.00     0.086 A 
HETATM   13  C3  UNL     1     -17.969 -31.224  35.119  1.00  0.00     0.117 A 
HETATM   14  N1  UNL     1     -18.657 -32.176  35.809  1.00  0.00    -0.332 N 
HETATM   15  C2  UNL     1     -19.518 -32.975  35.169  1.00  0.00     0.080 A 
ATOM     16  H1  UNL     1     -18.516 -32.280  36.814  1.00  0.00     0.168 HD
HETATM   17  C1  UNL     1     -20.296 -34.037  35.899  1.00  0.00     0.089 C 
HETATM   18  N6  UNL     1     -19.678 -32.806  33.825  1.00  0.00    -0.326 N 
HETATM   19  C21 UNL     1     -19.021 -31.882  33.109  1.00  0.00     0.160 A 
ATOM     20  H6  UNL     1     -20.334 -33.415  33.338  1.00  0.00     0.169 HD
BRANCH  13  21
HETATM   21  N2  UNL     1     -17.136 -30.448  35.729  1.00  0.00    -0.385 N 
ATOM     22  H22 UNL     1     -17.483 -29.908  36.521  1.00  0.00     0.157 HD
ATOM     23  H21 UNL     1     -16.166 -30.386  35.418  1.00  0.00     0.157 HD
ENDBRANCH  13  21
BRANCH  19  24
HETATM   24  O1  UNL     1     -19.209 -31.741  31.757  1.00  0.00    -0.330 OA
BRANCH  24  25
HETATM   25  C22 UNL     1     -19.328 -32.699  30.770  1.00  0.00     0.122 C 
HETATM   26  C23 UNL     1     -19.455 -32.041  29.395  1.00  0.00     0.040 C 
HETATM   27  C24 UNL     1     -18.085 -33.583  30.655  1.00  0.00     0.040 C 
ENDBRANCH  24  25
ENDBRANCH  19  24
ENDBRANCH   1  12
BRANCH   8  28
HETATM   28  C15 UNL     1     -15.738 -30.660  29.079  1.00  0.00    -0.063 C 
BRANCH  28  29
HETATM   29  C16 UNL     1     -15.848 -31.656  28.393  1.00  0.00    -0.096 C 
BRANCH  29  30
HETATM   30  C17 UNL     1     -15.986 -32.840  27.546  1.00  0.00     0.065 A 
HETATM   31  C18 UNL     1     -15.837 -32.691  26.049  1.00  0.00     0.018 A 
HETATM   32  C19 UNL     1     -17.208 -32.873  26.597  1.00  0.00     0.018 A 
ENDBRANCH  29  30
ENDBRANCH  28  29
ENDBRANCH   8  28
BRANCH   7  33
HETATM   33  C9  UNL     1     -14.245 -28.262  28.062  1.00  0.00     0.280 C 
BRANCH  33  34
HETATM   34  N4  UNL     1     -15.204 -27.653  27.150  1.00  0.00    -0.070 N 
ATOM     35  H42 UNL     1     -15.944 -27.161  27.651  1.00  0.00     0.277 HD
ATOM     36  H41 UNL     1     -14.802 -26.858  26.653  1.00  0.00     0.277 HD
BRANCH  34  37
HETATM   37  C10 UNL     1     -15.737 -28.638  26.242  1.00  0.00     0.237 C 
BRANCH  37  38
HETATM   38  C11 UNL     1     -17.212 -28.327  26.056  1.00  0.00     0.011 A 
HETATM   39  C12 UNL     1     -18.124 -29.109  26.984  1.00  0.00     0.007 A 
HETATM   40  C13 UNL     1     -18.134 -29.328  25.507  1.00  0.00     0.007 A 
ENDBRANCH  37  38
ENDBRANCH  34  37
ENDBRANCH  33  34
ENDBRANCH   7  33
TORSDOF 11
ENDMDL
MODEL 3
REMARK VINA RESULT: -6.353733976      2.077      3.595
REMARK  11 active torsions:
REMARK  status: ('A' for Active; 'I' for Inactive)
REMARK    1  A    between atoms: C3_5  and  N2_6 
REMARK    2  A    between atoms: C4_9  and  C5_10 
REMARK    3  A    between atoms: C8_16  and  C9_17 
REMARK    4  A    between atoms: C9_17  and  N4_18 
REMARK    5  A    between atoms: N4_18  and  C10_21 
REMARK    6  A    between atoms: C10_21  and  C11_22 
REMARK    7  A    between atoms: C14_25  and  C15_26 
REMARK    8  A    between atoms: C15_26  and  C16_27 
REMARK    9  A    between atoms: C16_27  and  C17_28 
REMARK   10  A    between atoms: C21_34  and  O1_35 
REMARK   11  A    between atoms: O1_35  and  C22_36 
ROOT
HETATM    1  C5  UNL     1     -17.620 -30.406  28.600  1.00  0.00     0.066 A 
HETATM    2  C6  UNL     1     -16.685 -29.398  28.679  1.00  0.00     0.119 A 
HETATM    3  N3  UNL     1     -16.203 -29.056  29.879  1.00  0.00    -0.356 N 
ATOM      4  H3  UNL     1     -15.509 -28.312  29.951  1.00  0.00     0.166 HD
HETATM    5  C7  UNL     1     -16.634 -29.699  31.017  1.00  0.00     0.103 A 
HETATM    6  S1  UNL     1     -16.282 -29.567  32.679  1.00  0.00    -0.071 SA
HETATM    7  C8  UNL     1     -17.319 -30.787  33.266  1.00  0.00     0.031 A 
HETATM    8  C14 UNL     1     -17.922 -31.273  32.152  1.00  0.00     0.062 A 
HETATM    9  C20 UNL     1     -17.559 -30.699  30.965  1.00  0.00     0.087 A 
HETATM   10  N5  UNL     1     -18.024 -31.015  29.708  1.00  0.00    -0.351 N 
ATOM     11  H5  UNL     1     -18.718 -31.759  29.624  1.00  0.00     0.166 HD
ENDROOT
BRANCH   1  12
HETATM   12  C4  UNL     1     -18.168 -30.803  27.282  1.00  0.00     0.086 A 
HETATM   13  C3  UNL     1     -18.705 -29.851  26.460  1.00  0.00     0.117 A 
HETATM   14  N1  UNL     1     -19.222 -30.162  25.238  1.00  0.00    -0.332 N 
HETATM   15  C2  UNL     1     -19.213 -31.430  24.812  1.00  0.00     0.080 A 
ATOM     16  H1  UNL     1     -19.617 -29.429  24.649  1.00  0.00     0.168 HD
HETATM   17  C1  UNL     1     -19.775 -31.811  23.468  1.00  0.00     0.089 C 
HETATM   18  N6  UNL     1     -18.678 -32.381  25.630  1.00  0.00    -0.326 N 
HETATM   19  C21 UNL     1     -18.160 -32.117  26.838  1.00  0.00     0.160 A 
ATOM     20  H6  UNL     1     -18.671 -33.348  25.304  1.00  0.00     0.169 HD
BRANCH  13  21
HETATM   21  N2  UNL     1     -18.710 -28.629  26.880  1.00  0.00    -0.385 N 
ATOM     22  H22 UNL     1     -19.002 -27.904  26.225  1.00  0.00     0.157 HD
ATOM     23  H21 UNL     1     -18.429 -28.410  27.836  1.00  0.00     0.157 HD
ENDBRANCH  13  21
BRANCH  19  24
HETATM   24  O1  UNL     1     -17.629 -33.102  27.633  1.00  0.00    -0.330 OA
BRANCH  24  25
HETATM   25  C22 UNL     1     -16.354 -33.631  27.663  1.00  0.00     0.122 C 
HETATM   26  C23 UNL     1     -16.020 -34.151  29.061  1.00  0.00     0.040 C 
HETATM   27  C24 UNL     1     -16.202 -34.854  26.756  1.00  0.00     0.040 C 
ENDBRANCH  24  25
ENDBRANCH  19  24
ENDBRANCH   1  12
BRANCH   8  28
HETATM   28  C15 UNL     1     -18.912 -32.371  32.269  1.00  0.00    -0.063 C 
BRANCH  28  29
HETATM   29  C16 UNL     1     -19.709 -33.282  32.372  1.00  0.00    -0.096 C 
BRANCH  29  30
HETATM   30  C17 UNL     1     -20.661 -34.381  32.522  1.00  0.00     0.065 A 
HETATM   31  C18 UNL     1     -21.465 -34.485  33.798  1.00  0.00     0.018 A 
HETATM   32  C19 UNL     1     -20.336 -35.434  33.608  1.00  0.00     0.018 A 
ENDBRANCH  29  30
ENDBRANCH  28  29
ENDBRANCH   8  28
BRANCH   7  33
HETATM   33  C9  UNL     1     -17.540 -31.243  34.689  1.00  0.00     0.280 C 
BRANCH  33  34
HETATM   34  N4  UNL     1     -16.228 -31.556  35.239  1.00  0.00    -0.070 N 
ATOM     35  H42 UNL     1     -15.604 -30.750  35.212  1.00  0.00     0.277 HD
ATOM     36  H41 UNL     1     -16.262 -31.688  36.250  1.00  0.00     0.277 HD
BRANCH  34  37
HETATM   37  C10 UNL     1     -15.657 -32.698  34.569  1.00  0.00     0.237 C 
BRANCH  37  38
HETATM   38  C11 UNL     1     -16.598 -33.869  34.796  1.00  0.00     0.011 A 
HETATM   39  C12 UNL     1     -15.886 -35.181  35.073  1.00  0.00     0.007 A 
HETATM   40  C13 UNL     1     -16.685 -34.970  33.830  1.00  0.00     0.007 A 
ENDBRANCH  37  38
ENDBRANCH  34  37
ENDBRANCH  33  34
ENDBRANCH   7  33
TORSDOF 11
ENDMDL
MODEL 4
REMARK VINA RESULT: -6.337326949      2.120      3.580
REMARK  11 active torsions:
REMARK  status: ('A' for Active; 'I' for Inactive)
REMARK    1  A    between atoms: C3_5  and  N2_6 
REMARK    2  A    between atoms: C4_9  and  C5_10 
REMARK    3  A    between atoms: C8_16  and  C9_17 
REMARK    4  A    between atoms: C9_17  and  N4_18 
REMARK    5  A    between atoms: N4_18  and  C10_21 
REMARK    6  A    between atoms: C10_21  and  C11_22 
REMARK    7  A    between atoms: C14_25  and  C15_26 
REMARK    8  A    between atoms: C15_26  and  C16_27 
REMARK    9  A    between atoms: C16_27  and  C17_28 
REMARK   10  A    between atoms: C21_34  and  O1_35 
REMARK   11  A    between atoms: O1_35  and  C22_36 
ROOT
HETATM    1  C5  UNL     1     -17.410 -30.206  27.905  1.00  0.00     0.066 A 
HETATM    2  C6  UNL     1     -16.505 -29.169  27.880  1.00  0.00     0.119 A 
HETATM    3  N3  UNL     1     -15.971 -28.748  29.032  1.00  0.00    -0.356 N 
ATOM      4  H3  UNL     1     -15.298 -27.982  29.027  1.00  0.00     0.166 HD
HETATM    5  C7  UNL     1     -16.322 -29.342  30.224  1.00  0.00     0.103 A 
HETATM    6  S1  UNL     1     -15.887 -29.110  31.856  1.00  0.00    -0.071 SA
HETATM    7  C8  UNL     1     -16.853 -30.326  32.561  1.00  0.00     0.031 A 
HETATM    8  C14 UNL     1     -17.498 -30.889  31.508  1.00  0.00     0.062 A 
HETATM    9  C20 UNL     1     -17.216 -30.369  30.275  1.00  0.00     0.087 A 
HETATM   10  N5  UNL     1     -17.736 -30.766  29.063  1.00  0.00    -0.351 N 
ATOM     11  H5  UNL     1     -18.409 -31.532  29.056  1.00  0.00     0.166 HD
ENDROOT
BRANCH   1  12
HETATM   12  C4  UNL     1     -18.014 -30.690  26.640  1.00  0.00     0.086 A 
HETATM   13  C3  UNL     1     -19.011 -29.963  26.048  1.00  0.00     0.117 A 
HETATM   14  N1  UNL     1     -19.599 -30.363  24.886  1.00  0.00    -0.332 N 
HETATM   15  C2  UNL     1     -19.205 -31.494  24.291  1.00  0.00     0.080 A 
ATOM     16  H1  UNL     1     -20.341 -29.799  24.469  1.00  0.00     0.168 HD
HETATM   17  C1  UNL     1     -19.832 -31.966  23.007  1.00  0.00     0.089 C 
HETATM   18  N6  UNL     1     -18.212 -32.220  24.880  1.00  0.00    -0.326 N 
HETATM   19  C21 UNL     1     -17.607 -31.863  26.022  1.00  0.00     0.160 A 
ATOM     20  H6  UNL     1     -17.912 -33.082  24.427  1.00  0.00     0.169 HD
BRANCH  13  21
HETATM   21  N2  UNL     1     -19.385 -28.872  26.630  1.00  0.00    -0.385 N 
ATOM     22  H22 UNL     1     -18.663 -28.199  26.885  1.00  0.00     0.157 HD
ATOM     23  H21 UNL     1     -20.373 -28.702  26.823  1.00  0.00     0.157 HD
ENDBRANCH  13  21
BRANCH  19  24
HETATM   24  O1  UNL     1     -16.610 -32.619  26.585  1.00  0.00    -0.330 OA
BRANCH  24  25
HETATM   25  C22 UNL     1     -16.669 -33.850  27.206  1.00  0.00     0.122 C 
HETATM   26  C23 UNL     1     -15.913 -34.901  26.392  1.00  0.00     0.040 C 
HETATM   27  C24 UNL     1     -15.976 -33.856  28.570  1.00  0.00     0.040 C 
ENDBRANCH  24  25
ENDBRANCH  19  24
ENDBRANCH   1  12
BRANCH   8  28
HETATM   28  C15 UNL     1     -18.445 -32.006  31.736  1.00  0.00    -0.063 C 
BRANCH  28  29
HETATM   29  C16 UNL     1     -19.236 -32.908  31.926  1.00  0.00    -0.096 C 
BRANCH  29  30
HETATM   30  C17 UNL     1     -20.197 -33.981  32.176  1.00  0.00     0.065 A 
HETATM   31  C18 UNL     1     -20.925 -34.018  33.501  1.00  0.00     0.018 A 
HETATM   32  C19 UNL     1     -19.826 -34.997  33.283  1.00  0.00     0.018 A 
ENDBRANCH  29  30
ENDBRANCH  28  29
ENDBRANCH   8  28
BRANCH   7  33
HETATM   33  C9  UNL     1     -16.984 -30.710  34.016  1.00  0.00     0.280 C 
BRANCH  33  34
HETATM   34  N4  UNL     1     -15.708 -31.289  34.414  1.00  0.00    -0.070 N 
ATOM     35  H42 UNL     1     -15.147 -31.562  33.608  1.00  0.00     0.277 HD
ATOM     36  H41 UNL     1     -15.079 -30.587  34.805  1.00  0.00     0.277 HD
BRANCH  34  37
HETATM   37  C10 UNL     1     -15.912 -32.390  35.322  1.00  0.00     0.237 C 
BRANCH  37  38
HETATM   38  C11 UNL     1     -16.683 -33.459  34.565  1.00  0.00     0.011 A 
HETATM   39  C12 UNL     1     -16.245 -34.875  34.891  1.00  0.00     0.007 A 
HETATM   40  C13 UNL     1     -16.031 -34.280  33.539  1.00  0.00     0.007 A 
ENDBRANCH  37  38
ENDBRANCH  34  37
ENDBRANCH  33  34
ENDBRANCH   7  33
TORSDOF 11
ENDMDL
MODEL 5
REMARK VINA RESULT: -6.336291608      3.023      7.791
REMARK  11 active torsions:
REMARK  status: ('A' for Active; 'I' for Inactive)
REMARK    1  A    between atoms: C3_5  and  N2_6 
REMARK    2  A    between atoms: C4_9  and  C5_10 
REMARK    3  A    between atoms: C8_16  and  C9_17 
REMARK    4  A    between atoms: C9_17  and  N4_18 
REMARK    5  A    between atoms: N4_18  and  C10_21 
REMARK    6  A    between atoms: C10_21  and  C11_22 
REMARK    7  A    between atoms: C14_25  and  C15_26 
REMARK    8  A    between atoms: C15_26  and  C16_27 
REMARK    9  A    between atoms: C16_27  and  C17_28 
REMARK   10  A    between atoms: C21_34  and  O1_35 
REMARK   11  A    between atoms: O1_35  and  C22_36 
ROOT
HETATM    1  C5  UNL     1     -16.948 -29.878  31.665  1.00  0.00     0.066 A 
HETATM    2  C6  UNL     1     -16.606 -28.560  31.866  1.00  0.00     0.119 A 
HETATM    3  N3  UNL     1     -15.998 -27.892  30.879  1.00  0.00    -0.356 N 
ATOM      4  H3  UNL     1     -15.740 -26.915  31.013  1.00  0.00     0.166 HD
HETATM    5  C7  UNL     1     -15.718 -28.514  29.682  1.00  0.00     0.103 A 
HETATM    6  S1  UNL     1     -14.980 -28.034  28.222  1.00  0.00    -0.071 SA
HETATM    7  C8  UNL     1     -15.108 -29.504  27.367  1.00  0.00     0.031 A 
HETATM    8  C14 UNL     1     -15.724 -30.342  28.238  1.00  0.00     0.062 A 
HETATM    9  C20 UNL     1     -16.046 -29.818  29.460  1.00  0.00     0.087 A 
HETATM   10  N5  UNL     1     -16.670 -30.461  30.506  1.00  0.00    -0.351 N 
ATOM     11  H5  UNL     1     -16.934 -31.438  30.382  1.00  0.00     0.166 HD
ENDROOT
BRANCH   1  12
HETATM   12  C4  UNL     1     -17.623 -30.638  32.745  1.00  0.00     0.086 A 
HETATM   13  C3  UNL     1     -17.098 -30.625  34.008  1.00  0.00     0.117 A 
HETATM   14  N1  UNL     1     -17.679 -31.306  35.036  1.00  0.00    -0.332 N 
HETATM   15  C2  UNL     1     -18.795 -32.012  34.823  1.00  0.00     0.080 A 
ATOM     16  H1  UNL     1     -17.262 -31.278  35.967  1.00  0.00     0.168 HD
HETATM   17  C1  UNL     1     -19.465 -32.776  35.935  1.00  0.00     0.089 C 
HETATM   18  N6  UNL     1     -19.320 -32.026  33.565  1.00  0.00    -0.326 N 
HETATM   19  C21 UNL     1     -18.780 -31.371  32.527  1.00  0.00     0.160 A 
ATOM     20  H6  UNL     1     -20.171 -32.564  33.404  1.00  0.00     0.169 HD
BRANCH  13  21
HETATM   21  N2  UNL     1     -16.020 -29.941  34.203  1.00  0.00    -0.385 N 
ATOM     22  H22 UNL     1     -15.289 -30.362  34.778  1.00  0.00     0.157 HD
ATOM     23  H21 UNL     1     -15.915 -29.013  33.793  1.00  0.00     0.157 HD
ENDBRANCH  13  21
BRANCH  19  24
HETATM   24  O1  UNL     1     -19.338 -31.407  31.274  1.00  0.00    -0.330 OA
BRANCH  24  25
HETATM   25  C22 UNL     1     -19.547 -32.475  30.424  1.00  0.00     0.122 C 
HETATM   26  C23 UNL     1     -19.553 -32.009  28.967  1.00  0.00     0.040 C 
HETATM   27  C24 UNL     1     -18.420 -33.507  30.487  1.00  0.00     0.040 C 
ENDBRANCH  24  25
ENDBRANCH  19  24
ENDBRANCH   1  12
BRANCH   8  28
HETATM   28  C15 UNL     1     -16.012 -31.740  27.839  1.00  0.00    -0.063 C 
BRANCH  28  29
HETATM   29  C16 UNL     1     -16.261 -32.888  27.527  1.00  0.00    -0.096 C 
BRANCH  29  30
HETATM   30  C17 UNL     1     -16.540 -34.276  27.166  1.00  0.00     0.065 A 
HETATM   31  C18 UNL     1     -15.604 -34.989  26.218  1.00  0.00     0.018 A 
HETATM   32  C19 UNL     1     -16.920 -34.543  25.690  1.00  0.00     0.018 A 
ENDBRANCH  29  30
ENDBRANCH  28  29
ENDBRANCH   8  28
BRANCH   7  33
HETATM   33  C9  UNL     1     -14.651 -29.830  25.965  1.00  0.00     0.280 C 
BRANCH  33  34
HETATM   34  N4  UNL     1     -15.697 -29.366  25.063  1.00  0.00    -0.070 N 
ATOM     35  H42 UNL     1     -16.265 -28.633  25.486  1.00  0.00     0.277 HD
ATOM     36  H41 UNL     1     -15.315 -28.831  24.283  1.00  0.00     0.277 HD
BRANCH  34  37
HETATM   37  C10 UNL     1     -16.502 -30.473  24.610  1.00  0.00     0.237 C 
BRANCH  37  38
HETATM   38  C11 UNL     1     -17.940 -30.170  24.994  1.00  0.00     0.011 A 
HETATM   39  C12 UNL     1     -18.777 -31.408  25.259  1.00  0.00     0.007 A 
HETATM   40  C13 UNL     1     -19.052 -30.509  24.099  1.00  0.00     0.007 A 
ENDBRANCH  37  38
ENDBRANCH  34  37
ENDBRANCH  33  34
ENDBRANCH   7  33
TORSDOF 11
ENDMDL
