MODEL 1
REMARK VINA RESULT: -6.931698197      0.000      0.000
REMARK  7 active torsions:
REMARK  status: ('A' for Active; 'I' for Inactive)
REMARK    1  A    between atoms: C1_4  and  C2_6 
REMARK    2  A    between atoms: C5_9  and  C6_10 
REMARK    3  A    between atoms: C6_10  and  N3_11 
REMARK    4  A    between atoms: C6_10  and  C9_21 
REMARK    5  A    between atoms: N3_11  and  C7_13 
REMARK    6  A    between atoms: C8_17  and  N5_18 
REMARK       I    between atoms: C9_21  and  N6_23 
REMARK    7  A    between atoms: N6_23  and  N7_25 
ROOT
HETATM    1  C6  UNL     1      12.998  19.850  13.570  1.00  0.00     0.217 C 
ENDROOT
BRANCH   1   2
HETATM    2  C5  UNL     1      13.963  20.467  14.544  1.00  0.00     0.015 A 
HETATM    3  C4  UNL     1      15.333  20.489  14.525  1.00  0.00     0.018 A 
HETATM    4  C3  UNL     1      15.962  21.110  15.525  1.00  0.00     0.023 A 
HETATM    5  C2  UNL     1      15.193  21.682  16.499  1.00  0.00     0.046 A 
HETATM    6  S2  UNL     1      13.609  21.329  15.979  1.00  0.00    -0.089 SA
BRANCH   5   7
HETATM    7  C1  UNL     1      15.616  22.421  17.702  1.00  0.00     0.127 C 
HETATM    8  N1  UNL     1      15.116  22.065  18.836  1.00  0.00    -0.387 N 
ATOM      9  H12 UNL     1      15.408  22.576  19.668  1.00  0.00     0.157 HD
ATOM     10  H11 UNL     1      14.448  21.295  18.879  1.00  0.00     0.157 HD
HETATM   11  N2  UNL     1      16.536  23.481  17.642  1.00  0.00    -0.082 NA
ENDBRANCH   5   7
ENDBRANCH   1   2
BRANCH   1  12
HETATM   12  N3  UNL     1      13.576  19.466  12.338  1.00  0.00    -0.362 N 
ATOM     13  H3  UNL     1      14.583  19.615  12.287  1.00  0.00     0.161 HD
BRANCH  12  14
HETATM   14  C7  UNL     1      13.018  18.918  11.173  1.00  0.00     0.139 A 
HETATM   15  S1  UNL     1      13.627  19.145   9.556  1.00  0.00     0.009 SA
HETATM   16  N4  UNL     1      12.321  18.149   9.321  1.00  0.00    -0.303 N 
HETATM   17  C8  UNL     1      12.032  18.116  10.643  1.00  0.00     0.215 A 
ATOM     18  H4  UNL     1      11.898  17.724   8.495  1.00  0.00     0.176 HD
BRANCH  17  19
HETATM   19  N5  UNL     1      10.976  17.373  11.276  1.00  0.00    -0.094 N 
HETATM   20  O1  UNL     1      11.205  16.273  11.879  1.00  0.00    -0.530 OA
HETATM   21  O2  UNL     1       9.668  17.728  11.309  1.00  0.00    -0.530 OA
ENDBRANCH  17  19
ENDBRANCH  12  14
ENDBRANCH   1  12
BRANCH   1  22
HETATM   22  C9  UNL     1      12.440  18.635  14.271  1.00  0.00     0.263 C 
HETATM   23  O3  UNL     1      13.182  17.883  14.948  1.00  0.00    -0.269 OA
HETATM   24  N6  UNL     1      11.063  18.315  14.182  1.00  0.00    -0.275 N 
ATOM     25  H6  UNL     1      10.426  18.900  13.642  1.00  0.00     0.189 HD
BRANCH  24  26
HETATM   26  N7  UNL     1      10.597  17.180  14.848  1.00  0.00    -0.343 N 
ATOM     27  H72 UNL     1      11.074  16.856  15.690  1.00  0.00     0.176 HD
ATOM     28  H71 UNL     1       9.781  16.696  14.475  1.00  0.00     0.176 HD
ENDBRANCH  24  26
ENDBRANCH   1  22
TORSDOF 7
ENDMDL
MODEL 2
REMARK VINA RESULT: -6.624624300      2.443      6.383
REMARK  7 active torsions:
REMARK  status: ('A' for Active; 'I' for Inactive)
REMARK    1  A    between atoms: C1_4  and  C2_6 
REMARK    2  A    between atoms: C5_9  and  C6_10 
REMARK    3  A    between atoms: C6_10  and  N3_11 
REMARK    4  A    between atoms: C6_10  and  C9_21 
REMARK    5  A    between atoms: N3_11  and  C7_13 
REMARK    6  A    between atoms: C8_17  and  N5_18 
REMARK       I    between atoms: C9_21  and  N6_23 
REMARK    7  A    between atoms: N6_23  and  N7_25 
ROOT
HETATM    1  C6  UNL     1      14.897  19.269  13.598  1.00  0.00     0.217 C 
ENDROOT
BRANCH   1   2
HETATM    2  C5  UNL     1      14.436  19.759  12.254  1.00  0.00     0.015 A 
HETATM    3  C4  UNL     1      14.434  21.029  11.737  1.00  0.00     0.018 A 
HETATM    4  C3  UNL     1      13.962  21.200  10.501  1.00  0.00     0.023 A 
HETATM    5  C2  UNL     1      13.513  20.094   9.834  1.00  0.00     0.046 A 
HETATM    6  S2  UNL     1      13.769  18.848  10.968  1.00  0.00    -0.089 SA
BRANCH   5   7
HETATM    7  C1  UNL     1      12.948  19.993   8.478  1.00  0.00     0.127 C 
HETATM    8  N1  UNL     1      13.600  20.541   7.510  1.00  0.00    -0.387 N 
ATOM      9  H12 UNL     1      13.208  20.471   6.571  1.00  0.00     0.157 HD
ATOM     10  H11 UNL     1      14.477  21.027   7.697  1.00  0.00     0.157 HD
HETATM   11  N2  UNL     1      11.739  19.324   8.220  1.00  0.00    -0.082 NA
ENDBRANCH   5   7
ENDBRANCH   1   2
BRANCH   1  12
HETATM   12  N3  UNL     1      15.393  20.282  14.451  1.00  0.00    -0.362 N 
ATOM     13  H3  UNL     1      16.389  20.204  14.654  1.00  0.00     0.161 HD
BRANCH  12  14
HETATM   14  C7  UNL     1      14.766  21.374  15.069  1.00  0.00     0.139 A 
HETATM   15  S1  UNL     1      14.939  23.042  14.595  1.00  0.00     0.009 SA
HETATM   16  N4  UNL     1      13.879  23.130  15.868  1.00  0.00    -0.303 N 
HETATM   17  C8  UNL     1      13.898  21.790  16.055  1.00  0.00     0.215 A 
ATOM     18  H4  UNL     1      13.397  23.900  16.332  1.00  0.00     0.176 HD
BRANCH  17  19
HETATM   19  N5  UNL     1      13.144  21.044  17.025  1.00  0.00    -0.094 N 
HETATM   20  O1  UNL     1      11.892  20.844  16.885  1.00  0.00    -0.530 OA
HETATM   21  O2  UNL     1      13.640  20.488  18.157  1.00  0.00    -0.530 OA
ENDBRANCH  17  19
ENDBRANCH  12  14
ENDBRANCH   1  12
BRANCH   1  22
HETATM   22  C9  UNL     1      13.687  18.621  14.227  1.00  0.00     0.263 C 
HETATM   23  O3  UNL     1      13.790  17.545  14.863  1.00  0.00    -0.269 OA
HETATM   24  N6  UNL     1      12.406  19.214  14.115  1.00  0.00    -0.275 N 
ATOM     25  H6  UNL     1      12.280  20.090  13.607  1.00  0.00     0.189 HD
BRANCH  24  26
HETATM   26  N7  UNL     1      11.319  18.576  14.715  1.00  0.00    -0.343 N 
ATOM     27  H72 UNL     1      11.265  17.557  14.709  1.00  0.00     0.176 HD
ATOM     28  H71 UNL     1      10.596  19.148  15.149  1.00  0.00     0.176 HD
ENDBRANCH  24  26
ENDBRANCH   1  22
TORSDOF 7
ENDMDL
MODEL 3
REMARK VINA RESULT: -6.541858104      2.414      3.238
REMARK  7 active torsions:
REMARK  status: ('A' for Active; 'I' for Inactive)
REMARK    1  A    between atoms: C1_4  and  C2_6 
REMARK    2  A    between atoms: C5_9  and  C6_10 
REMARK    3  A    between atoms: C6_10  and  N3_11 
REMARK    4  A    between atoms: C6_10  and  C9_21 
REMARK    5  A    between atoms: N3_11  and  C7_13 
REMARK    6  A    between atoms: C8_17  and  N5_18 
REMARK       I    between atoms: C9_21  and  N6_23 
REMARK    7  A    between atoms: N6_23  and  N7_25 
ROOT
HETATM    1  C6  UNL     1      14.293  19.963  13.292  1.00  0.00     0.217 C 
ENDROOT
BRANCH   1   2
HETATM    2  C5  UNL     1      14.598  20.580  14.628  1.00  0.00     0.015 A 
HETATM    3  C4  UNL     1      15.777  21.086  15.111  1.00  0.00     0.018 A 
HETATM    4  C3  UNL     1      15.783  21.581  16.350  1.00  0.00     0.023 A 
HETATM    5  C2  UNL     1      14.611  21.550  17.052  1.00  0.00     0.046 A 
HETATM    6  S2  UNL     1      13.536  20.824  15.947  1.00  0.00    -0.089 SA
BRANCH   5   7
HETATM    7  C1  UNL     1      14.335  22.022  18.420  1.00  0.00     0.127 C 
HETATM    8  N1  UNL     1      14.376  21.157  19.376  1.00  0.00    -0.387 N 
ATOM      9  H12 UNL     1      14.184  21.483  20.323  1.00  0.00     0.157 HD
ATOM     10  H11 UNL     1      14.593  20.182  19.172  1.00  0.00     0.157 HD
HETATM   11  N2  UNL     1      14.035  23.366  18.701  1.00  0.00    -0.082 NA
ENDBRANCH   5   7
ENDBRANCH   1   2
BRANCH   1  12
HETATM   12  N3  UNL     1      13.114  19.184  13.264  1.00  0.00    -0.362 N 
ATOM     13  H3  UNL     1      12.657  19.087  14.170  1.00  0.00     0.161 HD
BRANCH  12  14
HETATM   14  C7  UNL     1      12.458  18.517  12.217  1.00  0.00     0.139 A 
HETATM   15  S1  UNL     1      11.122  17.413  12.401  1.00  0.00     0.009 SA
HETATM   16  N4  UNL     1      11.341  17.454  10.758  1.00  0.00    -0.303 N 
HETATM   17  C8  UNL     1      12.370  18.328  10.856  1.00  0.00     0.215 A 
ATOM     18  H4  UNL     1      10.877  16.996   9.973  1.00  0.00     0.176 HD
BRANCH  17  19
HETATM   19  N5  UNL     1      13.113  18.910   9.772  1.00  0.00    -0.094 N 
HETATM   20  O1  UNL     1      14.150  18.342   9.294  1.00  0.00    -0.530 OA
HETATM   21  O2  UNL     1      12.823  20.080   9.152  1.00  0.00    -0.530 OA
ENDBRANCH  17  19
ENDBRANCH  12  14
ENDBRANCH   1  12
BRANCH   1  22
HETATM   22  C9  UNL     1      14.159  21.123  12.334  1.00  0.00     0.263 C 
HETATM   23  O3  UNL     1      13.450  22.118  12.621  1.00  0.00    -0.269 OA
HETATM   24  N6  UNL     1      14.832  21.116  11.089  1.00  0.00    -0.275 N 
ATOM     25  H6  UNL     1      15.419  20.327  10.817  1.00  0.00     0.189 HD
BRANCH  24  26
HETATM   26  N7  UNL     1      14.676  22.213  10.239  1.00  0.00    -0.343 N 
ATOM     27  H72 UNL     1      13.814  22.759  10.271  1.00  0.00     0.176 HD
ATOM     28  H71 UNL     1      15.434  22.446   9.598  1.00  0.00     0.176 HD
ENDBRANCH  24  26
ENDBRANCH   1  22
TORSDOF 7
ENDMDL
MODEL 4
REMARK VINA RESULT: -6.404260264      2.414      6.683
REMARK  7 active torsions:
REMARK  status: ('A' for Active; 'I' for Inactive)
REMARK    1  A    between atoms: C1_4  and  C2_6 
REMARK    2  A    between atoms: C5_9  and  C6_10 
REMARK    3  A    between atoms: C6_10  and  N3_11 
REMARK    4  A    between atoms: C6_10  and  C9_21 
REMARK    5  A    between atoms: N3_11  and  C7_13 
REMARK    6  A    between atoms: C8_17  and  N5_18 
REMARK       I    between atoms: C9_21  and  N6_23 
REMARK    7  A    between atoms: N6_23  and  N7_25 
ROOT
HETATM    1  C6  UNL     1      13.723  19.769  14.279  1.00  0.00     0.217 C 
ENDROOT
BRANCH   1   2
HETATM    2  C5  UNL     1      13.771  20.040  12.801  1.00  0.00     0.015 A 
HETATM    3  C4  UNL     1      14.078  21.196  12.131  1.00  0.00     0.018 A 
HETATM    4  C3  UNL     1      14.046  21.173  10.798  1.00  0.00     0.023 A 
HETATM    5  C2  UNL     1      13.708  19.996  10.191  1.00  0.00     0.046 A 
HETATM    6  S2  UNL     1      13.447  18.957  11.517  1.00  0.00    -0.089 SA
BRANCH   5   7
HETATM    7  C1  UNL     1      13.595  19.690   8.755  1.00  0.00     0.127 C 
HETATM    8  N1  UNL     1      13.312  18.478   8.416  1.00  0.00    -0.387 N 
ATOM      9  H12 UNL     1      13.234  18.266   7.421  1.00  0.00     0.157 HD
ATOM     10  H11 UNL     1      13.176  17.767   9.134  1.00  0.00     0.157 HD
HETATM   11  N2  UNL     1      13.783  20.670   7.765  1.00  0.00    -0.082 NA
ENDBRANCH   5   7
ENDBRANCH   1   2
BRANCH   1  12
HETATM   12  N3  UNL     1      13.180  20.823  15.049  1.00  0.00    -0.362 N 
ATOM     13  H3  UNL     1      12.160  20.840  15.070  1.00  0.00     0.161 HD
BRANCH  12  14
HETATM   14  C7  UNL     1      13.786  21.849  15.789  1.00  0.00     0.139 A 
HETATM   15  S1  UNL     1      14.139  23.450  15.199  1.00  0.00     0.009 SA
HETATM   16  N4  UNL     1      14.664  23.514  16.771  1.00  0.00    -0.303 N 
HETATM   17  C8  UNL     1      14.303  22.231  17.007  1.00  0.00     0.215 A 
ATOM     18  H4  UNL     1      15.094  24.242  17.342  1.00  0.00     0.176 HD
BRANCH  17  19
HETATM   19  N5  UNL     1      14.416  21.518  18.251  1.00  0.00    -0.094 N 
HETATM   20  O1  UNL     1      15.015  22.025  19.256  1.00  0.00    -0.530 OA
HETATM   21  O2  UNL     1      13.928  20.279  18.500  1.00  0.00    -0.530 OA
ENDBRANCH  17  19
ENDBRANCH  12  14
ENDBRANCH   1  12
BRANCH   1  22
HETATM   22  C9  UNL     1      12.869  18.533  14.434  1.00  0.00     0.263 C 
HETATM   23  O3  UNL     1      13.392  17.409  14.629  1.00  0.00    -0.269 OA
HETATM   24  N6  UNL     1      11.457  18.613  14.364  1.00  0.00    -0.275 N 
ATOM     25  H6  UNL     1      10.993  19.508  14.208  1.00  0.00     0.189 HD
BRANCH  24  26
HETATM   26  N7  UNL     1      10.713  17.441  14.513  1.00  0.00    -0.343 N 
ATOM     27  H72 UNL     1      11.126  16.637  14.987  1.00  0.00     0.176 HD
ATOM     28  H71 UNL     1       9.764  17.415  14.141  1.00  0.00     0.176 HD
ENDBRANCH  24  26
ENDBRANCH   1  22
TORSDOF 7
ENDMDL
MODEL 5
REMARK VINA RESULT: -6.377659120      1.747      1.949
REMARK  7 active torsions:
REMARK  status: ('A' for Active; 'I' for Inactive)
REMARK    1  A    between atoms: C1_4  and  C2_6 
REMARK    2  A    between atoms: C5_9  and  C6_10 
REMARK    3  A    between atoms: C6_10  and  N3_11 
REMARK    4  A    between atoms: C6_10  and  C9_21 
REMARK    5  A    between atoms: N3_11  and  C7_13 
REMARK    6  A    between atoms: C8_17  and  N5_18 
REMARK       I    between atoms: C9_21  and  N6_23 
REMARK    7  A    between atoms: N6_23  and  N7_25 
ROOT
HETATM    1  C6  UNL     1      13.307  20.163  13.814  1.00  0.00     0.217 C 
ENDROOT
BRANCH   1   2
HETATM    2  C5  UNL     1      14.006  20.815  14.975  1.00  0.00     0.015 A 
HETATM    3  C4  UNL     1      15.344  21.033  15.182  1.00  0.00     0.018 A 
HETATM    4  C3  UNL     1      15.710  21.638  16.314  1.00  0.00     0.023 A 
HETATM    5  C2  UNL     1      14.724  21.999  17.188  1.00  0.00     0.046 A 
HETATM    6  S2  UNL     1      13.311  21.476  16.391  1.00  0.00    -0.089 SA
BRANCH   5   7
HETATM    7  C1  UNL     1      14.840  22.672  18.493  1.00  0.00     0.127 C 
HETATM    8  N1  UNL     1      15.581  22.119  19.393  1.00  0.00    -0.387 N 
ATOM      9  H12 UNL     1      15.662  22.584  20.297  1.00  0.00     0.157 HD
ATOM     10  H11 UNL     1      16.062  21.243  19.189  1.00  0.00     0.157 HD
HETATM   11  N2  UNL     1      14.177  23.879  18.775  1.00  0.00    -0.082 NA
ENDBRANCH   5   7
ENDBRANCH   1   2
BRANCH   1  12
HETATM   12  N3  UNL     1      14.138  19.908  12.700  1.00  0.00    -0.362 N 
ATOM     13  H3  UNL     1      14.960  19.344  12.914  1.00  0.00     0.161 HD
BRANCH  12  14
HETATM   14  C7  UNL     1      14.040  20.289  11.353  1.00  0.00     0.139 A 
HETATM   15  S1  UNL     1      14.514  21.834  10.701  1.00  0.00     0.009 SA
HETATM   16  N4  UNL     1      13.987  21.015   9.358  1.00  0.00    -0.303 N 
HETATM   17  C8  UNL     1      13.690  19.907  10.077  1.00  0.00     0.215 A 
ATOM     18  H4  UNL     1      13.914  21.254   8.369  1.00  0.00     0.176 HD
BRANCH  17  19
HETATM   19  N5  UNL     1      13.183  18.661   9.570  1.00  0.00    -0.094 N 
HETATM   20  O1  UNL     1      13.840  17.969   8.723  1.00  0.00    -0.530 OA
HETATM   21  O2  UNL     1      12.000  18.092   9.907  1.00  0.00    -0.530 OA
ENDBRANCH  17  19
ENDBRANCH  12  14
ENDBRANCH   1  12
BRANCH   1  22
HETATM   22  C9  UNL     1      12.762  18.862  14.351  1.00  0.00     0.263 C 
HETATM   23  O3  UNL     1      13.476  18.103  15.049  1.00  0.00    -0.269 OA
HETATM   24  N6  UNL     1      11.429  18.467  14.081  1.00  0.00    -0.275 N 
ATOM     25  H6  UNL     1      10.815  19.057  13.518  1.00  0.00     0.189 HD
BRANCH  24  26
HETATM   26  N7  UNL     1      10.973  17.255  14.600  1.00  0.00    -0.343 N 
ATOM     27  H72 UNL     1      11.645  16.554  14.915  1.00  0.00     0.176 HD
ATOM     28  H71 UNL     1       9.967  17.095  14.655  1.00  0.00     0.176 HD
ENDBRANCH  24  26
ENDBRANCH   1  22
TORSDOF 7
ENDMDL
