MODEL 1
REMARK VINA RESULT: -6.165494322      0.000      0.000
REMARK  11 active torsions:
REMARK  status: ('A' for Active; 'I' for Inactive)
REMARK    1  A    between atoms: O1_1  and  C1_3 
REMARK    2  A    between atoms: C1_3  and  C2_4 
REMARK    3  A    between atoms: C1_3  and  C6_11 
REMARK    4  A    between atoms: C2_4  and  S1_5 
REMARK    5  A    between atoms: S1_5  and  S2_6 
REMARK    6  A    between atoms: S2_6  and  C3_7 
REMARK    7  A    between atoms: C3_7  and  C4_8 
REMARK    8  A    between atoms: C4_8  and  C5_9 
REMARK    9  A    between atoms: C8_13  and  O2_14 
REMARK   10  A    between atoms: C9_16  and  O3_17 
REMARK   11  A    between atoms: C10_19  and  O4_20 
ROOT
HETATM    1  C6  UNL     1      13.431  20.805  15.387  1.00  0.00     0.156 C 
HETATM    2  C7  UNL     1      14.620  21.660  15.171  1.00  0.00     0.069 C 
HETATM    3  C8  UNL     1      14.426  22.917  16.032  1.00  0.00     0.154 C 
HETATM    4  C9  UNL     1      14.373  22.399  17.442  1.00  0.00     0.201 C 
HETATM    5  C10 UNL     1      13.441  21.284  17.674  1.00  0.00     0.288 C 
HETATM    6  O5  UNL     1      13.159  20.446  16.666  1.00  0.00    -0.351 OA
ENDROOT
BRANCH   1   7
HETATM    7  C1  UNL     1      13.527  19.567  14.536  1.00  0.00     0.157 C 
BRANCH   7   8
HETATM    8  O1  UNL     1      13.612  18.395  15.244  1.00  0.00    -0.392 OA
ATOM      9  H1  UNL     1      13.993  18.571  16.097  1.00  0.00     0.210 HD
ENDBRANCH   7   8
BRANCH   7  10
HETATM   10  C2  UNL     1      14.680  19.644  13.559  1.00  0.00     0.120 C 
BRANCH  10  11
HETATM   11  S1  UNL     1      14.138  19.337  11.860  1.00  0.00    -0.095 SA
BRANCH  11  12
HETATM   12  S2  UNL     1      12.344  18.202  11.808  1.00  0.00    -0.098 SA
BRANCH  12  13
HETATM   13  C3  UNL     1      11.883  17.791  10.092  1.00  0.00     0.087 C 
BRANCH  13  14
HETATM   14  C4  UNL     1      13.064  18.153   9.224  1.00  0.00     0.022 C 
BRANCH  14  15
HETATM   15  C5  UNL     1      12.745  19.072   8.093  1.00  0.00     0.087 C 
HETATM   16  S3  UNL     1      13.784  20.535   8.024  1.00  0.00    -0.098 SA
ENDBRANCH  14  15
ENDBRANCH  13  14
ENDBRANCH  12  13
ENDBRANCH  11  12
ENDBRANCH  10  11
ENDBRANCH   7  10
ENDBRANCH   1   7
BRANCH   3  17
HETATM   17  O2  UNL     1      13.238  23.530  15.704  1.00  0.00    -0.393 OA
ATOM     18  H2  UNL     1      12.538  23.189  16.249  1.00  0.00     0.210 HD
ENDBRANCH   3  17
BRANCH   5  19
HETATM   19  O4  UNL     1      13.911  20.522  18.771  1.00  0.00    -0.369 OA
ATOM     20  H4  UNL     1      13.755  19.603  18.590  1.00  0.00     0.212 HD
ENDBRANCH   5  19
BRANCH   4  21
HETATM   21  O3  UNL     1      14.123  23.486  18.310  1.00  0.00    -0.388 OA
ATOM     22  H3  UNL     1      13.515  24.078  17.883  1.00  0.00     0.210 HD
ENDBRANCH   4  21
TORSDOF 11
ENDMDL
MODEL 2
REMARK VINA RESULT: -5.968379904      2.781      3.833
REMARK  11 active torsions:
REMARK  status: ('A' for Active; 'I' for Inactive)
REMARK    1  A    between atoms: O1_1  and  C1_3 
REMARK    2  A    between atoms: C1_3  and  C2_4 
REMARK    3  A    between atoms: C1_3  and  C6_11 
REMARK    4  A    between atoms: C2_4  and  S1_5 
REMARK    5  A    between atoms: S1_5  and  S2_6 
REMARK    6  A    between atoms: S2_6  and  C3_7 
REMARK    7  A    between atoms: C3_7  and  C4_8 
REMARK    8  A    between atoms: C4_8  and  C5_9 
REMARK    9  A    between atoms: C8_13  and  O2_14 
REMARK   10  A    between atoms: C9_16  and  O3_17 
REMARK   11  A    between atoms: C10_19  and  O4_20 
ROOT
HETATM    1  C6  UNL     1      13.731  20.676  15.215  1.00  0.00     0.156 C 
HETATM    2  C7  UNL     1      14.833  21.658  15.104  1.00  0.00     0.069 C 
HETATM    3  C8  UNL     1      14.433  22.874  15.953  1.00  0.00     0.154 C 
HETATM    4  C9  UNL     1      14.319  22.332  17.351  1.00  0.00     0.201 C 
HETATM    5  C10 UNL     1      13.498  21.120  17.498  1.00  0.00     0.288 C 
HETATM    6  O5  UNL     1      13.394  20.271  16.464  1.00  0.00    -0.351 OA
ENDROOT
BRANCH   1   7
HETATM    7  C1  UNL     1      14.031  19.468  14.368  1.00  0.00     0.157 C 
BRANCH   7   8
HETATM    8  O1  UNL     1      15.369  19.218  14.188  1.00  0.00    -0.392 OA
ATOM      9  H1  UNL     1      15.512  18.279  14.174  1.00  0.00     0.210 HD
ENDBRANCH   7   8
BRANCH   7  10
HETATM   10  C2  UNL     1      13.352  19.545  13.017  1.00  0.00     0.120 C 
BRANCH  10  11
HETATM   11  S1  UNL     1      12.230  18.151  12.754  1.00  0.00    -0.095 SA
BRANCH  11  12
HETATM   12  S2  UNL     1      10.993  17.815  14.447  1.00  0.00    -0.098 SA
BRANCH  12  13
HETATM   13  C3  UNL     1       9.250  18.193  14.065  1.00  0.00     0.087 C 
BRANCH  13  14
HETATM   14  C4  UNL     1       8.678  18.889  15.276  1.00  0.00     0.022 C 
BRANCH  14  15
HETATM   15  C5  UNL     1       7.236  19.252  15.160  1.00  0.00     0.087 C 
HETATM   16  S3  UNL     1       6.632  19.314  13.469  1.00  0.00    -0.098 SA
ENDBRANCH  14  15
ENDBRANCH  13  14
ENDBRANCH  12  13
ENDBRANCH  11  12
ENDBRANCH  10  11
ENDBRANCH   7  10
ENDBRANCH   1   7
BRANCH   3  17
HETATM   17  O2  UNL     1      13.216  23.359  15.529  1.00  0.00    -0.393 OA
ATOM     18  H2  UNL     1      12.669  23.557  16.280  1.00  0.00     0.210 HD
ENDBRANCH   3  17
BRANCH   5  19
HETATM   19  O4  UNL     1      13.956  20.398  18.625  1.00  0.00    -0.369 OA
ATOM     20  H4  UNL     1      13.279  20.415  19.291  1.00  0.00     0.212 HD
ENDBRANCH   5  19
BRANCH   4  21
HETATM   21  O3  UNL     1      13.880  23.374  18.200  1.00  0.00    -0.388 OA
ATOM     22  H3  UNL     1      13.918  23.066  19.098  1.00  0.00     0.210 HD
ENDBRANCH   4  21
TORSDOF 11
ENDMDL
MODEL 3
REMARK VINA RESULT: -5.944145375      1.503      1.844
REMARK  11 active torsions:
REMARK  status: ('A' for Active; 'I' for Inactive)
REMARK    1  A    between atoms: O1_1  and  C1_3 
REMARK    2  A    between atoms: C1_3  and  C2_4 
REMARK    3  A    between atoms: C1_3  and  C6_11 
REMARK    4  A    between atoms: C2_4  and  S1_5 
REMARK    5  A    between atoms: S1_5  and  S2_6 
REMARK    6  A    between atoms: S2_6  and  C3_7 
REMARK    7  A    between atoms: C3_7  and  C4_8 
REMARK    8  A    between atoms: C4_8  and  C5_9 
REMARK    9  A    between atoms: C8_13  and  O2_14 
REMARK   10  A    between atoms: C9_16  and  O3_17 
REMARK   11  A    between atoms: C10_19  and  O4_20 
ROOT
HETATM    1  C6  UNL     1      13.231  20.652  15.253  1.00  0.00     0.156 C 
HETATM    2  C7  UNL     1      14.400  21.501  14.928  1.00  0.00     0.069 C 
HETATM    3  C8  UNL     1      14.257  22.789  15.753  1.00  0.00     0.154 C 
HETATM    4  C9  UNL     1      14.298  22.323  17.181  1.00  0.00     0.201 C 
HETATM    5  C10 UNL     1      13.388  21.216  17.515  1.00  0.00     0.288 C 
HETATM    6  O5  UNL     1      13.044  20.340  16.559  1.00  0.00    -0.351 OA
ENDROOT
BRANCH   1   7
HETATM    7  C1  UNL     1      13.277  19.384  14.444  1.00  0.00     0.157 C 
BRANCH   7   8
HETATM    8  O1  UNL     1      13.536  18.252  15.174  1.00  0.00    -0.392 OA
ATOM      9  H1  UNL     1      13.118  18.325  16.024  1.00  0.00     0.210 HD
ENDBRANCH   7   8
BRANCH   7  10
HETATM   10  C2  UNL     1      14.268  19.479  13.303  1.00  0.00     0.120 C 
BRANCH  10  11
HETATM   11  S1  UNL     1      13.486  19.137  11.708  1.00  0.00    -0.095 SA
BRANCH  11  12
HETATM   12  S2  UNL     1      13.847  20.695  10.313  1.00  0.00    -0.098 SA
BRANCH  12  13
HETATM   13  C3  UNL     1      13.434  20.161   8.618  1.00  0.00     0.087 C 
BRANCH  13  14
HETATM   14  C4  UNL     1      14.188  21.070   7.677  1.00  0.00     0.022 C 
BRANCH  14  15
HETATM   15  C5  UNL     1      14.689  22.329   8.300  1.00  0.00     0.087 C 
HETATM   16  S3  UNL     1      15.861  23.233   7.282  1.00  0.00    -0.098 SA
ENDBRANCH  14  15
ENDBRANCH  13  14
ENDBRANCH  12  13
ENDBRANCH  11  12
ENDBRANCH  10  11
ENDBRANCH   7  10
ENDBRANCH   1   7
BRANCH   3  17
HETATM   17  O2  UNL     1      13.047  23.386  15.480  1.00  0.00    -0.393 OA
ATOM     18  H2  UNL     1      13.174  24.314  15.319  1.00  0.00     0.210 HD
ENDBRANCH   3  17
BRANCH   5  19
HETATM   19  O4  UNL     1      13.933  20.497  18.606  1.00  0.00    -0.369 OA
ATOM     20  H4  UNL     1      13.233  20.297  19.216  1.00  0.00     0.212 HD
ENDBRANCH   5  19
BRANCH   4  21
HETATM   21  O3  UNL     1      14.100  23.442  18.023  1.00  0.00    -0.388 OA
ATOM     22  H3  UNL     1      13.993  23.133  18.914  1.00  0.00     0.210 HD
ENDBRANCH   4  21
TORSDOF 11
ENDMDL
MODEL 4
REMARK VINA RESULT: -5.938950182      3.445      4.573
REMARK  11 active torsions:
REMARK  status: ('A' for Active; 'I' for Inactive)
REMARK    1  A    between atoms: O1_1  and  C1_3 
REMARK    2  A    between atoms: C1_3  and  C2_4 
REMARK    3  A    between atoms: C1_3  and  C6_11 
REMARK    4  A    between atoms: C2_4  and  S1_5 
REMARK    5  A    between atoms: S1_5  and  S2_6 
REMARK    6  A    between atoms: S2_6  and  C3_7 
REMARK    7  A    between atoms: C3_7  and  C4_8 
REMARK    8  A    between atoms: C4_8  and  C5_9 
REMARK    9  A    between atoms: C8_13  and  O2_14 
REMARK   10  A    between atoms: C9_16  and  O3_17 
REMARK   11  A    between atoms: C10_19  and  O4_20 
ROOT
HETATM    1  C6  UNL     1      13.319  20.038  14.901  1.00  0.00     0.156 C 
HETATM    2  C7  UNL     1      13.335  20.905  13.700  1.00  0.00     0.069 C 
HETATM    3  C8  UNL     1      13.580  22.339  14.191  1.00  0.00     0.154 C 
HETATM    4  C9  UNL     1      14.932  22.284  14.845  1.00  0.00     0.201 C 
HETATM    5  C10 UNL     1      15.120  21.204  15.827  1.00  0.00     0.288 C 
HETATM    6  O5  UNL     1      14.419  20.069  15.693  1.00  0.00    -0.351 OA
ENDROOT
BRANCH   1   7
HETATM    7  C1  UNL     1      13.037  18.614  14.503  1.00  0.00     0.157 C 
BRANCH   7   8
HETATM    8  O1  UNL     1      14.016  17.720  14.855  1.00  0.00    -0.392 OA
ATOM      9  H1  UNL     1      14.151  17.106  14.143  1.00  0.00     0.210 HD
ENDBRANCH   7   8
BRANCH   7  10
HETATM   10  C2  UNL     1      12.758  18.489  13.020  1.00  0.00     0.120 C 
BRANCH  10  11
HETATM   11  S1  UNL     1      11.146  17.732  12.705  1.00  0.00    -0.095 SA
BRANCH  11  12
HETATM   12  S2  UNL     1       9.904  17.797  14.427  1.00  0.00    -0.098 SA
BRANCH  12  13
HETATM   13  C3  UNL     1       8.315  18.610  14.053  1.00  0.00     0.087 C 
BRANCH  13  14
HETATM   14  C4  UNL     1       7.622  18.844  15.374  1.00  0.00     0.022 C 
BRANCH  14  15
HETATM   15  C5  UNL     1       6.677  19.997  15.383  1.00  0.00     0.087 C 
HETATM   16  S3  UNL     1       5.529  20.013  14.001  1.00  0.00    -0.098 SA
ENDBRANCH  14  15
ENDBRANCH  13  14
ENDBRANCH  12  13
ENDBRANCH  11  12
ENDBRANCH  10  11
ENDBRANCH   7  10
ENDBRANCH   1   7
BRANCH   3  17
HETATM   17  O2  UNL     1      12.618  22.689  15.113  1.00  0.00    -0.393 OA
ATOM     18  H2  UNL     1      12.053  23.360  14.749  1.00  0.00     0.210 HD
ENDBRANCH   3  17
BRANCH   5  19
HETATM   19  O4  UNL     1      16.495  20.878  15.883  1.00  0.00    -0.369 OA
ATOM     20  H4  UNL     1      16.991  21.588  15.492  1.00  0.00     0.212 HD
ENDBRANCH   5  19
BRANCH   4  21
HETATM   21  O3  UNL     1      15.216  23.555  15.395  1.00  0.00    -0.388 OA
ATOM     22  H3  UNL     1      14.469  24.121  15.245  1.00  0.00     0.210 HD
ENDBRANCH   4  21
TORSDOF 11
ENDMDL
MODEL 5
REMARK VINA RESULT: -5.927008968      2.301      3.067
REMARK  11 active torsions:
REMARK  status: ('A' for Active; 'I' for Inactive)
REMARK    1  A    between atoms: O1_1  and  C1_3 
REMARK    2  A    between atoms: C1_3  and  C2_4 
REMARK    3  A    between atoms: C1_3  and  C6_11 
REMARK    4  A    between atoms: C2_4  and  S1_5 
REMARK    5  A    between atoms: S1_5  and  S2_6 
REMARK    6  A    between atoms: S2_6  and  C3_7 
REMARK    7  A    between atoms: C3_7  and  C4_8 
REMARK    8  A    between atoms: C4_8  and  C5_9 
REMARK    9  A    between atoms: C8_13  and  O2_14 
REMARK   10  A    between atoms: C9_16  and  O3_17 
REMARK   11  A    between atoms: C10_19  and  O4_20 
ROOT
HETATM    1  C6  UNL     1      13.269  20.645  15.228  1.00  0.00     0.156 C 
HETATM    2  C7  UNL     1      14.458  21.476  14.932  1.00  0.00     0.069 C 
HETATM    3  C8  UNL     1      14.309  22.771  15.745  1.00  0.00     0.154 C 
HETATM    4  C9  UNL     1      14.302  22.313  17.177  1.00  0.00     0.201 C 
HETATM    5  C10 UNL     1      13.368  21.220  17.490  1.00  0.00     0.288 C 
HETATM    6  O5  UNL     1      13.041  20.343  16.530  1.00  0.00    -0.351 OA
ENDROOT
BRANCH   1   7
HETATM    7  C1  UNL     1      13.321  19.371  14.427  1.00  0.00     0.157 C 
BRANCH   7   8
HETATM    8  O1  UNL     1      13.544  18.240  15.172  1.00  0.00    -0.392 OA
ATOM      9  H1  UNL     1      14.351  18.343  15.663  1.00  0.00     0.210 HD
ENDBRANCH   7   8
BRANCH   7  10
HETATM   10  C2  UNL     1      14.347  19.446  13.316  1.00  0.00     0.120 C 
BRANCH  10  11
HETATM   11  S1  UNL     1      13.586  19.219  11.690  1.00  0.00    -0.095 SA
BRANCH  11  12
HETATM   12  S2  UNL     1      13.793  20.954  10.483  1.00  0.00    -0.098 SA
BRANCH  12  13
HETATM   13  C3  UNL     1      13.587  22.468  11.479  1.00  0.00     0.087 C 
BRANCH  13  14
HETATM   14  C4  UNL     1      14.908  23.197  11.446  1.00  0.00     0.022 C 
BRANCH  14  15
HETATM   15  C5  UNL     1      15.020  24.323  12.418  1.00  0.00     0.087 C 
HETATM   16  S3  UNL     1      15.363  25.914  11.657  1.00  0.00    -0.098 SA
ENDBRANCH  14  15
ENDBRANCH  13  14
ENDBRANCH  12  13
ENDBRANCH  11  12
ENDBRANCH  10  11
ENDBRANCH   7  10
ENDBRANCH   1   7
BRANCH   3  17
HETATM   17  O2  UNL     1      13.115  23.382  15.434  1.00  0.00    -0.393 OA
ATOM     18  H2  UNL     1      12.619  23.544  16.229  1.00  0.00     0.210 HD
ENDBRANCH   3  17
BRANCH   5  19
HETATM   19  O4  UNL     1      13.871  20.500  18.600  1.00  0.00    -0.369 OA
ATOM     20  H4  UNL     1      14.012  21.109  19.317  1.00  0.00     0.212 HD
ENDBRANCH   5  19
BRANCH   4  21
HETATM   21  O3  UNL     1      14.095  23.440  18.006  1.00  0.00    -0.388 OA
ATOM     22  H3  UNL     1      13.195  23.428  18.310  1.00  0.00     0.210 HD
ENDBRANCH   4  21
TORSDOF 11
ENDMDL
