MODEL 1
REMARK VINA RESULT: -6.453312707      0.000      0.000
REMARK  13 active torsions:
REMARK  status: ('A' for Active; 'I' for Inactive)
REMARK    1  A    between atoms: C2_2  and  C3_3 
REMARK    2  A    between atoms: C3_3  and  C4_4 
REMARK    3  A    between atoms: C4_4  and  N1_5 
REMARK    4  A    between atoms: C4_4  and  O1_9 
REMARK    5  A    between atoms: C4_4  and  C5_11 
REMARK    6  A    between atoms: C5_11  and  S1_12 
REMARK    7  A    between atoms: S1_12  and  S2_13 
REMARK    8  A    between atoms: S2_13  and  C6_14 
REMARK    9  A    between atoms: C6_14  and  C7_15 
REMARK   10  A    between atoms: C8_16  and  O2_17 
REMARK   11  A    between atoms: N2_21  and  O3_23 
REMARK   12  A    between atoms: C11_25  and  O4_26 
REMARK   13  A    between atoms: C12_28  and  O5_29 
ROOT
HETATM    1  C7  UNL     1      14.335  20.490  14.016  1.00  0.00     0.056 C 
HETATM    2  C8  UNL     1      13.144  19.849  14.605  1.00  0.00     0.131 C 
HETATM    3  C9  UNL     1      13.044  18.402  14.151  1.00  0.00     0.089 C 
HETATM    4  C10 UNL     1      12.851  18.409  12.689  1.00  0.00     0.043 C 
HETATM    5  N2  UNL     1      11.921  17.750  12.098  1.00  0.00    -0.275 N 
ATOM      6  H2  UNL     1      11.850  17.805  11.082  1.00  0.00     0.193 HD
HETATM    7  C11 UNL     1      13.806  19.236  11.905  1.00  0.00     0.194 C 
HETATM    8  C12 UNL     1      14.889  19.811  12.784  1.00  0.00     0.160 C 
ENDROOT
BRANCH   1   9
HETATM    9  C6  UNL     1      14.195  21.997  13.756  1.00  0.00     0.096 C 
BRANCH   9  10
HETATM   10  S2  UNL     1      13.276  22.861  15.011  1.00  0.00    -0.097 SA
BRANCH  10  11
HETATM   11  S1  UNL     1      14.587  24.054  16.126  1.00  0.00    -0.093 SA
BRANCH  11  12
HETATM   12  C5  UNL     1      14.705  23.531  17.800  1.00  0.00     0.154 C 
BRANCH  12  13
HETATM   13  C4  UNL     1      14.826  22.095  18.121  1.00  0.00     0.231 C 
BRANCH  13  14
HETATM   14  C3  UNL     1      15.485  21.976  19.507  1.00  0.00     0.069 C 
BRANCH  14  15
HETATM   15  C2  UNL     1      15.245  20.619  20.120  1.00  0.00     0.000 C 
HETATM   16  C1  UNL     1      15.866  20.614  21.515  1.00  0.00     0.005 C 
ENDBRANCH  14  15
ENDBRANCH  13  14
BRANCH  13  17
HETATM   17  N1  UNL     1      13.479  21.520  18.380  1.00  0.00    -0.046 N 
ATOM     18  H13 UNL     1      12.885  22.068  19.003  1.00  0.00     0.278 HD
ATOM     19  H12 UNL     1      12.835  21.548  17.590  1.00  0.00     0.278 HD
ATOM     20  H11 UNL     1      13.716  20.587  18.715  1.00  0.00     0.278 HD
ENDBRANCH  13  17
BRANCH  13  21
HETATM   21  O1  UNL     1      15.552  21.325  17.252  1.00  0.00    -0.364 OA
ATOM     22  H1  UNL     1      15.677  21.831  16.458  1.00  0.00     0.212 HD
ENDBRANCH  13  21
ENDBRANCH  12  13
ENDBRANCH  11  12
ENDBRANCH  10  11
ENDBRANCH   9  10
ENDBRANCH   1   9
BRANCH   2  23
HETATM   23  O2  UNL     1      13.319  19.768  16.001  1.00  0.00    -0.395 OA
ATOM     24  H2  UNL     1      12.560  19.339  16.378  1.00  0.00     0.210 HD
ENDBRANCH   2  23
BRANCH   8  25
HETATM   25  O5  UNL     1      15.800  18.804  13.092  1.00  0.00    -0.392 OA
ATOM     26  H5  UNL     1      16.639  18.929  12.666  1.00  0.00     0.210 HD
ENDBRANCH   8  25
BRANCH   7  27
HETATM   27  O4  UNL     1      13.164  20.228  11.166  1.00  0.00    -0.387 OA
ATOM     28  H4  UNL     1      13.650  21.045  11.160  1.00  0.00     0.210 HD
ENDBRANCH   7  27
BRANCH   5  29
HETATM   29  O3  UNL     1      11.015  16.970  12.785  1.00  0.00    -0.290 OA
ATOM     30  H3  UNL     1      10.797  16.086  12.516  1.00  0.00     0.244 HD
ENDBRANCH   5  29
TORSDOF 13
ENDMDL
MODEL 2
REMARK VINA RESULT: -6.224798342      2.732      7.077
REMARK  13 active torsions:
REMARK  status: ('A' for Active; 'I' for Inactive)
REMARK    1  A    between atoms: C2_2  and  C3_3 
REMARK    2  A    between atoms: C3_3  and  C4_4 
REMARK    3  A    between atoms: C4_4  and  N1_5 
REMARK    4  A    between atoms: C4_4  and  O1_9 
REMARK    5  A    between atoms: C4_4  and  C5_11 
REMARK    6  A    between atoms: C5_11  and  S1_12 
REMARK    7  A    between atoms: S1_12  and  S2_13 
REMARK    8  A    between atoms: S2_13  and  C6_14 
REMARK    9  A    between atoms: C6_14  and  C7_15 
REMARK   10  A    between atoms: C8_16  and  O2_17 
REMARK   11  A    between atoms: N2_21  and  O3_23 
REMARK   12  A    between atoms: C11_25  and  O4_26 
REMARK   13  A    between atoms: C12_28  and  O5_29 
ROOT
HETATM    1  C7  UNL     1      13.420  21.456  14.687  1.00  0.00     0.056 C 
HETATM    2  C8  UNL     1      13.144  20.455  15.735  1.00  0.00     0.131 C 
HETATM    3  C9  UNL     1      13.001  21.132  17.089  1.00  0.00     0.089 C 
HETATM    4  C10 UNL     1      14.301  21.748  17.414  1.00  0.00     0.043 C 
HETATM    5  N2  UNL     1      14.902  21.574  18.535  1.00  0.00    -0.275 N 
ATOM      6  H2  UNL     1      15.800  22.033  18.687  1.00  0.00     0.193 HD
HETATM    7  C11 UNL     1      14.905  22.603  16.358  1.00  0.00     0.194 C 
HETATM    8  C12 UNL     1      13.971  22.774  15.186  1.00  0.00     0.160 C 
ENDROOT
BRANCH   1   9
HETATM    9  C6  UNL     1      14.276  20.949  13.517  1.00  0.00     0.096 C 
BRANCH   9  10
HETATM   10  S2  UNL     1      14.459  22.128  12.197  1.00  0.00    -0.097 SA
BRANCH  10  11
HETATM   11  S1  UNL     1      13.853  21.247  10.398  1.00  0.00    -0.093 SA
BRANCH  11  12
HETATM   12  C5  UNL     1      13.774  19.494  10.507  1.00  0.00     0.154 C 
BRANCH  12  13
HETATM   13  C4  UNL     1      13.147  18.712   9.424  1.00  0.00     0.231 C 
BRANCH  13  14
HETATM   14  C3  UNL     1      12.054  17.828  10.054  1.00  0.00     0.069 C 
BRANCH  14  15
HETATM   15  C2  UNL     1      12.071  17.915  11.559  1.00  0.00     0.000 C 
HETATM   16  C1  UNL     1      10.715  17.437  12.076  1.00  0.00     0.005 C 
ENDBRANCH  14  15
ENDBRANCH  13  14
BRANCH  13  17
HETATM   17  N1  UNL     1      12.341  19.608   8.554  1.00  0.00    -0.046 N 
ATOM     18  H13 UNL     1      12.135  19.242   7.624  1.00  0.00     0.278 HD
ATOM     19  H12 UNL     1      11.365  19.718   8.828  1.00  0.00     0.278 HD
ATOM     20  H11 UNL     1      12.896  20.463   8.571  1.00  0.00     0.278 HD
ENDBRANCH  13  17
BRANCH  13  21
HETATM   21  O1  UNL     1      13.968  17.893   8.695  1.00  0.00    -0.364 OA
ATOM     22  H1  UNL     1      14.080  17.089   9.188  1.00  0.00     0.212 HD
ENDBRANCH  13  21
ENDBRANCH  12  13
ENDBRANCH  11  12
ENDBRANCH  10  11
ENDBRANCH   9  10
ENDBRANCH   1   9
BRANCH   2  23
HETATM   23  O2  UNL     1      11.878  19.886  15.492  1.00  0.00    -0.395 OA
ATOM     24  H2  UNL     1      11.724  19.876  14.554  1.00  0.00     0.210 HD
ENDBRANCH   2  23
BRANCH   8  25
HETATM   25  O5  UNL     1      12.969  23.674  15.536  1.00  0.00    -0.392 OA
ATOM     26  H5  UNL     1      13.078  24.521  15.120  1.00  0.00     0.210 HD
ENDBRANCH   8  25
BRANCH   7  27
HETATM   27  O4  UNL     1      16.156  22.143  15.954  1.00  0.00    -0.387 OA
ATOM     28  H4  UNL     1      16.775  22.098  16.675  1.00  0.00     0.210 HD
ENDBRANCH   7  27
BRANCH   5  29
HETATM   29  O3  UNL     1      14.379  20.791  19.542  1.00  0.00    -0.290 OA
ATOM     30  H3  UNL     1      14.882  20.109  19.971  1.00  0.00     0.244 HD
ENDBRANCH   5  29
TORSDOF 13
ENDMDL
MODEL 3
REMARK VINA RESULT: -6.195463701      2.988      4.083
REMARK  13 active torsions:
REMARK  status: ('A' for Active; 'I' for Inactive)
REMARK    1  A    between atoms: C2_2  and  C3_3 
REMARK    2  A    between atoms: C3_3  and  C4_4 
REMARK    3  A    between atoms: C4_4  and  N1_5 
REMARK    4  A    between atoms: C4_4  and  O1_9 
REMARK    5  A    between atoms: C4_4  and  C5_11 
REMARK    6  A    between atoms: C5_11  and  S1_12 
REMARK    7  A    between atoms: S1_12  and  S2_13 
REMARK    8  A    between atoms: S2_13  and  C6_14 
REMARK    9  A    between atoms: C6_14  and  C7_15 
REMARK   10  A    between atoms: C8_16  and  O2_17 
REMARK   11  A    between atoms: N2_21  and  O3_23 
REMARK   12  A    between atoms: C11_25  and  O4_26 
REMARK   13  A    between atoms: C12_28  and  O5_29 
ROOT
HETATM    1  C7  UNL     1      13.821  20.509  15.698  1.00  0.00     0.056 C 
HETATM    2  C8  UNL     1      12.928  19.905  14.691  1.00  0.00     0.131 C 
HETATM    3  C9  UNL     1      13.672  19.693  13.383  1.00  0.00     0.089 C 
HETATM    4  C10 UNL     1      14.059  21.022  12.874  1.00  0.00     0.043 C 
HETATM    5  N2  UNL     1      13.826  21.411  11.673  1.00  0.00    -0.275 N 
ATOM      6  H2  UNL     1      14.123  22.346  11.394  1.00  0.00     0.193 HD
HETATM    7  C11 UNL     1      14.751  21.917  13.838  1.00  0.00     0.194 C 
HETATM    8  C12 UNL     1      15.039  21.211  15.140  1.00  0.00     0.160 C 
ENDROOT
BRANCH   1   9
HETATM    9  C6  UNL     1      13.124  21.419  16.720  1.00  0.00     0.096 C 
BRANCH   9  10
HETATM   10  S2  UNL     1      13.945  21.488  18.297  1.00  0.00    -0.097 SA
BRANCH  10  11
HETATM   11  S1  UNL     1      14.742  23.404  18.574  1.00  0.00    -0.093 SA
BRANCH  11  12
HETATM   12  C5  UNL     1      14.968  24.259  17.054  1.00  0.00     0.154 C 
BRANCH  12  13
HETATM   13  C4  UNL     1      14.210  25.495  16.780  1.00  0.00     0.231 C 
BRANCH  13  14
HETATM   14  C3  UNL     1      13.854  26.139  18.133  1.00  0.00     0.069 C 
BRANCH  14  15
HETATM   15  C2  UNL     1      13.495  27.595  17.977  1.00  0.00     0.000 C 
HETATM   16  C1  UNL     1      12.384  27.919  18.974  1.00  0.00     0.005 C 
ENDBRANCH  14  15
ENDBRANCH  13  14
BRANCH  13  17
HETATM   17  N1  UNL     1      15.111  26.520  16.191  1.00  0.00    -0.046 N 
ATOM     18  H13 UNL     1      16.096  26.431  16.443  1.00  0.00     0.278 HD
ATOM     19  H12 UNL     1      15.265  26.438  15.186  1.00  0.00     0.278 HD
ATOM     20  H11 UNL     1      14.662  27.385  16.492  1.00  0.00     0.278 HD
ENDBRANCH  13  17
BRANCH  13  21
HETATM   21  O1  UNL     1      13.048  25.365  16.067  1.00  0.00    -0.364 OA
ATOM     22  H1  UNL     1      12.416  25.970  16.439  1.00  0.00     0.212 HD
ENDBRANCH  13  21
ENDBRANCH  12  13
ENDBRANCH  11  12
ENDBRANCH  10  11
ENDBRANCH   9  10
ENDBRANCH   1   9
BRANCH   2  23
HETATM   23  O2  UNL     1      12.584  18.606  15.115  1.00  0.00    -0.395 OA
ATOM     24  H2  UNL     1      12.668  18.562  16.060  1.00  0.00     0.210 HD
ENDBRANCH   2  23
BRANCH   8  25
HETATM   25  O5  UNL     1      16.116  20.350  14.955  1.00  0.00    -0.392 OA
ATOM     26  H5  UNL     1      16.952  20.772  15.113  1.00  0.00     0.210 HD
ENDBRANCH   8  25
BRANCH   7  27
HETATM   27  O4  UNL     1      14.060  23.110  14.043  1.00  0.00    -0.387 OA
ATOM     28  H4  UNL     1      13.309  23.196  13.466  1.00  0.00     0.210 HD
ENDBRANCH   7  27
BRANCH   5  29
HETATM   29  O3  UNL     1      13.189  20.613  10.747  1.00  0.00    -0.290 OA
ATOM     30  H3  UNL     1      13.475  20.554   9.843  1.00  0.00     0.244 HD
ENDBRANCH   5  29
TORSDOF 13
ENDMDL
MODEL 4
REMARK VINA RESULT: -6.190396562      2.913      7.272
REMARK  13 active torsions:
REMARK  status: ('A' for Active; 'I' for Inactive)
REMARK    1  A    between atoms: C2_2  and  C3_3 
REMARK    2  A    between atoms: C3_3  and  C4_4 
REMARK    3  A    between atoms: C4_4  and  N1_5 
REMARK    4  A    between atoms: C4_4  and  O1_9 
REMARK    5  A    between atoms: C4_4  and  C5_11 
REMARK    6  A    between atoms: C5_11  and  S1_12 
REMARK    7  A    between atoms: S1_12  and  S2_13 
REMARK    8  A    between atoms: S2_13  and  C6_14 
REMARK    9  A    between atoms: C6_14  and  C7_15 
REMARK   10  A    between atoms: C8_16  and  O2_17 
REMARK   11  A    between atoms: N2_21  and  O3_23 
REMARK   12  A    between atoms: C11_25  and  O4_26 
REMARK   13  A    between atoms: C12_28  and  O5_29 
ROOT
HETATM    1  C7  UNL     1      14.415  20.551  15.212  1.00  0.00     0.056 C 
HETATM    2  C8  UNL     1      15.681  21.304  15.289  1.00  0.00     0.131 C 
HETATM    3  C9  UNL     1      15.783  22.034  16.619  1.00  0.00     0.089 C 
HETATM    4  C10 UNL     1      14.690  23.023  16.665  1.00  0.00     0.043 C 
HETATM    5  N2  UNL     1      14.870  24.259  16.963  1.00  0.00    -0.275 N 
ATOM      6  H2  UNL     1      14.064  24.884  16.973  1.00  0.00     0.193 HD
HETATM    7  C11 UNL     1      13.330  22.514  16.344  1.00  0.00     0.194 C 
HETATM    8  C12 UNL     1      13.331  21.017  16.159  1.00  0.00     0.160 C 
ENDROOT
BRANCH   1   9
HETATM    9  C6  UNL     1      13.836  20.402  13.798  1.00  0.00     0.096 C 
BRANCH   9  10
HETATM   10  S2  UNL     1      14.326  21.698  12.681  1.00  0.00    -0.097 SA
BRANCH  10  11
HETATM   11  S1  UNL     1      14.004  21.067  10.711  1.00  0.00    -0.093 SA
BRANCH  11  12
HETATM   12  C5  UNL     1      13.895  19.317  10.581  1.00  0.00     0.154 C 
BRANCH  12  13
HETATM   13  C4  UNL     1      13.215  18.701   9.425  1.00  0.00     0.231 C 
BRANCH  13  14
HETATM   14  C3  UNL     1      12.062  17.834   9.964  1.00  0.00     0.069 C 
BRANCH  14  15
HETATM   15  C2  UNL     1      12.006  17.862  11.471  1.00  0.00     0.000 C 
HETATM   16  C1  UNL     1      10.616  17.399  11.901  1.00  0.00     0.005 C 
ENDBRANCH  14  15
ENDBRANCH  13  14
BRANCH  13  17
HETATM   17  N1  UNL     1      12.474  19.740   8.661  1.00  0.00    -0.046 N 
ATOM     18  H13 UNL     1      11.852  19.385   7.935  1.00  0.00     0.278 HD
ATOM     19  H12 UNL     1      11.743  20.224   9.181  1.00  0.00     0.278 HD
ATOM     20  H11 UNL     1      13.236  20.332   8.330  1.00  0.00     0.278 HD
ENDBRANCH  13  17
BRANCH  13  21
HETATM   21  O1  UNL     1      13.977  17.910   8.606  1.00  0.00    -0.364 OA
ATOM     22  H1  UNL     1      14.880  18.188   8.703  1.00  0.00     0.212 HD
ENDBRANCH  13  21
ENDBRANCH  12  13
ENDBRANCH  11  12
ENDBRANCH  10  11
ENDBRANCH   9  10
ENDBRANCH   1   9
BRANCH   2  23
HETATM   23  O2  UNL     1      16.751  20.387  15.309  1.00  0.00    -0.395 OA
ATOM     24  H2  UNL     1      17.440  20.712  14.741  1.00  0.00     0.210 HD
ENDBRANCH   2  23
BRANCH   8  25
HETATM   25  O5  UNL     1      13.413  20.408  17.408  1.00  0.00    -0.392 OA
ATOM     26  H5  UNL     1      12.821  19.672  17.495  1.00  0.00     0.210 HD
ENDBRANCH   8  25
BRANCH   7  27
HETATM   27  O4  UNL     1      12.765  23.166  15.251  1.00  0.00    -0.387 OA
ATOM     28  H4  UNL     1      11.887  23.482  15.433  1.00  0.00     0.210 HD
ENDBRANCH   7  27
BRANCH   5  29
HETATM   29  O3  UNL     1      16.112  24.773  17.268  1.00  0.00    -0.290 OA
ATOM     30  H3  UNL     1      16.859  24.219  17.462  1.00  0.00     0.244 HD
ENDBRANCH   5  29
TORSDOF 13
ENDMDL
MODEL 5
REMARK VINA RESULT: -6.169746901      1.110      1.110
REMARK  13 active torsions:
REMARK  status: ('A' for Active; 'I' for Inactive)
REMARK    1  A    between atoms: C2_2  and  C3_3 
REMARK    2  A    between atoms: C3_3  and  C4_4 
REMARK    3  A    between atoms: C4_4  and  N1_5 
REMARK    4  A    between atoms: C4_4  and  O1_9 
REMARK    5  A    between atoms: C4_4  and  C5_11 
REMARK    6  A    between atoms: C5_11  and  S1_12 
REMARK    7  A    between atoms: S1_12  and  S2_13 
REMARK    8  A    between atoms: S2_13  and  C6_14 
REMARK    9  A    between atoms: C6_14  and  C7_15 
REMARK   10  A    between atoms: C8_16  and  O2_17 
REMARK   11  A    between atoms: N2_21  and  O3_23 
REMARK   12  A    between atoms: C11_25  and  O4_26 
REMARK   13  A    between atoms: C12_28  and  O5_29 
ROOT
HETATM    1  C7  UNL     1      13.960  20.727  13.796  1.00  0.00     0.056 C 
HETATM    2  C8  UNL     1      12.778  20.195  14.501  1.00  0.00     0.131 C 
HETATM    3  C9  UNL     1      12.761  18.677  14.433  1.00  0.00     0.089 C 
HETATM    4  C10 UNL     1      12.622  18.300  13.014  1.00  0.00     0.043 C 
HETATM    5  N2  UNL     1      11.745  17.463  12.590  1.00  0.00    -0.275 N 
ATOM      6  H2  UNL     1      11.709  17.253  11.592  1.00  0.00     0.193 HD
HETATM    7  C11 UNL     1      13.567  18.948  12.067  1.00  0.00     0.194 C 
HETATM    8  C12 UNL     1      14.590  19.785  12.794  1.00  0.00     0.160 C 
ENDROOT
BRANCH   1   9
HETATM    9  C6  UNL     1      13.763  22.108  13.153  1.00  0.00     0.096 C 
BRANCH   9  10
HETATM   10  S2  UNL     1      14.890  23.347  13.754  1.00  0.00    -0.097 SA
BRANCH  10  11
HETATM   11  S1  UNL     1      14.321  23.916  15.687  1.00  0.00    -0.093 SA
BRANCH  11  12
HETATM   12  C5  UNL     1      15.104  22.945  16.926  1.00  0.00     0.154 C 
BRANCH  12  13
HETATM   13  C4  UNL     1      14.512  22.846  18.274  1.00  0.00     0.231 C 
BRANCH  13  14
HETATM   14  C3  UNL     1      15.577  22.252  19.214  1.00  0.00     0.069 C 
BRANCH  14  15
HETATM   15  C2  UNL     1      15.199  20.868  19.675  1.00  0.00     0.000 C 
HETATM   16  C1  UNL     1      15.617  20.725  21.137  1.00  0.00     0.005 C 
ENDBRANCH  14  15
ENDBRANCH  13  14
BRANCH  13  17
HETATM   17  N1  UNL     1      14.332  24.206  18.848  1.00  0.00    -0.046 N 
ATOM     18  H13 UNL     1      15.047  24.494  19.517  1.00  0.00     0.278 HD
ATOM     19  H12 UNL     1      14.496  24.977  18.201  1.00  0.00     0.278 HD
ATOM     20  H11 UNL     1      13.385  24.146  19.222  1.00  0.00     0.278 HD
ENDBRANCH  13  17
BRANCH  13  21
HETATM   21  O1  UNL     1      13.381  22.084  18.400  1.00  0.00    -0.364 OA
ATOM     22  H1  UNL     1      12.758  22.389  17.751  1.00  0.00     0.212 HD
ENDBRANCH  13  21
ENDBRANCH  12  13
ENDBRANCH  11  12
ENDBRANCH  10  11
ENDBRANCH   9  10
ENDBRANCH   1   9
BRANCH   2  23
HETATM   23  O2  UNL     1      12.905  20.483  15.875  1.00  0.00    -0.395 OA
ATOM     24  H2  UNL     1      12.325  21.204  16.089  1.00  0.00     0.210 HD
ENDBRANCH   2  23
BRANCH   8  25
HETATM   25  O5  UNL     1      15.533  18.941  13.373  1.00  0.00    -0.392 OA
ATOM     26  H5  UNL     1      15.909  18.331  12.749  1.00  0.00     0.210 HD
ENDBRANCH   8  25
BRANCH   7  27
HETATM   27  O4  UNL     1      12.910  19.682  11.082  1.00  0.00    -0.387 OA
ATOM     28  H4  UNL     1      13.456  20.371  10.720  1.00  0.00     0.210 HD
ENDBRANCH   7  27
BRANCH   5  29
HETATM   29  O3  UNL     1      10.850  16.838  13.432  1.00  0.00    -0.290 OA
ATOM     30  H3  UNL     1      10.892  15.908  13.620  1.00  0.00     0.244 HD
ENDBRANCH   5  29
TORSDOF 13
ENDMDL
