MODEL 1
REMARK VINA RESULT: -10.205840459      0.000      0.000
REMARK  19 active torsions:
REMARK  status: ('A' for Active; 'I' for Inactive)
REMARK    1  A    between atoms: C2_2  and  C3_3 
REMARK    2  A    between atoms: C3_3  and  C4_4 
REMARK    3  A    between atoms: C4_4  and  C5_5 
REMARK    4  A    between atoms: C5_5  and  C6_6 
REMARK    5  A    between atoms: C6_6  and  C7_7 
REMARK    6  A    between atoms: C8_8  and  C9_9 
REMARK    7  A    between atoms: C9_9  and  C10_10 
REMARK    8  A    between atoms: C11_11  and  C12_12 
REMARK    9  A    between atoms: C12_12  and  C13_13 
REMARK   10  A    between atoms: C14_14  and  C15_15 
REMARK   11  A    between atoms: C15_15  and  C16_16 
REMARK   12  A    between atoms: C17_17  and  C18_18 
REMARK   13  A    between atoms: C18_18  and  C19_19 
REMARK   14  A    between atoms: C20_20  and  C21_21 
REMARK   15  A    between atoms: C21_21  and  C22_22 
REMARK   16  A    between atoms: C23_23  and  C24_24 
REMARK   17  A    between atoms: C24_24  and  C25_25 
REMARK   18  A    between atoms: C26_26  and  C27_27 
REMARK   19  A    between atoms: C27_27  and  C28_28 
ROOT
HETATM    1  C16 UNL     1      92.406   8.404  10.004  1.00  0.00    -0.027 C 
HETATM    2  C17 UNL     1      91.769   9.484  10.383  1.00  0.00    -0.027 C 
ENDROOT
BRANCH   2   3
HETATM    3  C18 UNL     1      90.638  10.134   9.731  1.00  0.00     0.053 C 
BRANCH   3   4
HETATM    4  C19 UNL     1      90.890  11.089   8.649  1.00  0.00    -0.027 C 
HETATM    5  C20 UNL     1      90.838  11.051   7.365  1.00  0.00    -0.027 C 
BRANCH   5   6
HETATM    6  C21 UNL     1      90.490   9.971   6.448  1.00  0.00     0.053 C 
BRANCH   6   7
HETATM    7  C22 UNL     1      89.624  10.468   5.315  1.00  0.00    -0.027 C 
HETATM    8  C23 UNL     1      89.461  11.758   5.173  1.00  0.00    -0.027 C 
BRANCH   8   9
HETATM    9  C24 UNL     1      88.601  12.239   4.048  1.00  0.00     0.053 C 
BRANCH   9  10
HETATM   10  C25 UNL     1      87.986  13.513   4.474  1.00  0.00    -0.027 C 
HETATM   11  C26 UNL     1      86.919  13.630   5.238  1.00  0.00    -0.025 C 
BRANCH  11  12
HETATM   12  C27 UNL     1      86.123  12.536   5.824  1.00  0.00     0.078 C 
BRANCH  12  13
HETATM   13  C28 UNL     1      84.929  12.199   4.994  1.00  0.00    -0.015 C 
HETATM   14  N1  UNL     1      83.871  11.654   5.432  1.00  0.00    -0.396 N 
HETATM   15  C29 UNL     1      82.895  11.451   4.404  1.00  0.00     0.119 C 
ATOM     16  H1  UNL     1      83.731  11.389   6.407  1.00  0.00     0.159 HD
HETATM   17  C30 UNL     1      83.721  11.510   3.146  1.00  0.00     0.025 C 
HETATM   18  C31 UNL     1      84.830  12.463   3.536  1.00  0.00     0.054 C 
ENDBRANCH  12  13
ENDBRANCH  11  12
ENDBRANCH   9  10
ENDBRANCH   8   9
ENDBRANCH   6   7
ENDBRANCH   5   6
ENDBRANCH   3   4
ENDBRANCH   2   3
BRANCH   1  19
HETATM   19  C15 UNL     1      92.114   7.583   8.802  1.00  0.00     0.053 C 
BRANCH  19  20
HETATM   20  C14 UNL     1      93.221   7.772   7.834  1.00  0.00    -0.027 C 
HETATM   21  C13 UNL     1      93.952   6.822   7.355  1.00  0.00    -0.027 C 
BRANCH  21  22
HETATM   22  C12 UNL     1      93.890   5.365   7.623  1.00  0.00     0.053 C 
BRANCH  22  23
HETATM   23  C11 UNL     1      94.736   5.022   8.784  1.00  0.00    -0.027 C 
HETATM   24  C10 UNL     1      94.369   4.610   9.957  1.00  0.00    -0.027 C 
BRANCH  24  25
HETATM   25  C9  UNL     1      92.948   4.406  10.330  1.00  0.00     0.053 C 
BRANCH  25  26
HETATM   26  C8  UNL     1      92.809   2.941  10.646  1.00  0.00    -0.027 C 
HETATM   27  C7  UNL     1      92.523   2.113   9.679  1.00  0.00    -0.030 C 
BRANCH  27  28
HETATM   28  C6  UNL     1      92.351   0.659   9.829  1.00  0.00     0.027 C 
BRANCH  28  29
HETATM   29  C5  UNL     1      91.195   0.082   9.091  1.00  0.00     0.004 C 
BRANCH  29  30
HETATM   30  C4  UNL     1      90.234   1.087   8.576  1.00  0.00     0.000 C 
BRANCH  30  31
HETATM   31  C3  UNL     1      88.853   0.794   9.199  1.00  0.00    -0.000 C 
BRANCH  31  32
HETATM   32  C2  UNL     1      88.348   2.106   9.810  1.00  0.00    -0.005 C 
HETATM   33  C1  UNL     1      89.048   3.263   9.169  1.00  0.00     0.005 C 
ENDBRANCH  31  32
ENDBRANCH  30  31
ENDBRANCH  29  30
ENDBRANCH  28  29
ENDBRANCH  27  28
ENDBRANCH  25  26
ENDBRANCH  24  25
ENDBRANCH  22  23
ENDBRANCH  21  22
ENDBRANCH  19  20
ENDBRANCH   1  19
TORSDOF 19
ENDMDL
MODEL 2
REMARK VINA RESULT: -9.910799242      2.399      5.310
REMARK  19 active torsions:
REMARK  status: ('A' for Active; 'I' for Inactive)
REMARK    1  A    between atoms: C2_2  and  C3_3 
REMARK    2  A    between atoms: C3_3  and  C4_4 
REMARK    3  A    between atoms: C4_4  and  C5_5 
REMARK    4  A    between atoms: C5_5  and  C6_6 
REMARK    5  A    between atoms: C6_6  and  C7_7 
REMARK    6  A    between atoms: C8_8  and  C9_9 
REMARK    7  A    between atoms: C9_9  and  C10_10 
REMARK    8  A    between atoms: C11_11  and  C12_12 
REMARK    9  A    between atoms: C12_12  and  C13_13 
REMARK   10  A    between atoms: C14_14  and  C15_15 
REMARK   11  A    between atoms: C15_15  and  C16_16 
REMARK   12  A    between atoms: C17_17  and  C18_18 
REMARK   13  A    between atoms: C18_18  and  C19_19 
REMARK   14  A    between atoms: C20_20  and  C21_21 
REMARK   15  A    between atoms: C21_21  and  C22_22 
REMARK   16  A    between atoms: C23_23  and  C24_24 
REMARK   17  A    between atoms: C24_24  and  C25_25 
REMARK   18  A    between atoms: C26_26  and  C27_27 
REMARK   19  A    between atoms: C27_27  and  C28_28 
ROOT
HETATM    1  C16 UNL     1      92.979   3.973  10.429  1.00  0.00    -0.027 C 
HETATM    2  C17 UNL     1      94.027   4.614   9.979  1.00  0.00    -0.027 C 
ENDROOT
BRANCH   2   3
HETATM    3  C18 UNL     1      94.589   4.584   8.634  1.00  0.00     0.053 C 
BRANCH   3   4
HETATM    4  C19 UNL     1      94.415   5.747   7.760  1.00  0.00    -0.027 C 
HETATM    5  C20 UNL     1      93.557   6.700   7.666  1.00  0.00    -0.027 C 
BRANCH   5   6
HETATM    6  C21 UNL     1      92.359   6.996   8.444  1.00  0.00     0.053 C 
BRANCH   6   7
HETATM    7  C22 UNL     1      91.595   8.159   7.857  1.00  0.00    -0.027 C 
HETATM    8  C23 UNL     1      91.586   9.293   8.508  1.00  0.00    -0.027 C 
BRANCH   8   9
HETATM    9  C24 UNL     1      90.826  10.438   7.918  1.00  0.00     0.053 C 
BRANCH   9  10
HETATM   10  C25 UNL     1      90.504  10.082   6.521  1.00  0.00    -0.027 C 
HETATM   11  C26 UNL     1      89.744  10.787   5.707  1.00  0.00    -0.025 C 
BRANCH  11  12
HETATM   12  C27 UNL     1      89.066  12.061   6.008  1.00  0.00     0.078 C 
BRANCH  12  13
HETATM   13  C28 UNL     1      87.633  12.050   5.589  1.00  0.00    -0.015 C 
HETATM   14  N1  UNL     1      86.699  12.673   6.180  1.00  0.00    -0.396 N 
HETATM   15  C29 UNL     1      85.428  12.476   5.552  1.00  0.00     0.119 C 
ATOM     16  H1  UNL     1      86.839  13.250   7.011  1.00  0.00     0.159 HD
HETATM   17  C30 UNL     1      85.644  11.216   4.754  1.00  0.00     0.025 C 
HETATM   18  C31 UNL     1      87.116  11.301   4.415  1.00  0.00     0.054 C 
ENDBRANCH  12  13
ENDBRANCH  11  12
ENDBRANCH   9  10
ENDBRANCH   8   9
ENDBRANCH   6   7
ENDBRANCH   5   6
ENDBRANCH   3   4
ENDBRANCH   2   3
BRANCH   1  19
HETATM   19  C15 UNL     1      92.109   3.050   9.657  1.00  0.00     0.053 C 
BRANCH  19  20
HETATM   20  C14 UNL     1      92.414   1.664  10.082  1.00  0.00    -0.027 C 
HETATM   21  C13 UNL     1      91.702   0.627   9.786  1.00  0.00    -0.027 C 
BRANCH  21  22
HETATM   22  C12 UNL     1      90.456   0.543   8.987  1.00  0.00     0.053 C 
BRANCH  22  23
HETATM   23  C11 UNL     1      89.283   0.830   9.836  1.00  0.00    -0.027 C 
HETATM   24  C10 UNL     1      88.349   1.710   9.654  1.00  0.00    -0.027 C 
BRANCH  24  25
HETATM   25  C9  UNL     1      88.319   2.620   8.484  1.00  0.00     0.053 C 
BRANCH  25  26
HETATM   26  C8  UNL     1      87.822   1.793   7.329  1.00  0.00    -0.027 C 
HETATM   27  C7  UNL     1      86.846   2.257   6.596  1.00  0.00    -0.030 C 
BRANCH  27  28
HETATM   28  C6  UNL     1      86.250   1.568   5.441  1.00  0.00     0.027 C 
BRANCH  28  29
HETATM   29  C5  UNL     1      84.768   1.436   5.483  1.00  0.00     0.004 C 
BRANCH  29  30
HETATM   30  C4  UNL     1      84.228   1.014   6.796  1.00  0.00     0.000 C 
BRANCH  30  31
HETATM   31  C3  UNL     1      84.541  -0.485   6.985  1.00  0.00    -0.000 C 
BRANCH  31  32
HETATM   32  C2  UNL     1      85.221  -0.634   8.351  1.00  0.00    -0.005 C 
HETATM   33  C1  UNL     1      84.845   0.517   9.230  1.00  0.00     0.005 C 
ENDBRANCH  31  32
ENDBRANCH  30  31
ENDBRANCH  29  30
ENDBRANCH  28  29
ENDBRANCH  27  28
ENDBRANCH  25  26
ENDBRANCH  24  25
ENDBRANCH  22  23
ENDBRANCH  21  22
ENDBRANCH  19  20
ENDBRANCH   1  19
TORSDOF 19
ENDMDL
MODEL 3
REMARK VINA RESULT: -9.888142303      2.271     10.398
REMARK  19 active torsions:
REMARK  status: ('A' for Active; 'I' for Inactive)
REMARK    1  A    between atoms: C2_2  and  C3_3 
REMARK    2  A    between atoms: C3_3  and  C4_4 
REMARK    3  A    between atoms: C4_4  and  C5_5 
REMARK    4  A    between atoms: C5_5  and  C6_6 
REMARK    5  A    between atoms: C6_6  and  C7_7 
REMARK    6  A    between atoms: C8_8  and  C9_9 
REMARK    7  A    between atoms: C9_9  and  C10_10 
REMARK    8  A    between atoms: C11_11  and  C12_12 
REMARK    9  A    between atoms: C12_12  and  C13_13 
REMARK   10  A    between atoms: C14_14  and  C15_15 
REMARK   11  A    between atoms: C15_15  and  C16_16 
REMARK   12  A    between atoms: C17_17  and  C18_18 
REMARK   13  A    between atoms: C18_18  and  C19_19 
REMARK   14  A    between atoms: C20_20  and  C21_21 
REMARK   15  A    between atoms: C21_21  and  C22_22 
REMARK   16  A    between atoms: C23_23  and  C24_24 
REMARK   17  A    between atoms: C24_24  and  C25_25 
REMARK   18  A    between atoms: C26_26  and  C27_27 
REMARK   19  A    between atoms: C27_27  and  C28_28 
ROOT
HETATM    1  C16 UNL     1      93.109   8.468   9.735  1.00  0.00    -0.027 C 
HETATM    2  C17 UNL     1      93.917   7.843   8.916  1.00  0.00    -0.027 C 
ENDROOT
BRANCH   2   3
HETATM    3  C18 UNL     1      93.569   6.932   7.832  1.00  0.00     0.053 C 
BRANCH   3   4
HETATM    4  C19 UNL     1      94.184   5.602   7.792  1.00  0.00    -0.027 C 
HETATM    5  C20 UNL     1      94.327   4.635   8.627  1.00  0.00    -0.027 C 
BRANCH   5   6
HETATM    6  C21 UNL     1      93.906   4.494  10.017  1.00  0.00     0.053 C 
BRANCH   6   7
HETATM    7  C22 UNL     1      92.659   3.650  10.131  1.00  0.00    -0.027 C 
HETATM    8  C23 UNL     1      92.790   2.359  10.294  1.00  0.00    -0.027 C 
BRANCH   8   9
HETATM    9  C24 UNL     1      91.548   1.534  10.406  1.00  0.00     0.053 C 
BRANCH   9  10
HETATM   10  C25 UNL     1      91.268   0.973   9.068  1.00  0.00    -0.027 C 
HETATM   11  C26 UNL     1      90.193   1.217   8.346  1.00  0.00    -0.025 C 
BRANCH  11  12
HETATM   12  C27 UNL     1      89.060   2.087   8.708  1.00  0.00     0.078 C 
BRANCH  12  13
HETATM   13  C28 UNL     1      87.743   1.419   8.489  1.00  0.00    -0.015 C 
HETATM   14  N1  UNL     1      86.966   1.648   7.511  1.00  0.00    -0.396 N 
HETATM   15  C29 UNL     1      85.774   0.859   7.565  1.00  0.00     0.119 C 
ATOM     16  H1  UNL     1      87.170   2.320   6.770  1.00  0.00     0.159 HD
HETATM   17  C30 UNL     1      85.707   0.456   9.015  1.00  0.00     0.025 C 
HETATM   18  C31 UNL     1      87.170   0.393   9.396  1.00  0.00     0.054 C 
ENDBRANCH  12  13
ENDBRANCH  11  12
ENDBRANCH   9  10
ENDBRANCH   8   9
ENDBRANCH   6   7
ENDBRANCH   5   6
ENDBRANCH   3   4
ENDBRANCH   2   3
BRANCH   1  19
HETATM   19  C15 UNL     1      91.626   8.387   9.745  1.00  0.00     0.053 C 
BRANCH  19  20
HETATM   20  C14 UNL     1      91.088   9.768   9.723  1.00  0.00    -0.027 C 
HETATM   21  C13 UNL     1      90.802  10.432   8.653  1.00  0.00    -0.027 C 
BRANCH  21  22
HETATM   22  C12 UNL     1      90.924  10.020   7.234  1.00  0.00     0.053 C 
BRANCH  22  23
HETATM   23  C11 UNL     1      91.100  11.204   6.370  1.00  0.00    -0.027 C 
HETATM   24  C10 UNL     1      90.335  11.627   5.412  1.00  0.00    -0.027 C 
BRANCH  24  25
HETATM   25  C9  UNL     1      89.085  10.935   5.017  1.00  0.00     0.053 C 
BRANCH  25  26
HETATM   26  C8  UNL     1      87.960  11.847   5.427  1.00  0.00    -0.027 C 
HETATM   27  C7  UNL     1      88.090  13.132   5.240  1.00  0.00    -0.030 C 
BRANCH  27  28
HETATM   28  C6  UNL     1      87.085  14.147   5.590  1.00  0.00     0.027 C 
BRANCH  28  29
HETATM   29  C5  UNL     1      86.051  14.395   4.548  1.00  0.00     0.004 C 
BRANCH  29  30
HETATM   30  C4  UNL     1      84.818  13.588   4.704  1.00  0.00     0.000 C 
BRANCH  30  31
HETATM   31  C3  UNL     1      84.760  12.571   3.545  1.00  0.00    -0.000 C 
BRANCH  31  32
HETATM   32  C2  UNL     1      84.154  11.281   4.109  1.00  0.00    -0.005 C 
HETATM   33  C1  UNL     1      84.224  11.302   5.603  1.00  0.00     0.005 C 
ENDBRANCH  31  32
ENDBRANCH  30  31
ENDBRANCH  29  30
ENDBRANCH  28  29
ENDBRANCH  27  28
ENDBRANCH  25  26
ENDBRANCH  24  25
ENDBRANCH  22  23
ENDBRANCH  21  22
ENDBRANCH  19  20
ENDBRANCH   1  19
TORSDOF 19
ENDMDL
MODEL 4
REMARK VINA RESULT: -9.807744114      1.389      2.862
REMARK  19 active torsions:
REMARK  status: ('A' for Active; 'I' for Inactive)
REMARK    1  A    between atoms: C2_2  and  C3_3 
REMARK    2  A    between atoms: C3_3  and  C4_4 
REMARK    3  A    between atoms: C4_4  and  C5_5 
REMARK    4  A    between atoms: C5_5  and  C6_6 
REMARK    5  A    between atoms: C6_6  and  C7_7 
REMARK    6  A    between atoms: C8_8  and  C9_9 
REMARK    7  A    between atoms: C9_9  and  C10_10 
REMARK    8  A    between atoms: C11_11  and  C12_12 
REMARK    9  A    between atoms: C12_12  and  C13_13 
REMARK   10  A    between atoms: C14_14  and  C15_15 
REMARK   11  A    between atoms: C15_15  and  C16_16 
REMARK   12  A    between atoms: C17_17  and  C18_18 
REMARK   13  A    between atoms: C18_18  and  C19_19 
REMARK   14  A    between atoms: C20_20  and  C21_21 
REMARK   15  A    between atoms: C21_21  and  C22_22 
REMARK   16  A    between atoms: C23_23  and  C24_24 
REMARK   17  A    between atoms: C24_24  and  C25_25 
REMARK   18  A    between atoms: C26_26  and  C27_27 
REMARK   19  A    between atoms: C27_27  and  C28_28 
ROOT
HETATM    1  C16 UNL     1      90.860  10.699   9.422  1.00  0.00    -0.027 C 
HETATM    2  C17 UNL     1      90.625  10.900   8.150  1.00  0.00    -0.027 C 
ENDROOT
BRANCH   2   3
HETATM    3  C18 UNL     1      91.375  10.395   7.007  1.00  0.00     0.053 C 
BRANCH   3   4
HETATM    4  C19 UNL     1      90.677   9.611   5.984  1.00  0.00    -0.027 C 
HETATM    5  C20 UNL     1      89.771   9.854   5.106  1.00  0.00    -0.027 C 
BRANCH   5   6
HETATM    6  C21 UNL     1      89.051  11.081   4.780  1.00  0.00     0.053 C 
BRANCH   6   7
HETATM    7  C22 UNL     1      87.661  10.784   4.270  1.00  0.00    -0.027 C 
HETATM    8  C23 UNL     1      87.515   9.870   3.347  1.00  0.00    -0.027 C 
BRANCH   8   9
HETATM    9  C24 UNL     1      86.134   9.586   2.849  1.00  0.00     0.053 C 
BRANCH   9  10
HETATM   10  C25 UNL     1      85.223   9.649   4.011  1.00  0.00    -0.027 C 
HETATM   11  C26 UNL     1      84.292  10.561   4.204  1.00  0.00    -0.025 C 
BRANCH  11  12
HETATM   12  C27 UNL     1      83.962  11.693   3.320  1.00  0.00     0.078 C 
BRANCH  12  13
HETATM   13  C28 UNL     1      84.899  12.841   3.499  1.00  0.00    -0.015 C 
HETATM   14  N1  UNL     1      85.716  13.256   2.621  1.00  0.00    -0.396 N 
HETATM   15  C29 UNL     1      86.486  14.373   3.075  1.00  0.00     0.119 C 
ATOM     16  H1  UNL     1      85.813  12.838   1.695  1.00  0.00     0.159 HD
HETATM   17  C30 UNL     1      86.362  14.275   4.573  1.00  0.00     0.025 C 
HETATM   18  C31 UNL     1      84.994  13.652   4.740  1.00  0.00     0.054 C 
ENDBRANCH  12  13
ENDBRANCH  11  12
ENDBRANCH   9  10
ENDBRANCH   8   9
ENDBRANCH   6   7
ENDBRANCH   5   6
ENDBRANCH   3   4
ENDBRANCH   2   3
BRANCH   1  19
HETATM   19  C15 UNL     1      91.968   9.895   9.998  1.00  0.00     0.053 C 
BRANCH  19  20
HETATM   20  C14 UNL     1      91.635   8.461   9.827  1.00  0.00    -0.027 C 
HETATM   21  C13 UNL     1      92.372   7.602   9.206  1.00  0.00    -0.027 C 
BRANCH  21  22
HETATM   22  C12 UNL     1      93.678   7.800   8.532  1.00  0.00     0.053 C 
BRANCH  22  23
HETATM   23  C11 UNL     1      93.813   6.869   7.394  1.00  0.00    -0.027 C 
HETATM   24  C10 UNL     1      94.277   5.658   7.392  1.00  0.00    -0.027 C 
BRANCH  24  25
HETATM   25  C9  UNL     1      94.772   4.985   8.616  1.00  0.00     0.053 C 
BRANCH  25  26
HETATM   26  C8  UNL     1      93.822   3.847   8.876  1.00  0.00    -0.027 C 
HETATM   27  C7  UNL     1      93.227   3.775  10.035  1.00  0.00    -0.030 C 
BRANCH  27  28
HETATM   28  C6  UNL     1      92.279   2.726  10.440  1.00  0.00     0.027 C 
BRANCH  28  29
HETATM   29  C5  UNL     1      92.530   1.386   9.843  1.00  0.00     0.004 C 
BRANCH  29  30
HETATM   30  C4  UNL     1      91.334   0.513   9.772  1.00  0.00     0.000 C 
BRANCH  30  31
HETATM   31  C3  UNL     1      90.530   0.903   8.514  1.00  0.00    -0.000 C 
BRANCH  31  32
HETATM   32  C2  UNL     1      89.110   1.250   8.977  1.00  0.00    -0.005 C 
HETATM   33  C1  UNL     1      88.894   2.727   8.880  1.00  0.00     0.005 C 
ENDBRANCH  31  32
ENDBRANCH  30  31
ENDBRANCH  29  30
ENDBRANCH  28  29
ENDBRANCH  27  28
ENDBRANCH  25  26
ENDBRANCH  24  25
ENDBRANCH  22  23
ENDBRANCH  21  22
ENDBRANCH  19  20
ENDBRANCH   1  19
TORSDOF 19
ENDMDL
MODEL 5
REMARK VINA RESULT: -9.796040270      2.791     10.850
REMARK  19 active torsions:
REMARK  status: ('A' for Active; 'I' for Inactive)
REMARK    1  A    between atoms: C2_2  and  C3_3 
REMARK    2  A    between atoms: C3_3  and  C4_4 
REMARK    3  A    between atoms: C4_4  and  C5_5 
REMARK    4  A    between atoms: C5_5  and  C6_6 
REMARK    5  A    between atoms: C6_6  and  C7_7 
REMARK    6  A    between atoms: C8_8  and  C9_9 
REMARK    7  A    between atoms: C9_9  and  C10_10 
REMARK    8  A    between atoms: C11_11  and  C12_12 
REMARK    9  A    between atoms: C12_12  and  C13_13 
REMARK   10  A    between atoms: C14_14  and  C15_15 
REMARK   11  A    between atoms: C15_15  and  C16_16 
REMARK   12  A    between atoms: C17_17  and  C18_18 
REMARK   13  A    between atoms: C18_18  and  C19_19 
REMARK   14  A    between atoms: C20_20  and  C21_21 
REMARK   15  A    between atoms: C21_21  and  C22_22 
REMARK   16  A    between atoms: C23_23  and  C24_24 
REMARK   17  A    between atoms: C24_24  and  C25_25 
REMARK   18  A    between atoms: C26_26  and  C27_27 
REMARK   19  A    between atoms: C27_27  and  C28_28 
ROOT
HETATM    1  C16 UNL     1      89.790  10.394   5.335  1.00  0.00    -0.027 C 
HETATM    2  C17 UNL     1      90.624   9.878   6.202  1.00  0.00    -0.027 C 
ENDROOT
BRANCH   2   3
HETATM    3  C18 UNL     1      91.282  10.543   7.320  1.00  0.00     0.053 C 
BRANCH   3   4
HETATM    4  C19 UNL     1      90.718  10.405   8.666  1.00  0.00    -0.027 C 
HETATM    5  C20 UNL     1      91.098   9.857   9.765  1.00  0.00    -0.027 C 
BRANCH   5   6
HETATM    6  C21 UNL     1      92.310   9.118  10.103  1.00  0.00     0.053 C 
BRANCH   6   7
HETATM    7  C22 UNL     1      92.396   7.821   9.335  1.00  0.00    -0.027 C 
HETATM    8  C23 UNL     1      93.540   7.488   8.796  1.00  0.00    -0.027 C 
BRANCH   8   9
HETATM    9  C24 UNL     1      93.614   6.202   8.038  1.00  0.00     0.053 C 
BRANCH   9  10
HETATM   10  C25 UNL     1      94.254   5.204   8.919  1.00  0.00    -0.027 C 
HETATM   11  C26 UNL     1      93.621   4.286   9.622  1.00  0.00    -0.025 C 
BRANCH  11  12
HETATM   12  C27 UNL     1      92.166   4.059   9.678  1.00  0.00     0.078 C 
BRANCH  12  13
HETATM   13  C28 UNL     1      91.820   2.607   9.658  1.00  0.00    -0.015 C 
HETATM   14  N1  UNL     1      92.561   1.678  10.106  1.00  0.00    -0.396 N 
HETATM   15  C29 UNL     1      91.967   0.385   9.952  1.00  0.00     0.119 C 
ATOM     16  H1  UNL     1      93.476   1.836  10.528  1.00  0.00     0.159 HD
HETATM   17  C30 UNL     1      90.939   0.617   8.875  1.00  0.00     0.025 C 
HETATM   18  C31 UNL     1      90.554   2.061   9.108  1.00  0.00     0.054 C 
ENDBRANCH  12  13
ENDBRANCH  11  12
ENDBRANCH   9  10
ENDBRANCH   8   9
ENDBRANCH   6   7
ENDBRANCH   5   6
ENDBRANCH   3   4
ENDBRANCH   2   3
BRANCH   1  19
HETATM   19  C15 UNL     1      89.318  11.802   5.293  1.00  0.00     0.053 C 
BRANCH  19  20
HETATM   20  C14 UNL     1      87.981  11.859   5.930  1.00  0.00    -0.027 C 
HETATM   21  C13 UNL     1      87.253  12.921   6.023  1.00  0.00    -0.027 C 
BRANCH  21  22
HETATM   22  C12 UNL     1      87.536  14.297   5.547  1.00  0.00     0.053 C 
BRANCH  22  23
HETATM   23  C11 UNL     1      86.527  14.711   4.552  1.00  0.00    -0.027 C 
HETATM   24  C10 UNL     1      86.479  14.434   3.286  1.00  0.00    -0.027 C 
BRANCH  24  25
HETATM   25  C9  UNL     1      87.500  13.602   2.606  1.00  0.00     0.053 C 
BRANCH  25  26
HETATM   26  C8  UNL     1      86.901  12.226   2.488  1.00  0.00    -0.027 C 
HETATM   27  C7  UNL     1      85.604  12.096   2.550  1.00  0.00    -0.030 C 
BRANCH  27  28
HETATM   28  C6  UNL     1      84.873  10.823   2.455  1.00  0.00     0.027 C 
BRANCH  28  29
HETATM   29  C5  UNL     1      85.349   9.753   3.374  1.00  0.00     0.004 C 
BRANCH  29  30
HETATM   30  C4  UNL     1      84.686   9.745   4.700  1.00  0.00     0.000 C 
BRANCH  30  31
HETATM   31  C3  UNL     1      83.497  10.728   4.648  1.00  0.00    -0.000 C 
BRANCH  31  32
HETATM   32  C2  UNL     1      83.716  11.757   5.764  1.00  0.00    -0.005 C 
HETATM   33  C1  UNL     1      83.258  13.105   5.303  1.00  0.00     0.005 C 
ENDBRANCH  31  32
ENDBRANCH  30  31
ENDBRANCH  29  30
ENDBRANCH  28  29
ENDBRANCH  27  28
ENDBRANCH  25  26
ENDBRANCH  24  25
ENDBRANCH  22  23
ENDBRANCH  21  22
ENDBRANCH  19  20
ENDBRANCH   1  19
TORSDOF 19
ENDMDL
