MODEL 1
REMARK VINA RESULT: -10.471876271      0.000      0.000
REMARK  20 active torsions:
REMARK  status: ('A' for Active; 'I' for Inactive)
REMARK    1  A    between atoms: C2_2  and  C3_3 
REMARK    2  A    between atoms: C4_4  and  C5_5 
REMARK    3  A    between atoms: C5_5  and  C6_6 
REMARK    4  A    between atoms: C6_6  and  C7_7 
REMARK    5  A    between atoms: C7_7  and  C8_8 
REMARK    6  A    between atoms: C9_9  and  C10_10 
REMARK    7  A    between atoms: C10_10  and  C11_11 
REMARK    8  A    between atoms: C12_12  and  C13_13 
REMARK    9  A    between atoms: C13_13  and  C14_14 
REMARK   10  A    between atoms: C15_15  and  C16_16 
REMARK   11  A    between atoms: C16_16  and  C17_17 
REMARK   12  A    between atoms: C18_18  and  C19_19 
REMARK   13  A    between atoms: C19_19  and  C20_20 
REMARK   14  A    between atoms: C20_20  and  C21_21 
REMARK   15  A    between atoms: C22_22  and  C23_23 
REMARK   16  A    between atoms: C23_23  and  C24_24 
REMARK   17  A    between atoms: C24_24  and  C25_25 
REMARK   18  A    between atoms: C25_25  and  C26_26 
REMARK   19  A    between atoms: C27_27  and  C28_28 
REMARK   20  A    between atoms: C28_28  and  C29_29 
ROOT
HETATM    1  C16 UNL     1      92.703   1.913   9.274  1.00  0.00     0.053 C 
ENDROOT
BRANCH   1   2
HETATM    2  C15 UNL     1      92.934   2.707  10.496  1.00  0.00    -0.027 C 
HETATM    3  C14 UNL     1      92.904   4.043  10.462  1.00  0.00    -0.027 C 
BRANCH   3   4
HETATM    4  C13 UNL     1      92.650   4.745   9.205  1.00  0.00     0.053 C 
BRANCH   4   5
HETATM    5  C12 UNL     1      93.781   5.178   8.425  1.00  0.00    -0.027 C 
HETATM    6  C11 UNL     1      94.058   6.164   7.706  1.00  0.00    -0.027 C 
BRANCH   6   7
HETATM    7  C10 UNL     1      93.383   7.424   7.286  1.00  0.00     0.053 C 
BRANCH   7   8
HETATM    8  C9  UNL     1      93.718   8.399   8.397  1.00  0.00    -0.027 C 
HETATM    9  C8  UNL     1      92.921   8.790   9.299  1.00  0.00    -0.029 C 
BRANCH   9  10
HETATM   10  C7  UNL     1      91.525   8.522   9.642  1.00  0.00     0.038 C 
BRANCH  10  11
HETATM   11  C6  UNL     1      90.916   9.951   9.807  1.00  0.00     0.088 C 
BRANCH  11  12
HETATM   12  C5  UNL     1      90.780  10.708   8.779  1.00  0.00    -0.156 C 
BRANCH  12  13
HETATM   13  C4  UNL     1      90.522  11.449   7.661  1.00  0.00     0.046 C 
HETATM   14  C3  UNL     1      90.235  10.873   6.497  1.00  0.00    -0.019 C 
BRANCH  14  15
HETATM   15  C2  UNL     1      89.943  11.594   5.252  1.00  0.00     0.023 C 
HETATM   16  C1  UNL     1      88.523  11.192   4.843  1.00  0.00     0.009 C 
ENDBRANCH  14  15
ENDBRANCH  12  13
ENDBRANCH  11  12
ENDBRANCH  10  11
ENDBRANCH   9  10
ENDBRANCH   7   8
ENDBRANCH   6   7
ENDBRANCH   4   5
ENDBRANCH   3   4
ENDBRANCH   1   2
BRANCH   1  17
HETATM   17  C17 UNL     1      92.131   0.581   9.593  1.00  0.00    -0.027 C 
HETATM   18  C18 UNL     1      90.916   0.224   9.344  1.00  0.00    -0.030 C 
BRANCH  18  19
HETATM   19  C19 UNL     1      89.860   1.021   8.706  1.00  0.00     0.030 C 
BRANCH  19  20
HETATM   20  C20 UNL     1      88.928   1.523   9.808  1.00  0.00     0.030 C 
BRANCH  20  21
HETATM   21  C21 UNL     1      87.537   1.364   9.373  1.00  0.00    -0.030 C 
HETATM   22  C22 UNL     1      86.859   0.259   9.360  1.00  0.00    -0.031 C 
BRANCH  22  23
HETATM   23  C23 UNL     1      85.432   0.300   8.872  1.00  0.00     0.027 C 
BRANCH  23  24
HETATM   24  C24 UNL     1      85.452   1.133   7.603  1.00  0.00     0.007 C 
BRANCH  24  25
HETATM   25  C25 UNL     1      84.115   1.480   7.064  1.00  0.00     0.027 C 
BRANCH  25  26
HETATM   26  C26 UNL     1      83.791   0.575   5.900  1.00  0.00    -0.031 C 
HETATM   27  C27 UNL     1      83.120   1.011   4.874  1.00  0.00    -0.030 C 
BRANCH  27  28
HETATM   28  C28 UNL     1      82.747   0.240   3.690  1.00  0.00     0.031 C 
BRANCH  28  29
HETATM   29  C29 UNL     1      83.379   0.700   2.409  1.00  0.00    -0.011 C 
HETATM   30  C30 UNL     1      84.426   1.787   2.596  1.00  0.00     0.005 C 
HETATM   31  C31 UNL     1      83.515   2.681   1.754  1.00  0.00     0.001 C 
HETATM   32  C32 UNL     1      82.590   1.523   1.458  1.00  0.00     0.005 C 
ENDBRANCH  28  29
ENDBRANCH  27  28
ENDBRANCH  25  26
ENDBRANCH  24  25
ENDBRANCH  23  24
ENDBRANCH  22  23
ENDBRANCH  20  21
ENDBRANCH  19  20
ENDBRANCH  18  19
ENDBRANCH   1  17
TORSDOF 20
ENDMDL
MODEL 2
REMARK VINA RESULT: -10.468365759      4.718     10.196
REMARK  20 active torsions:
REMARK  status: ('A' for Active; 'I' for Inactive)
REMARK    1  A    between atoms: C2_2  and  C3_3 
REMARK    2  A    between atoms: C4_4  and  C5_5 
REMARK    3  A    between atoms: C5_5  and  C6_6 
REMARK    4  A    between atoms: C6_6  and  C7_7 
REMARK    5  A    between atoms: C7_7  and  C8_8 
REMARK    6  A    between atoms: C9_9  and  C10_10 
REMARK    7  A    between atoms: C10_10  and  C11_11 
REMARK    8  A    between atoms: C12_12  and  C13_13 
REMARK    9  A    between atoms: C13_13  and  C14_14 
REMARK   10  A    between atoms: C15_15  and  C16_16 
REMARK   11  A    between atoms: C16_16  and  C17_17 
REMARK   12  A    between atoms: C18_18  and  C19_19 
REMARK   13  A    between atoms: C19_19  and  C20_20 
REMARK   14  A    between atoms: C20_20  and  C21_21 
REMARK   15  A    between atoms: C22_22  and  C23_23 
REMARK   16  A    between atoms: C23_23  and  C24_24 
REMARK   17  A    between atoms: C24_24  and  C25_25 
REMARK   18  A    between atoms: C25_25  and  C26_26 
REMARK   19  A    between atoms: C27_27  and  C28_28 
REMARK   20  A    between atoms: C28_28  and  C29_29 
ROOT
HETATM    1  C16 UNL     1      89.016  11.953   5.538  1.00  0.00     0.053 C 
ENDROOT
BRANCH   1   2
HETATM    2  C15 UNL     1      87.603  12.067   5.947  1.00  0.00    -0.027 C 
HETATM    3  C14 UNL     1      86.943  13.222   5.819  1.00  0.00    -0.027 C 
BRANCH   3   4
HETATM    4  C13 UNL     1      87.616  14.402   5.278  1.00  0.00     0.053 C 
BRANCH   4   5
HETATM    5  C12 UNL     1      87.331  14.787   3.919  1.00  0.00    -0.027 C 
HETATM    6  C11 UNL     1      86.713  14.292   2.951  1.00  0.00    -0.027 C 
BRANCH   6   7
HETATM    7  C10 UNL     1      85.926  13.055   2.685  1.00  0.00     0.053 C 
BRANCH   7   8
HETATM    8  C9  UNL     1      86.979  11.968   2.603  1.00  0.00    -0.027 C 
HETATM    9  C8  UNL     1      86.752  10.725   2.558  1.00  0.00    -0.029 C 
BRANCH   9  10
HETATM   10  C7  UNL     1      85.555   9.884   2.558  1.00  0.00     0.038 C 
BRANCH  10  11
HETATM   11  C6  UNL     1      85.327   9.586   4.075  1.00  0.00     0.088 C 
BRANCH  11  12
HETATM   12  C5  UNL     1      84.536  10.332   4.759  1.00  0.00    -0.156 C 
BRANCH  12  13
HETATM   13  C4  UNL     1      83.802  11.197   5.519  1.00  0.00     0.046 C 
HETATM   14  C3  UNL     1      83.430  12.386   5.054  1.00  0.00    -0.019 C 
BRANCH  14  15
HETATM   15  C2  UNL     1      82.640  13.371   5.802  1.00  0.00     0.023 C 
HETATM   16  C1  UNL     1      83.253  14.741   5.494  1.00  0.00     0.009 C 
ENDBRANCH  14  15
ENDBRANCH  12  13
ENDBRANCH  11  12
ENDBRANCH  10  11
ENDBRANCH   9  10
ENDBRANCH   7   8
ENDBRANCH   6   7
ENDBRANCH   4   5
ENDBRANCH   3   4
ENDBRANCH   1   2
BRANCH   1  17
HETATM   17  C17 UNL     1      89.891  11.635   6.694  1.00  0.00    -0.027 C 
HETATM   18  C18 UNL     1      90.780  10.699   6.708  1.00  0.00    -0.030 C 
BRANCH  18  19
HETATM   19  C19 UNL     1      91.122   9.771   5.622  1.00  0.00     0.030 C 
BRANCH  19  20
HETATM   20  C20 UNL     1      90.939   8.350   6.153  1.00  0.00     0.030 C 
BRANCH  20  21
HETATM   21  C21 UNL     1      91.927   8.098   7.206  1.00  0.00    -0.030 C 
HETATM   22  C22 UNL     1      91.731   7.424   8.297  1.00  0.00    -0.031 C 
BRANCH  22  23
HETATM   23  C23 UNL     1      92.880   7.276   9.264  1.00  0.00     0.027 C 
BRANCH  23  24
HETATM   24  C24 UNL     1      94.073   6.851   8.428  1.00  0.00     0.007 C 
BRANCH  24  25
HETATM   25  C25 UNL     1      94.162   5.394   8.165  1.00  0.00     0.027 C 
BRANCH  25  26
HETATM   26  C26 UNL     1      93.893   4.635   9.442  1.00  0.00    -0.031 C 
HETATM   27  C27 UNL     1      93.098   3.604   9.458  1.00  0.00    -0.030 C 
BRANCH  27  28
HETATM   28  C28 UNL     1      92.759   2.789  10.622  1.00  0.00     0.031 C 
BRANCH  28  29
HETATM   29  C29 UNL     1      91.717   1.737  10.376  1.00  0.00    -0.011 C 
HETATM   30  C30 UNL     1      92.287   0.344  10.162  1.00  0.00     0.005 C 
HETATM   31  C31 UNL     1      91.675   0.409   8.762  1.00  0.00     0.001 C 
HETATM   32  C32 UNL     1      90.990   1.717   9.082  1.00  0.00     0.005 C 
ENDBRANCH  28  29
ENDBRANCH  27  28
ENDBRANCH  25  26
ENDBRANCH  24  25
ENDBRANCH  23  24
ENDBRANCH  22  23
ENDBRANCH  20  21
ENDBRANCH  19  20
ENDBRANCH  18  19
ENDBRANCH   1  17
TORSDOF 20
ENDMDL
MODEL 3
REMARK VINA RESULT: -10.372425693      3.784      9.266
REMARK  20 active torsions:
REMARK  status: ('A' for Active; 'I' for Inactive)
REMARK    1  A    between atoms: C2_2  and  C3_3 
REMARK    2  A    between atoms: C4_4  and  C5_5 
REMARK    3  A    between atoms: C5_5  and  C6_6 
REMARK    4  A    between atoms: C6_6  and  C7_7 
REMARK    5  A    between atoms: C7_7  and  C8_8 
REMARK    6  A    between atoms: C9_9  and  C10_10 
REMARK    7  A    between atoms: C10_10  and  C11_11 
REMARK    8  A    between atoms: C12_12  and  C13_13 
REMARK    9  A    between atoms: C13_13  and  C14_14 
REMARK   10  A    between atoms: C15_15  and  C16_16 
REMARK   11  A    between atoms: C16_16  and  C17_17 
REMARK   12  A    between atoms: C18_18  and  C19_19 
REMARK   13  A    between atoms: C19_19  and  C20_20 
REMARK   14  A    between atoms: C20_20  and  C21_21 
REMARK   15  A    between atoms: C22_22  and  C23_23 
REMARK   16  A    between atoms: C23_23  and  C24_24 
REMARK   17  A    between atoms: C24_24  and  C25_25 
REMARK   18  A    between atoms: C25_25  and  C26_26 
REMARK   19  A    between atoms: C27_27  and  C28_28 
REMARK   20  A    between atoms: C28_28  and  C29_29 
ROOT
HETATM    1  C16 UNL     1      90.191  10.667   6.417  1.00  0.00     0.053 C 
ENDROOT
BRANCH   1   2
HETATM    2  C15 UNL     1      89.498  10.528   5.122  1.00  0.00    -0.027 C 
HETATM    3  C14 UNL     1      88.424  11.272   4.836  1.00  0.00    -0.027 C 
BRANCH   3   4
HETATM    4  C13 UNL     1      87.910  12.234   5.810  1.00  0.00     0.053 C 
BRANCH   4   5
HETATM    5  C12 UNL     1      87.886  13.627   5.447  1.00  0.00    -0.027 C 
HETATM    6  C11 UNL     1      87.088  14.396   4.867  1.00  0.00    -0.027 C 
BRANCH   6   7
HETATM    7  C10 UNL     1      85.731  14.293   4.260  1.00  0.00     0.053 C 
BRANCH   7   8
HETATM    8  C9  UNL     1      85.946  13.417   3.042  1.00  0.00    -0.027 C 
HETATM    9  C8  UNL     1      85.214  12.446   2.696  1.00  0.00    -0.029 C 
BRANCH   9  10
HETATM   10  C7  UNL     1      84.004  11.814   3.221  1.00  0.00     0.038 C 
BRANCH  10  11
HETATM   11  C6  UNL     1      84.560  10.755   4.225  1.00  0.00     0.088 C 
BRANCH  11  12
HETATM   12  C5  UNL     1      85.327   9.816   3.801  1.00  0.00    -0.156 C 
BRANCH  12  13
HETATM   13  C4  UNL     1      86.059   8.804   3.249  1.00  0.00     0.046 C 
HETATM   14  C3  UNL     1      86.796   8.995   2.159  1.00  0.00    -0.019 C 
BRANCH  14  15
HETATM   15  C2  UNL     1      87.612   7.966   1.505  1.00  0.00     0.023 C 
HETATM   16  C1  UNL     1      88.261   7.150   2.627  1.00  0.00     0.009 C 
ENDBRANCH  14  15
ENDBRANCH  12  13
ENDBRANCH  11  12
ENDBRANCH  10  11
ENDBRANCH   9  10
ENDBRANCH   7   8
ENDBRANCH   6   7
ENDBRANCH   4   5
ENDBRANCH   3   4
ENDBRANCH   1   2
BRANCH   1  17
HETATM   17  C17 UNL     1      91.663  10.553   6.258  1.00  0.00    -0.027 C 
HETATM   18  C18 UNL     1      92.342   9.474   6.457  1.00  0.00    -0.030 C 
BRANCH  18  19
HETATM   19  C19 UNL     1      91.836   8.157   6.865  1.00  0.00     0.030 C 
BRANCH  19  20
HETATM   20  C20 UNL     1      91.875   8.099   8.392  1.00  0.00     0.030 C 
BRANCH  20  21
HETATM   21  C21 UNL     1      92.840   7.077   8.810  1.00  0.00    -0.030 C 
HETATM   22  C22 UNL     1      93.663   6.438   8.039  1.00  0.00    -0.031 C 
BRANCH  22  23
HETATM   23  C23 UNL     1      94.582   5.416   8.662  1.00  0.00     0.027 C 
BRANCH  23  24
HETATM   24  C24 UNL     1      93.722   4.193   8.925  1.00  0.00     0.007 C 
BRANCH  24  25
HETATM   25  C25 UNL     1      93.466   3.908  10.357  1.00  0.00     0.027 C 
BRANCH  25  26
HETATM   26  C26 UNL     1      92.602   2.676  10.478  1.00  0.00    -0.031 C 
HETATM   27  C27 UNL     1      92.046   2.137   9.432  1.00  0.00    -0.030 C 
BRANCH  27  28
HETATM   28  C28 UNL     1      91.195   0.949   9.416  1.00  0.00     0.031 C 
BRANCH  28  29
HETATM   29  C29 UNL     1      89.834   1.155   8.818  1.00  0.00    -0.011 C 
HETATM   30  C30 UNL     1      89.370   2.602   8.826  1.00  0.00     0.005 C 
HETATM   31  C31 UNL     1      88.230   2.135   9.732  1.00  0.00     0.001 C 
HETATM   32  C32 UNL     1      88.633   0.689   9.555  1.00  0.00     0.005 C 
ENDBRANCH  28  29
ENDBRANCH  27  28
ENDBRANCH  25  26
ENDBRANCH  24  25
ENDBRANCH  23  24
ENDBRANCH  22  23
ENDBRANCH  20  21
ENDBRANCH  19  20
ENDBRANCH  18  19
ENDBRANCH   1  17
TORSDOF 20
ENDMDL
MODEL 4
REMARK VINA RESULT: -10.366411218      3.028      9.886
REMARK  20 active torsions:
REMARK  status: ('A' for Active; 'I' for Inactive)
REMARK    1  A    between atoms: C2_2  and  C3_3 
REMARK    2  A    between atoms: C4_4  and  C5_5 
REMARK    3  A    between atoms: C5_5  and  C6_6 
REMARK    4  A    between atoms: C6_6  and  C7_7 
REMARK    5  A    between atoms: C7_7  and  C8_8 
REMARK    6  A    between atoms: C9_9  and  C10_10 
REMARK    7  A    between atoms: C10_10  and  C11_11 
REMARK    8  A    between atoms: C12_12  and  C13_13 
REMARK    9  A    between atoms: C13_13  and  C14_14 
REMARK   10  A    between atoms: C15_15  and  C16_16 
REMARK   11  A    between atoms: C16_16  and  C17_17 
REMARK   12  A    between atoms: C18_18  and  C19_19 
REMARK   13  A    between atoms: C19_19  and  C20_20 
REMARK   14  A    between atoms: C20_20  and  C21_21 
REMARK   15  A    between atoms: C22_22  and  C23_23 
REMARK   16  A    between atoms: C23_23  and  C24_24 
REMARK   17  A    between atoms: C24_24  and  C25_25 
REMARK   18  A    between atoms: C25_25  and  C26_26 
REMARK   19  A    between atoms: C27_27  and  C28_28 
REMARK   20  A    between atoms: C28_28  and  C29_29 
ROOT
HETATM    1  C16 UNL     1      92.204   9.155   8.363  1.00  0.00     0.053 C 
ENDROOT
BRANCH   1   2
HETATM    2  C15 UNL     1      91.725   8.031   7.537  1.00  0.00    -0.027 C 
HETATM    3  C14 UNL     1      92.509   6.975   7.295  1.00  0.00    -0.027 C 
BRANCH   3   4
HETATM    4  C13 UNL     1      93.864   6.920   7.839  1.00  0.00     0.053 C 
BRANCH   4   5
HETATM    5  C12 UNL     1      94.453   5.627   8.077  1.00  0.00    -0.027 C 
HETATM    6  C11 UNL     1      94.351   4.735   8.948  1.00  0.00    -0.027 C 
BRANCH   6   7
HETATM    7  C10 UNL     1      93.557   4.518  10.190  1.00  0.00     0.053 C 
BRANCH   7   8
HETATM    8  C9  UNL     1      92.187   4.122   9.678  1.00  0.00    -0.027 C 
HETATM    9  C8  UNL     1      91.753   2.938   9.576  1.00  0.00    -0.029 C 
BRANCH   9  10
HETATM   10  C7  UNL     1      92.283   1.606   9.863  1.00  0.00     0.038 C 
BRANCH  10  11
HETATM   11  C6  UNL     1      91.155   0.654   9.353  1.00  0.00     0.088 C 
BRANCH  11  12
HETATM   12  C5  UNL     1      89.923   0.992   9.494  1.00  0.00    -0.156 C 
BRANCH  12  13
HETATM   13  C4  UNL     1      88.583   1.233   9.593  1.00  0.00     0.046 C 
HETATM   14  C3  UNL     1      87.685   0.338   9.193  1.00  0.00    -0.019 C 
BRANCH  14  15
HETATM   15  C2  UNL     1      86.230   0.517   9.266  1.00  0.00     0.023 C 
HETATM   16  C1  UNL     1      85.619  -0.520   8.319  1.00  0.00     0.009 C 
ENDBRANCH  14  15
ENDBRANCH  12  13
ENDBRANCH  11  12
ENDBRANCH  10  11
ENDBRANCH   9  10
ENDBRANCH   7   8
ENDBRANCH   6   7
ENDBRANCH   4   5
ENDBRANCH   3   4
ENDBRANCH   1   2
BRANCH   1  17
HETATM   17  C17 UNL     1      91.081  10.021   8.803  1.00  0.00    -0.027 C 
HETATM   18  C18 UNL     1      90.543  10.948   8.084  1.00  0.00    -0.030 C 
BRANCH  18  19
HETATM   19  C19 UNL     1      90.899  11.343   6.715  1.00  0.00     0.030 C 
BRANCH  19  20
HETATM   20  C20 UNL     1      89.906  10.672   5.767  1.00  0.00     0.030 C 
BRANCH  20  21
HETATM   21  C21 UNL     1      88.723  11.528   5.624  1.00  0.00    -0.030 C 
HETATM   22  C22 UNL     1      88.686  12.816   5.776  1.00  0.00    -0.031 C 
BRANCH  22  23
HETATM   23  C23 UNL     1      87.366  13.521   5.588  1.00  0.00     0.027 C 
BRANCH  23  24
HETATM   24  C24 UNL     1      87.620  14.610   4.562  1.00  0.00     0.007 C 
BRANCH  24  25
HETATM   25  C25 UNL     1      87.399  14.204   3.153  1.00  0.00     0.027 C 
BRANCH  25  26
HETATM   26  C26 UNL     1      85.990  13.684   2.995  1.00  0.00    -0.031 C 
HETATM   27  C27 UNL     1      85.763  12.456   2.629  1.00  0.00    -0.030 C 
BRANCH  27  28
HETATM   28  C28 UNL     1      84.454  11.834   2.443  1.00  0.00     0.031 C 
BRANCH  28  29
HETATM   29  C29 UNL     1      84.006  10.951   3.571  1.00  0.00    -0.011 C 
HETATM   30  C30 UNL     1      83.047  11.626   4.537  1.00  0.00     0.005 C 
HETATM   31  C31 UNL     1      84.119  11.413   5.607  1.00  0.00     0.001 C 
HETATM   32  C32 UNL     1      84.963  10.602   4.651  1.00  0.00     0.005 C 
ENDBRANCH  28  29
ENDBRANCH  27  28
ENDBRANCH  25  26
ENDBRANCH  24  25
ENDBRANCH  23  24
ENDBRANCH  22  23
ENDBRANCH  20  21
ENDBRANCH  19  20
ENDBRANCH  18  19
ENDBRANCH   1  17
TORSDOF 20
ENDMDL
MODEL 5
REMARK VINA RESULT: -10.362652174      2.100      9.580
REMARK  20 active torsions:
REMARK  status: ('A' for Active; 'I' for Inactive)
REMARK    1  A    between atoms: C2_2  and  C3_3 
REMARK    2  A    between atoms: C4_4  and  C5_5 
REMARK    3  A    between atoms: C5_5  and  C6_6 
REMARK    4  A    between atoms: C6_6  and  C7_7 
REMARK    5  A    between atoms: C7_7  and  C8_8 
REMARK    6  A    between atoms: C9_9  and  C10_10 
REMARK    7  A    between atoms: C10_10  and  C11_11 
REMARK    8  A    between atoms: C12_12  and  C13_13 
REMARK    9  A    between atoms: C13_13  and  C14_14 
REMARK   10  A    between atoms: C15_15  and  C16_16 
REMARK   11  A    between atoms: C16_16  and  C17_17 
REMARK   12  A    between atoms: C18_18  and  C19_19 
REMARK   13  A    between atoms: C19_19  and  C20_20 
REMARK   14  A    between atoms: C20_20  and  C21_21 
REMARK   15  A    between atoms: C22_22  and  C23_23 
REMARK   16  A    between atoms: C23_23  and  C24_24 
REMARK   17  A    between atoms: C24_24  and  C25_25 
REMARK   18  A    between atoms: C25_25  and  C26_26 
REMARK   19  A    between atoms: C27_27  and  C28_28 
REMARK   20  A    between atoms: C28_28  and  C29_29 
ROOT
HETATM    1  C16 UNL     1      93.468   7.009   8.927  1.00  0.00     0.053 C 
ENDROOT
BRANCH   1   2
HETATM    2  C15 UNL     1      93.972   5.903   8.091  1.00  0.00    -0.027 C 
HETATM    3  C14 UNL     1      94.236   4.706   8.623  1.00  0.00    -0.027 C 
BRANCH   3   4
HETATM    4  C13 UNL     1      94.037   4.473  10.053  1.00  0.00     0.053 C 
BRANCH   4   5
HETATM    5  C12 UNL     1      92.897   3.696  10.466  1.00  0.00    -0.027 C 
HETATM    6  C11 UNL     1      92.417   2.576  10.184  1.00  0.00    -0.027 C 
BRANCH   6   7
HETATM    7  C10 UNL     1      92.772   1.438   9.288  1.00  0.00     0.053 C 
BRANCH   7   8
HETATM    8  C9  UNL     1      91.720   0.393   9.599  1.00  0.00    -0.027 C 
HETATM    9  C8  UNL     1      90.494   0.470   9.299  1.00  0.00    -0.029 C 
BRANCH   9  10
HETATM   10  C7  UNL     1      89.650   1.448   8.613  1.00  0.00     0.038 C 
BRANCH  10  11
HETATM   11  C6  UNL     1      88.413   1.579   9.560  1.00  0.00     0.088 C 
BRANCH  11  12
HETATM   12  C5  UNL     1      87.317   0.979   9.262  1.00  0.00    -0.156 C 
BRANCH  12  13
HETATM   13  C4  UNL     1      86.133   0.434   8.854  1.00  0.00     0.046 C 
HETATM   14  C3  UNL     1      85.778   0.427   7.573  1.00  0.00    -0.019 C 
BRANCH  14  15
HETATM   15  C2  UNL     1      84.528  -0.139   7.051  1.00  0.00     0.023 C 
HETATM   16  C1  UNL     1      83.878   0.957   6.201  1.00  0.00     0.009 C 
ENDBRANCH  14  15
ENDBRANCH  12  13
ENDBRANCH  11  12
ENDBRANCH  10  11
ENDBRANCH   9  10
ENDBRANCH   7   8
ENDBRANCH   6   7
ENDBRANCH   4   5
ENDBRANCH   3   4
ENDBRANCH   1   2
BRANCH   1  17
HETATM   17  C17 UNL     1      93.608   8.317   8.238  1.00  0.00    -0.027 C 
HETATM   18  C18 UNL     1      92.942   9.380   8.538  1.00  0.00    -0.030 C 
BRANCH  18  19
HETATM   19  C19 UNL     1      91.933   9.540   9.593  1.00  0.00     0.030 C 
BRANCH  19  20
HETATM   20  C20 UNL     1      90.914  10.570   9.109  1.00  0.00     0.030 C 
BRANCH  20  21
HETATM   21  C21 UNL     1      90.664  10.364   7.678  1.00  0.00    -0.030 C 
HETATM   22  C22 UNL     1      90.414  11.287   6.802  1.00  0.00    -0.031 C 
BRANCH  22  23
HETATM   23  C23 UNL     1      90.181  10.871   5.371  1.00  0.00     0.027 C 
BRANCH  23  24
HETATM   24  C24 UNL     1      88.926  11.600   4.927  1.00  0.00     0.007 C 
BRANCH  24  25
HETATM   25  C25 UNL     1      88.622  12.837   5.686  1.00  0.00     0.027 C 
BRANCH  25  26
HETATM   26  C26 UNL     1      87.128  12.963   5.864  1.00  0.00    -0.031 C 
HETATM   27  C27 UNL     1      86.324  11.999   5.517  1.00  0.00    -0.030 C 
BRANCH  27  28
HETATM   28  C28 UNL     1      84.868  11.997   5.639  1.00  0.00     0.031 C 
BRANCH  28  29
HETATM   29  C29 UNL     1      84.130  12.442   4.411  1.00  0.00    -0.011 C 
HETATM   30  C30 UNL     1      83.086  11.449   3.927  1.00  0.00     0.005 C 
HETATM   31  C31 UNL     1      83.914  11.342   2.646  1.00  0.00     0.001 C 
HETATM   32  C32 UNL     1      84.829  12.455   3.102  1.00  0.00     0.005 C 
ENDBRANCH  28  29
ENDBRANCH  27  28
ENDBRANCH  25  26
ENDBRANCH  24  25
ENDBRANCH  23  24
ENDBRANCH  22  23
ENDBRANCH  20  21
ENDBRANCH  19  20
ENDBRANCH  18  19
ENDBRANCH   1  17
TORSDOF 20
ENDMDL
