MODEL 1
REMARK VINA RESULT: -9.920491791      0.000      0.000
REMARK  19 active torsions:
REMARK  status: ('A' for Active; 'I' for Inactive)
REMARK    1  A    between atoms: C2_2  and  C3_3 
REMARK    2  A    between atoms: C3_3  and  C4_4 
REMARK    3  A    between atoms: C4_4  and  C5_5 
REMARK    4  A    between atoms: C6_6  and  C7_7 
REMARK    5  A    between atoms: C7_7  and  C8_8 
REMARK    6  A    between atoms: C9_9  and  C10_10 
REMARK    7  A    between atoms: C10_10  and  C11_11 
REMARK    8  A    between atoms: C12_12  and  C13_13 
REMARK    9  A    between atoms: C13_13  and  C14_14 
REMARK   10  A    between atoms: C15_15  and  C16_16 
REMARK   11  A    between atoms: C16_16  and  C17_17 
REMARK   12  A    between atoms: C17_17  and  C18_18 
REMARK   13  A    between atoms: C19_19  and  C20_20 
REMARK   14  A    between atoms: C20_20  and  C21_21 
REMARK   15  A    between atoms: C21_21  and  C22_22 
REMARK   16  A    between atoms: C22_22  and  C23_23 
REMARK   17  A    between atoms: C23_23  and  C24_24 
REMARK   18  A    between atoms: C24_24  and  C25_25 
REMARK   19  A    between atoms: C25_25  and  C26_27 
ROOT
HETATM    1  C16 UNL     1      90.784  11.725   6.793  1.00  0.00     0.030 C 
ENDROOT
BRANCH   1   2
HETATM    2  C15 UNL     1      91.335  10.375   6.596  1.00  0.00    -0.030 C 
HETATM    3  C14 UNL     1      90.592   9.306   6.457  1.00  0.00    -0.027 C 
BRANCH   3   4
HETATM    4  C13 UNL     1      91.274   7.974   6.256  1.00  0.00     0.053 C 
BRANCH   4   5
HETATM    5  C12 UNL     1      92.025   7.622   7.461  1.00  0.00    -0.027 C 
HETATM    6  C11 UNL     1      93.206   7.038   7.370  1.00  0.00    -0.027 C 
BRANCH   6   7
HETATM    7  C10 UNL     1      94.004   6.663   8.597  1.00  0.00     0.053 C 
BRANCH   7   8
HETATM    8  C9  UNL     1      94.505   5.305   8.362  1.00  0.00    -0.027 C 
HETATM    9  C8  UNL     1      94.169   4.271   9.074  1.00  0.00    -0.027 C 
BRANCH   9  10
HETATM   10  C7  UNL     1      93.241   4.324  10.209  1.00  0.00     0.053 C 
BRANCH  10  11
HETATM   11  C6  UNL     1      92.257   3.204  10.006  1.00  0.00    -0.027 C 
HETATM   12  C5  UNL     1      92.522   1.949  10.321  1.00  0.00    -0.030 C 
BRANCH  12  13
HETATM   13  C4  UNL     1      91.514   0.915  10.094  1.00  0.00     0.027 C 
BRANCH  13  14
HETATM   14  C3  UNL     1      91.004   0.877   8.673  1.00  0.00     0.003 C 
BRANCH  14  15
HETATM   15  C2  UNL     1      89.556   1.277   8.568  1.00  0.00    -0.004 C 
HETATM   16  C1  UNL     1      88.869   1.259   9.915  1.00  0.00     0.005 C 
ENDBRANCH  14  15
ENDBRANCH  13  14
ENDBRANCH  12  13
ENDBRANCH  10  11
ENDBRANCH   9  10
ENDBRANCH   7   8
ENDBRANCH   6   7
ENDBRANCH   4   5
ENDBRANCH   3   4
ENDBRANCH   1   2
BRANCH   1  17
HETATM   17  C17 UNL     1      89.397  11.883   6.269  1.00  0.00     0.030 C 
BRANCH  17  18
HETATM   18  C18 UNL     1      89.356  12.064   4.797  1.00  0.00    -0.030 C 
HETATM   19  C19 UNL     1      88.509  11.415   3.984  1.00  0.00    -0.031 C 
BRANCH  19  20
HETATM   20  C20 UNL     1      87.495  10.445   4.334  1.00  0.00     0.027 C 
BRANCH  20  21
HETATM   21  C21 UNL     1      86.574   9.942   3.286  1.00  0.00     0.004 C 
BRANCH  21  22
HETATM   22  C22 UNL     1      85.238   9.451   3.676  1.00  0.00     0.001 C 
BRANCH  22  23
HETATM   23  C23 UNL     1      84.570  10.056   4.846  1.00  0.00     0.008 C 
BRANCH  23  24
HETATM   24  C24 UNL     1      83.542  11.071   4.355  1.00  0.00     0.084 C 
BRANCH  24  25
HETATM   25  C25 UNL     1      83.811  12.415   4.851  1.00  0.00     0.159 C 
HETATM   26  O1  UNL     1      83.081  12.972   5.723  1.00  0.00    -0.292 OA
BRANCH  25  27
HETATM   27  C26 UNL     1      84.963  13.186   4.348  1.00  0.00     0.010 A 
HETATM   28  C27 UNL     1      85.752  13.900   5.200  1.00  0.00     0.015 A 
HETATM   29  C28 UNL     1      86.826  14.619   4.716  1.00  0.00     0.001 A 
HETATM   30  C29 UNL     1      87.131  14.638   3.375  1.00  0.00     0.000 A 
HETATM   31  C30 UNL     1      86.342  13.923   2.519  1.00  0.00     0.001 A 
HETATM   32  C31 UNL     1      85.279  13.213   3.009  1.00  0.00     0.015 A 
ENDBRANCH  25  27
ENDBRANCH  24  25
ENDBRANCH  23  24
ENDBRANCH  22  23
ENDBRANCH  21  22
ENDBRANCH  20  21
ENDBRANCH  19  20
ENDBRANCH  17  18
ENDBRANCH   1  17
TORSDOF 19
ENDMDL
MODEL 2
REMARK VINA RESULT: -9.742580152      2.536      5.691
REMARK  19 active torsions:
REMARK  status: ('A' for Active; 'I' for Inactive)
REMARK    1  A    between atoms: C2_2  and  C3_3 
REMARK    2  A    between atoms: C3_3  and  C4_4 
REMARK    3  A    between atoms: C4_4  and  C5_5 
REMARK    4  A    between atoms: C6_6  and  C7_7 
REMARK    5  A    between atoms: C7_7  and  C8_8 
REMARK    6  A    between atoms: C9_9  and  C10_10 
REMARK    7  A    between atoms: C10_10  and  C11_11 
REMARK    8  A    between atoms: C12_12  and  C13_13 
REMARK    9  A    between atoms: C13_13  and  C14_14 
REMARK   10  A    between atoms: C15_15  and  C16_16 
REMARK   11  A    between atoms: C16_16  and  C17_17 
REMARK   12  A    between atoms: C17_17  and  C18_18 
REMARK   13  A    between atoms: C19_19  and  C20_20 
REMARK   14  A    between atoms: C20_20  and  C21_21 
REMARK   15  A    between atoms: C21_21  and  C22_22 
REMARK   16  A    between atoms: C22_22  and  C23_23 
REMARK   17  A    between atoms: C23_23  and  C24_24 
REMARK   18  A    between atoms: C24_24  and  C25_25 
REMARK   19  A    between atoms: C25_25  and  C26_27 
ROOT
HETATM    1  C16 UNL     1      91.667   6.667   9.476  1.00  0.00     0.030 C 
ENDROOT
BRANCH   1   2
HETATM    2  C15 UNL     1      92.135   5.275   9.561  1.00  0.00    -0.030 C 
HETATM    3  C14 UNL     1      93.137   4.895  10.313  1.00  0.00    -0.027 C 
BRANCH   3   4
HETATM    4  C13 UNL     1      93.522   3.435  10.319  1.00  0.00     0.053 C 
BRANCH   4   5
HETATM    5  C12 UNL     1      92.346   2.618  10.023  1.00  0.00    -0.027 C 
HETATM    6  C11 UNL     1      92.444   1.303   9.944  1.00  0.00    -0.027 C 
BRANCH   6   7
HETATM    7  C10 UNL     1      91.245   0.434   9.640  1.00  0.00     0.053 C 
BRANCH   7   8
HETATM    8  C9  UNL     1      90.534   1.087   8.536  1.00  0.00    -0.027 C 
HETATM    9  C8  UNL     1      89.323   1.550   8.623  1.00  0.00    -0.027 C 
BRANCH   9  10
HETATM   10  C7  UNL     1      88.504   1.482   9.839  1.00  0.00     0.053 C 
BRANCH  10  11
HETATM   11  C6  UNL     1      87.439   0.453   9.577  1.00  0.00    -0.027 C 
HETATM   12  C5  UNL     1      86.417   0.667   8.768  1.00  0.00    -0.030 C 
BRANCH  12  13
HETATM   13  C4  UNL     1      85.420  -0.382   8.563  1.00  0.00     0.027 C 
BRANCH  13  14
HETATM   14  C3  UNL     1      84.818  -0.374   7.178  1.00  0.00     0.003 C 
BRANCH  14  15
HETATM   15  C2  UNL     1      84.356   0.997   6.757  1.00  0.00    -0.004 C 
HETATM   16  C1  UNL     1      83.494   0.942   5.516  1.00  0.00     0.005 C 
ENDBRANCH  14  15
ENDBRANCH  13  14
ENDBRANCH  12  13
ENDBRANCH  10  11
ENDBRANCH   9  10
ENDBRANCH   7   8
ENDBRANCH   6   7
ENDBRANCH   4   5
ENDBRANCH   3   4
ENDBRANCH   1   2
BRANCH   1  17
HETATM   17  C17 UNL     1      92.132   7.377   8.250  1.00  0.00     0.030 C 
BRANCH  17  18
HETATM   18  C18 UNL     1      93.005   8.538   8.554  1.00  0.00    -0.030 C 
HETATM   19  C19 UNL     1      92.550   9.740   8.938  1.00  0.00    -0.031 C 
BRANCH  19  20
HETATM   20  C20 UNL     1      91.181  10.159   9.137  1.00  0.00     0.027 C 
BRANCH  20  21
HETATM   21  C21 UNL     1      90.553  11.084   8.162  1.00  0.00     0.004 C 
BRANCH  21  22
HETATM   22  C22 UNL     1      90.865  10.938   6.726  1.00  0.00     0.001 C 
BRANCH  22  23
HETATM   23  C23 UNL     1      89.754  10.785   5.767  1.00  0.00     0.008 C 
BRANCH  23  24
HETATM   24  C24 UNL     1      89.015  12.115   5.655  1.00  0.00     0.084 C 
BRANCH  24  25
HETATM   25  C25 UNL     1      88.098  12.144   4.523  1.00  0.00     0.159 C 
HETATM   26  O1  UNL     1      88.381  12.734   3.438  1.00  0.00    -0.292 OA
BRANCH  25  27
HETATM   27  C26 UNL     1      86.786  11.476   4.599  1.00  0.00     0.010 A 
HETATM   28  C27 UNL     1      85.858  11.858   5.523  1.00  0.00     0.015 A 
HETATM   29  C28 UNL     1      84.635  11.222   5.585  1.00  0.00     0.001 A 
HETATM   30  C29 UNL     1      84.316  10.196   4.727  1.00  0.00     0.000 A 
HETATM   31  C30 UNL     1      85.242   9.812   3.800  1.00  0.00     0.001 A 
HETATM   32  C31 UNL     1      86.453  10.448   3.747  1.00  0.00     0.015 A 
ENDBRANCH  25  27
ENDBRANCH  24  25
ENDBRANCH  23  24
ENDBRANCH  22  23
ENDBRANCH  21  22
ENDBRANCH  20  21
ENDBRANCH  19  20
ENDBRANCH  17  18
ENDBRANCH   1  17
TORSDOF 19
ENDMDL
MODEL 3
REMARK VINA RESULT: -9.651504208      1.197      1.612
REMARK  19 active torsions:
REMARK  status: ('A' for Active; 'I' for Inactive)
REMARK    1  A    between atoms: C2_2  and  C3_3 
REMARK    2  A    between atoms: C3_3  and  C4_4 
REMARK    3  A    between atoms: C4_4  and  C5_5 
REMARK    4  A    between atoms: C6_6  and  C7_7 
REMARK    5  A    between atoms: C7_7  and  C8_8 
REMARK    6  A    between atoms: C9_9  and  C10_10 
REMARK    7  A    between atoms: C10_10  and  C11_11 
REMARK    8  A    between atoms: C12_12  and  C13_13 
REMARK    9  A    between atoms: C13_13  and  C14_14 
REMARK   10  A    between atoms: C15_15  and  C16_16 
REMARK   11  A    between atoms: C16_16  and  C17_17 
REMARK   12  A    between atoms: C17_17  and  C18_18 
REMARK   13  A    between atoms: C19_19  and  C20_20 
REMARK   14  A    between atoms: C20_20  and  C21_21 
REMARK   15  A    between atoms: C21_21  and  C22_22 
REMARK   16  A    between atoms: C22_22  and  C23_23 
REMARK   17  A    between atoms: C23_23  and  C24_24 
REMARK   18  A    between atoms: C24_24  and  C25_25 
REMARK   19  A    between atoms: C25_25  and  C26_27 
ROOT
HETATM    1  C16 UNL     1      89.757  11.839   6.558  1.00  0.00     0.030 C 
ENDROOT
BRANCH   1   2
HETATM    2  C15 UNL     1      90.678  11.073   7.413  1.00  0.00    -0.030 C 
HETATM    3  C14 UNL     1      90.653  11.117   8.721  1.00  0.00    -0.027 C 
BRANCH   3   4
HETATM    4  C13 UNL     1      91.648  10.280   9.490  1.00  0.00     0.053 C 
BRANCH   4   5
HETATM    5  C12 UNL     1      91.531   8.882   9.080  1.00  0.00    -0.027 C 
HETATM    6  C11 UNL     1      92.265   7.948   9.658  1.00  0.00    -0.027 C 
BRANCH   6   7
HETATM    7  C10 UNL     1      92.165   6.495   9.255  1.00  0.00     0.053 C 
BRANCH   7   8
HETATM    8  C9  UNL     1      93.133   6.302   8.170  1.00  0.00    -0.027 C 
HETATM    9  C8  UNL     1      94.146   5.491   8.233  1.00  0.00    -0.027 C 
BRANCH   9  10
HETATM   10  C7  UNL     1      94.457   4.656   9.399  1.00  0.00     0.053 C 
BRANCH  10  11
HETATM   11  C6  UNL     1      93.452   3.536   9.400  1.00  0.00    -0.027 C 
HETATM   12  C5  UNL     1      92.808   3.151  10.487  1.00  0.00    -0.030 C 
BRANCH  12  13
HETATM   13  C4  UNL     1      91.845   2.054  10.410  1.00  0.00     0.027 C 
BRANCH  13  14
HETATM   14  C3  UNL     1      92.402   0.813   9.753  1.00  0.00     0.003 C 
BRANCH  14  15
HETATM   15  C2  UNL     1      91.501   0.278   8.671  1.00  0.00    -0.004 C 
HETATM   16  C1  UNL     1      90.242   1.103   8.530  1.00  0.00     0.005 C 
ENDBRANCH  14  15
ENDBRANCH  13  14
ENDBRANCH  12  13
ENDBRANCH  10  11
ENDBRANCH   9  10
ENDBRANCH   7   8
ENDBRANCH   6   7
ENDBRANCH   4   5
ENDBRANCH   3   4
ENDBRANCH   1   2
BRANCH   1  17
HETATM   17  C17 UNL     1      89.823  11.454   5.119  1.00  0.00     0.030 C 
BRANCH  17  18
HETATM   18  C18 UNL     1      89.353  10.069   4.873  1.00  0.00    -0.030 C 
HETATM   19  C19 UNL     1      88.334   9.755   4.058  1.00  0.00    -0.031 C 
BRANCH  19  20
HETATM   20  C20 UNL     1      87.506  10.644   3.273  1.00  0.00     0.027 C 
BRANCH  20  21
HETATM   21  C21 UNL     1      86.117  10.244   2.942  1.00  0.00     0.004 C 
BRANCH  21  22
HETATM   22  C22 UNL     1      85.284   9.606   3.980  1.00  0.00     0.001 C 
BRANCH  22  23
HETATM   23  C23 UNL     1      84.041  10.278   4.409  1.00  0.00     0.008 C 
BRANCH  23  24
HETATM   24  C24 UNL     1      84.338  11.119   5.645  1.00  0.00     0.084 C 
BRANCH  24  25
HETATM   25  C25 UNL     1      84.249  12.549   5.375  1.00  0.00     0.159 C 
HETATM   26  O1  UNL     1      83.193  13.214   5.592  1.00  0.00    -0.292 OA
BRANCH  25  27
HETATM   27  C26 UNL     1      85.405  13.285   4.833  1.00  0.00     0.010 A 
HETATM   28  C27 UNL     1      86.461  13.618   5.631  1.00  0.00     0.015 A 
HETATM   29  C28 UNL     1      87.536  14.309   5.110  1.00  0.00     0.001 A 
HETATM   30  C29 UNL     1      87.577  14.680   3.787  1.00  0.00     0.000 A 
HETATM   31  C30 UNL     1      86.522  14.348   2.985  1.00  0.00     0.001 A 
HETATM   32  C31 UNL     1      85.460  13.663   3.511  1.00  0.00     0.015 A 
ENDBRANCH  25  27
ENDBRANCH  24  25
ENDBRANCH  23  24
ENDBRANCH  22  23
ENDBRANCH  21  22
ENDBRANCH  20  21
ENDBRANCH  19  20
ENDBRANCH  17  18
ENDBRANCH   1  17
TORSDOF 19
ENDMDL
MODEL 4
REMARK VINA RESULT: -9.628267468      3.091     10.911
REMARK  19 active torsions:
REMARK  status: ('A' for Active; 'I' for Inactive)
REMARK    1  A    between atoms: C2_2  and  C3_3 
REMARK    2  A    between atoms: C3_3  and  C4_4 
REMARK    3  A    between atoms: C4_4  and  C5_5 
REMARK    4  A    between atoms: C6_6  and  C7_7 
REMARK    5  A    between atoms: C7_7  and  C8_8 
REMARK    6  A    between atoms: C9_9  and  C10_10 
REMARK    7  A    between atoms: C10_10  and  C11_11 
REMARK    8  A    between atoms: C12_12  and  C13_13 
REMARK    9  A    between atoms: C13_13  and  C14_14 
REMARK   10  A    between atoms: C15_15  and  C16_16 
REMARK   11  A    between atoms: C16_16  and  C17_17 
REMARK   12  A    between atoms: C17_17  and  C18_18 
REMARK   13  A    between atoms: C19_19  and  C20_20 
REMARK   14  A    between atoms: C20_20  and  C21_21 
REMARK   15  A    between atoms: C21_21  and  C22_22 
REMARK   16  A    between atoms: C22_22  and  C23_23 
REMARK   17  A    between atoms: C23_23  and  C24_24 
REMARK   18  A    between atoms: C24_24  and  C25_25 
REMARK   19  A    between atoms: C25_25  and  C26_27 
ROOT
HETATM    1  C16 UNL     1      90.217   8.995   5.132  1.00  0.00     0.030 C 
ENDROOT
BRANCH   1   2
HETATM    2  C15 UNL     1      90.120  10.460   5.229  1.00  0.00    -0.030 C 
HETATM    3  C14 UNL     1      89.148  11.079   5.849  1.00  0.00    -0.027 C 
BRANCH   3   4
HETATM    4  C13 UNL     1      89.160  12.589   5.884  1.00  0.00     0.053 C 
BRANCH   4   5
HETATM    5  C12 UNL     1      87.888  13.100   5.375  1.00  0.00    -0.027 C 
HETATM    6  C11 UNL     1      87.859  13.914   4.335  1.00  0.00    -0.027 C 
BRANCH   6   7
HETATM    7  C10 UNL     1      86.559  14.458   3.788  1.00  0.00     0.053 C 
BRANCH   7   8
HETATM    8  C9  UNL     1      85.504  13.989   4.693  1.00  0.00    -0.027 C 
HETATM    9  C8  UNL     1      84.661  13.045   4.401  1.00  0.00    -0.027 C 
BRANCH   9  10
HETATM   10  C7  UNL     1      84.651  12.320   3.125  1.00  0.00     0.053 C 
BRANCH  10  11
HETATM   11  C6  UNL     1      85.336  11.005   3.378  1.00  0.00    -0.027 C 
HETATM   12  C5  UNL     1      86.521  10.705   2.877  1.00  0.00    -0.030 C 
BRANCH  12  13
HETATM   13  C4  UNL     1      87.124   9.406   3.167  1.00  0.00     0.027 C 
BRANCH  13  14
HETATM   14  C3  UNL     1      87.182   8.491   1.968  1.00  0.00     0.003 C 
BRANCH  14  15
HETATM   15  C2  UNL     1      88.035   7.273   2.210  1.00  0.00    -0.004 C 
HETATM   16  C1  UNL     1      88.854   6.910   0.992  1.00  0.00     0.005 C 
ENDBRANCH  14  15
ENDBRANCH  13  14
ENDBRANCH  12  13
ENDBRANCH  10  11
ENDBRANCH   9  10
ENDBRANCH   7   8
ENDBRANCH   6   7
ENDBRANCH   4   5
ENDBRANCH   3   4
ENDBRANCH   1   2
BRANCH   1  17
HETATM   17  C17 UNL     1      90.964   8.373   6.262  1.00  0.00     0.030 C 
BRANCH  17  18
HETATM   18  C18 UNL     1      92.247   9.061   6.552  1.00  0.00    -0.030 C 
HETATM   19  C19 UNL     1      92.563   9.591   7.743  1.00  0.00    -0.031 C 
BRANCH  19  20
HETATM   20  C20 UNL     1      91.774   9.610   8.955  1.00  0.00     0.027 C 
BRANCH  20  21
HETATM   21  C21 UNL     1      92.276   8.912  10.163  1.00  0.00     0.004 C 
BRANCH  21  22
HETATM   22  C22 UNL     1      92.776   7.529  10.040  1.00  0.00     0.001 C 
BRANCH  22  23
HETATM   23  C23 UNL     1      91.835   6.463   9.643  1.00  0.00     0.008 C 
BRANCH  23  24
HETATM   24  C24 UNL     1      92.623   5.328   8.997  1.00  0.00     0.084 C 
BRANCH  24  25
HETATM   25  C25 UNL     1      92.775   4.184   9.887  1.00  0.00     0.159 C 
HETATM   26  O1  UNL     1      93.576   4.194  10.869  1.00  0.00    -0.292 OA
BRANCH  25  27
HETATM   27  C26 UNL     1      91.988   2.956   9.676  1.00  0.00     0.010 A 
HETATM   28  C27 UNL     1      90.697   3.018   9.242  1.00  0.00     0.015 A 
HETATM   29  C28 UNL     1      89.971   1.860   9.050  1.00  0.00     0.001 A 
HETATM   30  C29 UNL     1      90.519   0.621   9.288  1.00  0.00     0.000 A 
HETATM   31  C30 UNL     1      91.812   0.556   9.722  1.00  0.00     0.001 A 
HETATM   32  C31 UNL     1      92.524   1.710   9.910  1.00  0.00     0.015 A 
ENDBRANCH  25  27
ENDBRANCH  24  25
ENDBRANCH  23  24
ENDBRANCH  22  23
ENDBRANCH  21  22
ENDBRANCH  20  21
ENDBRANCH  19  20
ENDBRANCH  17  18
ENDBRANCH   1  17
TORSDOF 19
ENDMDL
MODEL 5
REMARK VINA RESULT: -9.609138400      1.243      2.443
REMARK  19 active torsions:
REMARK  status: ('A' for Active; 'I' for Inactive)
REMARK    1  A    between atoms: C2_2  and  C3_3 
REMARK    2  A    between atoms: C3_3  and  C4_4 
REMARK    3  A    between atoms: C4_4  and  C5_5 
REMARK    4  A    between atoms: C6_6  and  C7_7 
REMARK    5  A    between atoms: C7_7  and  C8_8 
REMARK    6  A    between atoms: C9_9  and  C10_10 
REMARK    7  A    between atoms: C10_10  and  C11_11 
REMARK    8  A    between atoms: C12_12  and  C13_13 
REMARK    9  A    between atoms: C13_13  and  C14_14 
REMARK   10  A    between atoms: C15_15  and  C16_16 
REMARK   11  A    between atoms: C16_16  and  C17_17 
REMARK   12  A    between atoms: C17_17  and  C18_18 
REMARK   13  A    between atoms: C19_19  and  C20_20 
REMARK   14  A    between atoms: C20_20  and  C21_21 
REMARK   15  A    between atoms: C21_21  and  C22_22 
REMARK   16  A    between atoms: C22_22  and  C23_23 
REMARK   17  A    between atoms: C23_23  and  C24_24 
REMARK   18  A    between atoms: C24_24  and  C25_25 
REMARK   19  A    between atoms: C25_25  and  C26_27 
ROOT
HETATM    1  C16 UNL     1      91.399   9.120   5.878  1.00  0.00     0.030 C 
ENDROOT
BRANCH   1   2
HETATM    2  C15 UNL     1      91.357   8.227   7.047  1.00  0.00    -0.030 C 
HETATM    3  C14 UNL     1      91.809   8.564   8.228  1.00  0.00    -0.027 C 
BRANCH   3   4
HETATM    4  C13 UNL     1      91.706   7.562   9.353  1.00  0.00     0.053 C 
BRANCH   4   5
HETATM    5  C12 UNL     1      92.420   6.339   8.986  1.00  0.00    -0.027 C 
HETATM    6  C11 UNL     1      92.277   5.237   9.701  1.00  0.00    -0.027 C 
BRANCH   6   7
HETATM    7  C10 UNL     1      93.002   3.960   9.345  1.00  0.00     0.053 C 
BRANCH   7   8
HETATM    8  C9  UNL     1      92.811   3.050  10.480  1.00  0.00    -0.027 C 
HETATM    9  C8  UNL     1      92.464   1.803  10.363  1.00  0.00    -0.027 C 
BRANCH   9  10
HETATM   10  C7  UNL     1      92.217   1.138   9.078  1.00  0.00     0.053 C 
BRANCH  10  11
HETATM   11  C6  UNL     1      90.727   0.961   8.971  1.00  0.00    -0.027 C 
HETATM   12  C5  UNL     1      89.913   1.934   8.600  1.00  0.00    -0.030 C 
BRANCH  12  13
HETATM   13  C4  UNL     1      88.475   1.686   8.519  1.00  0.00     0.027 C 
BRANCH  13  14
HETATM   14  C3  UNL     1      87.929   0.931   9.707  1.00  0.00     0.003 C 
BRANCH  14  15
HETATM   15  C2  UNL     1      86.907  -0.104   9.314  1.00  0.00    -0.004 C 
HETATM   16  C1  UNL     1      85.595   0.529   8.911  1.00  0.00     0.005 C 
ENDBRANCH  14  15
ENDBRANCH  13  14
ENDBRANCH  12  13
ENDBRANCH  10  11
ENDBRANCH   9  10
ENDBRANCH   7   8
ENDBRANCH   6   7
ENDBRANCH   4   5
ENDBRANCH   3   4
ENDBRANCH   1   2
BRANCH   1  17
HETATM   17  C17 UNL     1      90.135   9.125   5.088  1.00  0.00     0.030 C 
BRANCH  17  18
HETATM   18  C18 UNL     1      89.419  10.423   5.158  1.00  0.00    -0.030 C 
HETATM   19  C19 UNL     1      88.340  10.727   4.420  1.00  0.00    -0.031 C 
BRANCH  19  20
HETATM   20  C20 UNL     1      87.662   9.905   3.443  1.00  0.00     0.027 C 
BRANCH  20  21
HETATM   21  C21 UNL     1      86.213  10.110   3.197  1.00  0.00     0.004 C 
BRANCH  21  22
HETATM   22  C22 UNL     1      85.233   9.468   4.094  1.00  0.00     0.001 C 
BRANCH  22  23
HETATM   23  C23 UNL     1      84.027  10.222   4.490  1.00  0.00     0.008 C 
BRANCH  23  24
HETATM   24  C24 UNL     1      84.370  11.103   5.688  1.00  0.00     0.084 C 
BRANCH  24  25
HETATM   25  C25 UNL     1      84.270  12.523   5.376  1.00  0.00     0.159 C 
HETATM   26  O1  UNL     1      83.203  13.182   5.559  1.00  0.00    -0.292 OA
BRANCH  25  27
HETATM   27  C26 UNL     1      85.426  13.257   4.828  1.00  0.00     0.010 A 
HETATM   28  C27 UNL     1      85.492  13.569   3.502  1.00  0.00     0.015 A 
HETATM   29  C28 UNL     1      86.581  14.254   3.003  1.00  0.00     0.001 A 
HETATM   30  C29 UNL     1      87.621  14.640   3.816  1.00  0.00     0.000 A 
HETATM   31  C30 UNL     1      87.556  14.330   5.144  1.00  0.00     0.001 A 
HETATM   32  C31 UNL     1      86.472  13.649   5.630  1.00  0.00     0.015 A 
ENDBRANCH  25  27
ENDBRANCH  24  25
ENDBRANCH  23  24
ENDBRANCH  22  23
ENDBRANCH  21  22
ENDBRANCH  20  21
ENDBRANCH  19  20
ENDBRANCH  17  18
ENDBRANCH   1  17
TORSDOF 19
ENDMDL
