MODEL 1
REMARK VINA RESULT: -9.928414549      0.000      0.000
REMARK  21 active torsions:
REMARK  status: ('A' for Active; 'I' for Inactive)
REMARK    1  A    between atoms: C2_2  and  C3_3 
REMARK    2  A    between atoms: C3_3  and  C4_4 
REMARK    3  A    between atoms: C4_4  and  C5_5 
REMARK    4  A    between atoms: C5_5  and  C6_6 
REMARK    5  A    between atoms: C7_7  and  C8_8 
REMARK    6  A    between atoms: C8_8  and  C9_9 
REMARK    7  A    between atoms: C10_10  and  C11_11 
REMARK    8  A    between atoms: C11_11  and  C12_12 
REMARK    9  A    between atoms: C13_13  and  C14_14 
REMARK   10  A    between atoms: C14_14  and  C15_15 
REMARK   11  A    between atoms: C16_16  and  C17_17 
REMARK   12  A    between atoms: C17_17  and  C18_18 
REMARK   13  A    between atoms: C19_19  and  C20_20 
REMARK   14  A    between atoms: C20_20  and  C21_21 
REMARK   15  A    between atoms: C22_22  and  C23_23 
REMARK   16  A    between atoms: C23_23  and  C24_24 
REMARK   17  A    between atoms: C26_26  and  C27_27 
REMARK   18  A    between atoms: C27_27  and  C28_28 
REMARK   19  A    between atoms: C28_28  and  C29_29 
REMARK   20  A    between atoms: C29_29  and  C30_30 
REMARK   21  A    between atoms: C30_30  and  O2_32 
ROOT
HETATM    1  C17 UNL     1      90.966   8.707   6.653  1.00  0.00     0.053 C 
ENDROOT
BRANCH   1   2
HETATM    2  C16 UNL     1      91.760   7.738   7.464  1.00  0.00    -0.027 C 
HETATM    3  C15 UNL     1      91.762   7.839   8.765  1.00  0.00    -0.027 C 
BRANCH   3   4
HETATM    4  C14 UNL     1      92.575   6.843   9.559  1.00  0.00     0.053 C 
BRANCH   4   5
HETATM    5  C13 UNL     1      93.095   5.826   8.642  1.00  0.00    -0.027 C 
HETATM    6  C12 UNL     1      93.539   4.663   9.026  1.00  0.00    -0.027 C 
BRANCH   6   7
HETATM    7  C11 UNL     1      93.599   4.169  10.412  1.00  0.00     0.053 C 
BRANCH   7   8
HETATM    8  C10 UNL     1      92.719   2.961  10.569  1.00  0.00    -0.027 C 
HETATM    9  C9  UNL     1      92.584   2.083   9.602  1.00  0.00    -0.027 C 
BRANCH   9  10
HETATM   10  C8  UNL     1      91.711   0.870   9.736  1.00  0.00     0.053 C 
BRANCH  10  11
HETATM   11  C7  UNL     1      90.831   0.819   8.545  1.00  0.00    -0.027 C 
HETATM   12  C6  UNL     1      89.536   1.031   8.570  1.00  0.00    -0.030 C 
BRANCH  12  13
HETATM   13  C5  UNL     1      88.713   1.355   9.750  1.00  0.00     0.027 C 
BRANCH  13  14
HETATM   14  C4  UNL     1      87.512   0.421   9.705  1.00  0.00     0.007 C 
BRANCH  14  15
HETATM   15  C3  UNL     1      86.641   0.834   8.553  1.00  0.00     0.026 C 
BRANCH  15  16
HETATM   16  C2  UNL     1      85.347   0.071   8.687  1.00  0.00    -0.037 C 
HETATM   17  C1  UNL     1      85.028  -0.820   7.773  1.00  0.00     0.007 C 
ENDBRANCH  15  16
ENDBRANCH  14  15
ENDBRANCH  13  14
ENDBRANCH  12  13
ENDBRANCH  10  11
ENDBRANCH   9  10
ENDBRANCH   7   8
ENDBRANCH   6   7
ENDBRANCH   4   5
ENDBRANCH   3   4
ENDBRANCH   1   2
BRANCH   1  18
HETATM   18  C18 UNL     1      90.929   9.974   7.418  1.00  0.00    -0.027 C 
HETATM   19  C19 UNL     1      90.389  11.078   7.004  1.00  0.00    -0.027 C 
BRANCH  19  20
HETATM   20  C20 UNL     1      89.727  11.263   5.717  1.00  0.00     0.053 C 
BRANCH  20  21
HETATM   21  C21 UNL     1      88.410  11.979   5.910  1.00  0.00    -0.027 C 
HETATM   22  C22 UNL     1      88.246  13.217   5.544  1.00  0.00    -0.026 C 
BRANCH  22  23
HETATM   23  C23 UNL     1      87.005  13.976   5.695  1.00  0.00     0.060 C 
BRANCH  23  24
HETATM   24  C24 UNL     1      86.187  13.952   4.477  1.00  0.00    -0.084 C 
HETATM   25  C25 UNL     1      86.571  14.806   3.281  1.00  0.00     0.043 C 
HETATM   26  C26 UNL     1      85.090  13.266   4.355  1.00  0.00    -0.024 C 
BRANCH  26  27
HETATM   27  C27 UNL     1      84.430  12.388   5.353  1.00  0.00     0.028 C 
BRANCH  27  28
HETATM   28  C28 UNL     1      84.853  10.957   5.216  1.00  0.00     0.013 C 
BRANCH  28  29
HETATM   29  C29 UNL     1      84.719  10.452   3.830  1.00  0.00     0.111 C 
BRANCH  29  30
HETATM   30  C30 UNL     1      85.984   9.962   3.280  1.00  0.00     0.258 C 
HETATM   31  O1  UNL     1      87.009  10.637   3.026  1.00  0.00    -0.265 OA
BRANCH  30  32
HETATM   32  O2  UNL     1      86.062   8.587   3.005  1.00  0.00    -0.326 OA
HETATM   33  C31 UNL     1      87.252   7.961   2.581  1.00  0.00     0.213 C 
ENDBRANCH  30  32
ENDBRANCH  29  30
ENDBRANCH  28  29
ENDBRANCH  27  28
ENDBRANCH  26  27
ENDBRANCH  23  24
ENDBRANCH  22  23
ENDBRANCH  20  21
ENDBRANCH  19  20
ENDBRANCH   1  18
TORSDOF 21
ENDMDL
MODEL 2
REMARK VINA RESULT: -9.908168004      2.064      5.952
REMARK  21 active torsions:
REMARK  status: ('A' for Active; 'I' for Inactive)
REMARK    1  A    between atoms: C2_2  and  C3_3 
REMARK    2  A    between atoms: C3_3  and  C4_4 
REMARK    3  A    between atoms: C4_4  and  C5_5 
REMARK    4  A    between atoms: C5_5  and  C6_6 
REMARK    5  A    between atoms: C7_7  and  C8_8 
REMARK    6  A    between atoms: C8_8  and  C9_9 
REMARK    7  A    between atoms: C10_10  and  C11_11 
REMARK    8  A    between atoms: C11_11  and  C12_12 
REMARK    9  A    between atoms: C13_13  and  C14_14 
REMARK   10  A    between atoms: C14_14  and  C15_15 
REMARK   11  A    between atoms: C16_16  and  C17_17 
REMARK   12  A    between atoms: C17_17  and  C18_18 
REMARK   13  A    between atoms: C19_19  and  C20_20 
REMARK   14  A    between atoms: C20_20  and  C21_21 
REMARK   15  A    between atoms: C22_22  and  C23_23 
REMARK   16  A    between atoms: C23_23  and  C24_24 
REMARK   17  A    between atoms: C26_26  and  C27_27 
REMARK   18  A    between atoms: C27_27  and  C28_28 
REMARK   19  A    between atoms: C28_28  and  C29_29 
REMARK   20  A    between atoms: C29_29  and  C30_30 
REMARK   21  A    between atoms: C30_30  and  O2_32 
ROOT
HETATM    1  C17 UNL     1      93.133   4.750  10.152  1.00  0.00     0.053 C 
ENDROOT
BRANCH   1   2
HETATM    2  C16 UNL     1      92.805   3.335  10.495  1.00  0.00    -0.027 C 
HETATM    3  C15 UNL     1      92.679   2.455   9.539  1.00  0.00    -0.027 C 
BRANCH   3   4
HETATM    4  C14 UNL     1      92.347   1.031   9.917  1.00  0.00     0.053 C 
BRANCH   4   5
HETATM    5  C13 UNL     1      91.438   0.477   8.911  1.00  0.00    -0.027 C 
HETATM    6  C12 UNL     1      90.142   0.593   8.964  1.00  0.00    -0.027 C 
BRANCH   6   7
HETATM    7  C11 UNL     1      89.371   1.281  10.013  1.00  0.00     0.053 C 
BRANCH   7   8
HETATM    8  C10 UNL     1      87.939   1.435   9.586  1.00  0.00    -0.027 C 
HETATM    9  C9  UNL     1      87.115   0.413   9.575  1.00  0.00    -0.027 C 
BRANCH   9  10
HETATM   10  C8  UNL     1      85.681   0.542   9.152  1.00  0.00     0.053 C 
BRANCH  10  11
HETATM   11  C7  UNL     1      85.451  -0.423   8.052  1.00  0.00    -0.027 C 
HETATM   12  C6  UNL     1      84.807  -0.143   6.943  1.00  0.00    -0.030 C 
BRANCH  12  13
HETATM   13  C5  UNL     1      84.199   1.148   6.572  1.00  0.00     0.027 C 
BRANCH  13  14
HETATM   14  C4  UNL     1      83.356   0.886   5.332  1.00  0.00     0.007 C 
BRANCH  14  15
HETATM   15  C3  UNL     1      84.127   1.360   4.133  1.00  0.00     0.026 C 
BRANCH  15  16
HETATM   16  C2  UNL     1      83.359   0.912   2.914  1.00  0.00    -0.037 C 
HETATM   17  C1  UNL     1      82.265   0.198   3.071  1.00  0.00     0.007 C 
ENDBRANCH  15  16
ENDBRANCH  14  15
ENDBRANCH  13  14
ENDBRANCH  12  13
ENDBRANCH  10  11
ENDBRANCH   9  10
ENDBRANCH   7   8
ENDBRANCH   6   7
ENDBRANCH   4   5
ENDBRANCH   3   4
ENDBRANCH   1   2
BRANCH   1  18
HETATM   18  C18 UNL     1      94.386   4.719   9.365  1.00  0.00    -0.027 C 
HETATM   19  C19 UNL     1      94.567   5.318   8.229  1.00  0.00    -0.027 C 
BRANCH  19  20
HETATM   20  C20 UNL     1      93.570   6.124   7.533  1.00  0.00     0.053 C 
BRANCH  20  21
HETATM   21  C21 UNL     1      93.665   7.566   7.978  1.00  0.00    -0.027 C 
HETATM   22  C22 UNL     1      92.695   8.408   7.777  1.00  0.00    -0.026 C 
BRANCH  22  23
HETATM   23  C23 UNL     1      92.712   9.814   8.179  1.00  0.00     0.060 C 
BRANCH  23  24
HETATM   24  C24 UNL     1      91.425  10.249   8.736  1.00  0.00    -0.084 C 
HETATM   25  C25 UNL     1      90.973   9.749  10.098  1.00  0.00     0.043 C 
HETATM   26  C26 UNL     1      90.589  11.021   8.110  1.00  0.00    -0.024 C 
BRANCH  26  27
HETATM   27  C27 UNL     1      90.715  11.621   6.758  1.00  0.00     0.028 C 
BRANCH  27  28
HETATM   28  C28 UNL     1      89.534  11.312   5.890  1.00  0.00     0.013 C 
BRANCH  28  29
HETATM   29  C29 UNL     1      88.649  12.483   5.690  1.00  0.00     0.111 C 
BRANCH  29  30
HETATM   30  C30 UNL     1      87.886  12.412   4.443  1.00  0.00     0.258 C 
HETATM   31  O1  UNL     1      88.244  12.822   3.314  1.00  0.00    -0.265 OA
BRANCH  30  32
HETATM   32  O2  UNL     1      86.614  11.821   4.514  1.00  0.00    -0.326 OA
HETATM   33  C31 UNL     1      85.712  12.076   5.566  1.00  0.00     0.213 C 
ENDBRANCH  30  32
ENDBRANCH  29  30
ENDBRANCH  28  29
ENDBRANCH  27  28
ENDBRANCH  26  27
ENDBRANCH  23  24
ENDBRANCH  22  23
ENDBRANCH  20  21
ENDBRANCH  19  20
ENDBRANCH   1  18
TORSDOF 21
ENDMDL
MODEL 3
REMARK VINA RESULT: -9.752245797      2.663     10.880
REMARK  21 active torsions:
REMARK  status: ('A' for Active; 'I' for Inactive)
REMARK    1  A    between atoms: C2_2  and  C3_3 
REMARK    2  A    between atoms: C3_3  and  C4_4 
REMARK    3  A    between atoms: C4_4  and  C5_5 
REMARK    4  A    between atoms: C5_5  and  C6_6 
REMARK    5  A    between atoms: C7_7  and  C8_8 
REMARK    6  A    between atoms: C8_8  and  C9_9 
REMARK    7  A    between atoms: C10_10  and  C11_11 
REMARK    8  A    between atoms: C11_11  and  C12_12 
REMARK    9  A    between atoms: C13_13  and  C14_14 
REMARK   10  A    between atoms: C14_14  and  C15_15 
REMARK   11  A    between atoms: C16_16  and  C17_17 
REMARK   12  A    between atoms: C17_17  and  C18_18 
REMARK   13  A    between atoms: C19_19  and  C20_20 
REMARK   14  A    between atoms: C20_20  and  C21_21 
REMARK   15  A    between atoms: C22_22  and  C23_23 
REMARK   16  A    between atoms: C23_23  and  C24_24 
REMARK   17  A    between atoms: C26_26  and  C27_27 
REMARK   18  A    between atoms: C27_27  and  C28_28 
REMARK   19  A    between atoms: C28_28  and  C29_29 
REMARK   20  A    between atoms: C29_29  and  C30_30 
REMARK   21  A    between atoms: C30_30  and  O2_32 
ROOT
HETATM    1  C17 UNL     1      92.799   7.402   8.611  1.00  0.00     0.053 C 
ENDROOT
BRANCH   1   2
HETATM    2  C16 UNL     1      91.747   8.092   7.807  1.00  0.00    -0.027 C 
HETATM    3  C15 UNL     1      91.730   7.945   6.510  1.00  0.00    -0.027 C 
BRANCH   3   4
HETATM    4  C14 UNL     1      90.653   8.655   5.724  1.00  0.00     0.053 C 
BRANCH   4   5
HETATM    5  C13 UNL     1      91.195   9.920   5.222  1.00  0.00    -0.027 C 
HETATM    6  C12 UNL     1      90.668  11.084   5.473  1.00  0.00    -0.027 C 
BRANCH   6   7
HETATM    7  C11 UNL     1      89.466  11.340   6.284  1.00  0.00     0.053 C 
BRANCH   7   8
HETATM    8  C10 UNL     1      88.759  12.569   5.788  1.00  0.00    -0.027 C 
HETATM    9  C9  UNL     1      87.448  12.629   5.731  1.00  0.00    -0.027 C 
BRANCH   9  10
HETATM   10  C8  UNL     1      86.721  13.846   5.239  1.00  0.00     0.053 C 
BRANCH  10  11
HETATM   11  C7  UNL     1      86.727  13.801   3.759  1.00  0.00    -0.027 C 
HETATM   12  C6  UNL     1      85.780  13.258   3.029  1.00  0.00    -0.030 C 
BRANCH  12  13
HETATM   13  C5  UNL     1      84.552  12.602   3.516  1.00  0.00     0.027 C 
BRANCH  13  14
HETATM   14  C4  UNL     1      84.516  11.224   2.868  1.00  0.00     0.007 C 
BRANCH  14  15
HETATM   15  C3  UNL     1      85.046  10.227   3.859  1.00  0.00     0.026 C 
BRANCH  15  16
HETATM   16  C2  UNL     1      86.141   9.458   3.162  1.00  0.00    -0.037 C 
HETATM   17  C1  UNL     1      87.393   9.820   3.339  1.00  0.00     0.007 C 
ENDBRANCH  15  16
ENDBRANCH  14  15
ENDBRANCH  13  14
ENDBRANCH  12  13
ENDBRANCH  10  11
ENDBRANCH   9  10
ENDBRANCH   7   8
ENDBRANCH   6   7
ENDBRANCH   4   5
ENDBRANCH   3   4
ENDBRANCH   1   2
BRANCH   1  18
HETATM   18  C18 UNL     1      93.354   6.330   7.755  1.00  0.00    -0.027 C 
HETATM   19  C19 UNL     1      94.023   5.305   8.185  1.00  0.00    -0.027 C 
BRANCH  19  20
HETATM   20  C20 UNL     1      94.343   5.033   9.582  1.00  0.00     0.053 C 
BRANCH  20  21
HETATM   21  C21 UNL     1      93.213   4.267  10.233  1.00  0.00    -0.027 C 
HETATM   22  C22 UNL     1      92.728   3.184   9.702  1.00  0.00    -0.026 C 
BRANCH  22  23
HETATM   23  C23 UNL     1      91.640   2.389  10.271  1.00  0.00     0.060 C 
BRANCH  23  24
HETATM   24  C24 UNL     1      91.366   1.179   9.487  1.00  0.00    -0.084 C 
HETATM   25  C25 UNL     1      92.358   0.028   9.484  1.00  0.00     0.043 C 
HETATM   26  C26 UNL     1      90.323   1.029   8.728  1.00  0.00    -0.024 C 
BRANCH  26  27
HETATM   27  C27 UNL     1      89.213   1.983   8.478  1.00  0.00     0.028 C 
BRANCH  27  28
HETATM   28  C28 UNL     1      88.092   1.815   9.457  1.00  0.00     0.013 C 
BRANCH  28  29
HETATM   29  C29 UNL     1      87.407   0.509   9.325  1.00  0.00     0.111 C 
BRANCH  29  30
HETATM   30  C30 UNL     1      86.039   0.633   8.821  1.00  0.00     0.258 C 
HETATM   31  O1  UNL     1      84.980   0.590   9.491  1.00  0.00    -0.265 OA
BRANCH  30  32
HETATM   32  O2  UNL     1      85.891   0.821   7.437  1.00  0.00    -0.326 OA
HETATM   33  C31 UNL     1      84.645   1.089   6.833  1.00  0.00     0.213 C 
ENDBRANCH  30  32
ENDBRANCH  29  30
ENDBRANCH  28  29
ENDBRANCH  27  28
ENDBRANCH  26  27
ENDBRANCH  23  24
ENDBRANCH  22  23
ENDBRANCH  20  21
ENDBRANCH  19  20
ENDBRANCH   1  18
TORSDOF 21
ENDMDL
MODEL 4
REMARK VINA RESULT: -9.740190219      1.179      1.864
REMARK  21 active torsions:
REMARK  status: ('A' for Active; 'I' for Inactive)
REMARK    1  A    between atoms: C2_2  and  C3_3 
REMARK    2  A    between atoms: C3_3  and  C4_4 
REMARK    3  A    between atoms: C4_4  and  C5_5 
REMARK    4  A    between atoms: C5_5  and  C6_6 
REMARK    5  A    between atoms: C7_7  and  C8_8 
REMARK    6  A    between atoms: C8_8  and  C9_9 
REMARK    7  A    between atoms: C10_10  and  C11_11 
REMARK    8  A    between atoms: C11_11  and  C12_12 
REMARK    9  A    between atoms: C13_13  and  C14_14 
REMARK   10  A    between atoms: C14_14  and  C15_15 
REMARK   11  A    between atoms: C16_16  and  C17_17 
REMARK   12  A    between atoms: C17_17  and  C18_18 
REMARK   13  A    between atoms: C19_19  and  C20_20 
REMARK   14  A    between atoms: C20_20  and  C21_21 
REMARK   15  A    between atoms: C22_22  and  C23_23 
REMARK   16  A    between atoms: C23_23  and  C24_24 
REMARK   17  A    between atoms: C26_26  and  C27_27 
REMARK   18  A    between atoms: C27_27  and  C28_28 
REMARK   19  A    between atoms: C28_28  and  C29_29 
REMARK   20  A    between atoms: C29_29  and  C30_30 
REMARK   21  A    between atoms: C30_30  and  O2_32 
ROOT
HETATM    1  C17 UNL     1      91.720   9.095   5.930  1.00  0.00     0.053 C 
ENDROOT
BRANCH   1   2
HETATM    2  C16 UNL     1      91.611   8.053   6.992  1.00  0.00    -0.027 C 
HETATM    3  C15 UNL     1      91.711   8.400   8.246  1.00  0.00    -0.027 C 
BRANCH   3   4
HETATM    4  C14 UNL     1      91.596   7.322   9.298  1.00  0.00     0.053 C 
BRANCH   4   5
HETATM    5  C13 UNL     1      92.880   7.204   9.992  1.00  0.00    -0.027 C 
HETATM    6  C12 UNL     1      93.825   6.384   9.633  1.00  0.00    -0.027 C 
BRANCH   6   7
HETATM    7  C11 UNL     1      93.781   5.449   8.496  1.00  0.00     0.053 C 
BRANCH   7   8
HETATM    8  C10 UNL     1      93.547   4.048   8.988  1.00  0.00    -0.027 C 
HETATM    9  C9  UNL     1      92.631   3.783   9.890  1.00  0.00    -0.027 C 
BRANCH   9  10
HETATM   10  C8  UNL     1      92.381   2.392  10.395  1.00  0.00     0.053 C 
BRANCH  10  11
HETATM   11  C7  UNL     1      92.772   1.450   9.322  1.00  0.00    -0.027 C 
HETATM   12  C6  UNL     1      92.015   0.473   8.879  1.00  0.00    -0.030 C 
BRANCH  12  13
HETATM   13  C5  UNL     1      90.660   0.123   9.343  1.00  0.00     0.027 C 
BRANCH  13  14
HETATM   14  C4  UNL     1      89.692   0.949   8.507  1.00  0.00     0.007 C 
BRANCH  14  15
HETATM   15  C3  UNL     1      88.379   1.009   9.234  1.00  0.00     0.026 C 
BRANCH  15  16
HETATM   16  C2  UNL     1      88.235   2.416   9.760  1.00  0.00    -0.037 C 
HETATM   17  C1  UNL     1      88.962   3.377   9.231  1.00  0.00     0.007 C 
ENDBRANCH  15  16
ENDBRANCH  14  15
ENDBRANCH  13  14
ENDBRANCH  12  13
ENDBRANCH  10  11
ENDBRANCH   9  10
ENDBRANCH   7   8
ENDBRANCH   6   7
ENDBRANCH   4   5
ENDBRANCH   3   4
ENDBRANCH   1   2
BRANCH   1  18
HETATM   18  C18 UNL     1      90.439   9.084   5.188  1.00  0.00    -0.027 C 
HETATM   19  C19 UNL     1      89.602  10.073   5.132  1.00  0.00    -0.027 C 
BRANCH  19  20
HETATM   20  C20 UNL     1      89.778  11.365   5.787  1.00  0.00     0.053 C 
BRANCH  20  21
HETATM   21  C21 UNL     1      88.440  12.048   5.954  1.00  0.00    -0.027 C 
HETATM   22  C22 UNL     1      88.254  13.283   5.590  1.00  0.00    -0.026 C 
BRANCH  22  23
HETATM   23  C23 UNL     1      86.991  14.010   5.716  1.00  0.00     0.060 C 
BRANCH  23  24
HETATM   24  C24 UNL     1      86.204  13.979   4.477  1.00  0.00    -0.084 C 
HETATM   25  C25 UNL     1      86.627  14.815   3.282  1.00  0.00     0.043 C 
HETATM   26  C26 UNL     1      85.105  13.302   4.335  1.00  0.00    -0.024 C 
BRANCH  26  27
HETATM   27  C27 UNL     1      84.411  12.441   5.326  1.00  0.00     0.028 C 
BRANCH  27  28
HETATM   28  C28 UNL     1      84.870  11.016   5.256  1.00  0.00     0.013 C 
BRANCH  28  29
HETATM   29  C29 UNL     1      84.700  10.425   3.909  1.00  0.00     0.111 C 
BRANCH  29  30
HETATM   30  C30 UNL     1      85.962   9.966   3.328  1.00  0.00     0.258 C 
HETATM   31  O1  UNL     1      86.941  10.673   2.990  1.00  0.00    -0.265 OA
BRANCH  30  32
HETATM   32  O2  UNL     1      86.096   8.583   3.123  1.00  0.00    -0.326 OA
HETATM   33  C31 UNL     1      87.259   8.002   2.577  1.00  0.00     0.213 C 
ENDBRANCH  30  32
ENDBRANCH  29  30
ENDBRANCH  28  29
ENDBRANCH  27  28
ENDBRANCH  26  27
ENDBRANCH  23  24
ENDBRANCH  22  23
ENDBRANCH  20  21
ENDBRANCH  19  20
ENDBRANCH   1  18
TORSDOF 21
ENDMDL
MODEL 5
REMARK VINA RESULT: -9.706483755      1.737      4.074
REMARK  21 active torsions:
REMARK  status: ('A' for Active; 'I' for Inactive)
REMARK    1  A    between atoms: C2_2  and  C3_3 
REMARK    2  A    between atoms: C3_3  and  C4_4 
REMARK    3  A    between atoms: C4_4  and  C5_5 
REMARK    4  A    between atoms: C5_5  and  C6_6 
REMARK    5  A    between atoms: C7_7  and  C8_8 
REMARK    6  A    between atoms: C8_8  and  C9_9 
REMARK    7  A    between atoms: C10_10  and  C11_11 
REMARK    8  A    between atoms: C11_11  and  C12_12 
REMARK    9  A    between atoms: C13_13  and  C14_14 
REMARK   10  A    between atoms: C14_14  and  C15_15 
REMARK   11  A    between atoms: C16_16  and  C17_17 
REMARK   12  A    between atoms: C17_17  and  C18_18 
REMARK   13  A    between atoms: C19_19  and  C20_20 
REMARK   14  A    between atoms: C20_20  and  C21_21 
REMARK   15  A    between atoms: C22_22  and  C23_23 
REMARK   16  A    between atoms: C23_23  and  C24_24 
REMARK   17  A    between atoms: C26_26  and  C27_27 
REMARK   18  A    between atoms: C27_27  and  C28_28 
REMARK   19  A    between atoms: C28_28  and  C29_29 
REMARK   20  A    between atoms: C29_29  and  C30_30 
REMARK   21  A    between atoms: C30_30  and  O2_32 
ROOT
HETATM    1  C17 UNL     1      92.006   6.764   9.658  1.00  0.00     0.053 C 
ENDROOT
BRANCH   1   2
HETATM    2  C16 UNL     1      92.754   5.499   9.403  1.00  0.00    -0.027 C 
HETATM    3  C15 UNL     1      92.166   4.352   9.608  1.00  0.00    -0.027 C 
BRANCH   3   4
HETATM    4  C14 UNL     1      92.949   3.088   9.340  1.00  0.00     0.053 C 
BRANCH   4   5
HETATM    5  C13 UNL     1      92.616   2.102  10.370  1.00  0.00    -0.027 C 
HETATM    6  C12 UNL     1      91.933   1.017  10.141  1.00  0.00    -0.027 C 
BRANCH   6   7
HETATM    7  C11 UNL     1      91.386   0.591   8.842  1.00  0.00     0.053 C 
BRANCH   7   8
HETATM    8  C10 UNL     1      89.981   1.100   8.680  1.00  0.00    -0.027 C 
HETATM    9  C9  UNL     1      89.167   1.198   9.706  1.00  0.00    -0.027 C 
BRANCH   9  10
HETATM   10  C8  UNL     1      87.761   1.703   9.568  1.00  0.00     0.053 C 
BRANCH  10  11
HETATM   11  C7  UNL     1      86.896   0.539   9.267  1.00  0.00    -0.027 C 
HETATM   12  C6  UNL     1      86.261   0.359   8.132  1.00  0.00    -0.030 C 
BRANCH  12  13
HETATM   13  C5  UNL     1      86.277   1.251   6.958  1.00  0.00     0.027 C 
BRANCH  13  14
HETATM   14  C4  UNL     1      84.835   1.686   6.731  1.00  0.00     0.007 C 
BRANCH  14  15
HETATM   15  C3  UNL     1      84.048   0.486   6.288  1.00  0.00     0.026 C 
BRANCH  15  16
HETATM   16  C2  UNL     1      83.295   0.892   5.045  1.00  0.00    -0.037 C 
HETATM   17  C1  UNL     1      83.962   1.362   4.014  1.00  0.00     0.007 C 
ENDBRANCH  15  16
ENDBRANCH  14  15
ENDBRANCH  13  14
ENDBRANCH  12  13
ENDBRANCH  10  11
ENDBRANCH   9  10
ENDBRANCH   7   8
ENDBRANCH   6   7
ENDBRANCH   4   5
ENDBRANCH   3   4
ENDBRANCH   1   2
BRANCH   1  18
HETATM   18  C18 UNL     1      92.823   7.863   9.094  1.00  0.00    -0.027 C 
HETATM   19  C19 UNL     1      92.515   9.122   9.147  1.00  0.00    -0.027 C 
BRANCH  19  20
HETATM   20  C20 UNL     1      91.315   9.672   9.769  1.00  0.00     0.053 C 
BRANCH  20  21
HETATM   21  C21 UNL     1      90.711  10.734   8.879  1.00  0.00    -0.027 C 
HETATM   22  C22 UNL     1      91.020  10.825   7.618  1.00  0.00    -0.026 C 
BRANCH  22  23
HETATM   23  C23 UNL     1      90.477  11.821   6.695  1.00  0.00     0.060 C 
BRANCH  23  24
HETATM   24  C24 UNL     1      89.495  11.245   5.769  1.00  0.00    -0.084 C 
HETATM   25  C25 UNL     1      89.734   9.877   5.155  1.00  0.00     0.043 C 
HETATM   26  C26 UNL     1      88.417  11.859   5.384  1.00  0.00    -0.024 C 
BRANCH  26  27
HETATM   27  C27 UNL     1      87.936  13.213   5.758  1.00  0.00     0.028 C 
BRANCH  27  28
HETATM   28  C28 UNL     1      87.420  13.976   4.577  1.00  0.00     0.013 C 
BRANCH  28  29
HETATM   29  C29 UNL     1      85.993  14.349   4.715  1.00  0.00     0.111 C 
BRANCH  29  30
HETATM   30  C30 UNL     1      85.084  13.258   4.362  1.00  0.00     0.258 C 
HETATM   31  O1  UNL     1      84.836  12.823   3.213  1.00  0.00    -0.265 OA
BRANCH  30  32
HETATM   32  O2  UNL     1      84.414  12.627   5.423  1.00  0.00    -0.326 OA
HETATM   33  C31 UNL     1      84.392  11.226   5.585  1.00  0.00     0.213 C 
ENDBRANCH  30  32
ENDBRANCH  29  30
ENDBRANCH  28  29
ENDBRANCH  27  28
ENDBRANCH  26  27
ENDBRANCH  23  24
ENDBRANCH  22  23
ENDBRANCH  20  21
ENDBRANCH  19  20
ENDBRANCH   1  18
TORSDOF 21
ENDMDL
