MODEL 1
REMARK VINA RESULT: -9.721183460      0.000      0.000
REMARK  21 active torsions:
REMARK  status: ('A' for Active; 'I' for Inactive)
REMARK    1  A    between atoms: C2_2  and  C3_3 
REMARK    2  A    between atoms: C3_3  and  C4_4 
REMARK    3  A    between atoms: C4_4  and  C5_5 
REMARK    4  A    between atoms: C5_5  and  C6_6 
REMARK    5  A    between atoms: C6_6  and  C7_7 
REMARK    6  A    between atoms: C7_7  and  C8_8 
REMARK    7  A    between atoms: C8_8  and  C9_9 
REMARK    8  A    between atoms: C10_10  and  C11_11 
REMARK    9  A    between atoms: C11_11  and  C12_12 
REMARK   10  A    between atoms: C12_12  and  C13_13 
REMARK   11  A    between atoms: C13_13  and  C14_14 
REMARK   12  A    between atoms: C14_14  and  C15_15 
REMARK   13  A    between atoms: C16_16  and  C17_17 
REMARK   14  A    between atoms: C17_17  and  C18_18 
REMARK   15  A    between atoms: C19_19  and  C20_20 
REMARK   16  A    between atoms: C20_20  and  C21_21 
REMARK   17  A    between atoms: C21_21  and  O1_22 
REMARK   18  A    between atoms: C21_21  and  C26_27 
REMARK   19  A    between atoms: O1_22  and  C22_23 
REMARK   20  A    between atoms: C22_23  and  C23_24 
REMARK   21  A    between atoms: C23_24  and  C24_25 
ROOT
HETATM    1  C15 UNL     1      91.252   9.803   9.878  1.00  0.00    -0.030 C 
HETATM    2  C16 UNL     1      90.964  10.690   8.842  1.00  0.00    -0.027 C 
ENDROOT
BRANCH   2   3
HETATM    3  C17 UNL     1      91.125  10.036   7.527  1.00  0.00     0.053 C 
BRANCH   3   4
HETATM    4  C18 UNL     1      91.503  10.874   6.364  1.00  0.00    -0.027 C 
HETATM    5  C19 UNL     1      90.546  11.124   5.429  1.00  0.00    -0.024 C 
BRANCH   5   6
HETATM    6  C20 UNL     1      89.192  10.664   5.432  1.00  0.00     0.092 C 
BRANCH   6   7
HETATM    7  C21 UNL     1      88.430  10.922   4.102  1.00  0.00     0.060 C 
BRANCH   7   8
HETATM    8  O1  UNL     1      87.830   9.916   3.654  1.00  0.00    -0.354 OA
BRANCH   8   9
HETATM    9  C22 UNL     1      87.076   9.114   3.086  1.00  0.00     0.175 C 
BRANCH   9  10
HETATM   10  C23 UNL     1      85.694   9.758   2.822  1.00  0.00     0.026 C 
BRANCH  10  11
HETATM   11  C24 UNL     1      84.918   9.963   4.062  1.00  0.00    -0.002 C 
HETATM   12  C25 UNL     1      84.106  11.216   4.036  1.00  0.00     0.005 C 
ENDBRANCH  10  11
ENDBRANCH   9  10
ENDBRANCH   8   9
ENDBRANCH   7   8
BRANCH   7  13
HETATM   13  C26 UNL     1      87.830  12.275   4.169  1.00  0.00    -0.007 A 
HETATM   14  C27 UNL     1      87.231  12.705   5.391  1.00  0.00     0.014 A 
HETATM   15  C28 UNL     1      86.676  13.988   5.385  1.00  0.00     0.001 A 
HETATM   16  C29 UNL     1      86.679  14.815   4.294  1.00  0.00     0.000 A 
HETATM   17  C30 UNL     1      87.264  14.384   3.102  1.00  0.00     0.001 A 
HETATM   18  C31 UNL     1      87.808  13.119   3.127  1.00  0.00     0.014 A 
ENDBRANCH   7  13
ENDBRANCH   6   7
ENDBRANCH   5   6
ENDBRANCH   3   4
ENDBRANCH   2   3
BRANCH   1  19
HETATM   19  C14 UNL     1      91.654   8.470   9.559  1.00  0.00     0.027 C 
BRANCH  19  20
HETATM   20  C13 UNL     1      93.132   8.210   9.685  1.00  0.00     0.004 C 
BRANCH  20  21
HETATM   21  C12 UNL     1      93.910   7.885   8.658  1.00  0.00     0.004 C 
BRANCH  21  22
HETATM   22  C11 UNL     1      93.212   6.840   7.777  1.00  0.00     0.027 C 
BRANCH  22  23
HETATM   23  C10 UNL     1      94.060   5.671   7.902  1.00  0.00    -0.030 C 
HETATM   24  C9  UNL     1      94.531   4.749   8.602  1.00  0.00    -0.020 C 
BRANCH  24  25
HETATM   25  C8  UNL     1      94.178   4.622  10.121  1.00  0.00     0.106 C 
BRANCH  25  26
HETATM   26  C7  UNL     1      93.138   3.602  10.350  1.00  0.00    -0.179 C 
BRANCH  26  27
HETATM   27  C6  UNL     1      92.316   2.796  10.530  1.00  0.00     0.080 C 
BRANCH  27  28
HETATM   28  C5  UNL     1      92.607   1.645   9.306  1.00  0.00     0.011 C 
BRANCH  28  29
HETATM   29  C4  UNL     1      91.515   0.653   9.551  1.00  0.00     0.001 C 
BRANCH  29  30
HETATM   30  C3  UNL     1      90.503   0.824   8.396  1.00  0.00    -0.000 C 
BRANCH  30  31
HETATM   31  C2  UNL     1      89.131   1.175   8.874  1.00  0.00    -0.005 C 
HETATM   32  C1  UNL     1      89.018   2.694   8.819  1.00  0.00     0.005 C 
ENDBRANCH  30  31
ENDBRANCH  29  30
ENDBRANCH  28  29
ENDBRANCH  27  28
ENDBRANCH  26  27
ENDBRANCH  25  26
ENDBRANCH  24  25
ENDBRANCH  22  23
ENDBRANCH  21  22
ENDBRANCH  20  21
ENDBRANCH  19  20
ENDBRANCH   1  19
TORSDOF 21
ENDMDL
MODEL 2
REMARK VINA RESULT: -9.521142094      1.316      2.729
REMARK  21 active torsions:
REMARK  status: ('A' for Active; 'I' for Inactive)
REMARK    1  A    between atoms: C2_2  and  C3_3 
REMARK    2  A    between atoms: C3_3  and  C4_4 
REMARK    3  A    between atoms: C4_4  and  C5_5 
REMARK    4  A    between atoms: C5_5  and  C6_6 
REMARK    5  A    between atoms: C6_6  and  C7_7 
REMARK    6  A    between atoms: C7_7  and  C8_8 
REMARK    7  A    between atoms: C8_8  and  C9_9 
REMARK    8  A    between atoms: C10_10  and  C11_11 
REMARK    9  A    between atoms: C11_11  and  C12_12 
REMARK   10  A    between atoms: C12_12  and  C13_13 
REMARK   11  A    between atoms: C13_13  and  C14_14 
REMARK   12  A    between atoms: C14_14  and  C15_15 
REMARK   13  A    between atoms: C16_16  and  C17_17 
REMARK   14  A    between atoms: C17_17  and  C18_18 
REMARK   15  A    between atoms: C19_19  and  C20_20 
REMARK   16  A    between atoms: C20_20  and  C21_21 
REMARK   17  A    between atoms: C21_21  and  O1_22 
REMARK   18  A    between atoms: C21_21  and  C26_27 
REMARK   19  A    between atoms: O1_22  and  C22_23 
REMARK   20  A    between atoms: C22_23  and  C23_24 
REMARK   21  A    between atoms: C23_24  and  C24_25 
ROOT
HETATM    1  C15 UNL     1      91.596  10.433   9.054  1.00  0.00    -0.030 C 
HETATM    2  C16 UNL     1      90.541  11.003   8.344  1.00  0.00    -0.027 C 
ENDROOT
BRANCH   2   3
HETATM    3  C17 UNL     1      90.488  10.477   6.964  1.00  0.00     0.053 C 
BRANCH   3   4
HETATM    4  C18 UNL     1      90.571  11.440   5.839  1.00  0.00    -0.027 C 
HETATM    5  C19 UNL     1      89.411  11.784   5.216  1.00  0.00    -0.024 C 
BRANCH   5   6
HETATM    6  C20 UNL     1      88.094  11.317   5.520  1.00  0.00     0.092 C 
BRANCH   6   7
HETATM    7  C21 UNL     1      87.073  12.450   5.823  1.00  0.00     0.060 C 
BRANCH   7   8
HETATM    8  O1  UNL     1      87.491  13.600   5.553  1.00  0.00    -0.354 OA
BRANCH   8   9
HETATM    9  C22 UNL     1      87.777  14.692   5.042  1.00  0.00     0.175 C 
BRANCH   9  10
HETATM   10  C23 UNL     1      87.095  14.843   3.662  1.00  0.00     0.026 C 
BRANCH  10  11
HETATM   11  C24 UNL     1      87.418  13.731   2.745  1.00  0.00    -0.002 C 
HETATM   12  C25 UNL     1      86.202  13.073   2.180  1.00  0.00     0.005 C 
ENDBRANCH  10  11
ENDBRANCH   9  10
ENDBRANCH   8   9
ENDBRANCH   7   8
BRANCH   7  13
HETATM   13  C26 UNL     1      85.722  11.961   5.461  1.00  0.00    -0.007 A 
HETATM   14  C27 UNL     1      84.612  12.852   5.569  1.00  0.00     0.014 A 
HETATM   15  C28 UNL     1      83.365  12.326   5.221  1.00  0.00     0.001 A 
HETATM   16  C29 UNL     1      83.172  11.038   4.802  1.00  0.00     0.000 A 
HETATM   17  C30 UNL     1      84.262  10.171   4.704  1.00  0.00     0.001 A 
HETATM   18  C31 UNL     1      85.482  10.707   5.048  1.00  0.00     0.014 A 
ENDBRANCH   7  13
ENDBRANCH   6   7
ENDBRANCH   5   6
ENDBRANCH   3   4
ENDBRANCH   2   3
BRANCH   1  19
HETATM   19  C14 UNL     1      92.444   9.488   8.398  1.00  0.00     0.027 C 
BRANCH  19  20
HETATM   20  C13 UNL     1      93.098   8.487   9.312  1.00  0.00     0.004 C 
BRANCH  20  21
HETATM   21  C12 UNL     1      92.447   7.478   9.881  1.00  0.00     0.004 C 
BRANCH  21  22
HETATM   22  C11 UNL     1      92.078   6.426   8.827  1.00  0.00     0.027 C 
BRANCH  22  23
HETATM   23  C10 UNL     1      93.352   5.818   8.495  1.00  0.00    -0.030 C 
HETATM   24  C9  UNL     1      94.299   5.061   8.800  1.00  0.00    -0.020 C 
BRANCH  24  25
HETATM   25  C8  UNL     1      94.337   4.324  10.179  1.00  0.00     0.106 C 
BRANCH  25  26
HETATM   26  C7  UNL     1      93.164   3.448  10.355  1.00  0.00    -0.179 C 
BRANCH  26  27
HETATM   27  C6  UNL     1      92.238   2.754  10.492  1.00  0.00     0.080 C 
BRANCH  27  28
HETATM   28  C5  UNL     1      92.527   1.478   9.398  1.00  0.00     0.011 C 
BRANCH  28  29
HETATM   29  C4  UNL     1      91.330   0.610   9.615  1.00  0.00     0.001 C 
BRANCH  29  30
HETATM   30  C3  UNL     1      90.374   0.879   8.431  1.00  0.00    -0.000 C 
BRANCH  30  31
HETATM   31  C2  UNL     1      88.991   1.238   8.871  1.00  0.00    -0.005 C 
HETATM   32  C1  UNL     1      88.860   2.750   8.728  1.00  0.00     0.005 C 
ENDBRANCH  30  31
ENDBRANCH  29  30
ENDBRANCH  28  29
ENDBRANCH  27  28
ENDBRANCH  26  27
ENDBRANCH  25  26
ENDBRANCH  24  25
ENDBRANCH  22  23
ENDBRANCH  21  22
ENDBRANCH  20  21
ENDBRANCH  19  20
ENDBRANCH   1  19
TORSDOF 21
ENDMDL
MODEL 3
REMARK VINA RESULT: -9.502904829      1.547      4.461
REMARK  21 active torsions:
REMARK  status: ('A' for Active; 'I' for Inactive)
REMARK    1  A    between atoms: C2_2  and  C3_3 
REMARK    2  A    between atoms: C3_3  and  C4_4 
REMARK    3  A    between atoms: C4_4  and  C5_5 
REMARK    4  A    between atoms: C5_5  and  C6_6 
REMARK    5  A    between atoms: C6_6  and  C7_7 
REMARK    6  A    between atoms: C7_7  and  C8_8 
REMARK    7  A    between atoms: C8_8  and  C9_9 
REMARK    8  A    between atoms: C10_10  and  C11_11 
REMARK    9  A    between atoms: C11_11  and  C12_12 
REMARK   10  A    between atoms: C12_12  and  C13_13 
REMARK   11  A    between atoms: C13_13  and  C14_14 
REMARK   12  A    between atoms: C14_14  and  C15_15 
REMARK   13  A    between atoms: C16_16  and  C17_17 
REMARK   14  A    between atoms: C17_17  and  C18_18 
REMARK   15  A    between atoms: C19_19  and  C20_20 
REMARK   16  A    between atoms: C20_20  and  C21_21 
REMARK   17  A    between atoms: C21_21  and  O1_22 
REMARK   18  A    between atoms: C21_21  and  C26_27 
REMARK   19  A    between atoms: O1_22  and  C22_23 
REMARK   20  A    between atoms: C22_23  and  C23_24 
REMARK   21  A    between atoms: C23_24  and  C24_25 
ROOT
HETATM    1  C15 UNL     1      88.545  11.914   5.913  1.00  0.00    -0.030 C 
HETATM    2  C16 UNL     1      87.621  12.935   5.699  1.00  0.00    -0.027 C 
ENDROOT
BRANCH   2   3
HETATM    3  C17 UNL     1      87.955  13.701   4.481  1.00  0.00     0.053 C 
BRANCH   3   4
HETATM    4  C18 UNL     1      86.862  14.035   3.536  1.00  0.00    -0.027 C 
HETATM    5  C19 UNL     1      86.550  13.115   2.581  1.00  0.00    -0.024 C 
BRANCH   5   6
HETATM    6  C20 UNL     1      87.164  11.841   2.375  1.00  0.00     0.092 C 
BRANCH   6   7
HETATM    7  C21 UNL     1      86.376  10.648   2.985  1.00  0.00     0.060 C 
BRANCH   7   8
HETATM    8  O1  UNL     1      85.132  10.805   2.985  1.00  0.00    -0.354 OA
BRANCH   8   9
HETATM    9  C22 UNL     1      83.941  11.012   3.257  1.00  0.00     0.175 C 
BRANCH   9  10
HETATM   10  C23 UNL     1      83.673  10.755   4.758  1.00  0.00     0.026 C 
BRANCH  10  11
HETATM   11  C24 UNL     1      84.186  11.840   5.619  1.00  0.00    -0.002 C 
HETATM   12  C25 UNL     1      83.613  13.175   5.273  1.00  0.00     0.005 C 
ENDBRANCH  10  11
ENDBRANCH   9  10
ENDBRANCH   8   9
ENDBRANCH   7   8
BRANCH   7  13
HETATM   13  C26 UNL     1      87.046   9.393   2.573  1.00  0.00    -0.007 A 
HETATM   14  C27 UNL     1      88.020   8.812   3.440  1.00  0.00     0.014 A 
HETATM   15  C28 UNL     1      88.620   7.634   2.988  1.00  0.00     0.001 A 
HETATM   16  C29 UNL     1      88.327   7.040   1.791  1.00  0.00     0.000 A 
HETATM   17  C30 UNL     1      87.376   7.617   0.947  1.00  0.00     0.001 A 
HETATM   18  C31 UNL     1      86.793   8.775   1.410  1.00  0.00     0.014 A 
ENDBRANCH   7  13
ENDBRANCH   6   7
ENDBRANCH   5   6
ENDBRANCH   3   4
ENDBRANCH   2   3
BRANCH   1  19
HETATM   19  C14 UNL     1      89.632  11.758   5.000  1.00  0.00     0.027 C 
BRANCH  19  20
HETATM   20  C13 UNL     1      90.595  10.654   5.347  1.00  0.00     0.004 C 
BRANCH  20  21
HETATM   21  C12 UNL     1      90.345   9.724   6.263  1.00  0.00     0.004 C 
BRANCH  21  22
HETATM   22  C11 UNL     1      91.184   8.470   5.985  1.00  0.00     0.027 C 
BRANCH  22  23
HETATM   23  C10 UNL     1      91.892   8.252   7.232  1.00  0.00    -0.030 C 
HETATM   24  C9  UNL     1      92.783   7.659   7.878  1.00  0.00    -0.020 C 
BRANCH  24  25
HETATM   25  C8  UNL     1      93.675   6.561   7.210  1.00  0.00     0.106 C 
BRANCH  25  26
HETATM   26  C7  UNL     1      93.982   5.470   8.153  1.00  0.00    -0.179 C 
BRANCH  26  27
HETATM   27  C6  UNL     1      94.225   4.608   8.899  1.00  0.00     0.080 C 
BRANCH  27  28
HETATM   28  C5  UNL     1      92.715   4.256   9.609  1.00  0.00     0.011 C 
BRANCH  28  29
HETATM   29  C4  UNL     1      93.049   3.087  10.478  1.00  0.00     0.001 C 
BRANCH  29  30
HETATM   30  C3  UNL     1      91.918   2.053  10.274  1.00  0.00    -0.000 C 
BRANCH  30  31
HETATM   31  C2  UNL     1      92.301   0.952   9.339  1.00  0.00    -0.005 C 
HETATM   32  C1  UNL     1      91.038   0.553   8.585  1.00  0.00     0.005 C 
ENDBRANCH  30  31
ENDBRANCH  29  30
ENDBRANCH  28  29
ENDBRANCH  27  28
ENDBRANCH  26  27
ENDBRANCH  25  26
ENDBRANCH  24  25
ENDBRANCH  22  23
ENDBRANCH  21  22
ENDBRANCH  20  21
ENDBRANCH  19  20
ENDBRANCH   1  19
TORSDOF 21
ENDMDL
MODEL 4
REMARK VINA RESULT: -9.486765125      2.363      9.752
REMARK  21 active torsions:
REMARK  status: ('A' for Active; 'I' for Inactive)
REMARK    1  A    between atoms: C2_2  and  C3_3 
REMARK    2  A    between atoms: C3_3  and  C4_4 
REMARK    3  A    between atoms: C4_4  and  C5_5 
REMARK    4  A    between atoms: C5_5  and  C6_6 
REMARK    5  A    between atoms: C6_6  and  C7_7 
REMARK    6  A    between atoms: C7_7  and  C8_8 
REMARK    7  A    between atoms: C8_8  and  C9_9 
REMARK    8  A    between atoms: C10_10  and  C11_11 
REMARK    9  A    between atoms: C11_11  and  C12_12 
REMARK   10  A    between atoms: C12_12  and  C13_13 
REMARK   11  A    between atoms: C13_13  and  C14_14 
REMARK   12  A    between atoms: C14_14  and  C15_15 
REMARK   13  A    between atoms: C16_16  and  C17_17 
REMARK   14  A    between atoms: C17_17  and  C18_18 
REMARK   15  A    between atoms: C19_19  and  C20_20 
REMARK   16  A    between atoms: C20_20  and  C21_21 
REMARK   17  A    between atoms: C21_21  and  O1_22 
REMARK   18  A    between atoms: C21_21  and  C26_27 
REMARK   19  A    between atoms: O1_22  and  C22_23 
REMARK   20  A    between atoms: C22_23  and  C23_24 
REMARK   21  A    between atoms: C23_24  and  C24_25 
ROOT
HETATM    1  C15 UNL     1      88.759  12.039   5.497  1.00  0.00    -0.030 C 
HETATM    2  C16 UNL     1      89.712  11.344   6.240  1.00  0.00    -0.027 C 
ENDROOT
BRANCH   2   3
HETATM    3  C17 UNL     1      90.522  10.467   5.369  1.00  0.00     0.053 C 
BRANCH   3   4
HETATM    4  C18 UNL     1      90.094   9.058   5.194  1.00  0.00    -0.027 C 
HETATM    5  C19 UNL     1      90.906   8.086   5.693  1.00  0.00    -0.024 C 
BRANCH   5   6
HETATM    6  C20 UNL     1      92.149   8.263   6.378  1.00  0.00     0.092 C 
BRANCH   6   7
HETATM    7  C21 UNL     1      92.326   7.346   7.620  1.00  0.00     0.060 C 
BRANCH   7   8
HETATM    8  O1  UNL     1      93.202   6.459   7.479  1.00  0.00    -0.354 OA
BRANCH   8   9
HETATM    9  C22 UNL     1      94.233   5.801   7.284  1.00  0.00     0.175 C 
BRANCH   9  10
HETATM   10  C23 UNL     1      94.643   5.038   8.566  1.00  0.00     0.026 C 
BRANCH  10  11
HETATM   11  C24 UNL     1      93.604   4.092   9.019  1.00  0.00    -0.002 C 
HETATM   12  C25 UNL     1      93.305   4.215  10.478  1.00  0.00     0.005 C 
ENDBRANCH  10  11
ENDBRANCH   9  10
ENDBRANCH   8   9
ENDBRANCH   7   8
BRANCH   7  13
HETATM   13  C26 UNL     1      92.193   8.183   8.835  1.00  0.00    -0.007 A 
HETATM   14  C27 UNL     1      92.894   7.802  10.018  1.00  0.00     0.014 A 
HETATM   15  C28 UNL     1      92.718   8.630  11.130  1.00  0.00     0.001 A 
HETATM   16  C29 UNL     1      91.927   9.746  11.132  1.00  0.00     0.000 A 
HETATM   17  C30 UNL     1      91.241  10.110   9.971  1.00  0.00     0.001 A 
HETATM   18  C31 UNL     1      91.428   9.284   8.885  1.00  0.00     0.014 A 
ENDBRANCH   7  13
ENDBRANCH   6   7
ENDBRANCH   5   6
ENDBRANCH   3   4
ENDBRANCH   2   3
BRANCH   1  19
HETATM   19  C14 UNL     1      88.681  11.819   4.088  1.00  0.00     0.027 C 
BRANCH  19  20
HETATM   20  C13 UNL     1      88.287  13.028   3.281  1.00  0.00     0.004 C 
BRANCH  20  21
HETATM   21  C12 UNL     1      87.186  13.088   2.540  1.00  0.00     0.004 C 
BRANCH  21  22
HETATM   22  C11 UNL     1      86.377  14.342   2.896  1.00  0.00     0.027 C 
BRANCH  22  23
HETATM   23  C10 UNL     1      86.097  14.176   4.308  1.00  0.00    -0.030 C 
HETATM   24  C9  UNL     1      85.321  13.815   5.220  1.00  0.00    -0.020 C 
BRANCH  24  25
HETATM   25  C8  UNL     1      83.896  13.256   4.899  1.00  0.00     0.106 C 
BRANCH  25  26
HETATM   26  C7  UNL     1      83.962  12.107   3.977  1.00  0.00    -0.179 C 
BRANCH  26  27
HETATM   27  C6  UNL     1      84.014  11.200   3.247  1.00  0.00     0.080 C 
BRANCH  27  28
HETATM   28  C5  UNL     1      85.295  10.260   3.867  1.00  0.00     0.011 C 
BRANCH  28  29
HETATM   29  C4  UNL     1      85.718   9.483   2.663  1.00  0.00     0.001 C 
BRANCH  29  30
HETATM   30  C3  UNL     1      87.127   8.930   2.972  1.00  0.00    -0.000 C 
BRANCH  30  31
HETATM   31  C2  UNL     1      87.585   7.918   1.971  1.00  0.00    -0.005 C 
HETATM   32  C1  UNL     1      88.285   6.811   2.751  1.00  0.00     0.005 C 
ENDBRANCH  30  31
ENDBRANCH  29  30
ENDBRANCH  28  29
ENDBRANCH  27  28
ENDBRANCH  26  27
ENDBRANCH  25  26
ENDBRANCH  24  25
ENDBRANCH  22  23
ENDBRANCH  21  22
ENDBRANCH  20  21
ENDBRANCH  19  20
ENDBRANCH   1  19
TORSDOF 21
ENDMDL
MODEL 5
REMARK VINA RESULT: -9.482945100      1.633      3.223
REMARK  21 active torsions:
REMARK  status: ('A' for Active; 'I' for Inactive)
REMARK    1  A    between atoms: C2_2  and  C3_3 
REMARK    2  A    between atoms: C3_3  and  C4_4 
REMARK    3  A    between atoms: C4_4  and  C5_5 
REMARK    4  A    between atoms: C5_5  and  C6_6 
REMARK    5  A    between atoms: C6_6  and  C7_7 
REMARK    6  A    between atoms: C7_7  and  C8_8 
REMARK    7  A    between atoms: C8_8  and  C9_9 
REMARK    8  A    between atoms: C10_10  and  C11_11 
REMARK    9  A    between atoms: C11_11  and  C12_12 
REMARK   10  A    between atoms: C12_12  and  C13_13 
REMARK   11  A    between atoms: C13_13  and  C14_14 
REMARK   12  A    between atoms: C14_14  and  C15_15 
REMARK   13  A    between atoms: C16_16  and  C17_17 
REMARK   14  A    between atoms: C17_17  and  C18_18 
REMARK   15  A    between atoms: C19_19  and  C20_20 
REMARK   16  A    between atoms: C20_20  and  C21_21 
REMARK   17  A    between atoms: C21_21  and  O1_22 
REMARK   18  A    between atoms: C21_21  and  C26_27 
REMARK   19  A    between atoms: O1_22  and  C22_23 
REMARK   20  A    between atoms: C22_23  and  C23_24 
REMARK   21  A    between atoms: C23_24  and  C24_25 
ROOT
HETATM    1  C15 UNL     1      91.283   8.469   6.190  1.00  0.00    -0.030 C 
HETATM    2  C16 UNL     1      90.218   9.103   5.551  1.00  0.00    -0.027 C 
ENDROOT
BRANCH   2   3
HETATM    3  C17 UNL     1      90.581  10.481   5.164  1.00  0.00     0.053 C 
BRANCH   3   4
HETATM    4  C18 UNL     1      90.467  11.553   6.183  1.00  0.00    -0.027 C 
HETATM    5  C19 UNL     1      89.226  12.054   6.436  1.00  0.00    -0.024 C 
BRANCH   5   6
HETATM    6  C20 UNL     1      87.995  11.665   5.822  1.00  0.00     0.092 C 
BRANCH   6   7
HETATM    7  C21 UNL     1      86.886  12.754   5.874  1.00  0.00     0.060 C 
BRANCH   7   8
HETATM    8  O1  UNL     1      87.261  13.883   5.478  1.00  0.00    -0.354 OA
BRANCH   8   9
HETATM    9  C22 UNL     1      87.657  14.869   4.840  1.00  0.00     0.175 C 
BRANCH   9  10
HETATM   10  C23 UNL     1      87.058  14.871   3.414  1.00  0.00     0.026 C 
BRANCH  10  11
HETATM   11  C24 UNL     1      87.395  13.650   2.656  1.00  0.00    -0.002 C 
HETATM   12  C25 UNL     1      86.188  12.942   2.131  1.00  0.00     0.005 C 
ENDBRANCH  10  11
ENDBRANCH   9  10
ENDBRANCH   8   9
ENDBRANCH   7   8
BRANCH   7  13
HETATM   13  C26 UNL     1      85.605  12.127   5.476  1.00  0.00    -0.007 A 
HETATM   14  C27 UNL     1      84.430  12.935   5.411  1.00  0.00     0.014 A 
HETATM   15  C28 UNL     1      83.253  12.280   5.037  1.00  0.00     0.001 A 
HETATM   16  C29 UNL     1      83.183  10.945   4.747  1.00  0.00     0.000 A 
HETATM   17  C30 UNL     1      84.336  10.161   4.816  1.00  0.00     0.001 A 
HETATM   18  C31 UNL     1      85.486  10.823   5.183  1.00  0.00     0.014 A 
ENDBRANCH   7  13
ENDBRANCH   6   7
ENDBRANCH   5   6
ENDBRANCH   3   4
ENDBRANCH   2   3
BRANCH   1  19
HETATM   19  C14 UNL     1      92.500   9.189   6.391  1.00  0.00     0.027 C 
BRANCH  19  20
HETATM   20  C13 UNL     1      92.910   9.347   7.831  1.00  0.00     0.004 C 
BRANCH  20  21
HETATM   21  C12 UNL     1      92.061   9.653   8.806  1.00  0.00     0.004 C 
BRANCH  21  22
HETATM   22  C11 UNL     1      92.329   8.774  10.035  1.00  0.00     0.027 C 
BRANCH  22  23
HETATM   23  C10 UNL     1      91.839   7.470   9.634  1.00  0.00    -0.030 C 
HETATM   24  C9  UNL     1      92.026   6.242   9.498  1.00  0.00    -0.020 C 
BRANCH  24  25
HETATM   25  C8  UNL     1      93.399   5.585   9.859  1.00  0.00     0.106 C 
BRANCH  25  26
HETATM   26  C7  UNL     1      93.228   4.194  10.318  1.00  0.00    -0.179 C 
BRANCH  26  27
HETATM   27  C6  UNL     1      93.094   3.095  10.680  1.00  0.00     0.080 C 
BRANCH  27  28
HETATM   28  C5  UNL     1      92.058   2.411   9.511  1.00  0.00     0.011 C 
BRANCH  28  29
HETATM   29  C4  UNL     1      92.247   0.948   9.752  1.00  0.00     0.001 C 
BRANCH  29  30
HETATM   30  C3  UNL     1      90.996   0.245   9.178  1.00  0.00    -0.000 C 
BRANCH  30  31
HETATM   31  C2  UNL     1      89.990   1.207   8.632  1.00  0.00    -0.005 C 
HETATM   32  C1  UNL     1      88.674   0.924   9.346  1.00  0.00     0.005 C 
ENDBRANCH  30  31
ENDBRANCH  29  30
ENDBRANCH  28  29
ENDBRANCH  27  28
ENDBRANCH  26  27
ENDBRANCH  25  26
ENDBRANCH  24  25
ENDBRANCH  22  23
ENDBRANCH  21  22
ENDBRANCH  20  21
ENDBRANCH  19  20
ENDBRANCH   1  19
TORSDOF 21
ENDMDL
