MODEL 1
REMARK VINA RESULT: -7.923274091      0.000      0.000
REMARK  6 active torsions:
REMARK  status: ('A' for Active; 'I' for Inactive)
REMARK    1  A    between atoms: C3_3  and  N1_4 
REMARK       I    between atoms: N1_4  and  C4_6 
REMARK    2  A    between atoms: C20_26  and  O1_27 
REMARK    3  A    between atoms: C20_26  and  C21_29 
REMARK    4  A    between atoms: C21_29  and  O2_30 
REMARK    5  A    between atoms: O2_30  and  C22_31 
REMARK    6  A    between atoms: C22_31  and  C23_32 
ROOT
HETATM    1  C1  UNL     1       4.216  26.307 -10.026  1.00  0.00     0.012 C 
HETATM    2  C2  UNL     1       5.387  26.390  -9.047  1.00  0.00     0.009 C 
HETATM    3  C3  UNL     1       6.041  27.726  -9.091  1.00  0.00     0.088 C 
HETATM    4  C5  UNL     1       5.167  28.718  -8.387  1.00  0.00     0.026 C 
HETATM    5  C6  UNL     1       4.874  28.331  -6.962  1.00  0.00     0.012 C 
HETATM    6  C7  UNL     1       4.402  26.930  -6.791  1.00  0.00    -0.036 C 
HETATM    7  C8  UNL     1       2.893  26.937  -7.097  1.00  0.00     0.016 C 
HETATM    8  C9  UNL     1       5.015  25.915  -7.672  1.00  0.00    -0.000 C 
HETATM    9  C10 UNL     1       6.214  25.207  -7.083  1.00  0.00     0.006 C 
HETATM   10  C11 UNL     1       6.884  25.983  -6.008  1.00  0.00     0.006 C 
HETATM   11  C12 UNL     1       5.900  26.204  -4.893  1.00  0.00    -0.005 C 
HETATM   12  C13 UNL     1       4.522  26.530  -5.335  1.00  0.00    -0.002 C 
HETATM   13  C14 UNL     1       3.970  27.593  -4.405  1.00  0.00     0.007 C 
HETATM   14  C15 UNL     1       4.291  27.104  -2.985  1.00  0.00     0.013 C 
HETATM   15  C16 UNL     1       5.720  27.458  -2.722  1.00  0.00    -0.007 C 
HETATM   16  C17 UNL     1       5.848  28.904  -2.299  1.00  0.00     0.019 C 
HETATM   17  C18 UNL     1       6.518  27.193  -3.950  1.00  0.00     0.004 C 
HETATM   18  C19 UNL     1       7.551  26.485  -3.060  1.00  0.00     0.046 C 
HETATM   19  C20 UNL     1       6.521  26.475  -1.941  1.00  0.00     0.087 C 
ENDROOT
BRANCH  19  20
HETATM   20  O1  UNL     1       5.845  25.291  -1.764  1.00  0.00    -0.387 OA
ATOM     21  H1  UNL     1       5.776  25.059  -0.846  1.00  0.00     0.210 HD
ENDBRANCH  19  20
BRANCH  19  22
HETATM   22  C21 UNL     1       7.152  26.972  -0.672  1.00  0.00     0.206 C 
BRANCH  22  23
HETATM   23  O2  UNL     1       6.749  26.274   0.455  1.00  0.00    -0.381 OA
BRANCH  23  24
HETATM   24  C22 UNL     1       6.127  27.204   1.302  1.00  0.00     0.240 C 
BRANCH  24  25
HETATM   25  C23 UNL     1       7.193  27.837   2.102  1.00  0.00     0.110 C 
HETATM   26  N4  UNL     1       8.054  27.068   2.669  1.00  0.00    -0.389 N 
ATOM     27  H42 UNL     1       8.038  26.051   2.595  1.00  0.00     0.157 HD
ATOM     28  H41 UNL     1       8.791  27.505   3.223  1.00  0.00     0.157 HD
HETATM   29  N5  UNL     1       7.215  29.246   2.205  1.00  0.00    -0.086 NA
ENDBRANCH  24  25
ENDBRANCH  23  24
ENDBRANCH  22  23
ENDBRANCH  19  22
BRANCH   3  30
HETATM   30  N1  UNL     1       6.187  28.116 -10.477  1.00  0.00    -0.360 N 
HETATM   31  C4  UNL     1       7.097  29.152 -10.867  1.00  0.00     0.182 C 
HETATM   32  N2  UNL     1       7.641  29.070 -12.030  1.00  0.00    -0.374 N 
HETATM   33  N3  UNL     1       7.417  30.244 -10.043  1.00  0.00    -0.064 NA
ATOM     34  H22 UNL     1       7.409  28.278 -12.629  1.00  0.00     0.158 HD
ATOM     35  H21 UNL     1       8.289  29.808 -12.308  1.00  0.00     0.158 HD
ATOM     36  H1  UNL     1       5.632  27.645 -11.191  1.00  0.00     0.162 HD
ENDBRANCH   3  30
TORSDOF 6
ENDMDL
MODEL 2
REMARK VINA RESULT: -7.654273358      6.007      9.053
REMARK  6 active torsions:
REMARK  status: ('A' for Active; 'I' for Inactive)
REMARK    1  A    between atoms: C3_3  and  N1_4 
REMARK       I    between atoms: N1_4  and  C4_6 
REMARK    2  A    between atoms: C20_26  and  O1_27 
REMARK    3  A    between atoms: C20_26  and  C21_29 
REMARK    4  A    between atoms: C21_29  and  O2_30 
REMARK    5  A    between atoms: O2_30  and  C22_31 
REMARK    6  A    between atoms: C22_31  and  C23_32 
ROOT
HETATM    1  C1  UNL     1      -1.772  34.877  -5.814  1.00  0.00     0.012 C 
HETATM    2  C2  UNL     1      -0.736  34.193  -6.706  1.00  0.00     0.009 C 
HETATM    3  C3  UNL     1       0.629  34.735  -6.470  1.00  0.00     0.088 C 
HETATM    4  C5  UNL     1       1.149  34.195  -5.172  1.00  0.00     0.026 C 
HETATM    5  C6  UNL     1       1.174  32.692  -5.132  1.00  0.00     0.012 C 
HETATM    6  C7  UNL     1      -0.099  32.045  -5.552  1.00  0.00    -0.036 C 
HETATM    7  C8  UNL     1      -1.024  32.059  -4.321  1.00  0.00     0.016 C 
HETATM    8  C9  UNL     1      -0.838  32.696  -6.653  1.00  0.00    -0.000 C 
HETATM    9  C10 UNL     1      -0.525  32.158  -8.031  1.00  0.00     0.006 C 
HETATM   10  C11 UNL     1       0.800  31.490  -8.112  1.00  0.00     0.006 C 
HETATM   11  C12 UNL     1       0.807  30.325  -7.162  1.00  0.00    -0.005 C 
HETATM   12  C13 UNL     1       0.153  30.582  -5.856  1.00  0.00    -0.002 C 
HETATM   13  C14 UNL     1       0.978  29.910  -4.777  1.00  0.00     0.007 C 
HETATM   14  C15 UNL     1       1.260  28.492  -5.297  1.00  0.00     0.013 C 
HETATM   15  C16 UNL     1       2.402  28.607  -6.255  1.00  0.00    -0.007 C 
HETATM   16  C17 UNL     1       3.722  28.644  -5.519  1.00  0.00     0.019 C 
HETATM   17  C18 UNL     1       2.221  29.832  -7.081  1.00  0.00     0.004 C 
HETATM   18  C19 UNL     1       2.546  28.981  -8.317  1.00  0.00     0.046 C 
HETATM   19  C20 UNL     1       2.353  27.737  -7.464  1.00  0.00     0.087 C 
ENDROOT
BRANCH  19  20
HETATM   20  O1  UNL     1       1.137  27.110  -7.592  1.00  0.00    -0.387 OA
ATOM     21  H1  UNL     1       0.571  27.559  -8.208  1.00  0.00     0.210 HD
ENDBRANCH  19  20
BRANCH  19  22
HETATM   22  C21 UNL     1       3.508  26.800  -7.671  1.00  0.00     0.206 C 
BRANCH  22  23
HETATM   23  O2  UNL     1       3.396  26.029  -8.817  1.00  0.00    -0.381 OA
BRANCH  23  24
HETATM   24  C22 UNL     1       4.558  26.258  -9.570  1.00  0.00     0.240 C 
BRANCH  24  25
HETATM   25  C23 UNL     1       4.185  26.121 -10.990  1.00  0.00     0.110 C 
HETATM   26  N4  UNL     1       4.192  27.182 -11.717  1.00  0.00    -0.389 N 
ATOM     27  H42 UNL     1       4.439  28.106 -11.365  1.00  0.00     0.157 HD
ATOM     28  H41 UNL     1       3.934  27.087 -12.700  1.00  0.00     0.157 HD
HETATM   29  N5  UNL     1       3.842  24.840 -11.478  1.00  0.00    -0.086 NA
ENDBRANCH  24  25
ENDBRANCH  23  24
ENDBRANCH  22  23
ENDBRANCH  19  22
BRANCH   3  30
HETATM   30  N1  UNL     1       0.540  36.176  -6.388  1.00  0.00    -0.360 N 
HETATM   31  C4  UNL     1       1.235  37.020  -7.314  1.00  0.00     0.182 C 
HETATM   32  N2  UNL     1       0.706  38.155  -7.610  1.00  0.00    -0.374 N 
HETATM   33  N3  UNL     1       2.458  36.667  -7.907  1.00  0.00    -0.064 NA
ATOM     34  H22 UNL     1      -0.183  38.412  -7.179  1.00  0.00     0.158 HD
ATOM     35  H21 UNL     1       1.200  38.756  -8.269  1.00  0.00     0.158 HD
ATOM     36  H1  UNL     1      -0.029  36.601  -5.655  1.00  0.00     0.162 HD
ENDBRANCH   3  30
TORSDOF 6
ENDMDL
MODEL 3
REMARK VINA RESULT: -7.577944705      8.533     10.894
REMARK  6 active torsions:
REMARK  status: ('A' for Active; 'I' for Inactive)
REMARK    1  A    between atoms: C3_3  and  N1_4 
REMARK       I    between atoms: N1_4  and  C4_6 
REMARK    2  A    between atoms: C20_26  and  O1_27 
REMARK    3  A    between atoms: C20_26  and  C21_29 
REMARK    4  A    between atoms: C21_29  and  O2_30 
REMARK    5  A    between atoms: O2_30  and  C22_31 
REMARK    6  A    between atoms: C22_31  and  C23_32 
ROOT
HETATM    1  C1  UNL     1       1.002  39.790  -5.938  1.00  0.00     0.012 C 
HETATM    2  C2  UNL     1       1.782  38.477  -5.862  1.00  0.00     0.009 C 
HETATM    3  C3  UNL     1       2.218  38.181  -4.470  1.00  0.00     0.088 C 
HETATM    4  C5  UNL     1       1.035  37.715  -3.679  1.00  0.00     0.026 C 
HETATM    5  C6  UNL     1       0.367  36.508  -4.280  1.00  0.00     0.012 C 
HETATM    6  C7  UNL     1       0.071  36.631  -5.734  1.00  0.00    -0.036 C 
HETATM    7  C8  UNL     1      -1.250  37.413  -5.847  1.00  0.00     0.016 C 
HETATM    8  C9  UNL     1       1.069  37.350  -6.552  1.00  0.00    -0.000 C 
HETATM    9  C10 UNL     1       2.111  36.468  -7.202  1.00  0.00     0.006 C 
HETATM   10  C11 UNL     1       2.290  35.166  -6.509  1.00  0.00     0.006 C 
HETATM   11  C12 UNL     1       0.985  34.421  -6.544  1.00  0.00    -0.005 C 
HETATM   12  C13 UNL     1      -0.217  35.259  -6.309  1.00  0.00    -0.002 C 
HETATM   13  C14 UNL     1      -1.179  34.469  -5.445  1.00  0.00     0.007 C 
HETATM   14  C15 UNL     1      -1.254  33.073  -6.082  1.00  0.00     0.013 C 
HETATM   15  C16 UNL     1      -0.046  32.324  -5.616  1.00  0.00    -0.007 C 
HETATM   16  C17 UNL     1      -0.266  31.752  -4.234  1.00  0.00     0.019 C 
HETATM   17  C18 UNL     1       1.127  33.241  -5.629  1.00  0.00     0.004 C 
HETATM   18  C19 UNL     1       1.918  32.130  -6.336  1.00  0.00     0.046 C 
HETATM   19  C20 UNL     1       0.601  31.417  -6.604  1.00  0.00     0.087 C 
ENDROOT
BRANCH  19  20
HETATM   20  O1  UNL     1       0.081  31.581  -7.866  1.00  0.00    -0.387 OA
ATOM     21  H1  UNL     1       0.624  31.170  -8.527  1.00  0.00     0.210 HD
ENDBRANCH  19  20
BRANCH  19  22
HETATM   22  C21 UNL     1       0.723  29.971  -6.216  1.00  0.00     0.206 C 
BRANCH  22  23
HETATM   23  O2  UNL     1       0.782  29.111  -7.302  1.00  0.00    -0.381 OA
BRANCH  23  24
HETATM   24  C22 UNL     1       1.788  28.175  -7.017  1.00  0.00     0.240 C 
BRANCH  24  25
HETATM   25  C23 UNL     1       2.604  28.035  -8.238  1.00  0.00     0.110 C 
HETATM   26  N4  UNL     1       2.766  29.078  -8.974  1.00  0.00    -0.389 N 
ATOM     27  H42 UNL     1       2.362  29.989  -8.758  1.00  0.00     0.157 HD
ATOM     28  H41 UNL     1       3.330  28.981  -9.818  1.00  0.00     0.157 HD
HETATM   29  N5  UNL     1       3.163  26.772  -8.537  1.00  0.00    -0.086 NA
ENDBRANCH  24  25
ENDBRANCH  23  24
ENDBRANCH  22  23
ENDBRANCH  19  22
BRANCH   3  30
HETATM   30  N1  UNL     1       2.735  39.399  -3.886  1.00  0.00    -0.360 N 
HETATM   31  C4  UNL     1       4.132  39.712  -3.928  1.00  0.00     0.182 C 
HETATM   32  N2  UNL     1       4.472  40.952  -3.975  1.00  0.00    -0.374 N 
HETATM   33  N3  UNL     1       5.139  38.732  -3.920  1.00  0.00    -0.064 NA
ATOM     34  H22 UNL     1       3.741  41.664  -3.981  1.00  0.00     0.158 HD
ATOM     35  H21 UNL     1       5.467  41.175  -4.005  1.00  0.00     0.158 HD
ATOM     36  H1  UNL     1       2.091  40.050  -3.434  1.00  0.00     0.162 HD
ENDBRANCH   3  30
TORSDOF 6
ENDMDL
MODEL 4
REMARK VINA RESULT: -7.548000682      9.561     11.574
REMARK  6 active torsions:
REMARK  status: ('A' for Active; 'I' for Inactive)
REMARK    1  A    between atoms: C3_3  and  N1_4 
REMARK       I    between atoms: N1_4  and  C4_6 
REMARK    2  A    between atoms: C20_26  and  O1_27 
REMARK    3  A    between atoms: C20_26  and  C21_29 
REMARK    4  A    between atoms: C21_29  and  O2_30 
REMARK    5  A    between atoms: O2_30  and  C22_31 
REMARK    6  A    between atoms: C22_31  and  C23_32 
ROOT
HETATM    1  C1  UNL     1       7.144  39.491  -8.895  1.00  0.00     0.012 C 
HETATM    2  C2  UNL     1       6.460  38.718  -7.767  1.00  0.00     0.009 C 
HETATM    3  C3  UNL     1       5.887  39.635  -6.746  1.00  0.00     0.088 C 
HETATM    4  C5  UNL     1       4.641  40.258  -7.297  1.00  0.00     0.026 C 
HETATM    5  C6  UNL     1       3.614  39.242  -7.715  1.00  0.00     0.012 C 
HETATM    6  C7  UNL     1       4.144  38.155  -8.585  1.00  0.00    -0.036 C 
HETATM    7  C8  UNL     1       4.168  38.715 -10.019  1.00  0.00     0.016 C 
HETATM    8  C9  UNL     1       5.509  37.678  -8.286  1.00  0.00    -0.000 C 
HETATM    9  C10 UNL     1       5.575  36.484  -7.361  1.00  0.00     0.006 C 
HETATM   10  C11 UNL     1       4.367  36.336  -6.509  1.00  0.00     0.006 C 
HETATM   11  C12 UNL     1       3.171  36.149  -7.401  1.00  0.00    -0.005 C 
HETATM   12  C13 UNL     1       3.159  37.004  -8.613  1.00  0.00    -0.002 C 
HETATM   13  C14 UNL     1       1.737  37.477  -8.840  1.00  0.00     0.007 C 
HETATM   14  C15 UNL     1       0.860  36.223  -8.702  1.00  0.00     0.013 C 
HETATM   15  C16 UNL     1       0.668  35.994  -7.237  1.00  0.00    -0.007 C 
HETATM   16  C17 UNL     1      -0.433  36.875  -6.692  1.00  0.00     0.019 C 
HETATM   17  C18 UNL     1       1.953  36.256  -6.533  1.00  0.00     0.004 C 
HETATM   18  C19 UNL     1       1.742  34.939  -5.771  1.00  0.00     0.046 C 
HETATM   19  C20 UNL     1       0.658  34.577  -6.776  1.00  0.00     0.087 C 
ENDROOT
BRANCH  19  20
HETATM   20  O1  UNL     1       1.037  33.713  -7.775  1.00  0.00    -0.387 OA
ATOM     21  H1  UNL     1       0.569  32.888  -7.725  1.00  0.00     0.210 HD
ENDBRANCH  19  20
BRANCH  19  22
HETATM   22  C21 UNL     1      -0.569  34.111  -6.047  1.00  0.00     0.206 C 
BRANCH  22  23
HETATM   23  O2  UNL     1      -0.739  32.735  -6.075  1.00  0.00    -0.381 OA
BRANCH  23  24
HETATM   24  C22 UNL     1      -0.682  32.297  -4.743  1.00  0.00     0.240 C 
BRANCH  24  25
HETATM   25  C23 UNL     1       0.569  31.531  -4.596  1.00  0.00     0.110 C 
HETATM   26  N4  UNL     1       1.176  31.160  -5.668  1.00  0.00    -0.389 N 
ATOM     27  H42 UNL     1       0.838  31.366  -6.608  1.00  0.00     0.157 HD
ATOM     28  H41 UNL     1       2.042  30.630  -5.567  1.00  0.00     0.157 HD
HETATM   29  N5  UNL     1       1.038  31.244  -3.294  1.00  0.00    -0.086 NA
ENDBRANCH  24  25
ENDBRANCH  23  24
ENDBRANCH  22  23
ENDBRANCH  19  22
BRANCH   3  30
HETATM   30  N1  UNL     1       6.857  40.672  -6.468  1.00  0.00    -0.360 N 
HETATM   31  C4  UNL     1       7.025  41.199  -5.146  1.00  0.00     0.182 C 
HETATM   32  N2  UNL     1       8.196  41.614  -4.807  1.00  0.00    -0.374 N 
HETATM   33  N3  UNL     1       5.979  41.285  -4.214  1.00  0.00    -0.064 NA
ATOM     34  H22 UNL     1       8.956  41.552  -5.484  1.00  0.00     0.158 HD
ATOM     35  H21 UNL     1       8.316  41.990  -3.867  1.00  0.00     0.158 HD
ATOM     36  H1  UNL     1       7.434  41.034  -7.228  1.00  0.00     0.162 HD
ENDBRANCH   3  30
TORSDOF 6
ENDMDL
MODEL 5
REMARK VINA RESULT: -7.545244318      9.313     11.624
REMARK  6 active torsions:
REMARK  status: ('A' for Active; 'I' for Inactive)
REMARK    1  A    between atoms: C3_3  and  N1_4 
REMARK       I    between atoms: N1_4  and  C4_6 
REMARK    2  A    between atoms: C20_26  and  O1_27 
REMARK    3  A    between atoms: C20_26  and  C21_29 
REMARK    4  A    between atoms: C21_29  and  O2_30 
REMARK    5  A    between atoms: O2_30  and  C22_31 
REMARK    6  A    between atoms: C22_31  and  C23_32 
ROOT
HETATM    1  C1  UNL     1       0.724  40.180  -6.634  1.00  0.00     0.012 C 
HETATM    2  C2  UNL     1       0.612  38.988  -5.684  1.00  0.00     0.009 C 
HETATM    3  C3  UNL     1      -0.783  38.808  -5.197  1.00  0.00     0.088 C 
HETATM    4  C5  UNL     1      -1.610  38.219  -6.298  1.00  0.00     0.026 C 
HETATM    5  C6  UNL     1      -1.065  36.911  -6.803  1.00  0.00     0.012 C 
HETATM    6  C7  UNL     1       0.388  36.935  -7.129  1.00  0.00    -0.036 C 
HETATM    7  C8  UNL     1       0.508  37.528  -8.544  1.00  0.00     0.016 C 
HETATM    8  C9  UNL     1       1.248  37.749  -6.246  1.00  0.00    -0.000 C 
HETATM    9  C10 UNL     1       1.880  36.990  -5.101  1.00  0.00     0.006 C 
HETATM   10  C11 UNL     1       1.142  35.752  -4.741  1.00  0.00     0.006 C 
HETATM   11  C12 UNL     1       1.128  34.838  -5.934  1.00  0.00    -0.005 C 
HETATM   12  C13 UNL     1       0.906  35.516  -7.235  1.00  0.00    -0.002 C 
HETATM   13  C14 UNL     1      -0.003  34.638  -8.073  1.00  0.00     0.007 C 
HETATM   14  C15 UNL     1       0.580  33.221  -7.966  1.00  0.00     0.013 C 
HETATM   15  C16 UNL     1       0.106  32.660  -6.663  1.00  0.00    -0.007 C 
HETATM   16  C17 UNL     1      -1.300  32.118  -6.789  1.00  0.00     0.019 C 
HETATM   17  C18 UNL     1       0.172  33.724  -5.624  1.00  0.00     0.004 C 
HETATM   18  C19 UNL     1       0.849  32.703  -4.698  1.00  0.00     0.046 C 
HETATM   19  C20 UNL     1       1.069  31.809  -5.909  1.00  0.00     0.087 C 
ENDROOT
BRANCH  19  20
HETATM   20  O1  UNL     1       2.327  31.853  -6.461  1.00  0.00    -0.387 OA
ATOM     21  H1  UNL     1       3.003  31.705  -5.810  1.00  0.00     0.210 HD
ENDBRANCH  19  20
BRANCH  19  22
HETATM   22  C21 UNL     1       0.629  30.409  -5.590  1.00  0.00     0.206 C 
BRANCH  22  23
HETATM   23  O2  UNL     1       1.559  29.444  -5.943  1.00  0.00    -0.381 OA
BRANCH  23  24
HETATM   24  C22 UNL     1       0.981  28.691  -6.977  1.00  0.00     0.240 C 
BRANCH  24  25
HETATM   25  C23 UNL     1       2.040  28.447  -7.974  1.00  0.00     0.110 C 
HETATM   26  N4  UNL     1       2.523  29.463  -8.598  1.00  0.00    -0.389 N 
ATOM     27  H42 UNL     1       2.214  30.421  -8.439  1.00  0.00     0.157 HD
ATOM     28  H41 UNL     1       3.256  29.294  -9.287  1.00  0.00     0.157 HD
HETATM   29  N5  UNL     1       2.469  27.118  -8.194  1.00  0.00    -0.086 NA
ENDBRANCH  24  25
ENDBRANCH  23  24
ENDBRANCH  22  23
ENDBRANCH  19  22
BRANCH   3  30
HETATM   30  N1  UNL     1      -1.313  40.107  -4.843  1.00  0.00    -0.360 N 
HETATM   31  C4  UNL     1      -0.968  40.740  -3.605  1.00  0.00     0.182 C 
HETATM   32  N2  UNL     1      -0.928  42.026  -3.575  1.00  0.00    -0.374 N 
HETATM   33  N3  UNL     1      -0.676  40.025  -2.432  1.00  0.00    -0.064 NA
ATOM     34  H22 UNL     1      -1.141  42.546  -4.427  1.00  0.00     0.158 HD
ATOM     35  H21 UNL     1      -0.683  42.477  -2.694  1.00  0.00     0.158 HD
ATOM     36  H1  UNL     1      -1.945  40.582  -5.488  1.00  0.00     0.162 HD
ENDBRANCH   3  30
TORSDOF 6
ENDMDL
