MODEL 1
REMARK VINA RESULT: -9.940168258      0.000      0.000
REMARK  7 active torsions:
REMARK  status: ('A' for Active; 'I' for Inactive)
REMARK    1  A    between atoms: C3_5  and  N2_6 
REMARK       I    between atoms: N2_6  and  C4_8 
REMARK       I    between atoms: C4_8  and  N3_10 
REMARK    2  A    between atoms: N3_10  and  C5_12 
REMARK    3  A    between atoms: C12_21  and  C13_22 
REMARK    4  A    between atoms: C13_22  and  N5_24 
REMARK    5  A    between atoms: C13_22  and  C15_28 
REMARK    6  A    between atoms: C15_28  and  C16_29 
REMARK    7  A    between atoms: C18_35  and  C19_36 
ROOT
HETATM    1  C1  UNL     1       2.369  28.323  -9.612  1.00  0.00     0.069 C 
HETATM    2  C2  UNL     1       2.713  28.182  -8.195  1.00  0.00     0.016 A 
HETATM    3  N1  UNL     1       1.961  28.749  -7.229  1.00  0.00    -0.344 N 
ATOM      4  H1  UNL     1       1.129  29.260  -7.523  1.00  0.00     0.167 HD
HETATM    5  C3  UNL     1       2.217  28.697  -5.916  1.00  0.00     0.139 A 
HETATM    6  C11 UNL     1       3.379  27.978  -5.558  1.00  0.00     0.106 A 
HETATM    7  N4  UNL     1       3.920  27.734  -4.362  1.00  0.00    -0.339 N 
ATOM      8  H4  UNL     1       3.549  28.052  -3.467  1.00  0.00     0.167 HD
HETATM    9  C12 UNL     1       5.028  27.006  -4.530  1.00  0.00     0.119 A 
HETATM   10  N6  UNL     1       5.205  26.779  -5.826  1.00  0.00    -0.341 N 
ATOM     11  H6  UNL     1       5.968  26.251  -6.249  1.00  0.00     0.167 HD
HETATM   12  C17 UNL     1       4.179  27.382  -6.482  1.00  0.00     0.073 A 
HETATM   13  C18 UNL     1       3.854  27.476  -7.837  1.00  0.00    -0.003 A 
ENDROOT
BRANCH   5  14
HETATM   14  N2  UNL     1       1.545  29.225  -4.982  1.00  0.00    -0.293 N 
HETATM   15  C4  UNL     1       0.750  30.302  -4.779  1.00  0.00     0.322 C 
HETATM   16  O1  UNL     1      -0.221  30.177  -3.942  1.00  0.00    -0.247 OA
HETATM   17  N3  UNL     1       0.871  31.558  -5.386  1.00  0.00    -0.338 N 
ATOM     18  H3  UNL     1       1.618  31.723  -6.062  1.00  0.00     0.164 HD
ATOM     19  H2  UNL     1       1.627  28.675  -4.127  1.00  0.00     0.172 HD
BRANCH  17  20
HETATM   20  C5  UNL     1      -0.077  32.650  -5.057  1.00  0.00     0.086 C 
HETATM   21  C6  UNL     1      -1.172  32.573  -6.073  1.00  0.00     0.025 C 
HETATM   22  C7  UNL     1      -1.840  33.850  -6.422  1.00  0.00     0.002 C 
HETATM   23  C8  UNL     1      -1.549  34.882  -5.371  1.00  0.00     0.000 C 
HETATM   24  C9  UNL     1      -0.060  35.132  -5.389  1.00  0.00     0.002 C 
HETATM   25  C10 UNL     1       0.728  33.889  -5.055  1.00  0.00     0.025 C 
ENDBRANCH  17  20
ENDBRANCH   5  14
BRANCH  13  26
HETATM   26  C19 UNL     1       4.647  26.862  -8.883  1.00  0.00     0.015 C 
HETATM   27  C20 UNL     1       5.978  27.516  -9.186  1.00  0.00     0.015 C 
HETATM   28  C21 UNL     1       4.854  25.349  -8.698  1.00  0.00     0.015 C 
ENDBRANCH  13  26
BRANCH   9  29
HETATM   29  C13 UNL     1       5.886  26.561  -3.392  1.00  0.00     0.187 C 
HETATM   30  C14 UNL     1       6.342  25.143  -3.523  1.00  0.00     0.055 C 
BRANCH  29  31
HETATM   31  N5  UNL     1       5.104  26.668  -2.151  1.00  0.00    -0.063 N 
ATOM     32  H53 UNL     1       5.357  27.486  -1.598  1.00  0.00     0.275 HD
ATOM     33  H52 UNL     1       4.128  26.912  -2.323  1.00  0.00     0.275 HD
ATOM     34  H51 UNL     1       5.204  25.796  -1.630  1.00  0.00     0.275 HD
ENDBRANCH  29  31
BRANCH  29  35
HETATM   35  C15 UNL     1       7.039  27.518  -3.308  1.00  0.00     0.159 C 
BRANCH  35  36
HETATM   36  C16 UNL     1       6.632  28.938  -3.258  1.00  0.00     0.175 C 
HETATM   37  O2  UNL     1       6.240  29.405  -2.130  1.00  0.00    -0.648 OA
HETATM   38  O3  UNL     1       6.633  29.807  -4.298  1.00  0.00    -0.648 OA
ENDBRANCH  35  36
ENDBRANCH  29  35
ENDBRANCH   9  29
TORSDOF 7
ENDMDL
MODEL 2
REMARK VINA RESULT: -9.917679364      2.826      7.238
REMARK  7 active torsions:
REMARK  status: ('A' for Active; 'I' for Inactive)
REMARK    1  A    between atoms: C3_5  and  N2_6 
REMARK       I    between atoms: N2_6  and  C4_8 
REMARK       I    between atoms: C4_8  and  N3_10 
REMARK    2  A    between atoms: N3_10  and  C5_12 
REMARK    3  A    between atoms: C12_21  and  C13_22 
REMARK    4  A    between atoms: C13_22  and  N5_24 
REMARK    5  A    between atoms: C13_22  and  C15_28 
REMARK    6  A    between atoms: C15_28  and  C16_29 
REMARK    7  A    between atoms: C18_35  and  C19_36 
ROOT
HETATM    1  C1  UNL     1       7.714  25.085  -5.029  1.00  0.00     0.069 C 
HETATM    2  C2  UNL     1       6.519  25.931  -4.995  1.00  0.00     0.016 A 
HETATM    3  N1  UNL     1       6.078  26.480  -3.844  1.00  0.00    -0.344 N 
ATOM      4  H1  UNL     1       6.624  26.302  -3.001  1.00  0.00     0.167 HD
HETATM    5  C3  UNL     1       4.983  27.238  -3.717  1.00  0.00     0.139 A 
HETATM    6  C11 UNL     1       4.260  27.457  -4.911  1.00  0.00     0.106 A 
HETATM    7  N4  UNL     1       3.141  28.149  -5.139  1.00  0.00    -0.339 N 
ATOM      8  H4  UNL     1       2.606  28.660  -4.437  1.00  0.00     0.167 HD
HETATM    9  C12 UNL     1       2.839  28.064  -6.438  1.00  0.00     0.119 A 
HETATM   10  N6  UNL     1       3.754  27.321  -7.048  1.00  0.00    -0.341 N 
ATOM     11  H6  UNL     1       3.778  27.084  -8.040  1.00  0.00     0.167 HD
HETATM   12  C17 UNL     1       4.651  26.933  -6.104  1.00  0.00     0.073 A 
HETATM   13  C18 UNL     1       5.805  26.149  -6.165  1.00  0.00    -0.003 A 
ENDROOT
BRANCH   5  14
HETATM   14  N2  UNL     1       4.530  27.760  -2.655  1.00  0.00    -0.293 N 
HETATM   15  C4  UNL     1       4.987  28.207  -1.462  1.00  0.00     0.322 C 
HETATM   16  O1  UNL     1       4.373  29.204  -0.924  1.00  0.00    -0.247 OA
HETATM   17  N3  UNL     1       6.069  27.696  -0.735  1.00  0.00    -0.338 N 
ATOM     18  H3  UNL     1       6.600  26.908  -1.107  1.00  0.00     0.164 HD
ATOM     19  H2  UNL     1       3.519  27.878  -2.718  1.00  0.00     0.172 HD
BRANCH  17  20
HETATM   20  C5  UNL     1       6.450  28.290   0.569  1.00  0.00     0.086 C 
HETATM   21  C6  UNL     1       7.683  29.099   0.316  1.00  0.00     0.025 C 
HETATM   22  C7  UNL     1       8.633  29.226   1.447  1.00  0.00     0.002 C 
HETATM   23  C8  UNL     1       7.950  28.857   2.732  1.00  0.00     0.000 C 
HETATM   24  C9  UNL     1       7.560  27.402   2.631  1.00  0.00     0.002 C 
HETATM   25  C10 UNL     1       6.595  27.150   1.499  1.00  0.00     0.025 C 
ENDBRANCH  17  20
ENDBRANCH   5  14
BRANCH  13  26
HETATM   26  C19 UNL     1       6.294  25.564  -7.398  1.00  0.00     0.015 C 
HETATM   27  C20 UNL     1       5.334  24.655  -8.135  1.00  0.00     0.015 C 
HETATM   28  C21 UNL     1       6.884  26.588  -8.382  1.00  0.00     0.015 C 
ENDBRANCH  13  26
BRANCH   9  29
HETATM   29  C13 UNL     1       1.639  28.721  -7.035  1.00  0.00     0.187 C 
HETATM   30  C14 UNL     1       0.598  27.744  -7.480  1.00  0.00     0.055 C 
BRANCH  29  31
HETATM   31  N5  UNL     1       2.067  29.488  -8.214  1.00  0.00    -0.063 N 
ATOM     32  H53 UNL     1       2.895  30.056  -8.033  1.00  0.00     0.275 HD
ATOM     33  H52 UNL     1       2.463  28.896  -8.944  1.00  0.00     0.275 HD
ATOM     34  H51 UNL     1       1.276  30.042  -8.544  1.00  0.00     0.275 HD
ENDBRANCH  29  31
BRANCH  29  35
HETATM   35  C15 UNL     1       1.108  29.683  -6.012  1.00  0.00     0.159 C 
BRANCH  35  36
HETATM   36  C16 UNL     1       1.238  31.102  -6.404  1.00  0.00     0.175 C 
HETATM   37  O2  UNL     1       0.207  31.678  -6.904  1.00  0.00    -0.648 OA
HETATM   38  O3  UNL     1       2.351  31.866  -6.286  1.00  0.00    -0.648 OA
ENDBRANCH  35  36
ENDBRANCH  29  35
ENDBRANCH   9  29
TORSDOF 7
ENDMDL
MODEL 3
REMARK VINA RESULT: -9.794171681      1.180      1.393
REMARK  7 active torsions:
REMARK  status: ('A' for Active; 'I' for Inactive)
REMARK    1  A    between atoms: C3_5  and  N2_6 
REMARK       I    between atoms: N2_6  and  C4_8 
REMARK       I    between atoms: C4_8  and  N3_10 
REMARK    2  A    between atoms: N3_10  and  C5_12 
REMARK    3  A    between atoms: C12_21  and  C13_22 
REMARK    4  A    between atoms: C13_22  and  N5_24 
REMARK    5  A    between atoms: C13_22  and  C15_28 
REMARK    6  A    between atoms: C15_28  and  C16_29 
REMARK    7  A    between atoms: C18_35  and  C19_36 
ROOT
HETATM    1  C1  UNL     1       3.070  27.552  -9.179  1.00  0.00     0.069 C 
HETATM    2  C2  UNL     1       3.342  27.664  -7.744  1.00  0.00     0.016 A 
HETATM    3  N1  UNL     1       2.456  28.235  -6.902  1.00  0.00    -0.344 N 
ATOM      4  H1  UNL     1       1.577  28.564  -7.301  1.00  0.00     0.167 HD
HETATM    5  C3  UNL     1       2.635  28.405  -5.587  1.00  0.00     0.139 A 
HETATM    6  C11 UNL     1       3.866  27.932  -5.081  1.00  0.00     0.106 A 
HETATM    7  N4  UNL     1       4.362  27.944  -3.841  1.00  0.00    -0.339 N 
ATOM      8  H4  UNL     1       3.893  28.321  -3.018  1.00  0.00     0.167 HD
HETATM    9  C12 UNL     1       5.573  27.381  -3.857  1.00  0.00     0.119 A 
HETATM   10  N6  UNL     1       5.862  27.007  -5.096  1.00  0.00    -0.341 N 
ATOM     11  H6  UNL     1       6.720  26.551  -5.407  1.00  0.00     0.167 HD
HETATM   12  C17 UNL     1       4.802  27.346  -5.875  1.00  0.00     0.073 A 
HETATM   13  C18 UNL     1       4.550  27.201  -7.241  1.00  0.00    -0.003 A 
ENDROOT
BRANCH   5  14
HETATM   14  N2  UNL     1       1.835  28.947  -4.767  1.00  0.00    -0.293 N 
HETATM   15  C4  UNL     1       0.919  29.943  -4.742  1.00  0.00     0.322 C 
HETATM   16  O1  UNL     1      -0.102  29.795  -3.970  1.00  0.00    -0.247 OA
HETATM   17  N3  UNL     1       0.960  31.136  -5.472  1.00  0.00    -0.338 N 
ATOM     18  H3  UNL     1       1.740  31.315  -6.105  1.00  0.00     0.164 HD
ATOM     19  H2  UNL     1       1.900  28.498  -3.854  1.00  0.00     0.172 HD
BRANCH  17  20
HETATM   20  C5  UNL     1      -0.121  32.143  -5.334  1.00  0.00     0.086 C 
HETATM   21  C6  UNL     1      -0.931  32.061  -6.589  1.00  0.00     0.025 C 
HETATM   22  C7  UNL     1      -1.592  33.313  -7.032  1.00  0.00     0.002 C 
HETATM   23  C8  UNL     1      -1.640  34.293  -5.896  1.00  0.00     0.000 C 
HETATM   24  C9  UNL     1      -0.215  34.637  -5.539  1.00  0.00     0.002 C 
HETATM   25  C10 UNL     1       0.563  33.429  -5.080  1.00  0.00     0.025 C 
ENDBRANCH  17  20
ENDBRANCH   5  14
BRANCH  13  26
HETATM   26  C19 UNL     1       5.490  26.579  -8.153  1.00  0.00     0.015 C 
HETATM   27  C20 UNL     1       6.789  27.321  -8.386  1.00  0.00     0.015 C 
HETATM   28  C21 UNL     1       5.796  25.108  -7.823  1.00  0.00     0.015 C 
ENDBRANCH  13  26
BRANCH   9  29
HETATM   29  C13 UNL     1       6.416  27.237  -2.631  1.00  0.00     0.187 C 
HETATM   30  C14 UNL     1       7.710  26.535  -2.891  1.00  0.00     0.055 C 
BRANCH  29  31
HETATM   31  N5  UNL     1       5.667  26.447  -1.643  1.00  0.00    -0.063 N 
ATOM     32  H53 UNL     1       5.089  27.027  -1.034  1.00  0.00     0.275 HD
ATOM     33  H52 UNL     1       4.917  25.900  -2.066  1.00  0.00     0.275 HD
ATOM     34  H51 UNL     1       6.328  25.870  -1.123  1.00  0.00     0.275 HD
ENDBRANCH  29  31
BRANCH  29  35
HETATM   35  C15 UNL     1       6.624  28.615  -2.075  1.00  0.00     0.159 C 
BRANCH  35  36
HETATM   36  C16 UNL     1       5.814  28.903  -0.873  1.00  0.00     0.175 C 
HETATM   37  O2  UNL     1       4.604  29.290  -1.050  1.00  0.00    -0.648 OA
HETATM   38  O3  UNL     1       6.227  28.796   0.413  1.00  0.00    -0.648 OA
ENDBRANCH  35  36
ENDBRANCH  29  35
ENDBRANCH   9  29
TORSDOF 7
ENDMDL
MODEL 4
REMARK VINA RESULT: -9.588852214      1.344      1.421
REMARK  7 active torsions:
REMARK  status: ('A' for Active; 'I' for Inactive)
REMARK    1  A    between atoms: C3_5  and  N2_6 
REMARK       I    between atoms: N2_6  and  C4_8 
REMARK       I    between atoms: C4_8  and  N3_10 
REMARK    2  A    between atoms: N3_10  and  C5_12 
REMARK    3  A    between atoms: C12_21  and  C13_22 
REMARK    4  A    between atoms: C13_22  and  N5_24 
REMARK    5  A    between atoms: C13_22  and  C15_28 
REMARK    6  A    between atoms: C15_28  and  C16_29 
REMARK    7  A    between atoms: C18_35  and  C19_36 
ROOT
HETATM    1  C1  UNL     1       3.653  27.115  -9.609  1.00  0.00     0.069 C 
HETATM    2  C2  UNL     1       3.670  27.365  -8.167  1.00  0.00     0.016 A 
HETATM    3  N1  UNL     1       2.704  28.091  -7.566  1.00  0.00    -0.344 N 
ATOM      4  H1  UNL     1       1.946  28.438  -8.154  1.00  0.00     0.167 HD
HETATM    5  C3  UNL     1       2.657  28.392  -6.263  1.00  0.00     0.139 A 
HETATM    6  C11 UNL     1       3.726  27.888  -5.491  1.00  0.00     0.106 A 
HETATM    7  N4  UNL     1       3.989  28.000  -4.186  1.00  0.00    -0.339 N 
ATOM      8  H4  UNL     1       3.416  28.500  -3.506  1.00  0.00     0.167 HD
HETATM    9  C12 UNL     1       5.125  27.351  -3.917  1.00  0.00     0.119 A 
HETATM   10  N6  UNL     1       5.597  26.822  -5.039  1.00  0.00    -0.341 N 
ATOM     11  H6  UNL     1       6.451  26.272  -5.136  1.00  0.00     0.167 HD
HETATM   12  C17 UNL     1       4.731  27.150  -6.033  1.00  0.00     0.073 A 
HETATM   13  C18 UNL     1       4.719  26.872  -7.402  1.00  0.00    -0.003 A 
ENDROOT
BRANCH   5  14
HETATM   14  N2  UNL     1       1.776  29.079  -5.666  1.00  0.00    -0.293 N 
HETATM   15  C4  UNL     1       1.094  30.236  -5.837  1.00  0.00     0.322 C 
HETATM   16  O1  UNL     1      -0.111  30.290  -5.385  1.00  0.00    -0.247 OA
HETATM   17  N3  UNL     1       1.563  31.399  -6.460  1.00  0.00    -0.338 N 
ATOM     18  H3  UNL     1       2.508  31.422  -6.843  1.00  0.00     0.164 HD
ATOM     19  H2  UNL     1       1.497  28.625  -4.796  1.00  0.00     0.172 HD
BRANCH  17  20
HETATM   20  C5  UNL     1       0.697  32.599  -6.567  1.00  0.00     0.086 C 
HETATM   21  C6  UNL     1       0.249  32.664  -7.993  1.00  0.00     0.025 C 
HETATM   22  C7  UNL     1      -0.020  34.017  -8.539  1.00  0.00     0.002 C 
HETATM   23  C8  UNL     1      -0.181  34.998  -7.415  1.00  0.00     0.000 C 
HETATM   24  C9  UNL     1       1.137  35.061  -6.682  1.00  0.00     0.002 C 
HETATM   25  C10 UNL     1       1.520  33.729  -6.088  1.00  0.00     0.025 C 
ENDBRANCH  17  20
ENDBRANCH   5  14
BRANCH  13  26
HETATM   26  C19 UNL     1       5.746  26.085  -8.055  1.00  0.00     0.015 C 
HETATM   27  C20 UNL     1       7.121  26.713  -8.137  1.00  0.00     0.015 C 
HETATM   28  C21 UNL     1       5.871  24.652  -7.510  1.00  0.00     0.015 C 
ENDBRANCH  13  26
BRANCH   9  29
HETATM   29  C13 UNL     1       5.714  27.282  -2.547  1.00  0.00     0.187 C 
HETATM   30  C14 UNL     1       5.780  25.888  -2.009  1.00  0.00     0.055 C 
BRANCH  29  31
HETATM   31  N5  UNL     1       4.873  28.075  -1.639  1.00  0.00    -0.063 N 
ATOM     32  H53 UNL     1       3.876  27.908  -1.782  1.00  0.00     0.275 HD
ATOM     33  H52 UNL     1       4.930  27.754  -0.672  1.00  0.00     0.275 HD
ATOM     34  H51 UNL     1       5.124  29.058  -1.742  1.00  0.00     0.275 HD
ENDBRANCH  29  31
BRANCH  29  35
HETATM   35  C15 UNL     1       7.070  27.923  -2.617  1.00  0.00     0.159 C 
BRANCH  35  36
HETATM   36  C16 UNL     1       7.039  29.338  -3.043  1.00  0.00     0.175 C 
HETATM   37  O2  UNL     1       7.355  30.228  -2.175  1.00  0.00    -0.648 OA
HETATM   38  O3  UNL     1       6.705  29.795  -4.275  1.00  0.00    -0.648 OA
ENDBRANCH  35  36
ENDBRANCH  29  35
ENDBRANCH   9  29
TORSDOF 7
ENDMDL
MODEL 5
REMARK VINA RESULT: -9.339289017      1.538      1.836
REMARK  7 active torsions:
REMARK  status: ('A' for Active; 'I' for Inactive)
REMARK    1  A    between atoms: C3_5  and  N2_6 
REMARK       I    between atoms: N2_6  and  C4_8 
REMARK       I    between atoms: C4_8  and  N3_10 
REMARK    2  A    between atoms: N3_10  and  C5_12 
REMARK    3  A    between atoms: C12_21  and  C13_22 
REMARK    4  A    between atoms: C13_22  and  N5_24 
REMARK    5  A    between atoms: C13_22  and  C15_28 
REMARK    6  A    between atoms: C15_28  and  C16_29 
REMARK    7  A    between atoms: C18_35  and  C19_36 
ROOT
HETATM    1  C1  UNL     1       2.266  28.187  -9.626  1.00  0.00     0.069 C 
HETATM    2  C2  UNL     1       2.647  28.131  -8.214  1.00  0.00     0.016 A 
HETATM    3  N1  UNL     1       1.894  28.713  -7.257  1.00  0.00    -0.344 N 
ATOM      4  H1  UNL     1       1.033  29.172  -7.555  1.00  0.00     0.167 HD
HETATM    5  C3  UNL     1       2.182  28.736  -5.950  1.00  0.00     0.139 A 
HETATM    6  C11 UNL     1       3.381  28.086  -5.587  1.00  0.00     0.106 A 
HETATM    7  N4  UNL     1       3.961  27.925  -4.394  1.00  0.00    -0.339 N 
ATOM      8  H4  UNL     1       3.596  28.271  -3.507  1.00  0.00     0.167 HD
HETATM    9  C12 UNL     1       5.095  27.238  -4.555  1.00  0.00     0.119 A 
HETATM   10  N6  UNL     1       5.252  26.955  -5.842  1.00  0.00    -0.341 N 
ATOM     11  H6  UNL     1       6.028  26.440  -6.258  1.00  0.00     0.167 HD
HETATM   12  C17 UNL     1       4.186  27.480  -6.501  1.00  0.00     0.073 A 
HETATM   13  C18 UNL     1       3.826  27.493  -7.850  1.00  0.00    -0.003 A 
ENDROOT
BRANCH   5  14
HETATM   14  N2  UNL     1       1.508  29.281  -5.026  1.00  0.00    -0.293 N 
HETATM   15  C4  UNL     1       0.717  30.364  -4.842  1.00  0.00     0.322 C 
HETATM   16  O1  UNL     1      -0.258  30.254  -4.006  1.00  0.00    -0.247 OA
HETATM   17  N3  UNL     1       0.843  31.609  -5.468  1.00  0.00    -0.338 N 
ATOM     18  H3  UNL     1       1.593  31.762  -6.143  1.00  0.00     0.164 HD
ATOM     19  H2  UNL     1       1.586  28.743  -4.162  1.00  0.00     0.172 HD
BRANCH  17  20
HETATM   20  C5  UNL     1      -0.102  32.709  -5.158  1.00  0.00     0.086 C 
HETATM   21  C6  UNL     1      -1.166  32.655  -6.209  1.00  0.00     0.025 C 
HETATM   22  C7  UNL     1      -1.808  33.943  -6.566  1.00  0.00     0.002 C 
HETATM   23  C8  UNL     1      -1.537  34.961  -5.497  1.00  0.00     0.000 C 
HETATM   24  C9  UNL     1      -0.047  35.194  -5.465  1.00  0.00     0.002 C 
HETATM   25  C10 UNL     1       0.716  33.939  -5.119  1.00  0.00     0.025 C 
ENDBRANCH  17  20
ENDBRANCH   5  14
BRANCH  13  26
HETATM   26  C19 UNL     1       4.622  26.863  -8.884  1.00  0.00     0.015 C 
HETATM   27  C20 UNL     1       5.936  27.534  -9.222  1.00  0.00     0.015 C 
HETATM   28  C21 UNL     1       4.861  25.361  -8.655  1.00  0.00     0.015 C 
ENDBRANCH  13  26
BRANCH   9  29
HETATM   29  C13 UNL     1       5.997  26.887  -3.418  1.00  0.00     0.187 C 
HETATM   30  C14 UNL     1       5.470  27.335  -2.093  1.00  0.00     0.055 C 
BRANCH  29  31
HETATM   31  N5  UNL     1       7.293  27.547  -3.632  1.00  0.00    -0.063 N 
ATOM     32  H53 UNL     1       7.202  28.444  -4.109  1.00  0.00     0.275 HD
ATOM     33  H52 UNL     1       7.705  27.892  -2.765  1.00  0.00     0.275 HD
ATOM     34  H51 UNL     1       7.907  26.901  -4.128  1.00  0.00     0.275 HD
ENDBRANCH  29  31
BRANCH  29  35
HETATM   35  C15 UNL     1       6.210  25.401  -3.466  1.00  0.00     0.159 C 
BRANCH  35  36
HETATM   36  C16 UNL     1       7.316  24.985  -4.352  1.00  0.00     0.175 C 
HETATM   37  O2  UNL     1       7.016  24.600  -5.538  1.00  0.00    -0.648 OA
HETATM   38  O3  UNL     1       8.633  24.970  -4.034  1.00  0.00    -0.648 OA
ENDBRANCH  35  36
ENDBRANCH  29  35
ENDBRANCH   9  29
TORSDOF 7
ENDMDL
