MODEL 1
REMARK VINA RESULT: -8.693404509      0.000      0.000
REMARK  7 active torsions:
REMARK  status: ('A' for Active; 'I' for Inactive)
REMARK    1  A    between atoms: C11_11  and  O1_12 
REMARK    2  A    between atoms: C12_14  and  O2_15 
REMARK    3  A    between atoms: C16_20  and  C17_21 
REMARK    4  A    between atoms: C17_21  and  C18_22 
REMARK    5  A    between atoms: C18_22  and  C19_23 
REMARK    6  A    between atoms: C19_23  and  N1_24 
REMARK       I    between atoms: N1_24  and  C20_26 
REMARK       I    between atoms: C20_26  and  N3_30 
REMARK    7  A    between atoms: N3_30  and  C21_32 
ROOT
HETATM    1  C1  UNL     1       5.687  23.886  -5.292  1.00  0.00     0.015 C 
HETATM    2  C2  UNL     1       6.418  24.988  -5.215  1.00  0.00    -0.081 C 
HETATM    3  C3  UNL     1       7.842  24.825  -4.768  1.00  0.00     0.034 C 
HETATM    4  C4  UNL     1       8.198  26.092  -3.973  1.00  0.00     0.009 C 
HETATM    5  C5  UNL     1       6.951  26.546  -3.287  1.00  0.00    -0.004 C 
HETATM    6  C6  UNL     1       6.066  27.243  -4.312  1.00  0.00     0.002 C 
HETATM    7  C7  UNL     1       4.716  27.599  -3.749  1.00  0.00     0.007 C 
HETATM    8  C8  UNL     1       4.757  27.836  -2.259  1.00  0.00     0.012 C 
HETATM    9  C9  UNL     1       6.101  28.449  -1.887  1.00  0.00    -0.012 C 
HETATM   10  C10 UNL     1       6.379  29.720  -2.605  1.00  0.00     0.018 C 
HETATM   11  C11 UNL     1       6.092  28.770  -0.386  1.00  0.00     0.155 C 
HETATM   12  C12 UNL     1       7.459  28.752   0.203  1.00  0.00     0.147 C 
HETATM   13  C13 UNL     1       8.569  28.920  -0.790  1.00  0.00     0.035 C 
HETATM   14  C14 UNL     1       8.514  28.002  -1.957  1.00  0.00     0.008 C 
HETATM   15  C15 UNL     1       7.140  27.378  -2.077  1.00  0.00     0.001 C 
HETATM   16  C16 UNL     1       5.827  26.285  -5.489  1.00  0.00     0.040 C 
ENDROOT
BRANCH  16  17
HETATM   17  C17 UNL     1       6.252  26.933  -6.745  1.00  0.00    -0.020 C 
BRANCH  17  18
HETATM   18  C18 UNL     1       6.439  26.218  -7.997  1.00  0.00    -0.010 C 
BRANCH  18  19
HETATM   19  C19 UNL     1       5.414  25.343  -8.598  1.00  0.00     0.165 C 
BRANCH  19  20
HETATM   20  N1  UNL     1       4.789  25.840  -9.806  1.00  0.00    -0.223 N 
HETATM   21  C20 UNL     1       4.461  27.205 -10.004  1.00  0.00     0.668 C 
HETATM   22  N2  UNL     1       5.242  27.982 -10.657  1.00  0.00    -0.235 N 
HETATM   23  N3  UNL     1       3.255  27.777  -9.494  1.00  0.00    -0.219 N 
ATOM     24  H22 UNL     1       6.103  27.574 -11.020  1.00  0.00     0.174 HD
ATOM     25  H21 UNL     1       5.006  28.965 -10.799  1.00  0.00     0.174 HD
ATOM     26  H3  UNL     1       2.393  27.624 -10.019  1.00  0.00     0.178 HD
ATOM     27  H1  UNL     1       4.574  25.176 -10.550  1.00  0.00     0.178 HD
BRANCH  23  28
HETATM   28  C21 UNL     1       3.180  28.549  -8.294  1.00  0.00     0.122 C 
HETATM   29  C22 UNL     1       2.719  27.716  -7.165  1.00  0.00    -0.005 C 
HETATM   30  C23 UNL     1       1.829  28.346  -6.435  1.00  0.00    -0.029 C 
HETATM   31  C24 UNL     1       1.559  29.690  -6.961  1.00  0.00     0.029 C 
HETATM   32  C25 UNL     1       2.146  29.653  -8.344  1.00  0.00     0.033 C 
ENDBRANCH  23  28
ENDBRANCH  19  20
ENDBRANCH  18  19
ENDBRANCH  17  18
ENDBRANCH  16  17
BRANCH  11  33
HETATM   33  O1  UNL     1       5.229  27.868   0.249  1.00  0.00    -0.392 OA
ATOM     34  H1  UNL     1       4.526  28.363   0.652  1.00  0.00     0.210 HD
ENDBRANCH  11  33
BRANCH  12  35
HETATM   35  O2  UNL     1       7.655  27.633   1.026  1.00  0.00    -0.393 OA
ATOM     36  H2  UNL     1       8.177  26.966   0.594  1.00  0.00     0.210 HD
ENDBRANCH  12  35
TORSDOF 7
ENDMDL
MODEL 2
REMARK VINA RESULT: -7.984792780      1.486      2.284
REMARK  7 active torsions:
REMARK  status: ('A' for Active; 'I' for Inactive)
REMARK    1  A    between atoms: C11_11  and  O1_12 
REMARK    2  A    between atoms: C12_14  and  O2_15 
REMARK    3  A    between atoms: C16_20  and  C17_21 
REMARK    4  A    between atoms: C17_21  and  C18_22 
REMARK    5  A    between atoms: C18_22  and  C19_23 
REMARK    6  A    between atoms: C19_23  and  N1_24 
REMARK       I    between atoms: N1_24  and  C20_26 
REMARK       I    between atoms: C20_26  and  N3_30 
REMARK    7  A    between atoms: N3_30  and  C21_32 
ROOT
HETATM    1  C1  UNL     1       5.340  24.089  -5.599  1.00  0.00     0.015 C 
HETATM    2  C2  UNL     1       6.092  25.172  -5.479  1.00  0.00    -0.081 C 
HETATM    3  C3  UNL     1       7.536  24.958  -5.130  1.00  0.00     0.034 C 
HETATM    4  C4  UNL     1       7.959  26.154  -4.261  1.00  0.00     0.009 C 
HETATM    5  C5  UNL     1       6.761  26.567  -3.469  1.00  0.00    -0.004 C 
HETATM    6  C6  UNL     1       5.830  27.354  -4.384  1.00  0.00     0.002 C 
HETATM    7  C7  UNL     1       4.521  27.681  -3.717  1.00  0.00     0.007 C 
HETATM    8  C8  UNL     1       4.651  27.800  -2.218  1.00  0.00     0.012 C 
HETATM    9  C9  UNL     1       6.024  28.365  -1.879  1.00  0.00    -0.012 C 
HETATM   10  C10 UNL     1       6.282  29.685  -2.511  1.00  0.00     0.018 C 
HETATM   11  C11 UNL     1       6.107  28.567  -0.360  1.00  0.00     0.155 C 
HETATM   12  C12 UNL     1       7.505  28.486   0.146  1.00  0.00     0.147 C 
HETATM   13  C13 UNL     1       8.559  28.718  -0.894  1.00  0.00     0.035 C 
HETATM   14  C14 UNL     1       8.421  27.896  -2.124  1.00  0.00     0.008 C 
HETATM   15  C15 UNL     1       7.033  27.300  -2.212  1.00  0.00     0.001 C 
HETATM   16  C16 UNL     1       5.508  26.494  -5.616  1.00  0.00     0.040 C 
ENDROOT
BRANCH  16  17
HETATM   17  C17 UNL     1       5.871  27.234  -6.840  1.00  0.00    -0.020 C 
BRANCH  17  18
HETATM   18  C18 UNL     1       5.048  27.260  -8.039  1.00  0.00    -0.010 C 
BRANCH  18  19
HETATM   19  C19 UNL     1       3.668  27.781  -8.070  1.00  0.00     0.165 C 
BRANCH  19  20
HETATM   20  N1  UNL     1       2.783  27.284  -7.036  1.00  0.00    -0.223 N 
HETATM   21  C20 UNL     1       1.591  27.948  -6.651  1.00  0.00     0.668 C 
HETATM   22  N2  UNL     1       0.457  27.594  -7.128  1.00  0.00    -0.235 N 
HETATM   23  N3  UNL     1       1.594  29.031  -5.719  1.00  0.00    -0.219 N 
ATOM     24  H22 UNL     1       0.455  26.822  -7.794  1.00  0.00     0.174 HD
ATOM     25  H21 UNL     1      -0.402  28.072  -6.851  1.00  0.00     0.174 HD
ATOM     26  H3  UNL     1       1.641  28.807  -4.725  1.00  0.00     0.178 HD
ATOM     27  H1  UNL     1       3.030  26.415  -6.563  1.00  0.00     0.178 HD
BRANCH  23  28
HETATM   28  C21 UNL     1       1.535  30.409  -6.093  1.00  0.00     0.122 C 
HETATM   29  C22 UNL     1       0.261  31.015  -5.655  1.00  0.00    -0.005 C 
HETATM   30  C23 UNL     1      -0.257  31.775  -6.591  1.00  0.00    -0.029 C 
HETATM   31  C24 UNL     1       0.585  31.794  -7.792  1.00  0.00     0.029 C 
HETATM   32  C25 UNL     1       1.517  30.632  -7.590  1.00  0.00     0.033 C 
ENDBRANCH  23  28
ENDBRANCH  19  20
ENDBRANCH  18  19
ENDBRANCH  17  18
ENDBRANCH  16  17
BRANCH  11  33
HETATM   33  O1  UNL     1       5.266  27.628   0.253  1.00  0.00    -0.392 OA
ATOM     34  H1  UNL     1       4.515  28.089   0.606  1.00  0.00     0.210 HD
ENDBRANCH  11  33
BRANCH  12  35
HETATM   35  O2  UNL     1       7.728  27.304   0.866  1.00  0.00    -0.393 OA
ATOM     36  H2  UNL     1       6.916  26.850   1.059  1.00  0.00     0.210 HD
ENDBRANCH  12  35
TORSDOF 7
ENDMDL
MODEL 3
REMARK VINA RESULT: -7.845876255      1.977      2.951
REMARK  7 active torsions:
REMARK  status: ('A' for Active; 'I' for Inactive)
REMARK    1  A    between atoms: C11_11  and  O1_12 
REMARK    2  A    between atoms: C12_14  and  O2_15 
REMARK    3  A    between atoms: C16_20  and  C17_21 
REMARK    4  A    between atoms: C17_21  and  C18_22 
REMARK    5  A    between atoms: C18_22  and  C19_23 
REMARK    6  A    between atoms: C19_23  and  N1_24 
REMARK       I    between atoms: N1_24  and  C20_26 
REMARK       I    between atoms: C20_26  and  N3_30 
REMARK    7  A    between atoms: N3_30  and  C21_32 
ROOT
HETATM    1  C1  UNL     1       6.834  24.227  -7.036  1.00  0.00     0.015 C 
HETATM    2  C2  UNL     1       6.308  25.400  -6.718  1.00  0.00    -0.081 C 
HETATM    3  C3  UNL     1       7.137  26.616  -7.013  1.00  0.00     0.034 C 
HETATM    4  C4  UNL     1       6.821  27.639  -5.909  1.00  0.00     0.009 C 
HETATM    5  C5  UNL     1       6.536  26.867  -4.662  1.00  0.00    -0.004 C 
HETATM    6  C6  UNL     1       5.127  26.298  -4.762  1.00  0.00     0.002 C 
HETATM    7  C7  UNL     1       4.805  25.373  -3.619  1.00  0.00     0.007 C 
HETATM    8  C8  UNL     1       5.568  25.722  -2.364  1.00  0.00     0.012 C 
HETATM    9  C9  UNL     1       5.765  27.230  -2.301  1.00  0.00    -0.012 C 
HETATM   10  C10 UNL     1       4.486  27.986  -2.336  1.00  0.00     0.018 C 
HETATM   11  C11 UNL     1       6.459  27.577  -0.976  1.00  0.00     0.155 C 
HETATM   12  C12 UNL     1       7.254  28.833  -1.067  1.00  0.00     0.147 C 
HETATM   13  C13 UNL     1       6.858  29.743  -2.190  1.00  0.00     0.035 C 
HETATM   14  C14 UNL     1       6.782  29.099  -3.526  1.00  0.00     0.008 C 
HETATM   15  C15 UNL     1       6.740  27.592  -3.388  1.00  0.00     0.001 C 
HETATM   16  C16 UNL     1       5.019  25.473  -6.054  1.00  0.00     0.040 C 
ENDROOT
BRANCH  16  17
HETATM   17  C17 UNL     1       3.903  25.985  -6.872  1.00  0.00    -0.020 C 
BRANCH  17  18
HETATM   18  C18 UNL     1       3.213  27.237  -6.600  1.00  0.00    -0.010 C 
BRANCH  18  19
HETATM   19  C19 UNL     1       1.791  27.470  -6.920  1.00  0.00     0.165 C 
BRANCH  19  20
HETATM   20  N1  UNL     1       1.534  28.307  -8.074  1.00  0.00    -0.223 N 
HETATM   21  C20 UNL     1       1.952  29.659  -8.161  1.00  0.00     0.668 C 
HETATM   22  N2  UNL     1       3.034  29.976  -8.767  1.00  0.00    -0.235 N 
HETATM   23  N3  UNL     1       1.194  30.725  -7.586  1.00  0.00    -0.219 N 
ATOM     24  H22 UNL     1       3.576  29.215  -9.177  1.00  0.00     0.174 HD
ATOM     25  H21 UNL     1       3.335  30.950  -8.830  1.00  0.00     0.174 HD
ATOM     26  H3  UNL     1       0.387  31.073  -8.105  1.00  0.00     0.178 HD
ATOM     27  H1  UNL     1       1.028  27.903  -8.863  1.00  0.00     0.178 HD
BRANCH  23  28
HETATM   28  C21 UNL     1       1.496  31.334  -6.329  1.00  0.00     0.122 C 
HETATM   29  C22 UNL     1       0.826  30.615  -5.226  1.00  0.00    -0.005 C 
HETATM   30  C23 UNL     1       0.291  31.447  -4.364  1.00  0.00    -0.029 C 
HETATM   31  C24 UNL     1       0.519  32.844  -4.756  1.00  0.00     0.029 C 
HETATM   32  C25 UNL     1       0.958  32.742  -6.190  1.00  0.00     0.033 C 
ENDBRANCH  23  28
ENDBRANCH  19  20
ENDBRANCH  18  19
ENDBRANCH  17  18
ENDBRANCH  16  17
BRANCH  11  33
HETATM   33  O1  UNL     1       7.241  26.481  -0.592  1.00  0.00    -0.392 OA
ATOM     34  H1  UNL     1       6.786  26.020   0.102  1.00  0.00     0.210 HD
ENDBRANCH  11  33
BRANCH  12  35
HETATM   35  O2  UNL     1       8.633  28.574  -1.062  1.00  0.00    -0.393 OA
ATOM     36  H2  UNL     1       9.123  29.271  -1.485  1.00  0.00     0.210 HD
ENDBRANCH  12  35
TORSDOF 7
ENDMDL
MODEL 4
REMARK VINA RESULT: -7.563034079      3.967      6.186
REMARK  7 active torsions:
REMARK  status: ('A' for Active; 'I' for Inactive)
REMARK    1  A    between atoms: C11_11  and  O1_12 
REMARK    2  A    between atoms: C12_14  and  O2_15 
REMARK    3  A    between atoms: C16_20  and  C17_21 
REMARK    4  A    between atoms: C17_21  and  C18_22 
REMARK    5  A    between atoms: C18_22  and  C19_23 
REMARK    6  A    between atoms: C19_23  and  N1_24 
REMARK       I    between atoms: N1_24  and  C20_26 
REMARK       I    between atoms: C20_26  and  N3_30 
REMARK    7  A    between atoms: N3_30  and  C21_32 
ROOT
HETATM    1  C1  UNL     1       0.385  27.513  -7.363  1.00  0.00     0.015 C 
HETATM    2  C2  UNL     1       1.595  28.047  -7.295  1.00  0.00    -0.081 C 
HETATM    3  C3  UNL     1       2.620  27.521  -8.257  1.00  0.00     0.034 C 
HETATM    4  C4  UNL     1       3.974  27.579  -7.528  1.00  0.00     0.009 C 
HETATM    5  C5  UNL     1       3.703  27.336  -6.079  1.00  0.00    -0.004 C 
HETATM    6  C6  UNL     1       3.140  28.617  -5.475  1.00  0.00     0.002 C 
HETATM    7  C7  UNL     1       2.690  28.424  -4.052  1.00  0.00     0.007 C 
HETATM    8  C8  UNL     1       3.466  27.338  -3.345  1.00  0.00     0.012 C 
HETATM    9  C9  UNL     1       4.895  27.322  -3.869  1.00  0.00    -0.012 C 
HETATM   10  C10 UNL     1       5.591  28.624  -3.703  1.00  0.00     0.018 C 
HETATM   11  C11 UNL     1       5.694  26.278  -3.076  1.00  0.00     0.155 C 
HETATM   12  C12 UNL     1       6.830  25.720  -3.861  1.00  0.00     0.147 C 
HETATM   13  C13 UNL     1       7.276  26.577  -5.008  1.00  0.00     0.035 C 
HETATM   14  C14 UNL     1       6.194  27.009  -5.929  1.00  0.00     0.008 C 
HETATM   15  C15 UNL     1       4.838  26.815  -5.284  1.00  0.00     0.001 C 
HETATM   16  C16 UNL     1       1.906  29.042  -6.286  1.00  0.00     0.040 C 
ENDROOT
BRANCH  16  17
HETATM   17  C17 UNL     1       2.093  30.420  -6.777  1.00  0.00    -0.020 C 
BRANCH  17  18
HETATM   18  C18 UNL     1       1.294  31.550  -6.329  1.00  0.00    -0.010 C 
BRANCH  18  19
HETATM   19  C19 UNL     1       0.849  31.732  -4.934  1.00  0.00     0.165 C 
BRANCH  19  20
HETATM   20  N1  UNL     1      -0.526  32.155  -4.761  1.00  0.00    -0.223 N 
HETATM   21  C20 UNL     1      -1.140  33.145  -5.569  1.00  0.00     0.668 C 
HETATM   22  N2  UNL     1      -1.866  32.820  -6.572  1.00  0.00    -0.235 N 
HETATM   23  N3  UNL     1      -0.985  34.542  -5.305  1.00  0.00    -0.219 N 
ATOM     24  H22 UNL     1      -1.976  31.824  -6.760  1.00  0.00     0.174 HD
ATOM     25  H21 UNL     1      -2.309  33.533  -7.153  1.00  0.00     0.174 HD
ATOM     26  H3  UNL     1      -1.563  34.958  -4.575  1.00  0.00     0.178 HD
ATOM     27  H1  UNL     1      -1.078  31.719  -4.022  1.00  0.00     0.178 HD
BRANCH  23  28
HETATM   28  C21 UNL     1      -0.070  35.390  -6.002  1.00  0.00     0.122 C 
HETATM   29  C22 UNL     1       0.045  34.983  -7.417  1.00  0.00    -0.005 C 
HETATM   30  C23 UNL     1       1.294  34.990  -7.820  1.00  0.00    -0.029 C 
HETATM   31  C24 UNL     1       2.201  35.399  -6.741  1.00  0.00     0.029 C 
HETATM   32  C25 UNL     1       1.355  35.286  -5.504  1.00  0.00     0.033 C 
ENDBRANCH  23  28
ENDBRANCH  19  20
ENDBRANCH  18  19
ENDBRANCH  17  18
ENDBRANCH  16  17
BRANCH  11  33
HETATM   33  O1  UNL     1       4.807  25.282  -2.647  1.00  0.00    -0.392 OA
ATOM     34  H1  UNL     1       4.730  25.339  -1.703  1.00  0.00     0.210 HD
ENDBRANCH  11  33
BRANCH  12  35
HETATM   35  O2  UNL     1       6.587  24.397  -4.257  1.00  0.00    -0.393 OA
ATOM     36  H2  UNL     1       7.391  23.944  -4.483  1.00  0.00     0.210 HD
ENDBRANCH  12  35
TORSDOF 7
ENDMDL
MODEL 5
REMARK VINA RESULT: -7.524423473      6.943     10.602
REMARK  7 active torsions:
REMARK  status: ('A' for Active; 'I' for Inactive)
REMARK    1  A    between atoms: C11_11  and  O1_12 
REMARK    2  A    between atoms: C12_14  and  O2_15 
REMARK    3  A    between atoms: C16_20  and  C17_21 
REMARK    4  A    between atoms: C17_21  and  C18_22 
REMARK    5  A    between atoms: C18_22  and  C19_23 
REMARK    6  A    between atoms: C19_23  and  N1_24 
REMARK       I    between atoms: N1_24  and  C20_26 
REMARK       I    between atoms: C20_26  and  N3_30 
REMARK    7  A    between atoms: N3_30  and  C21_32 
ROOT
HETATM    1  C1  UNL     1      -4.340  34.533  -8.164  1.00  0.00     0.015 C 
HETATM    2  C2  UNL     1      -3.040  34.458  -8.406  1.00  0.00    -0.081 C 
HETATM    3  C3  UNL     1      -2.607  33.511  -9.487  1.00  0.00     0.034 C 
HETATM    4  C4  UNL     1      -1.238  32.956  -9.060  1.00  0.00     0.009 C 
HETATM    5  C5  UNL     1      -1.241  32.881  -7.568  1.00  0.00    -0.004 C 
HETATM    6  C6  UNL     1      -1.024  34.285  -7.017  1.00  0.00     0.002 C 
HETATM    7  C7  UNL     1      -1.166  34.336  -5.519  1.00  0.00     0.007 C 
HETATM    8  C8  UNL     1      -0.806  33.025  -4.862  1.00  0.00     0.012 C 
HETATM    9  C9  UNL     1       0.303  32.354  -5.659  1.00  0.00    -0.012 C 
HETATM   10  C10 UNL     1       1.518  33.198  -5.792  1.00  0.00     0.018 C 
HETATM   11  C11 UNL     1       0.722  31.070  -4.928  1.00  0.00     0.155 C 
HETATM   12  C12 UNL     1       1.278  30.047  -5.855  1.00  0.00     0.147 C 
HETATM   13  C13 UNL     1       1.774  30.592  -7.161  1.00  0.00     0.035 C 
HETATM   14  C14 UNL     1       0.810  31.458  -7.888  1.00  0.00     0.008 C 
HETATM   15  C15 UNL     1      -0.300  31.910  -6.964  1.00  0.00     0.001 C 
HETATM   16  C16 UNL     1      -2.096  35.215  -7.605  1.00  0.00     0.040 C 
ENDROOT
BRANCH  16  17
HETATM   17  C17 UNL     1      -1.443  36.351  -8.282  1.00  0.00    -0.020 C 
BRANCH  17  18
HETATM   18  C18 UNL     1      -0.013  36.613  -8.220  1.00  0.00    -0.010 C 
BRANCH  18  19
HETATM   19  C19 UNL     1       0.601  37.568  -7.277  1.00  0.00     0.165 C 
BRANCH  19  20
HETATM   20  N1  UNL     1       1.287  36.983  -6.144  1.00  0.00    -0.223 N 
HETATM   21  C20 UNL     1       2.693  37.045  -5.972  1.00  0.00     0.668 C 
HETATM   22  N2  UNL     1       3.226  37.940  -5.227  1.00  0.00    -0.235 N 
HETATM   23  N3  UNL     1       3.577  36.121  -6.610  1.00  0.00    -0.219 N 
ATOM     24  H22 UNL     1       2.595  38.599  -4.772  1.00  0.00     0.174 HD
ATOM     25  H21 UNL     1       4.238  37.985  -5.103  1.00  0.00     0.174 HD
ATOM     26  H3  UNL     1       3.693  35.200  -6.188  1.00  0.00     0.178 HD
ATOM     27  H1  UNL     1       0.731  36.502  -5.435  1.00  0.00     0.178 HD
BRANCH  23  28
HETATM   28  C21 UNL     1       4.308  36.409  -7.804  1.00  0.00     0.122 C 
HETATM   29  C22 UNL     1       5.762  36.328  -7.557  1.00  0.00    -0.005 C 
HETATM   30  C23 UNL     1       6.402  37.325  -8.122  1.00  0.00    -0.029 C 
HETATM   31  C24 UNL     1       5.479  38.221  -8.829  1.00  0.00     0.029 C 
HETATM   32  C25 UNL     1       4.128  37.827  -8.300  1.00  0.00     0.033 C 
ENDBRANCH  23  28
ENDBRANCH  19  20
ENDBRANCH  18  19
ENDBRANCH  17  18
ENDBRANCH  16  17
BRANCH  11  33
HETATM   33  O1  UNL     1      -0.385  30.593  -4.214  1.00  0.00    -0.392 OA
ATOM     34  H1  UNL     1      -0.625  31.245  -3.567  1.00  0.00     0.210 HD
ENDBRANCH  11  33
BRANCH  12  35
HETATM   35  O2  UNL     1       0.393  28.975  -6.036  1.00  0.00    -0.393 OA
ATOM     36  H2  UNL     1       0.448  28.616  -6.914  1.00  0.00     0.210 HD
ENDBRANCH  12  35
TORSDOF 7
ENDMDL
