MODEL 1
REMARK VINA RESULT: -8.380757333      0.000      0.000
REMARK  10 active torsions:
REMARK  status: ('A' for Active; 'I' for Inactive)
REMARK    1  A    between atoms: C2_2  and  C3_3 
REMARK    2  A    between atoms: C3_3  and  N1_4 
REMARK    3  A    between atoms: N1_4  and  C4_6 
REMARK    4  A    between atoms: C4_6  and  C5_7 
REMARK    5  A    between atoms: C4_6  and  C18_28 
REMARK    6  A    between atoms: C5_7  and  N2_8 
REMARK    7  A    between atoms: C5_7  and  S1_25 
REMARK    8  A    between atoms: N2_8  and  C6_9 
REMARK    9  A    between atoms: S1_25  and  C16_26 
REMARK   10  A    between atoms: C18_28  and  N6_29 
ROOT
HETATM    1  C5  UNL     1       4.661  27.643  -6.410  1.00  0.00     0.150 C 
ENDROOT
BRANCH   1   2
HETATM    2  C4  UNL     1       5.487  27.086  -7.549  1.00  0.00     0.188 C 
BRANCH   2   3
HETATM    3  N1  UNL     1       4.882  27.016  -8.770  1.00  0.00    -0.389 N 
ATOM      4  H1  UNL     1       4.287  26.209  -8.959  1.00  0.00     0.159 HD
BRANCH   3   5
HETATM    5  C3  UNL     1       5.018  27.959  -9.765  1.00  0.00     0.056 C 
BRANCH   5   6
HETATM    6  C2  UNL     1       6.370  28.358 -10.276  1.00  0.00     0.039 C 
HETATM    7  C1  UNL     1       7.037  29.530  -9.666  1.00  0.00     0.010 C 
ENDBRANCH   5   6
ENDBRANCH   3   5
ENDBRANCH   2   3
BRANCH   2   8
HETATM    8  C18 UNL     1       6.258  25.818  -7.137  1.00  0.00     0.150 C 
HETATM    9  C19 UNL     1       7.491  26.046  -6.386  1.00  0.00     0.041 C 
HETATM   10  C20 UNL     1       7.562  25.671  -4.955  1.00  0.00     0.002 C 
HETATM   11  C21 UNL     1       6.679  24.552  -4.528  1.00  0.00     0.000 C 
HETATM   12  C22 UNL     1       5.274  24.845  -5.009  1.00  0.00     0.002 C 
HETATM   13  C23 UNL     1       5.269  24.870  -6.486  1.00  0.00     0.041 C 
BRANCH   8  14
HETATM   14  N6  UNL     1       6.577  25.160  -8.400  1.00  0.00    -0.068 N 
ATOM     15  H63 UNL     1       5.961  25.417  -9.171  1.00  0.00     0.275 HD
ATOM     16  H62 UNL     1       7.441  25.485  -8.833  1.00  0.00     0.275 HD
ATOM     17  H61 UNL     1       6.572  24.165  -8.176  1.00  0.00     0.275 HD
ENDBRANCH   8  14
ENDBRANCH   2   8
ENDBRANCH   1   2
BRANCH   1  18
HETATM   18  N2  UNL     1       5.134  28.147  -5.284  1.00  0.00    -0.366 NA
BRANCH  18  19
HETATM   19  C6  UNL     1       5.731  28.387  -4.270  1.00  0.00     0.262 A 
HETATM   20  N3  UNL     1       6.763  29.265  -4.086  1.00  0.00    -0.300 N 
HETATM   21  C7  UNL     1       7.139  29.234  -2.812  1.00  0.00     0.137 A 
ATOM     22  H3  UNL     1       7.177  29.850  -4.811  1.00  0.00     0.171 HD
HETATM   23  N4  UNL     1       8.010  29.754  -1.889  1.00  0.00    -0.340 N 
HETATM   24  C15 UNL     1       6.362  28.338  -2.134  1.00  0.00     0.093 A 
HETATM   25  C8  UNL     1       7.773  29.194  -0.689  1.00  0.00     0.046 A 
ATOM     26  H4  UNL     1       8.725  30.456  -2.082  1.00  0.00     0.167 HD
HETATM   27  C9  UNL     1       8.343  29.349   0.564  1.00  0.00     0.031 A 
HETATM   28  C14 UNL     1       6.738  28.291  -0.793  1.00  0.00     0.022 A 
HETATM   29  C10 UNL     1       7.883  28.625   1.639  1.00  0.00     0.009 A 
HETATM   30  C11 UNL     1       6.848  27.717   1.549  1.00  0.00    -0.061 A 
HETATM   31  C12 UNL     1       6.384  26.962   2.732  1.00  0.00     0.048 C 
HETATM   32  C13 UNL     1       6.270  27.556   0.293  1.00  0.00     0.023 A 
HETATM   33  N5  UNL     1       5.522  27.838  -3.026  1.00  0.00    -0.312 N 
ATOM     34  H5  UNL     1       4.810  27.137  -2.818  1.00  0.00     0.170 HD
ENDBRANCH  18  19
ENDBRANCH   1  18
BRANCH   1  35
HETATM   35  S1  UNL     1       2.992  27.628  -6.590  1.00  0.00    -0.100 SA
BRANCH  35  36
HETATM   36  C16 UNL     1       1.919  28.636  -5.542  1.00  0.00     0.077 C 
HETATM   37  C17 UNL     1       1.438  29.880  -6.285  1.00  0.00     0.016 C 
ENDBRANCH  35  36
ENDBRANCH   1  35
TORSDOF 10
ENDMDL
MODEL 2
REMARK VINA RESULT: -8.163186176      3.171      6.873
REMARK  10 active torsions:
REMARK  status: ('A' for Active; 'I' for Inactive)
REMARK    1  A    between atoms: C2_2  and  C3_3 
REMARK    2  A    between atoms: C3_3  and  N1_4 
REMARK    3  A    between atoms: N1_4  and  C4_6 
REMARK    4  A    between atoms: C4_6  and  C5_7 
REMARK    5  A    between atoms: C4_6  and  C18_28 
REMARK    6  A    between atoms: C5_7  and  N2_8 
REMARK    7  A    between atoms: C5_7  and  S1_25 
REMARK    8  A    between atoms: N2_8  and  C6_9 
REMARK    9  A    between atoms: S1_25  and  C16_26 
REMARK   10  A    between atoms: C18_28  and  N6_29 
ROOT
HETATM    1  C5  UNL     1       4.474  26.940  -7.743  1.00  0.00     0.150 C 
ENDROOT
BRANCH   1   2
HETATM    2  C4  UNL     1       5.812  26.858  -7.040  1.00  0.00     0.188 C 
BRANCH   2   3
HETATM    3  N1  UNL     1       6.894  26.548  -7.813  1.00  0.00    -0.389 N 
ATOM      4  H1  UNL     1       7.179  25.570  -7.860  1.00  0.00     0.159 HD
BRANCH   3   5
HETATM    5  C3  UNL     1       7.627  27.466  -8.533  1.00  0.00     0.056 C 
BRANCH   5   6
HETATM    6  C2  UNL     1       7.068  28.817  -8.866  1.00  0.00     0.039 C 
HETATM    7  C1  UNL     1       6.994  29.218 -10.288  1.00  0.00     0.010 C 
ENDBRANCH   5   6
ENDBRANCH   3   5
ENDBRANCH   2   3
BRANCH   2   8
HETATM    8  C18 UNL     1       5.721  26.078  -5.715  1.00  0.00     0.150 C 
HETATM    9  C19 UNL     1       6.716  25.022  -5.535  1.00  0.00     0.041 C 
HETATM   10  C20 UNL     1       7.785  25.181  -4.524  1.00  0.00     0.002 C 
HETATM   11  C21 UNL     1       7.454  26.038  -3.352  1.00  0.00     0.000 C 
HETATM   12  C22 UNL     1       6.903  27.352  -3.865  1.00  0.00     0.002 C 
HETATM   13  C23 UNL     1       5.643  27.092  -4.590  1.00  0.00     0.041 C 
BRANCH   8  14
HETATM   14  N6  UNL     1       4.387  25.487  -5.732  1.00  0.00    -0.068 N 
ATOM     15  H63 UNL     1       3.633  26.156  -5.581  1.00  0.00     0.275 HD
ATOM     16  H62 UNL     1       4.080  25.177  -6.654  1.00  0.00     0.275 HD
ATOM     17  H61 UNL     1       4.431  24.743  -5.036  1.00  0.00     0.275 HD
ENDBRANCH   8  14
ENDBRANCH   2   8
ENDBRANCH   1   2
BRANCH   1  18
HETATM   18  N2  UNL     1       3.432  27.646  -7.343  1.00  0.00    -0.366 NA
BRANCH  18  19
HETATM   19  C6  UNL     1       2.672  28.482  -6.934  1.00  0.00     0.262 A 
HETATM   20  N3  UNL     1       2.267  28.695  -5.646  1.00  0.00    -0.300 N 
HETATM   21  C7  UNL     1       1.423  29.722  -5.620  1.00  0.00     0.137 A 
ATOM     22  H3  UNL     1       2.564  28.153  -4.835  1.00  0.00     0.171 HD
HETATM   23  N4  UNL     1       0.640  30.507  -4.812  1.00  0.00    -0.340 N 
HETATM   24  C15 UNL     1       1.259  30.204  -6.887  1.00  0.00     0.093 A 
HETATM   25  C8  UNL     1       0.019  31.435  -5.562  1.00  0.00     0.046 A 
ATOM     26  H4  UNL     1       0.544  30.403  -3.802  1.00  0.00     0.167 HD
HETATM   27  C9  UNL     1      -0.865  32.460  -5.270  1.00  0.00     0.031 A 
HETATM   28  C14 UNL     1       0.379  31.285  -6.882  1.00  0.00     0.022 A 
HETATM   29  C10 UNL     1      -1.349  33.275  -6.265  1.00  0.00     0.009 A 
HETATM   30  C11 UNL     1      -0.998  33.135  -7.592  1.00  0.00    -0.061 A 
HETATM   31  C12 UNL     1      -1.541  34.037  -8.630  1.00  0.00     0.048 C 
HETATM   32  C13 UNL     1      -0.108  32.108  -7.895  1.00  0.00     0.023 A 
HETATM   33  N5  UNL     1       2.017  29.446  -7.665  1.00  0.00    -0.312 N 
ATOM     34  H5  UNL     1       2.104  29.562  -8.674  1.00  0.00     0.170 HD
ENDBRANCH  18  19
ENDBRANCH   1  18
BRANCH   1  35
HETATM   35  S1  UNL     1       4.295  26.064  -9.163  1.00  0.00    -0.100 SA
BRANCH  35  36
HETATM   36  C16 UNL     1       4.175  26.882 -10.771  1.00  0.00     0.077 C 
HETATM   37  C17 UNL     1       3.875  25.875 -11.878  1.00  0.00     0.016 C 
ENDBRANCH  35  36
ENDBRANCH   1  35
TORSDOF 10
ENDMDL
MODEL 3
REMARK VINA RESULT: -7.846760572      1.223      3.239
REMARK  10 active torsions:
REMARK  status: ('A' for Active; 'I' for Inactive)
REMARK    1  A    between atoms: C2_2  and  C3_3 
REMARK    2  A    between atoms: C3_3  and  N1_4 
REMARK    3  A    between atoms: N1_4  and  C4_6 
REMARK    4  A    between atoms: C4_6  and  C5_7 
REMARK    5  A    between atoms: C4_6  and  C18_28 
REMARK    6  A    between atoms: C5_7  and  N2_8 
REMARK    7  A    between atoms: C5_7  and  S1_25 
REMARK    8  A    between atoms: N2_8  and  C6_9 
REMARK    9  A    between atoms: S1_25  and  C16_26 
REMARK   10  A    between atoms: C18_28  and  N6_29 
ROOT
HETATM    1  C5  UNL     1       3.863  27.447  -6.093  1.00  0.00     0.150 C 
ENDROOT
BRANCH   1   2
HETATM    2  C4  UNL     1       4.221  26.353  -7.077  1.00  0.00     0.188 C 
BRANCH   2   3
HETATM    3  N1  UNL     1       4.881  25.269  -6.576  1.00  0.00    -0.389 N 
ATOM      4  H1  UNL     1       4.377  24.383  -6.536  1.00  0.00     0.159 HD
BRANCH   3   5
HETATM    5  C3  UNL     1       6.181  25.288  -6.120  1.00  0.00     0.056 C 
BRANCH   5   6
HETATM    6  C2  UNL     1       6.528  24.804  -4.743  1.00  0.00     0.039 C 
HETATM    7  C1  UNL     1       7.779  25.290  -4.120  1.00  0.00     0.010 C 
ENDBRANCH   5   6
ENDBRANCH   3   5
ENDBRANCH   2   3
BRANCH   2   8
HETATM    8  C18 UNL     1       4.809  26.920  -8.382  1.00  0.00     0.150 C 
HETATM    9  C19 UNL     1       5.099  25.936  -9.423  1.00  0.00     0.041 C 
HETATM   10  C20 UNL     1       4.285  25.908 -10.659  1.00  0.00     0.002 C 
HETATM   11  C21 UNL     1       3.677  27.203 -11.071  1.00  0.00     0.000 C 
HETATM   12  C22 UNL     1       2.950  27.788  -9.878  1.00  0.00     0.002 C 
HETATM   13  C23 UNL     1       3.933  28.080  -8.815  1.00  0.00     0.041 C 
BRANCH   8  14
HETATM   14  N6  UNL     1       6.050  27.568  -7.971  1.00  0.00    -0.068 N 
ATOM     15  H63 UNL     1       5.968  28.575  -7.830  1.00  0.00     0.275 HD
ATOM     16  H62 UNL     1       6.342  27.344  -7.020  1.00  0.00     0.275 HD
ATOM     17  H61 UNL     1       6.726  27.301  -8.687  1.00  0.00     0.275 HD
ENDBRANCH   8  14
ENDBRANCH   2   8
ENDBRANCH   1   2
BRANCH   1  18
HETATM   18  N2  UNL     1       4.679  27.991  -5.210  1.00  0.00    -0.366 NA
BRANCH  18  19
HETATM   19  C6  UNL     1       5.385  28.249  -4.272  1.00  0.00     0.262 A 
HETATM   20  N3  UNL     1       6.490  29.052  -4.243  1.00  0.00    -0.300 N 
HETATM   21  C7  UNL     1       6.980  29.075  -3.008  1.00  0.00     0.137 A 
ATOM     22  H3  UNL     1       6.877  29.554  -5.043  1.00  0.00     0.171 HD
HETATM   23  N4  UNL     1       7.969  29.584  -2.206  1.00  0.00    -0.340 N 
HETATM   24  C15 UNL     1       6.207  28.290  -2.201  1.00  0.00     0.093 A 
HETATM   25  C8  UNL     1       7.805  29.125  -0.952  1.00  0.00     0.046 A 
ATOM     26  H4  UNL     1       8.712  30.212  -2.511  1.00  0.00     0.167 HD
HETATM   27  C9  UNL     1       8.498  29.316   0.231  1.00  0.00     0.031 A 
HETATM   28  C14 UNL     1       6.702  28.302  -0.899  1.00  0.00     0.022 A 
HETATM   29  C10 UNL     1       8.089  28.703   1.392  1.00  0.00     0.009 A 
HETATM   30  C11 UNL     1       6.987  27.876   1.459  1.00  0.00    -0.061 A 
HETATM   31  C12 UNL     1       6.581  27.239   2.730  1.00  0.00     0.048 C 
HETATM   32  C13 UNL     1       6.283  27.679   0.274  1.00  0.00     0.023 A 
HETATM   33  N5  UNL     1       5.252  27.801  -2.978  1.00  0.00    -0.312 N 
ATOM     34  H5  UNL     1       4.514  27.174  -2.657  1.00  0.00     0.170 HD
ENDBRANCH  18  19
ENDBRANCH   1  18
BRANCH   1  35
HETATM   35  S1  UNL     1       2.289  28.028  -6.128  1.00  0.00    -0.100 SA
BRANCH  35  36
HETATM   36  C16 UNL     1       1.936  29.801  -6.151  1.00  0.00     0.077 C 
HETATM   37  C17 UNL     1       0.956  30.179  -5.042  1.00  0.00     0.016 C 
ENDBRANCH  35  36
ENDBRANCH   1  35
TORSDOF 10
ENDMDL
MODEL 4
REMARK VINA RESULT: -7.718228038      2.831      7.435
REMARK  10 active torsions:
REMARK  status: ('A' for Active; 'I' for Inactive)
REMARK    1  A    between atoms: C2_2  and  C3_3 
REMARK    2  A    between atoms: C3_3  and  N1_4 
REMARK    3  A    between atoms: N1_4  and  C4_6 
REMARK    4  A    between atoms: C4_6  and  C5_7 
REMARK    5  A    between atoms: C4_6  and  C18_28 
REMARK    6  A    between atoms: C5_7  and  N2_8 
REMARK    7  A    between atoms: C5_7  and  S1_25 
REMARK    8  A    between atoms: N2_8  and  C6_9 
REMARK    9  A    between atoms: S1_25  and  C16_26 
REMARK   10  A    between atoms: C18_28  and  N6_29 
ROOT
HETATM    1  C5  UNL     1       4.413  27.472  -6.879  1.00  0.00     0.150 C 
ENDROOT
BRANCH   1   2
HETATM    2  C4  UNL     1       5.249  26.584  -5.982  1.00  0.00     0.188 C 
BRANCH   2   3
HETATM    3  N1  UNL     1       4.721  25.368  -5.657  1.00  0.00    -0.389 N 
ATOM      4  H1  UNL     1       3.926  25.351  -5.019  1.00  0.00     0.159 HD
BRANCH   3   5
HETATM    5  C3  UNL     1       5.188  24.162  -6.131  1.00  0.00     0.056 C 
BRANCH   5   6
HETATM    6  C2  UNL     1       6.586  24.024  -6.658  1.00  0.00     0.039 C 
HETATM    7  C1  UNL     1       6.833  24.319  -8.087  1.00  0.00     0.010 C 
ENDBRANCH   5   6
ENDBRANCH   3   5
ENDBRANCH   2   3
BRANCH   2   8
HETATM    8  C18 UNL     1       5.852  27.363  -4.798  1.00  0.00     0.150 C 
HETATM    9  C19 UNL     1       5.041  27.390  -3.582  1.00  0.00     0.041 C 
HETATM   10  C20 UNL     1       5.489  26.652  -2.380  1.00  0.00     0.002 C 
HETATM   11  C21 UNL     1       6.959  26.469  -2.236  1.00  0.00     0.000 C 
HETATM   12  C22 UNL     1       7.497  25.900  -3.532  1.00  0.00     0.002 C 
HETATM   13  C23 UNL     1       7.280  26.884  -4.612  1.00  0.00     0.041 C 
BRANCH   8  14
HETATM   14  N6  UNL     1       6.014  28.723  -5.301  1.00  0.00    -0.068 N 
ATOM     15  H63 UNL     1       6.680  28.807  -6.069  1.00  0.00     0.275 HD
ATOM     16  H62 UNL     1       5.206  29.076  -5.814  1.00  0.00     0.275 HD
ATOM     17  H61 UNL     1       6.256  29.272  -4.476  1.00  0.00     0.275 HD
ENDBRANCH   8  14
ENDBRANCH   2   8
ENDBRANCH   1   2
BRANCH   1  18
HETATM   18  N2  UNL     1       3.363  28.181  -6.505  1.00  0.00    -0.366 NA
BRANCH  18  19
HETATM   19  C6  UNL     1       2.504  29.006  -6.347  1.00  0.00     0.262 A 
HETATM   20  N3  UNL     1       1.848  29.331  -5.194  1.00  0.00    -0.300 N 
HETATM   21  C7  UNL     1       0.974  30.300  -5.448  1.00  0.00     0.137 A 
ATOM     22  H3  UNL     1       2.005  28.900  -4.282  1.00  0.00     0.171 HD
HETATM   23  N4  UNL     1       0.017  31.116  -4.901  1.00  0.00    -0.340 N 
HETATM   24  C15 UNL     1       1.039  30.630  -6.771  1.00  0.00     0.093 A 
HETATM   25  C8  UNL     1      -0.484  31.916  -5.858  1.00  0.00     0.046 A 
ATOM     26  H4  UNL     1      -0.269  31.116  -3.922  1.00  0.00     0.167 HD
HETATM   27  C9  UNL     1      -1.451  32.908  -5.861  1.00  0.00     0.031 A 
HETATM   28  C14 UNL     1       0.131  31.647  -7.060  1.00  0.00     0.022 A 
HETATM   29  C10 UNL     1      -1.765  33.579  -7.019  1.00  0.00     0.009 A 
HETATM   30  C11 UNL     1      -1.157  33.319  -8.230  1.00  0.00    -0.061 A 
HETATM   31  C12 UNL     1      -1.526  34.067  -9.450  1.00  0.00     0.048 C 
HETATM   32  C13 UNL     1      -0.184  32.323  -8.236  1.00  0.00     0.023 A 
HETATM   33  N5  UNL     1       1.964  29.843  -7.297  1.00  0.00    -0.312 N 
ATOM     34  H5  UNL     1       2.241  29.854  -8.279  1.00  0.00     0.170 HD
ENDBRANCH  18  19
ENDBRANCH   1  18
BRANCH   1  35
HETATM   35  S1  UNL     1       4.860  27.575  -8.493  1.00  0.00    -0.100 SA
BRANCH  35  36
HETATM   36  C16 UNL     1       6.574  27.874  -8.982  1.00  0.00     0.077 C 
HETATM   37  C17 UNL     1       6.689  29.135  -9.836  1.00  0.00     0.016 C 
ENDBRANCH  35  36
ENDBRANCH   1  35
TORSDOF 10
ENDMDL
MODEL 5
REMARK VINA RESULT: -7.617060836      2.607      7.667
REMARK  10 active torsions:
REMARK  status: ('A' for Active; 'I' for Inactive)
REMARK    1  A    between atoms: C2_2  and  C3_3 
REMARK    2  A    between atoms: C3_3  and  N1_4 
REMARK    3  A    between atoms: N1_4  and  C4_6 
REMARK    4  A    between atoms: C4_6  and  C5_7 
REMARK    5  A    between atoms: C4_6  and  C18_28 
REMARK    6  A    between atoms: C5_7  and  N2_8 
REMARK    7  A    between atoms: C5_7  and  S1_25 
REMARK    8  A    between atoms: N2_8  and  C6_9 
REMARK    9  A    between atoms: S1_25  and  C16_26 
REMARK   10  A    between atoms: C18_28  and  N6_29 
ROOT
HETATM    1  C5  UNL     1       4.491  27.269  -5.213  1.00  0.00     0.150 C 
ENDROOT
BRANCH   1   2
HETATM    2  C4  UNL     1       5.369  26.942  -4.024  1.00  0.00     0.188 C 
BRANCH   2   3
HETATM    3  N1  UNL     1       4.952  25.926  -3.213  1.00  0.00    -0.389 N 
ATOM      4  H1  UNL     1       4.102  26.072  -2.670  1.00  0.00     0.159 HD
BRANCH   3   5
HETATM    5  C3  UNL     1       5.600  24.718  -3.078  1.00  0.00     0.056 C 
BRANCH   5   6
HETATM    6  C2  UNL     1       6.597  24.254  -4.097  1.00  0.00     0.039 C 
HETATM    7  C1  UNL     1       7.926  24.905  -4.131  1.00  0.00     0.010 C 
ENDBRANCH   5   6
ENDBRANCH   3   5
ENDBRANCH   2   3
BRANCH   2   8
HETATM    8  C18 UNL     1       5.835  28.209  -3.284  1.00  0.00     0.150 C 
HETATM    9  C19 UNL     1       4.904  28.735  -2.287  1.00  0.00     0.041 C 
HETATM   10  C20 UNL     1       5.241  28.653  -0.848  1.00  0.00     0.002 C 
HETATM   11  C21 UNL     1       6.692  28.648  -0.516  1.00  0.00     0.000 C 
HETATM   12  C22 UNL     1       7.369  27.588  -1.359  1.00  0.00     0.002 C 
HETATM   13  C23 UNL     1       7.244  27.958  -2.783  1.00  0.00     0.041 C 
BRANCH   8  14
HETATM   14  N6  UNL     1       6.021  29.199  -4.339  1.00  0.00    -0.068 N 
ATOM     15  H63 UNL     1       5.303  29.177  -5.064  1.00  0.00     0.275 HD
ATOM     16  H62 UNL     1       5.853  30.161  -4.044  1.00  0.00     0.275 HD
ATOM     17  H61 UNL     1       6.966  29.028  -4.684  1.00  0.00     0.275 HD
ENDBRANCH   8  14
ENDBRANCH   2   8
ENDBRANCH   1   2
BRANCH   1  18
HETATM   18  N2  UNL     1       3.377  27.977  -5.180  1.00  0.00    -0.366 NA
BRANCH  18  19
HETATM   19  C6  UNL     1       2.527  28.825  -5.233  1.00  0.00     0.262 A 
HETATM   20  N3  UNL     1       1.736  29.292  -4.222  1.00  0.00    -0.300 N 
HETATM   21  C7  UNL     1       0.928  30.233  -4.699  1.00  0.00     0.137 A 
ATOM     22  H3  UNL     1       1.762  28.969  -3.254  1.00  0.00     0.171 HD
HETATM   23  N4  UNL     1      -0.069  31.120  -4.380  1.00  0.00    -0.340 N 
HETATM   24  C15 UNL     1       1.174  30.405  -6.031  1.00  0.00     0.093 A 
HETATM   25  C8  UNL     1      -0.420  31.807  -5.481  1.00  0.00     0.046 A 
ATOM     26  H4  UNL     1      -0.479  31.238  -3.454  1.00  0.00     0.167 HD
HETATM   27  C9  UNL     1      -1.351  32.803  -5.726  1.00  0.00     0.031 A 
HETATM   28  C14 UNL     1       0.338  31.391  -6.552  1.00  0.00     0.022 A 
HETATM   29  C10 UNL     1      -1.495  33.337  -6.985  1.00  0.00     0.009 A 
HETATM   30  C11 UNL     1      -0.742  32.928  -8.067  1.00  0.00    -0.061 A 
HETATM   31  C12 UNL     1      -0.929  33.532  -9.403  1.00  0.00     0.048 C 
HETATM   32  C13 UNL     1       0.196  31.928  -7.830  1.00  0.00     0.023 A 
HETATM   33  N5  UNL     1       2.137  29.550  -6.336  1.00  0.00    -0.312 N 
ATOM     34  H5  UNL     1       2.539  29.443  -7.268  1.00  0.00     0.170 HD
ENDBRANCH  18  19
ENDBRANCH   1  18
BRANCH   1  35
HETATM   35  S1  UNL     1       4.974  26.688  -6.711  1.00  0.00    -0.100 SA
BRANCH  35  36
HETATM   36  C16 UNL     1       6.673  26.882  -7.297  1.00  0.00     0.077 C 
HETATM   37  C17 UNL     1       6.729  27.776  -8.533  1.00  0.00     0.016 C 
ENDBRANCH  35  36
ENDBRANCH   1  35
TORSDOF 10
ENDMDL
