MODEL 1
REMARK VINA RESULT: -9.671454278      0.000      0.000
REMARK  6 active torsions:
REMARK  status: ('A' for Active; 'I' for Inactive)
REMARK    1  A    between atoms: N1_1  and  C1_4 
REMARK    2  A    between atoms: C3_8  and  C4_9 
REMARK    3  A    between atoms: C4_9  and  N3_10 
REMARK       I    between atoms: N3_10  and  C5_12 
REMARK    4  A    between atoms: C5_12  and  C6_14 
REMARK    5  A    between atoms: C13_21  and  N4_22 
REMARK       I    between atoms: N4_22  and  C14_24 
REMARK       I    between atoms: C14_24  and  N5_26 
REMARK    6  A    between atoms: N5_26  and  C15_28 
ROOT
HETATM    1  C1  UNL     1       3.877  27.147 -10.016  1.00  0.00     0.126 A 
HETATM    2  N2  UNL     1       4.487  25.935 -10.054  1.00  0.00    -0.350 N 
ATOM      3  H2  UNL     1       4.493  25.418 -10.933  1.00  0.00     0.166 HD
HETATM    4  C2  UNL     1       5.087  25.385  -8.975  1.00  0.00     0.098 A 
HETATM    5  C3  UNL     1       5.112  26.023  -7.772  1.00  0.00    -0.023 A 
HETATM    6  C12 UNL     1       4.491  27.266  -7.716  1.00  0.00     0.043 A 
HETATM    7  C13 UNL     1       3.867  27.857  -8.810  1.00  0.00     0.080 A 
ENDROOT
BRANCH   7   8
HETATM    8  N4  UNL     1       3.246  29.102  -8.755  1.00  0.00    -0.305 N 
HETATM    9  C14 UNL     1       2.234  29.510  -7.888  1.00  0.00     0.321 C 
HETATM   10  O2  UNL     1       1.735  28.777  -7.012  1.00  0.00    -0.247 OA
HETATM   11  N5  UNL     1       1.697  30.876  -7.978  1.00  0.00    -0.338 N 
ATOM     12  H5  UNL     1       2.064  31.523  -8.675  1.00  0.00     0.164 HD
ATOM     13  H4  UNL     1       3.569  29.796  -9.429  1.00  0.00     0.171 HD
BRANCH  11  14
HETATM   14  C15 UNL     1       0.664  31.296  -7.091  1.00  0.00     0.094 C 
HETATM   15  C16 UNL     1      -0.352  32.196  -7.729  1.00  0.00     0.009 C 
HETATM   16  C17 UNL     1       0.131  33.589  -7.977  1.00  0.00     0.011 C 
HETATM   17  C21 UNL     1      -1.529  32.310  -6.751  1.00  0.00     0.011 C 
HETATM   18  C18 UNL     1       0.550  34.215  -6.680  1.00  0.00    -0.013 C 
HETATM   19  C19 UNL     1      -0.546  34.252  -5.646  1.00  0.00     0.009 C 
HETATM   20  C24 UNL     1       1.676  33.365  -6.111  1.00  0.00     0.011 C 
HETATM   21  C20 UNL     1      -1.064  32.842  -5.423  1.00  0.00    -0.013 C 
HETATM   22  C22 UNL     1       0.067  32.030  -4.843  1.00  0.00     0.011 C 
HETATM   23  C23 UNL     1       1.199  31.976  -5.847  1.00  0.00     0.009 C 
ENDBRANCH  11  14
ENDBRANCH   7   8
BRANCH   1  24
HETATM   24  N1  UNL     1       3.329  27.629 -11.042  1.00  0.00    -0.384 N 
ATOM     25  H12 UNL     1       3.895  28.045 -11.782  1.00  0.00     0.157 HD
ATOM     26  H11 UNL     1       2.315  27.612 -11.152  1.00  0.00     0.157 HD
ENDBRANCH   1  24
BRANCH   5  27
HETATM   27  C4  UNL     1       5.749  25.460  -6.582  1.00  0.00     0.162 C 
BRANCH  27  28
HETATM   28  N3  UNL     1       5.482  26.184  -5.366  1.00  0.00    -0.356 N 
HETATM   29  C5  UNL     1       6.464  26.848  -4.590  1.00  0.00     0.222 C 
HETATM   30  O1  UNL     1       7.680  26.841  -4.945  1.00  0.00    -0.273 OA
ATOM     31  H3  UNL     1       4.516  26.223  -5.041  1.00  0.00     0.162 HD
BRANCH  29  32
HETATM   32  C6  UNL     1       6.040  27.549  -3.353  1.00  0.00     0.078 C 
HETATM   33  C7  UNL     1       7.087  28.544  -2.893  1.00  0.00     0.014 C 
HETATM   34  C8  UNL     1       6.545  29.340  -1.730  1.00  0.00     0.001 C 
HETATM   35  C9  UNL     1       6.023  28.386  -0.692  1.00  0.00     0.000 C 
HETATM   36  C10 UNL     1       6.438  26.967  -0.985  1.00  0.00     0.001 C 
HETATM   37  C11 UNL     1       5.812  26.487  -2.281  1.00  0.00     0.014 C 
ENDBRANCH  29  32
ENDBRANCH  27  28
ENDBRANCH   5  27
TORSDOF 6
ENDMDL
MODEL 2
REMARK VINA RESULT: -9.629541736      1.216      1.778
REMARK  6 active torsions:
REMARK  status: ('A' for Active; 'I' for Inactive)
REMARK    1  A    between atoms: N1_1  and  C1_4 
REMARK    2  A    between atoms: C3_8  and  C4_9 
REMARK    3  A    between atoms: C4_9  and  N3_10 
REMARK       I    between atoms: N3_10  and  C5_12 
REMARK    4  A    between atoms: C5_12  and  C6_14 
REMARK    5  A    between atoms: C13_21  and  N4_22 
REMARK       I    between atoms: N4_22  and  C14_24 
REMARK       I    between atoms: C14_24  and  N5_26 
REMARK    6  A    between atoms: N5_26  and  C15_28 
ROOT
HETATM    1  C1  UNL     1       4.291  26.981  -9.108  1.00  0.00     0.126 A 
HETATM    2  N2  UNL     1       5.218  25.995  -8.990  1.00  0.00    -0.350 N 
ATOM      3  H2  UNL     1       5.706  25.680  -9.827  1.00  0.00     0.166 HD
HETATM    4  C2  UNL     1       5.519  25.414  -7.807  1.00  0.00     0.098 A 
HETATM    5  C3  UNL     1       4.902  25.787  -6.652  1.00  0.00    -0.023 A 
HETATM    6  C12 UNL     1       3.950  26.796  -6.756  1.00  0.00     0.043 A 
HETATM    7  C13 UNL     1       3.621  27.413  -7.958  1.00  0.00     0.080 A 
ENDROOT
BRANCH   7   8
HETATM    8  N4  UNL     1       2.669  28.424  -8.063  1.00  0.00    -0.305 N 
HETATM    9  C14 UNL     1       2.371  29.412  -7.126  1.00  0.00     0.321 C 
HETATM   10  O2  UNL     1       2.946  29.519  -6.026  1.00  0.00    -0.247 OA
HETATM   11  N5  UNL     1       1.325  30.405  -7.414  1.00  0.00    -0.338 N 
ATOM     12  H5  UNL     1       0.817  30.369  -8.298  1.00  0.00     0.164 HD
ATOM     13  H4  UNL     1       2.126  28.443  -8.926  1.00  0.00     0.171 HD
BRANCH  11  14
HETATM   14  C15 UNL     1       1.020  31.417  -6.459  1.00  0.00     0.094 C 
HETATM   15  C16 UNL     1      -0.416  31.428  -6.026  1.00  0.00     0.009 C 
HETATM   16  C17 UNL     1      -1.361  31.975  -7.048  1.00  0.00     0.011 C 
HETATM   17  C21 UNL     1      -0.511  32.352  -4.805  1.00  0.00     0.011 C 
HETATM   18  C18 UNL     1      -0.973  33.383  -7.389  1.00  0.00    -0.013 C 
HETATM   19  C19 UNL     1      -0.947  34.307  -6.199  1.00  0.00     0.009 C 
HETATM   20  C24 UNL     1       0.438  33.338  -7.954  1.00  0.00     0.011 C 
HETATM   21  C20 UNL     1      -0.018  33.732  -5.146  1.00  0.00    -0.013 C 
HETATM   22  C22 UNL     1       1.374  33.717  -5.728  1.00  0.00     0.011 C 
HETATM   23  C23 UNL     1       1.392  32.807  -6.937  1.00  0.00     0.009 C 
ENDBRANCH  11  14
ENDBRANCH   7   8
BRANCH   1  24
HETATM   24  N1  UNL     1       4.037  27.500 -10.226  1.00  0.00    -0.384 N 
ATOM     25  H12 UNL     1       3.905  28.508 -10.309  1.00  0.00     0.157 HD
ATOM     26  H11 UNL     1       3.958  26.925 -11.065  1.00  0.00     0.157 HD
ENDBRANCH   1  24
BRANCH   5  27
HETATM   27  C4  UNL     1       5.199  25.181  -5.355  1.00  0.00     0.162 C 
BRANCH  27  28
HETATM   28  N3  UNL     1       6.000  26.003  -4.485  1.00  0.00    -0.356 N 
HETATM   29  C5  UNL     1       5.983  25.937  -3.070  1.00  0.00     0.222 C 
HETATM   30  O1  UNL     1       5.233  25.110  -2.471  1.00  0.00    -0.273 OA
ATOM     31  H3  UNL     1       6.625  26.682  -4.920  1.00  0.00     0.162 HD
BRANCH  29  32
HETATM   32  C6  UNL     1       6.861  26.856  -2.303  1.00  0.00     0.078 C 
HETATM   33  C7  UNL     1       6.202  27.304  -1.013  1.00  0.00     0.014 C 
HETATM   34  C8  UNL     1       7.190  28.104  -0.198  1.00  0.00     0.001 C 
HETATM   35  C9  UNL     1       7.769  29.185  -1.067  1.00  0.00     0.000 C 
HETATM   36  C10 UNL     1       7.012  29.321  -2.363  1.00  0.00     0.001 C 
HETATM   37  C11 UNL     1       7.151  28.060  -3.194  1.00  0.00     0.014 C 
ENDBRANCH  29  32
ENDBRANCH  27  28
ENDBRANCH   5  27
TORSDOF 6
ENDMDL
MODEL 3
REMARK VINA RESULT: -9.531738599      0.927      1.284
REMARK  6 active torsions:
REMARK  status: ('A' for Active; 'I' for Inactive)
REMARK    1  A    between atoms: N1_1  and  C1_4 
REMARK    2  A    between atoms: C3_8  and  C4_9 
REMARK    3  A    between atoms: C4_9  and  N3_10 
REMARK       I    between atoms: N3_10  and  C5_12 
REMARK    4  A    between atoms: C5_12  and  C6_14 
REMARK    5  A    between atoms: C13_21  and  N4_22 
REMARK       I    between atoms: N4_22  and  C14_24 
REMARK       I    between atoms: C14_24  and  N5_26 
REMARK    6  A    between atoms: N5_26  and  C15_28 
ROOT
HETATM    1  C1  UNL     1       4.102  27.092  -9.282  1.00  0.00     0.126 A 
HETATM    2  N2  UNL     1       5.081  26.152  -9.233  1.00  0.00    -0.350 N 
ATOM      3  H2  UNL     1       5.529  25.867 -10.103  1.00  0.00     0.166 HD
HETATM    4  C2  UNL     1       5.485  25.579  -8.078  1.00  0.00     0.098 A 
HETATM    5  C3  UNL     1       4.926  25.913  -6.882  1.00  0.00    -0.023 A 
HETATM    6  C12 UNL     1       3.922  26.875  -6.915  1.00  0.00     0.043 A 
HETATM    7  C13 UNL     1       3.486  27.483  -8.088  1.00  0.00     0.080 A 
ENDROOT
BRANCH   7   8
HETATM    8  N4  UNL     1       2.481  28.446  -8.122  1.00  0.00    -0.305 N 
HETATM    9  C14 UNL     1       2.238  29.454  -7.190  1.00  0.00     0.321 C 
HETATM   10  O2  UNL     1       2.921  29.628  -6.163  1.00  0.00    -0.247 OA
HETATM   11  N5  UNL     1       1.121  30.389  -7.396  1.00  0.00    -0.338 N 
ATOM     12  H5  UNL     1       0.524  30.298  -8.218  1.00  0.00     0.164 HD
ATOM     13  H4  UNL     1       1.849  28.409  -8.921  1.00  0.00     0.171 HD
BRANCH  11  14
HETATM   14  C15 UNL     1       0.872  31.421  -6.446  1.00  0.00     0.094 C 
HETATM   15  C16 UNL     1      -0.568  31.535  -6.040  1.00  0.00     0.009 C 
HETATM   16  C17 UNL     1      -1.453  32.147  -7.079  1.00  0.00     0.011 C 
HETATM   17  C21 UNL     1      -0.619  32.466  -4.821  1.00  0.00     0.011 C 
HETATM   18  C18 UNL     1      -0.960  33.523  -7.413  1.00  0.00    -0.013 C 
HETATM   19  C19 UNL     1      -0.890  34.444  -6.223  1.00  0.00     0.009 C 
HETATM   20  C24 UNL     1       0.455  33.377  -7.953  1.00  0.00     0.011 C 
HETATM   21  C20 UNL     1      -0.023  33.806  -5.153  1.00  0.00    -0.013 C 
HETATM   22  C22 UNL     1       1.375  33.691  -5.709  1.00  0.00     0.011 C 
HETATM   23  C23 UNL     1       1.350  32.780  -6.918  1.00  0.00     0.009 C 
ENDBRANCH  11  14
ENDBRANCH   7   8
BRANCH   1  24
HETATM   24  N1  UNL     1       3.751  27.605 -10.377  1.00  0.00    -0.384 N 
ATOM     25  H12 UNL     1       3.421  27.015 -11.141  1.00  0.00     0.157 HD
ATOM     26  H11 UNL     1       3.790  28.614 -10.520  1.00  0.00     0.157 HD
ENDBRANCH   1  24
BRANCH   5  27
HETATM   27  C4  UNL     1       5.335  25.314  -5.612  1.00  0.00     0.162 C 
BRANCH  27  28
HETATM   28  N3  UNL     1       5.447  26.249  -4.523  1.00  0.00    -0.356 N 
HETATM   29  C5  UNL     1       6.623  26.969  -4.194  1.00  0.00     0.222 C 
HETATM   30  O1  UNL     1       7.681  26.824  -4.876  1.00  0.00    -0.273 OA
ATOM     31  H3  UNL     1       4.620  26.405  -3.947  1.00  0.00     0.162 HD
BRANCH  29  32
HETATM   32  C6  UNL     1       6.590  27.895  -3.035  1.00  0.00     0.078 C 
HETATM   33  C7  UNL     1       7.967  28.066  -2.423  1.00  0.00     0.014 C 
HETATM   34  C8  UNL     1       7.911  29.132  -1.356  1.00  0.00     0.001 C 
HETATM   35  C9  UNL     1       6.790  28.809  -0.408  1.00  0.00     0.000 C 
HETATM   36  C10 UNL     1       6.256  27.418  -0.634  1.00  0.00     0.001 C 
HETATM   37  C11 UNL     1       5.625  27.309  -2.009  1.00  0.00     0.014 C 
ENDBRANCH  29  32
ENDBRANCH  27  28
ENDBRANCH   5  27
TORSDOF 6
ENDMDL
MODEL 4
REMARK VINA RESULT: -9.487878221      1.085      1.880
REMARK  6 active torsions:
REMARK  status: ('A' for Active; 'I' for Inactive)
REMARK    1  A    between atoms: N1_1  and  C1_4 
REMARK    2  A    between atoms: C3_8  and  C4_9 
REMARK    3  A    between atoms: C4_9  and  N3_10 
REMARK       I    between atoms: N3_10  and  C5_12 
REMARK    4  A    between atoms: C5_12  and  C6_14 
REMARK    5  A    between atoms: C13_21  and  N4_22 
REMARK       I    between atoms: N4_22  and  C14_24 
REMARK       I    between atoms: C14_24  and  N5_26 
REMARK    6  A    between atoms: N5_26  and  C15_28 
ROOT
HETATM    1  C1  UNL     1       3.338  27.501  -8.982  1.00  0.00     0.126 A 
HETATM    2  N2  UNL     1       4.362  26.657  -9.273  1.00  0.00    -0.350 N 
ATOM      3  H2  UNL     1       4.573  26.465 -10.252  1.00  0.00     0.166 HD
HETATM    4  C2  UNL     1       5.111  26.063  -8.319  1.00  0.00     0.098 A 
HETATM    5  C3  UNL     1       4.879  26.276  -6.994  1.00  0.00    -0.023 A 
HETATM    6  C12 UNL     1       3.834  27.138  -6.679  1.00  0.00     0.043 A 
HETATM    7  C13 UNL     1       3.047  27.765  -7.639  1.00  0.00     0.080 A 
ENDROOT
BRANCH   7   8
HETATM    8  N4  UNL     1       2.001  28.629  -7.325  1.00  0.00    -0.305 N 
HETATM    9  C14 UNL     1       1.891  29.982  -7.641  1.00  0.00     0.321 C 
HETATM   10  O2  UNL     1       2.755  30.618  -8.275  1.00  0.00    -0.247 OA
HETATM   11  N5  UNL     1       0.700  30.739  -7.223  1.00  0.00    -0.338 N 
ATOM     12  H5  UNL     1      -0.042  30.274  -6.701  1.00  0.00     0.164 HD
ATOM     13  H4  UNL     1       1.224  28.224  -6.802  1.00  0.00     0.171 HD
BRANCH  11  14
HETATM   14  C15 UNL     1       0.585  32.121  -7.548  1.00  0.00     0.094 C 
HETATM   15  C16 UNL     1       0.980  33.039  -6.429  1.00  0.00     0.009 C 
HETATM   16  C17 UNL     1      -0.019  33.119  -5.319  1.00  0.00     0.011 C 
HETATM   17  C21 UNL     1       1.086  34.451  -7.022  1.00  0.00     0.011 C 
HETATM   18  C18 UNL     1      -1.336  33.592  -5.859  1.00  0.00    -0.013 C 
HETATM   19  C19 UNL     1      -1.260  34.930  -6.548  1.00  0.00     0.009 C 
HETATM   20  C24 UNL     1      -1.789  32.576  -6.897  1.00  0.00     0.011 C 
HETATM   21  C20 UNL     1      -0.218  34.861  -7.651  1.00  0.00    -0.013 C 
HETATM   22  C22 UNL     1      -0.703  33.861  -8.672  1.00  0.00     0.011 C 
HETATM   23  C23 UNL     1      -0.805  32.500  -8.017  1.00  0.00     0.009 C 
ENDBRANCH  11  14
ENDBRANCH   7   8
BRANCH   1  24
HETATM   24  N1  UNL     1       2.661  28.038  -9.898  1.00  0.00    -0.384 N 
ATOM     25  H12 UNL     1       2.141  27.462 -10.560  1.00  0.00     0.157 HD
ATOM     26  H11 UNL     1       2.621  29.052  -9.995  1.00  0.00     0.157 HD
ENDBRANCH   1  24
BRANCH   5  27
HETATM   27  C4  UNL     1       5.667  25.650  -5.933  1.00  0.00     0.162 C 
BRANCH  27  28
HETATM   28  N3  UNL     1       5.615  26.338  -4.670  1.00  0.00    -0.356 N 
HETATM   29  C5  UNL     1       6.735  26.899  -4.008  1.00  0.00     0.222 C 
HETATM   30  O1  UNL     1       7.892  26.825  -4.522  1.00  0.00    -0.273 OA
ATOM     31  H3  UNL     1       4.705  26.429  -4.218  1.00  0.00     0.162 HD
BRANCH  29  32
HETATM   32  C6  UNL     1       6.528  27.574  -2.703  1.00  0.00     0.078 C 
HETATM   33  C7  UNL     1       7.816  28.182  -2.183  1.00  0.00     0.014 C 
HETATM   34  C8  UNL     1       7.524  28.988  -0.941  1.00  0.00     0.001 C 
HETATM   35  C9  UNL     1       6.750  28.130   0.021  1.00  0.00     0.000 C 
HETATM   36  C10 UNL     1       6.742  26.685  -0.408  1.00  0.00     0.001 C 
HETATM   37  C11 UNL     1       6.006  26.526  -1.725  1.00  0.00     0.014 C 
ENDBRANCH  29  32
ENDBRANCH  27  28
ENDBRANCH   5  27
TORSDOF 6
ENDMDL
MODEL 5
REMARK VINA RESULT: -9.111770548      2.011      2.765
REMARK  6 active torsions:
REMARK  status: ('A' for Active; 'I' for Inactive)
REMARK    1  A    between atoms: N1_1  and  C1_4 
REMARK    2  A    between atoms: C3_8  and  C4_9 
REMARK    3  A    between atoms: C4_9  and  N3_10 
REMARK       I    between atoms: N3_10  and  C5_12 
REMARK    4  A    between atoms: C5_12  and  C6_14 
REMARK    5  A    between atoms: C13_21  and  N4_22 
REMARK       I    between atoms: N4_22  and  C14_24 
REMARK       I    between atoms: C14_24  and  N5_26 
REMARK    6  A    between atoms: N5_26  and  C15_28 
ROOT
HETATM    1  C1  UNL     1       2.471  27.358  -6.793  1.00  0.00     0.126 A 
HETATM    2  N2  UNL     1       3.368  26.369  -7.043  1.00  0.00    -0.350 N 
ATOM      3  H2  UNL     1       3.082  25.587  -7.631  1.00  0.00     0.166 HD
HETATM    4  C2  UNL     1       4.624  26.380  -6.545  1.00  0.00     0.098 A 
HETATM    5  C3  UNL     1       5.068  27.395  -5.751  1.00  0.00    -0.023 A 
HETATM    6  C12 UNL     1       4.160  28.415  -5.485  1.00  0.00     0.043 A 
HETATM    7  C13 UNL     1       2.863  28.431  -5.985  1.00  0.00     0.080 A 
ENDROOT
BRANCH   7   8
HETATM    8  N4  UNL     1       1.954  29.452  -5.720  1.00  0.00    -0.305 N 
HETATM    9  C14 UNL     1       1.717  30.598  -6.478  1.00  0.00     0.321 C 
HETATM   10  O2  UNL     1       2.317  30.864  -7.538  1.00  0.00    -0.247 OA
HETATM   11  N5  UNL     1       0.708  31.574  -6.038  1.00  0.00    -0.338 N 
ATOM     12  H5  UNL     1       0.185  31.413  -5.178  1.00  0.00     0.164 HD
ATOM     13  H4  UNL     1       1.397  29.351  -4.872  1.00  0.00     0.171 HD
BRANCH  11  14
HETATM   14  C15 UNL     1       0.463  32.744  -6.813  1.00  0.00     0.094 C 
HETATM   15  C16 UNL     1       1.274  33.932  -6.386  1.00  0.00     0.009 C 
HETATM   16  C17 UNL     1       0.813  34.564  -5.112  1.00  0.00     0.011 C 
HETATM   17  C21 UNL     1       1.121  34.997  -7.481  1.00  0.00     0.011 C 
HETATM   18  C18 UNL     1      -0.612  35.008  -5.256  1.00  0.00    -0.013 C 
HETATM   19  C19 UNL     1      -0.831  35.975  -6.391  1.00  0.00     0.009 C 
HETATM   20  C24 UNL     1      -1.442  33.769  -5.554  1.00  0.00     0.011 C 
HETATM   21  C20 UNL     1      -0.328  35.348  -7.679  1.00  0.00    -0.013 C 
HETATM   22  C22 UNL     1      -1.181  34.136  -7.958  1.00  0.00     0.011 C 
HETATM   23  C23 UNL     1      -1.000  33.139  -6.832  1.00  0.00     0.009 C 
ENDBRANCH  11  14
ENDBRANCH   7   8
BRANCH   1  24
HETATM   24  N1  UNL     1       1.309  27.315  -7.275  1.00  0.00    -0.384 N 
ATOM     25  H12 UNL     1       0.877  26.418  -7.499  1.00  0.00     0.157 HD
ATOM     26  H11 UNL     1       0.781  28.170  -7.450  1.00  0.00     0.157 HD
ENDBRANCH   1  24
BRANCH   5  27
HETATM   27  C4  UNL     1       6.418  27.440  -5.192  1.00  0.00     0.162 C 
BRANCH  27  28
HETATM   28  N3  UNL     1       6.467  27.730  -3.782  1.00  0.00    -0.356 N 
HETATM   29  C5  UNL     1       6.792  28.992  -3.228  1.00  0.00     0.222 C 
HETATM   30  O1  UNL     1       7.062  29.977  -3.979  1.00  0.00    -0.273 OA
ATOM     31  H3  UNL     1       6.253  26.970  -3.136  1.00  0.00     0.162 HD
BRANCH  29  32
HETATM   32  C6  UNL     1       6.811  29.139  -1.752  1.00  0.00     0.078 C 
HETATM   33  C7  UNL     1       8.219  29.023  -1.201  1.00  0.00     0.014 C 
HETATM   34  C8  UNL     1       8.206  29.335   0.276  1.00  0.00     0.001 C 
HETATM   35  C9  UNL     1       7.154  28.491   0.939  1.00  0.00     0.000 C 
HETATM   36  C10 UNL     1       6.638  27.419   0.014  1.00  0.00     0.001 C 
HETATM   37  C11 UNL     1       5.925  28.040  -1.172  1.00  0.00     0.014 C 
ENDBRANCH  29  32
ENDBRANCH  27  28
ENDBRANCH   5  27
TORSDOF 6
ENDMDL
