MODEL 1
REMARK VINA RESULT: -6.695456574      0.000      0.000
REMARK  14 active torsions:
REMARK  status: ('A' for Active; 'I' for Inactive)
REMARK    1  A    between atoms: C2_2  and  O1_3 
REMARK    2  A    between atoms: C2_2  and  O2_5 
REMARK    3  A    between atoms: C2_2  and  C3_7 
REMARK       I    between atoms: C3_7  and  N1_9 
REMARK    4  A    between atoms: N1_9  and  C4_11 
REMARK    5  A    between atoms: C5_12  and  N2_13 
REMARK    6  A    between atoms: N2_13  and  C6_15 
REMARK    7  A    between atoms: C6_15  and  C7_20 
REMARK    8  A    between atoms: N3_16  and  O4_18 
REMARK    9  A    between atoms: C8_26  and  N6_27 
REMARK   10  A    between atoms: C10_31  and  N7_32 
REMARK   11  A    between atoms: C11_36  and  N8_37 
REMARK   12  A    between atoms: N8_37  and  C12_39 
REMARK   13  A    between atoms: C13_45  and  C14_46 
REMARK   14  A    between atoms: C14_46  and  O7_47 
ROOT
HETATM    1  C4  UNL     1      -7.818 -23.130  -2.214  1.00  0.00     0.132 C 
HETATM    2  C5  UNL     1      -7.176 -22.300  -1.127  1.00  0.00     0.110 C 
HETATM    3  C9  UNL     1      -8.116 -22.566   0.005  1.00  0.00     0.062 C 
HETATM    4  C10 UNL     1      -8.327 -24.034  -0.019  1.00  0.00     0.210 C 
HETATM    5  C11 UNL     1      -8.243 -24.405  -1.492  1.00  0.00     0.138 C 
ENDROOT
BRANCH   2   6
HETATM    6  N2  UNL     1      -5.827 -22.678  -0.893  1.00  0.00    -0.366 N 
ATOM      7  H2  UNL     1      -5.473 -23.535  -1.319  1.00  0.00     0.161 HD
BRANCH   6   8
HETATM    8  C6  UNL     1      -4.941 -21.892  -0.072  1.00  0.00     0.154 C 
HETATM    9  N3  UNL     1      -4.942 -20.615  -0.147  1.00  0.00    -0.251 N 
ATOM     10  H3  UNL     1      -5.580 -20.161  -0.801  1.00  0.00     0.196 HD
BRANCH   9  11
HETATM   11  O4  UNL     1      -4.127 -19.848   0.610  1.00  0.00    -0.288 OA
ATOM     12  H4  UNL     1      -4.322 -18.938   0.803  1.00  0.00     0.244 HD
ENDBRANCH   9  11
BRANCH   8  13
HETATM   13  C7  UNL     1      -4.010 -22.521   0.845  1.00  0.00     0.147 A 
HETATM   14  N4  UNL     1      -2.693 -22.748   0.577  1.00  0.00    -0.234 N 
HETATM   15  O5  UNL     1      -2.139 -23.309   1.621  1.00  0.00    -0.155 OA
ATOM     16  H4  UNL     1      -2.217 -22.517  -0.295  1.00  0.00     0.197 HD
HETATM   17  N5  UNL     1      -3.009 -23.466   2.556  1.00  0.00    -0.224 N 
HETATM   18  C8  UNL     1      -4.207 -22.986   2.127  1.00  0.00     0.154 A 
ATOM     19  H5  UNL     1      -2.830 -23.882   3.470  1.00  0.00     0.198 HD
BRANCH  18  20
HETATM   20  N6  UNL     1      -5.278 -22.968   2.842  1.00  0.00    -0.382 N 
ATOM     21  H62 UNL     1      -6.212 -23.169   2.482  1.00  0.00     0.157 HD
ATOM     22  H61 UNL     1      -5.382 -22.789   3.840  1.00  0.00     0.157 HD
ENDBRANCH  18  20
ENDBRANCH   8  13
ENDBRANCH   6   8
ENDBRANCH   2   6
BRANCH   1  23
HETATM   23  N1  UNL     1      -7.022 -23.346  -3.367  1.00  0.00    -0.348 N 
HETATM   24  C3  UNL     1      -7.424 -22.826  -4.622  1.00  0.00     0.280 C 
HETATM   25  O3  UNL     1      -8.499 -22.176  -4.670  1.00  0.00    -0.267 OA
ATOM     26  H1  UNL     1      -6.156 -23.879  -3.293  1.00  0.00     0.163 HD
BRANCH  24  27
HETATM   27  C2  UNL     1      -6.627 -23.023  -5.863  1.00  0.00     0.239 C 
HETATM   28  C1  UNL     1      -5.285 -23.646  -5.600  1.00  0.00     0.090 C 
BRANCH  27  29
HETATM   29  O1  UNL     1      -7.320 -23.861  -6.729  1.00  0.00    -0.358 OA
ATOM     30  H1  UNL     1      -8.174 -23.474  -6.884  1.00  0.00     0.213 HD
ENDBRANCH  27  29
BRANCH  27  31
HETATM   31  O2  UNL     1      -6.480 -21.800  -6.554  1.00  0.00    -0.358 OA
ATOM     32  H2  UNL     1      -6.890 -21.093  -6.071  1.00  0.00     0.213 HD
ENDBRANCH  27  31
ENDBRANCH  24  27
ENDBRANCH   1  23
BRANCH   5  33
HETATM   33  N8  UNL     1      -9.473 -24.902  -1.923  1.00  0.00    -0.364 N 
ATOM     34  H8  UNL     1     -10.254 -24.466  -1.433  1.00  0.00     0.161 HD
BRANCH  33  35
HETATM   35  C12 UNL     1      -9.862 -25.760  -2.771  1.00  0.00     0.150 A 
HETATM   36  N9  UNL     1      -9.649 -27.102  -2.597  1.00  0.00    -0.224 N 
HETATM   37  O6  UNL     1     -10.143 -27.705  -3.604  1.00  0.00    -0.155 OA
ATOM     38  H9  UNL     1      -9.181 -27.539  -1.804  1.00  0.00     0.198 HD
HETATM   39  N10 UNL     1     -10.675 -26.897  -4.451  1.00  0.00    -0.240 N 
HETATM   40  C13 UNL     1     -10.522 -25.642  -3.965  1.00  0.00     0.103 A 
ATOM     41  H10 UNL     1     -11.129 -27.154  -5.328  1.00  0.00     0.196 HD
BRANCH  40  42
HETATM   42  C14 UNL     1     -11.001 -24.413  -4.617  1.00  0.00     0.227 C 
BRANCH  42  43
HETATM   43  O7  UNL     1     -10.277 -24.207  -5.802  1.00  0.00    -0.395 OA
ATOM     44  H7  UNL     1     -10.687 -23.510  -6.301  1.00  0.00     0.209 HD
ENDBRANCH  42  43
ENDBRANCH  40  42
ENDBRANCH  33  35
ENDBRANCH   5  33
BRANCH   4  45
HETATM   45  N7  UNL     1      -7.313 -24.740   0.706  1.00  0.00    -0.073 N 
ATOM     46  H73 UNL     1      -6.619 -25.139   0.074  1.00  0.00     0.274 HD
ATOM     47  H72 UNL     1      -6.713 -24.097   1.222  1.00  0.00     0.274 HD
ATOM     48  H71 UNL     1      -7.704 -25.454   1.322  1.00  0.00     0.274 HD
ENDBRANCH   4  45
TORSDOF 14
ENDMDL
MODEL 2
REMARK VINA RESULT: -6.669332545      1.984      3.004
REMARK  14 active torsions:
REMARK  status: ('A' for Active; 'I' for Inactive)
REMARK    1  A    between atoms: C2_2  and  O1_3 
REMARK    2  A    between atoms: C2_2  and  O2_5 
REMARK    3  A    between atoms: C2_2  and  C3_7 
REMARK       I    between atoms: C3_7  and  N1_9 
REMARK    4  A    between atoms: N1_9  and  C4_11 
REMARK    5  A    between atoms: C5_12  and  N2_13 
REMARK    6  A    between atoms: N2_13  and  C6_15 
REMARK    7  A    between atoms: C6_15  and  C7_20 
REMARK    8  A    between atoms: N3_16  and  O4_18 
REMARK    9  A    between atoms: C8_26  and  N6_27 
REMARK   10  A    between atoms: C10_31  and  N7_32 
REMARK   11  A    between atoms: C11_36  and  N8_37 
REMARK   12  A    between atoms: N8_37  and  C12_39 
REMARK   13  A    between atoms: C13_45  and  C14_46 
REMARK   14  A    between atoms: C14_46  and  O7_47 
ROOT
HETATM    1  C4  UNL     1      -8.568 -23.588  -2.130  1.00  0.00     0.132 C 
HETATM    2  C5  UNL     1      -8.167 -22.550  -1.108  1.00  0.00     0.110 C 
HETATM    3  C9  UNL     1      -9.122 -22.876  -0.005  1.00  0.00     0.062 C 
HETATM    4  C10 UNL     1      -9.063 -24.353   0.121  1.00  0.00     0.210 C 
HETATM    5  C11 UNL     1      -8.806 -24.844  -1.297  1.00  0.00     0.138 C 
ENDROOT
BRANCH   2   6
HETATM    6  N2  UNL     1      -6.791 -22.645  -0.762  1.00  0.00    -0.366 N 
ATOM      7  H2  UNL     1      -6.436 -23.525  -0.388  1.00  0.00     0.161 HD
BRANCH   6   8
HETATM    8  C6  UNL     1      -5.882 -21.539  -0.924  1.00  0.00     0.154 C 
HETATM    9  N3  UNL     1      -5.363 -20.966   0.095  1.00  0.00    -0.251 N 
ATOM     10  H3  UNL     1      -5.604 -21.304   1.027  1.00  0.00     0.196 HD
BRANCH   9  11
HETATM   11  O4  UNL     1      -4.506 -19.928  -0.021  1.00  0.00    -0.288 OA
ATOM     12  H4  UNL     1      -4.483 -19.217   0.610  1.00  0.00     0.244 HD
ENDBRANCH   9  11
BRANCH   8  13
HETATM   13  C7  UNL     1      -5.547 -21.027  -2.239  1.00  0.00     0.147 A 
HETATM   14  N4  UNL     1      -4.409 -21.334  -2.923  1.00  0.00    -0.234 N 
HETATM   15  O5  UNL     1      -4.432 -20.722  -4.078  1.00  0.00    -0.155 OA
ATOM     16  H4  UNL     1      -3.661 -21.941  -2.588  1.00  0.00     0.197 HD
HETATM   17  N5  UNL     1      -5.512 -20.033  -4.196  1.00  0.00    -0.224 N 
HETATM   18  C8  UNL     1      -6.257 -20.187  -3.068  1.00  0.00     0.154 A 
ATOM     19  H5  UNL     1      -5.768 -19.464  -5.003  1.00  0.00     0.198 HD
BRANCH  18  20
HETATM   20  N6  UNL     1      -7.412 -19.650  -2.885  1.00  0.00    -0.382 N 
ATOM     21  H62 UNL     1      -7.592 -18.880  -2.239  1.00  0.00     0.157 HD
ATOM     22  H61 UNL     1      -8.299 -19.860  -3.342  1.00  0.00     0.157 HD
ENDBRANCH  18  20
ENDBRANCH   8  13
ENDBRANCH   6   8
ENDBRANCH   2   6
BRANCH   1  23
HETATM   23  N1  UNL     1      -7.665 -23.763  -3.209  1.00  0.00    -0.348 N 
HETATM   24  C3  UNL     1      -7.828 -23.022  -4.406  1.00  0.00     0.280 C 
HETATM   25  O3  UNL     1      -8.792 -22.218  -4.471  1.00  0.00    -0.267 OA
ATOM     26  H1  UNL     1      -6.895 -24.425  -3.123  1.00  0.00     0.163 HD
BRANCH  24  27
HETATM   27  C2  UNL     1      -6.910 -23.167  -5.568  1.00  0.00     0.239 C 
HETATM   28  C1  UNL     1      -5.631 -23.873  -5.216  1.00  0.00     0.090 C 
BRANCH  27  29
HETATM   29  O1  UNL     1      -7.540 -23.902  -6.565  1.00  0.00    -0.358 OA
ATOM     30  H1  UNL     1      -7.742 -23.309  -7.279  1.00  0.00     0.213 HD
ENDBRANCH  27  29
BRANCH  27  31
HETATM   31  O2  UNL     1      -6.638 -21.905  -6.141  1.00  0.00    -0.358 OA
ATOM     32  H2  UNL     1      -6.131 -22.003  -6.939  1.00  0.00     0.213 HD
ENDBRANCH  27  31
ENDBRANCH  24  27
ENDBRANCH   1  23
BRANCH   5  33
HETATM   33  N8  UNL     1      -9.893 -25.601  -1.735  1.00  0.00    -0.364 N 
ATOM     34  H8  UNL     1      -9.767 -26.596  -1.548  1.00  0.00     0.161 HD
BRANCH  33  35
HETATM   35  C12 UNL     1     -10.997 -25.360  -2.308  1.00  0.00     0.150 A 
HETATM   36  N9  UNL     1     -12.120 -25.010  -1.606  1.00  0.00    -0.224 N 
HETATM   37  O6  UNL     1     -13.063 -24.836  -2.445  1.00  0.00    -0.155 OA
ATOM     38  H9  UNL     1     -12.189 -24.906  -0.594  1.00  0.00     0.198 HD
HETATM   39  N10 UNL     1     -12.686 -25.035  -3.658  1.00  0.00    -0.240 N 
HETATM   40  C13 UNL     1     -11.375 -25.372  -3.625  1.00  0.00     0.103 A 
ATOM     41  H10 UNL     1     -13.268 -24.954  -4.492  1.00  0.00     0.196 HD
BRANCH  40  42
HETATM   42  C14 UNL     1     -10.544 -25.672  -4.801  1.00  0.00     0.227 C 
BRANCH  42  43
HETATM   43  O7  UNL     1     -10.464 -24.528  -5.613  1.00  0.00    -0.395 OA
ATOM     44  H7  UNL     1      -9.671 -24.050  -5.400  1.00  0.00     0.209 HD
ENDBRANCH  42  43
ENDBRANCH  40  42
ENDBRANCH  33  35
ENDBRANCH   5  33
BRANCH   4  45
HETATM   45  N7  UNL     1      -7.993 -24.783   0.970  1.00  0.00    -0.073 N 
ATOM     46  H73 UNL     1      -8.209 -24.611   1.952  1.00  0.00     0.274 HD
ATOM     47  H72 UNL     1      -7.928 -25.801   0.995  1.00  0.00     0.274 HD
ATOM     48  H71 UNL     1      -7.099 -24.364   0.711  1.00  0.00     0.274 HD
ENDBRANCH   4  45
TORSDOF 14
ENDMDL
MODEL 3
REMARK VINA RESULT: -6.649245517      1.655      2.622
REMARK  14 active torsions:
REMARK  status: ('A' for Active; 'I' for Inactive)
REMARK    1  A    between atoms: C2_2  and  O1_3 
REMARK    2  A    between atoms: C2_2  and  O2_5 
REMARK    3  A    between atoms: C2_2  and  C3_7 
REMARK       I    between atoms: C3_7  and  N1_9 
REMARK    4  A    between atoms: N1_9  and  C4_11 
REMARK    5  A    between atoms: C5_12  and  N2_13 
REMARK    6  A    between atoms: N2_13  and  C6_15 
REMARK    7  A    between atoms: C6_15  and  C7_20 
REMARK    8  A    between atoms: N3_16  and  O4_18 
REMARK    9  A    between atoms: C8_26  and  N6_27 
REMARK   10  A    between atoms: C10_31  and  N7_32 
REMARK   11  A    between atoms: C11_36  and  N8_37 
REMARK   12  A    between atoms: N8_37  and  C12_39 
REMARK   13  A    between atoms: C13_45  and  C14_46 
REMARK   14  A    between atoms: C14_46  and  O7_47 
ROOT
HETATM    1  C4  UNL     1      -8.475 -23.319  -2.020  1.00  0.00     0.132 C 
HETATM    2  C5  UNL     1      -8.058 -22.349  -0.939  1.00  0.00     0.110 C 
HETATM    3  C9  UNL     1      -9.042 -22.700   0.130  1.00  0.00     0.062 C 
HETATM    4  C10 UNL     1      -9.032 -24.182   0.180  1.00  0.00     0.210 C 
HETATM    5  C11 UNL     1      -8.767 -24.608  -1.257  1.00  0.00     0.138 C 
ENDROOT
BRANCH   2   6
HETATM    6  N2  UNL     1      -6.692 -22.507  -0.578  1.00  0.00    -0.366 N 
ATOM      7  H2  UNL     1      -6.370 -23.419  -0.254  1.00  0.00     0.161 HD
BRANCH   6   8
HETATM    8  C6  UNL     1      -5.749 -21.421  -0.654  1.00  0.00     0.154 C 
HETATM    9  N3  UNL     1      -5.321 -20.851   0.408  1.00  0.00    -0.251 N 
ATOM     10  H3  UNL     1      -5.660 -21.178   1.313  1.00  0.00     0.196 HD
BRANCH   9  11
HETATM   11  O4  UNL     1      -4.435 -19.831   0.372  1.00  0.00    -0.288 OA
ATOM     12  H4  UNL     1      -4.709 -18.925   0.296  1.00  0.00     0.244 HD
ENDBRANCH   9  11
BRANCH   8  13
HETATM   13  C7  UNL     1      -5.275 -20.925  -1.932  1.00  0.00     0.147 A 
HETATM   14  N4  UNL     1      -4.059 -21.220  -2.475  1.00  0.00    -0.234 N 
HETATM   15  O5  UNL     1      -3.961 -20.629  -3.637  1.00  0.00    -0.155 OA
ATOM     16  H4  UNL     1      -3.344 -21.805  -2.044  1.00  0.00     0.197 HD
HETATM   17  N5  UNL     1      -5.033 -19.966  -3.892  1.00  0.00    -0.224 N 
HETATM   18  C8  UNL     1      -5.900 -20.115  -2.854  1.00  0.00     0.154 A 
ATOM     19  H5  UNL     1      -5.205 -19.417  -4.735  1.00  0.00     0.198 HD
BRANCH  18  20
HETATM   20  N6  UNL     1      -7.079 -19.599  -2.816  1.00  0.00    -0.382 N 
ATOM     21  H62 UNL     1      -7.938 -20.139  -2.705  1.00  0.00     0.157 HD
ATOM     22  H61 UNL     1      -7.353 -18.618  -2.858  1.00  0.00     0.157 HD
ENDBRANCH  18  20
ENDBRANCH   8  13
ENDBRANCH   6   8
ENDBRANCH   2   6
BRANCH   1  23
HETATM   23  N1  UNL     1      -7.559 -23.469  -3.092  1.00  0.00    -0.348 N 
HETATM   24  C3  UNL     1      -7.722 -22.715  -4.281  1.00  0.00     0.280 C 
HETATM   25  O3  UNL     1      -8.696 -21.923  -4.345  1.00  0.00    -0.267 OA
ATOM     26  H1  UNL     1      -6.780 -24.121  -3.008  1.00  0.00     0.163 HD
BRANCH  24  27
HETATM   27  C2  UNL     1      -6.791 -22.832  -5.437  1.00  0.00     0.239 C 
HETATM   28  C1  UNL     1      -5.470 -23.442  -5.060  1.00  0.00     0.090 C 
BRANCH  27  29
HETATM   29  O1  UNL     1      -7.366 -23.637  -6.413  1.00  0.00    -0.358 OA
ATOM     30  H1  UNL     1      -7.320 -23.168  -7.239  1.00  0.00     0.213 HD
ENDBRANCH  27  29
BRANCH  27  31
HETATM   31  O2  UNL     1      -6.600 -21.572  -6.046  1.00  0.00    -0.358 OA
ATOM     32  H2  UNL     1      -6.852 -21.603  -6.961  1.00  0.00     0.213 HD
ENDBRANCH  27  31
ENDBRANCH  24  27
ENDBRANCH   1  23
BRANCH   5  33
HETATM   33  N8  UNL     1      -9.870 -25.305  -1.750  1.00  0.00    -0.364 N 
ATOM     34  H8  UNL     1     -10.684 -25.215  -1.143  1.00  0.00     0.161 HD
BRANCH  33  35
HETATM   35  C12 UNL     1     -10.111 -26.024  -2.766  1.00  0.00     0.150 A 
HETATM   36  N9  UNL     1      -9.867 -27.372  -2.779  1.00  0.00    -0.224 N 
HETATM   37  O6  UNL     1     -10.203 -27.815  -3.924  1.00  0.00    -0.155 OA
ATOM     38  H9  UNL     1      -9.484 -27.921  -2.009  1.00  0.00     0.198 HD
HETATM   39  N10 UNL     1     -10.657 -26.893  -4.696  1.00  0.00    -0.240 N 
HETATM   40  C13 UNL     1     -10.619 -25.730  -4.004  1.00  0.00     0.103 A 
ATOM     41  H10 UNL     1     -10.985 -27.015  -5.655  1.00  0.00     0.196 HD
BRANCH  40  42
HETATM   42  C14 UNL     1     -11.063 -24.422  -4.512  1.00  0.00     0.227 C 
BRANCH  42  43
HETATM   43  O7  UNL     1     -10.360 -24.123  -5.691  1.00  0.00    -0.395 OA
ATOM     44  H7  UNL     1     -10.921 -24.288  -6.439  1.00  0.00     0.209 HD
ENDBRANCH  42  43
ENDBRANCH  40  42
ENDBRANCH  33  35
ENDBRANCH   5  33
BRANCH   4  45
HETATM   45  N7  UNL     1      -7.991 -24.690   1.023  1.00  0.00    -0.073 N 
ATOM     46  H73 UNL     1      -7.524 -23.937   1.528  1.00  0.00     0.274 HD
ATOM     47  H72 UNL     1      -8.376 -25.203   1.816  1.00  0.00     0.274 HD
ATOM     48  H71 UNL     1      -7.319 -25.260   0.508  1.00  0.00     0.274 HD
ENDBRANCH   4  45
TORSDOF 14
ENDMDL
MODEL 4
REMARK VINA RESULT: -6.464549714      0.979      2.062
REMARK  14 active torsions:
REMARK  status: ('A' for Active; 'I' for Inactive)
REMARK    1  A    between atoms: C2_2  and  O1_3 
REMARK    2  A    between atoms: C2_2  and  O2_5 
REMARK    3  A    between atoms: C2_2  and  C3_7 
REMARK       I    between atoms: C3_7  and  N1_9 
REMARK    4  A    between atoms: N1_9  and  C4_11 
REMARK    5  A    between atoms: C5_12  and  N2_13 
REMARK    6  A    between atoms: N2_13  and  C6_15 
REMARK    7  A    between atoms: C6_15  and  C7_20 
REMARK    8  A    between atoms: N3_16  and  O4_18 
REMARK    9  A    between atoms: C8_26  and  N6_27 
REMARK   10  A    between atoms: C10_31  and  N7_32 
REMARK   11  A    between atoms: C11_36  and  N8_37 
REMARK   12  A    between atoms: N8_37  and  C12_39 
REMARK   13  A    between atoms: C13_45  and  C14_46 
REMARK   14  A    between atoms: C14_46  and  O7_47 
ROOT
HETATM    1  C4  UNL     1      -7.592 -23.161  -2.267  1.00  0.00     0.132 C 
HETATM    2  C5  UNL     1      -6.872 -22.392  -1.183  1.00  0.00     0.110 C 
HETATM    3  C9  UNL     1      -7.779 -22.651  -0.024  1.00  0.00     0.062 C 
HETATM    4  C10 UNL     1      -8.057 -24.107  -0.080  1.00  0.00     0.210 C 
HETATM    5  C11 UNL     1      -8.045 -24.438  -1.566  1.00  0.00     0.138 C 
ENDROOT
BRANCH   2   6
HETATM    6  N2  UNL     1      -5.533 -22.836  -1.013  1.00  0.00    -0.366 N 
ATOM      7  H2  UNL     1      -5.201 -23.625  -1.566  1.00  0.00     0.161 HD
BRANCH   6   8
HETATM    8  C6  UNL     1      -4.630 -22.207  -0.083  1.00  0.00     0.154 C 
HETATM    9  N3  UNL     1      -3.510 -22.752   0.210  1.00  0.00    -0.251 N 
ATOM     10  H3  UNL     1      -3.266 -23.641  -0.225  1.00  0.00     0.196 HD
BRANCH   9  11
HETATM   11  O4  UNL     1      -2.639 -22.188   1.076  1.00  0.00    -0.288 OA
ATOM     12  H4  UNL     1      -1.867 -22.645   1.388  1.00  0.00     0.244 HD
ENDBRANCH   9  11
BRANCH   8  13
HETATM   13  C7  UNL     1      -4.970 -20.955   0.565  1.00  0.00     0.147 A 
HETATM   14  N4  UNL     1      -5.322 -20.831   1.876  1.00  0.00    -0.234 N 
HETATM   15  O5  UNL     1      -5.543 -19.569   2.137  1.00  0.00    -0.155 OA
ATOM     16  H4  UNL     1      -5.400 -21.598   2.544  1.00  0.00     0.197 HD
HETATM   17  N5  UNL     1      -5.359 -18.857   1.082  1.00  0.00    -0.224 N 
HETATM   18  C8  UNL     1      -4.994 -19.674   0.058  1.00  0.00     0.154 A 
ATOM     19  H5  UNL     1      -5.469 -17.844   1.022  1.00  0.00     0.198 HD
BRANCH  18  20
HETATM   20  N6  UNL     1      -4.708 -19.265  -1.129  1.00  0.00    -0.382 N 
ATOM     21  H62 UNL     1      -5.402 -19.006  -1.830  1.00  0.00     0.157 HD
ATOM     22  H61 UNL     1      -3.793 -19.107  -1.552  1.00  0.00     0.157 HD
ENDBRANCH  18  20
ENDBRANCH   8  13
ENDBRANCH   6   8
ENDBRANCH   2   6
BRANCH   1  23
HETATM   23  N1  UNL     1      -6.850 -23.377  -3.456  1.00  0.00    -0.348 N 
HETATM   24  C3  UNL     1      -7.312 -22.858  -4.691  1.00  0.00     0.280 C 
HETATM   25  O3  UNL     1      -8.388 -22.210  -4.689  1.00  0.00    -0.267 OA
ATOM     26  H1  UNL     1      -5.981 -23.909  -3.423  1.00  0.00     0.163 HD
BRANCH  24  27
HETATM   27  C2  UNL     1      -6.573 -23.055  -5.968  1.00  0.00     0.239 C 
HETATM   28  C1  UNL     1      -5.228 -23.696  -5.770  1.00  0.00     0.090 C 
BRANCH  27  29
HETATM   29  O1  UNL     1      -7.315 -23.878  -6.808  1.00  0.00    -0.358 OA
ATOM     30  H1  UNL     1      -6.768 -24.102  -7.552  1.00  0.00     0.213 HD
ENDBRANCH  27  29
BRANCH  27  31
HETATM   31  O2  UNL     1      -6.442 -21.829  -6.657  1.00  0.00    -0.358 OA
ATOM     32  H2  UNL     1      -7.266 -21.356  -6.655  1.00  0.00     0.213 HD
ENDBRANCH  27  31
ENDBRANCH  24  27
ENDBRANCH   1  23
BRANCH   5  33
HETATM   33  N8  UNL     1      -9.312 -24.867  -1.961  1.00  0.00    -0.364 N 
ATOM     34  H8  UNL     1     -10.055 -24.358  -1.482  1.00  0.00     0.161 HD
BRANCH  33  35
HETATM   35  C12 UNL     1      -9.768 -25.732  -2.767  1.00  0.00     0.150 A 
HETATM   36  N9  UNL     1      -9.586 -27.075  -2.572  1.00  0.00    -0.224 N 
HETATM   37  O6  UNL     1     -10.149 -27.686  -3.538  1.00  0.00    -0.155 OA
ATOM     38  H9  UNL     1      -9.089 -27.509  -1.795  1.00  0.00     0.198 HD
HETATM   39  N10 UNL     1     -10.701 -26.882  -4.375  1.00  0.00    -0.240 N 
HETATM   40  C13 UNL     1     -10.487 -25.622  -3.928  1.00  0.00     0.103 A 
ATOM     41  H10 UNL     1     -11.208 -27.145  -5.221  1.00  0.00     0.196 HD
BRANCH  40  42
HETATM   42  C14 UNL     1     -10.964 -24.394  -4.583  1.00  0.00     0.227 C 
BRANCH  42  43
HETATM   43  O7  UNL     1     -10.239 -24.192  -5.769  1.00  0.00    -0.395 OA
ATOM     44  H7  UNL     1     -10.825 -23.866  -6.442  1.00  0.00     0.209 HD
ENDBRANCH  42  43
ENDBRANCH  40  42
ENDBRANCH  33  35
ENDBRANCH   5  33
BRANCH   4  45
HETATM   45  N7  UNL     1      -7.048 -24.878   0.584  1.00  0.00    -0.073 N 
ATOM     46  H73 UNL     1      -6.132 -24.438   0.499  1.00  0.00     0.274 HD
ATOM     47  H72 UNL     1      -7.157 -24.833   1.597  1.00  0.00     0.274 HD
ATOM     48  H71 UNL     1      -7.024 -25.845   0.259  1.00  0.00     0.274 HD
ENDBRANCH   4  45
TORSDOF 14
ENDMDL
MODEL 5
REMARK VINA RESULT: -6.415846215      2.118      3.490
REMARK  14 active torsions:
REMARK  status: ('A' for Active; 'I' for Inactive)
REMARK    1  A    between atoms: C2_2  and  O1_3 
REMARK    2  A    between atoms: C2_2  and  O2_5 
REMARK    3  A    between atoms: C2_2  and  C3_7 
REMARK       I    between atoms: C3_7  and  N1_9 
REMARK    4  A    between atoms: N1_9  and  C4_11 
REMARK    5  A    between atoms: C5_12  and  N2_13 
REMARK    6  A    between atoms: N2_13  and  C6_15 
REMARK    7  A    between atoms: C6_15  and  C7_20 
REMARK    8  A    between atoms: N3_16  and  O4_18 
REMARK    9  A    between atoms: C8_26  and  N6_27 
REMARK   10  A    between atoms: C10_31  and  N7_32 
REMARK   11  A    between atoms: C11_36  and  N8_37 
REMARK   12  A    between atoms: N8_37  and  C12_39 
REMARK   13  A    between atoms: C13_45  and  C14_46 
REMARK   14  A    between atoms: C14_46  and  O7_47 
ROOT
HETATM    1  C4  UNL     1      -8.202 -23.493  -2.453  1.00  0.00     0.132 C 
HETATM    2  C5  UNL     1      -8.076 -22.432  -1.385  1.00  0.00     0.110 C 
HETATM    3  C9  UNL     1      -8.979 -22.997  -0.337  1.00  0.00     0.062 C 
HETATM    4  C10 UNL     1      -8.606 -24.430  -0.250  1.00  0.00     0.210 C 
HETATM    5  C11 UNL     1      -8.194 -24.800  -1.667  1.00  0.00     0.138 C 
ENDROOT
BRANCH   2   6
HETATM    6  N2  UNL     1      -6.727 -22.241  -0.979  1.00  0.00    -0.366 N 
ATOM      7  H2  UNL     1      -6.263 -22.976  -0.446  1.00  0.00     0.161 HD
BRANCH   6   8
HETATM    8  C6  UNL     1      -5.994 -21.041  -1.296  1.00  0.00     0.154 C 
HETATM    9  N3  UNL     1      -5.277 -20.460  -0.411  1.00  0.00    -0.251 N 
ATOM     10  H3  UNL     1      -5.233 -20.859   0.527  1.00  0.00     0.196 HD
BRANCH   9  11
HETATM   11  O4  UNL     1      -4.576 -19.336  -0.675  1.00  0.00    -0.288 OA
ATOM     12  H4  UNL     1      -3.723 -19.168  -0.291  1.00  0.00     0.244 HD
ENDBRANCH   9  11
BRANCH   8  13
HETATM   13  C7  UNL     1      -6.063 -20.445  -2.617  1.00  0.00     0.147 A 
HETATM   14  N4  UNL     1      -5.157 -20.659  -3.612  1.00  0.00    -0.234 N 
HETATM   15  O5  UNL     1      -5.527 -19.988  -4.673  1.00  0.00    -0.155 OA
ATOM     16  H4  UNL     1      -4.326 -21.245  -3.541  1.00  0.00     0.197 HD
HETATM   17  N5  UNL     1      -6.618 -19.349  -4.436  1.00  0.00    -0.224 N 
HETATM   18  C8  UNL     1      -7.006 -19.598  -3.157  1.00  0.00     0.154 A 
ATOM     19  H5  UNL     1      -7.112 -18.751  -5.100  1.00  0.00     0.198 HD
BRANCH  18  20
HETATM   20  N6  UNL     1      -8.079 -19.129  -2.621  1.00  0.00    -0.382 N 
ATOM     21  H62 UNL     1      -8.874 -19.701  -2.333  1.00  0.00     0.157 HD
ATOM     22  H61 UNL     1      -8.308 -18.167  -2.375  1.00  0.00     0.157 HD
ENDBRANCH  18  20
ENDBRANCH   8  13
ENDBRANCH   6   8
ENDBRANCH   2   6
BRANCH   1  23
HETATM   23  N1  UNL     1      -7.241 -23.429  -3.494  1.00  0.00    -0.348 N 
HETATM   24  C3  UNL     1      -7.651 -23.222  -4.834  1.00  0.00     0.280 C 
HETATM   25  O3  UNL     1      -8.882 -23.102  -5.059  1.00  0.00    -0.267 OA
ATOM     26  H1  UNL     1      -6.250 -23.531  -3.277  1.00  0.00     0.163 HD
BRANCH  24  27
HETATM   27  C2  UNL     1      -6.685 -23.147  -5.964  1.00  0.00     0.239 C 
HETATM   28  C1  UNL     1      -5.345 -23.735  -5.625  1.00  0.00     0.090 C 
BRANCH  27  29
HETATM   29  O1  UNL     1      -7.193 -23.846  -7.053  1.00  0.00    -0.358 OA
ATOM     30  H1  UNL     1      -7.500 -23.210  -7.688  1.00  0.00     0.213 HD
ENDBRANCH  27  29
BRANCH  27  31
HETATM   31  O2  UNL     1      -6.544 -21.812  -6.403  1.00  0.00    -0.358 OA
ATOM     32  H2  UNL     1      -7.275 -21.563  -6.956  1.00  0.00     0.213 HD
ENDBRANCH  27  31
ENDBRANCH  24  27
ENDBRANCH   1  23
BRANCH   5  33
HETATM   33  N8  UNL     1      -9.072 -25.757  -2.176  1.00  0.00    -0.364 N 
ATOM     34  H8  UNL     1      -8.723 -26.706  -2.044  1.00  0.00     0.161 HD
BRANCH  33  35
HETATM   35  C12 UNL     1     -10.196 -25.740  -2.761  1.00  0.00     0.150 A 
HETATM   36  N9  UNL     1     -10.306 -25.665  -4.125  1.00  0.00    -0.224 N 
HETATM   37  O6  UNL     1     -11.546 -25.663  -4.414  1.00  0.00    -0.155 OA
ATOM     38  H9  UNL     1      -9.534 -25.619  -4.789  1.00  0.00     0.198 HD
HETATM   39  N10 UNL     1     -12.296 -25.731  -3.371  1.00  0.00    -0.240 N 
HETATM   40  C13 UNL     1     -11.482 -25.783  -2.290  1.00  0.00     0.103 A 
ATOM     41  H10 UNL     1     -13.316 -25.744  -3.361  1.00  0.00     0.196 HD
BRANCH  40  42
HETATM   42  C14 UNL     1     -11.930 -25.881  -0.892  1.00  0.00     0.227 C 
BRANCH  42  43
HETATM   43  O7  UNL     1     -11.169 -26.860  -0.231  1.00  0.00    -0.395 OA
ATOM     44  H7  UNL     1     -11.474 -27.721  -0.493  1.00  0.00     0.209 HD
ENDBRANCH  42  43
ENDBRANCH  40  42
ENDBRANCH  33  35
ENDBRANCH   5  33
BRANCH   4  45
HETATM   45  N7  UNL     1      -7.502 -24.650   0.636  1.00  0.00    -0.073 N 
ATOM     46  H73 UNL     1      -6.716 -24.043   0.404  1.00  0.00     0.274 HD
ATOM     47  H72 UNL     1      -7.706 -24.302   1.572  1.00  0.00     0.274 HD
ATOM     48  H71 UNL     1      -7.216 -25.629   0.661  1.00  0.00     0.274 HD
ENDBRANCH   4  45
TORSDOF 14
ENDMDL
