MODEL 1
REMARK VINA RESULT: -5.911248288      0.000      0.000
REMARK  14 active torsions:
REMARK  status: ('A' for Active; 'I' for Inactive)
REMARK    1  A    between atoms: S1_2  and  C2_3 
REMARK    2  A    between atoms: C3_4  and  O1_5 
REMARK    3  A    between atoms: O1_5  and  C4_6 
REMARK    4  A    between atoms: C5_8  and  N1_9 
REMARK    5  A    between atoms: N1_9  and  O3_10 
REMARK    6  A    between atoms: C6_14  and  O4_15 
REMARK    7  A    between atoms: C7_17  and  N3_18 
REMARK    8  A    between atoms: C8_23  and  C9_24 
REMARK    9  A    between atoms: C9_24  and  N4_25 
REMARK   10  A    between atoms: C10_29  and  O6_30 
REMARK   11  A    between atoms: O6_30  and  C11_31 
REMARK   12  A    between atoms: C12_32  and  N5_33 
REMARK   13  A    between atoms: C14_38  and  N6_39 
REMARK   14  A    between atoms: C16_44  and  N7_45 
ROOT
HETATM    1  C2  UNL     1      -9.741 -25.761  -1.447  1.00  0.00     0.133 C 
HETATM    2  C3  UNL     1     -10.854 -26.618  -1.955  1.00  0.00     0.279 C 
HETATM    3  O5  UNL     1     -11.279 -26.021  -3.143  1.00  0.00    -0.350 OA
HETATM    4  C8  UNL     1     -10.126 -25.485  -3.738  1.00  0.00     0.180 C 
HETATM    5  C10 UNL     1      -9.352 -24.891  -2.622  1.00  0.00     0.171 C 
ENDROOT
BRANCH   5   6
HETATM    6  O6  UNL     1      -8.008 -24.785  -2.799  1.00  0.00    -0.372 OA
BRANCH   6   7
HETATM    7  C11 UNL     1      -7.401 -23.662  -2.272  1.00  0.00     0.182 C 
HETATM    8  C12 UNL     1      -6.494 -24.175  -1.149  1.00  0.00     0.216 C 
HETATM    9  C13 UNL     1      -5.467 -23.196  -0.719  1.00  0.00     0.068 C 
HETATM   10  C14 UNL     1      -5.527 -21.863  -1.419  1.00  0.00     0.187 C 
HETATM   11  C15 UNL     1      -5.604 -22.014  -2.921  1.00  0.00     0.068 C 
HETATM   12  C16 UNL     1      -6.578 -23.042  -3.382  1.00  0.00     0.216 C 
BRANCH   8  13
HETATM   13  N5  UNL     1      -5.867 -25.424  -1.577  1.00  0.00    -0.072 N 
ATOM     14  H53 UNL     1      -6.523 -26.206  -1.584  1.00  0.00     0.274 HD
ATOM     15  H52 UNL     1      -5.636 -25.423  -2.570  1.00  0.00     0.274 HD
ATOM     16  H51 UNL     1      -5.053 -25.605  -0.989  1.00  0.00     0.274 HD
ENDBRANCH   8  13
BRANCH  10  17
HETATM   17  N6  UNL     1      -6.578 -21.013  -0.915  1.00  0.00    -0.075 N 
ATOM     18  H63 UNL     1      -7.308 -21.563  -0.463  1.00  0.00     0.274 HD
ATOM     19  H62 UNL     1      -6.256 -20.472  -0.112  1.00  0.00     0.274 HD
ATOM     20  H61 UNL     1      -6.971 -20.403  -1.632  1.00  0.00     0.274 HD
ENDBRANCH  10  17
BRANCH  12  21
HETATM   21  N7  UNL     1      -5.974 -24.051  -4.230  1.00  0.00    -0.072 N 
ATOM     22  H73 UNL     1      -5.140 -24.449  -3.798  1.00  0.00     0.274 HD
ATOM     23  H72 UNL     1      -6.548 -24.892  -4.274  1.00  0.00     0.274 HD
ATOM     24  H71 UNL     1      -5.772 -23.689  -5.162  1.00  0.00     0.274 HD
ENDBRANCH  12  21
ENDBRANCH   6   7
ENDBRANCH   5   6
BRANCH   1  25
HETATM   25  S1  UNL     1     -10.298 -24.796  -0.021  1.00  0.00    -0.161 SA
HETATM   26  C1  UNL     1     -11.155 -23.297  -0.497  1.00  0.00     0.090 C 
ENDBRANCH   1  25
BRANCH   4  27
HETATM   27  C9  UNL     1     -10.586 -24.481  -4.764  1.00  0.00     0.264 C 
BRANCH  27  28
HETATM   28  N4  UNL     1      -9.724 -24.348  -5.895  1.00  0.00    -0.077 N 
ATOM     29  H43 UNL     1      -8.858 -23.880  -5.628  1.00  0.00     0.274 HD
ATOM     30  H42 UNL     1      -9.356 -25.259  -6.169  1.00  0.00     0.274 HD
ATOM     31  H41 UNL     1     -10.146 -23.880  -6.698  1.00  0.00     0.274 HD
ENDBRANCH  27  28
ENDBRANCH   4  27
BRANCH   2  32
HETATM   32  O1  UNL     1     -11.964 -26.670  -1.127  1.00  0.00    -0.328 OA
BRANCH  32  33
HETATM   33  C4  UNL     1     -13.163 -26.582  -1.764  1.00  0.00     0.301 C 
HETATM   34  O2  UNL     1     -14.143 -25.870  -1.128  1.00  0.00    -0.318 OA
HETATM   35  C5  UNL     1     -15.143 -25.578  -2.052  1.00  0.00     0.347 C 
HETATM   36  N2  UNL     1     -15.722 -26.724  -2.667  1.00  0.00    -0.355 N 
HETATM   37  C6  UNL     1     -14.781 -27.642  -3.232  1.00  0.00     0.252 C 
ATOM     38  H2  UNL     1     -16.730 -26.879  -2.702  1.00  0.00     0.159 HD
HETATM   39  C7  UNL     1     -13.748 -27.939  -2.136  1.00  0.00     0.286 C 
BRANCH  35  40
HETATM   40  N1  UNL     1     -14.696 -24.611  -3.036  1.00  0.00    -0.050 NA
BRANCH  40  41
HETATM   41  O3  UNL     1     -15.694 -23.926  -3.587  1.00  0.00    -0.292 OA
ATOM     42  H3  UNL     1     -15.793 -24.094  -4.517  1.00  0.00     0.238 HD
ENDBRANCH  40  41
ENDBRANCH  35  40
BRANCH  37  43
HETATM   43  O4  UNL     1     -15.407 -28.815  -3.596  1.00  0.00    -0.375 OA
ATOM     44  H4  UNL     1     -14.902 -29.271  -4.259  1.00  0.00     0.212 HD
ENDBRANCH  37  43
BRANCH  39  45
HETATM   45  N3  UNL     1     -14.502 -28.511  -1.034  1.00  0.00    -0.066 N 
ATOM     46  H33 UNL     1     -13.891 -28.988  -0.371  1.00  0.00     0.275 HD
ATOM     47  H32 UNL     1     -14.869 -27.787  -0.416  1.00  0.00     0.275 HD
ATOM     48  H31 UNL     1     -15.243 -29.127  -1.370  1.00  0.00     0.275 HD
ENDBRANCH  39  45
ENDBRANCH  32  33
ENDBRANCH   2  32
TORSDOF 14
ENDMDL
MODEL 2
REMARK VINA RESULT: -5.812714986      1.280      2.095
REMARK  14 active torsions:
REMARK  status: ('A' for Active; 'I' for Inactive)
REMARK    1  A    between atoms: S1_2  and  C2_3 
REMARK    2  A    between atoms: C3_4  and  O1_5 
REMARK    3  A    between atoms: O1_5  and  C4_6 
REMARK    4  A    between atoms: C5_8  and  N1_9 
REMARK    5  A    between atoms: N1_9  and  O3_10 
REMARK    6  A    between atoms: C6_14  and  O4_15 
REMARK    7  A    between atoms: C7_17  and  N3_18 
REMARK    8  A    between atoms: C8_23  and  C9_24 
REMARK    9  A    between atoms: C9_24  and  N4_25 
REMARK   10  A    between atoms: C10_29  and  O6_30 
REMARK   11  A    between atoms: O6_30  and  C11_31 
REMARK   12  A    between atoms: C12_32  and  N5_33 
REMARK   13  A    between atoms: C14_38  and  N6_39 
REMARK   14  A    between atoms: C16_44  and  N7_45 
ROOT
HETATM    1  C2  UNL     1      -9.898 -25.187  -1.114  1.00  0.00     0.133 C 
HETATM    2  C3  UNL     1     -10.616 -26.327  -1.759  1.00  0.00     0.279 C 
HETATM    3  O5  UNL     1     -11.087 -25.836  -2.978  1.00  0.00    -0.350 OA
HETATM    4  C8  UNL     1     -10.112 -24.930  -3.429  1.00  0.00     0.180 C 
HETATM    5  C10 UNL     1      -9.692 -24.179  -2.223  1.00  0.00     0.171 C 
ENDROOT
BRANCH   5   6
HETATM    6  O6  UNL     1      -8.443 -23.641  -2.242  1.00  0.00    -0.372 OA
BRANCH   6   7
HETATM    7  C11 UNL     1      -7.835 -23.535  -3.477  1.00  0.00     0.182 C 
HETATM    8  C12 UNL     1      -7.847 -22.040  -3.814  1.00  0.00     0.216 C 
HETATM    9  C13 UNL     1      -6.905 -21.666  -4.896  1.00  0.00     0.068 C 
HETATM   10  C14 UNL     1      -6.147 -22.815  -5.505  1.00  0.00     0.187 C 
HETATM   11  C15 UNL     1      -5.513 -23.698  -4.453  1.00  0.00     0.068 C 
HETATM   12  C16 UNL     1      -6.415 -24.034  -3.315  1.00  0.00     0.216 C 
BRANCH   8  13
HETATM   13  N5  UNL     1      -7.565 -21.277  -2.599  1.00  0.00    -0.072 N 
ATOM     14  H53 UNL     1      -6.697 -20.746  -2.666  1.00  0.00     0.274 HD
ATOM     15  H52 UNL     1      -8.203 -20.491  -2.478  1.00  0.00     0.274 HD
ATOM     16  H51 UNL     1      -7.573 -21.911  -1.800  1.00  0.00     0.274 HD
ENDBRANCH   8  13
BRANCH  10  17
HETATM   17  N6  UNL     1      -6.941 -23.581  -6.434  1.00  0.00    -0.075 N 
ATOM     18  H63 UNL     1      -7.142 -24.510  -6.063  1.00  0.00     0.274 HD
ATOM     19  H62 UNL     1      -7.892 -23.216  -6.489  1.00  0.00     0.274 HD
ATOM     20  H61 UNL     1      -6.518 -23.642  -7.360  1.00  0.00     0.274 HD
ENDBRANCH  10  17
BRANCH  12  21
HETATM   21  N7  UNL     1      -5.859 -23.665  -2.029  1.00  0.00    -0.072 N 
ATOM     22  H73 UNL     1      -5.050 -23.053  -2.134  1.00  0.00     0.274 HD
ATOM     23  H72 UNL     1      -6.477 -23.027  -1.527  1.00  0.00     0.274 HD
ATOM     24  H71 UNL     1      -5.634 -24.484  -1.465  1.00  0.00     0.274 HD
ENDBRANCH  12  21
ENDBRANCH   6   7
ENDBRANCH   5   6
BRANCH   1  25
HETATM   25  S1  UNL     1     -10.883 -24.526   0.254  1.00  0.00    -0.161 SA
HETATM   26  C1  UNL     1     -12.016 -23.243  -0.272  1.00  0.00     0.090 C 
ENDBRANCH   1  25
BRANCH   4  27
HETATM   27  C9  UNL     1     -10.763 -24.073  -4.485  1.00  0.00     0.264 C 
BRANCH  27  28
HETATM   28  N4  UNL     1     -10.301 -24.313  -5.814  1.00  0.00    -0.077 N 
ATOM     29  H43 UNL     1     -10.642 -23.587  -6.445  1.00  0.00     0.274 HD
ATOM     30  H42 UNL     1      -9.297 -24.141  -5.876  1.00  0.00     0.274 HD
ATOM     31  H41 UNL     1     -10.526 -25.237  -6.184  1.00  0.00     0.274 HD
ENDBRANCH  27  28
ENDBRANCH   4  27
BRANCH   2  32
HETATM   32  O1  UNL     1     -11.730 -26.773  -1.065  1.00  0.00    -0.328 OA
BRANCH  32  33
HETATM   33  C4  UNL     1     -12.915 -26.624  -1.718  1.00  0.00     0.301 C 
HETATM   34  O2  UNL     1     -13.941 -26.070  -1.002  1.00  0.00    -0.318 OA
HETATM   35  C5  UNL     1     -14.928 -25.663  -1.896  1.00  0.00     0.347 C 
HETATM   36  N2  UNL     1     -15.440 -26.708  -2.717  1.00  0.00    -0.355 N 
HETATM   37  C6  UNL     1     -14.445 -27.478  -3.399  1.00  0.00     0.252 C 
ATOM     38  H2  UNL     1     -16.439 -26.893  -2.812  1.00  0.00     0.159 HD
HETATM   39  C7  UNL     1     -13.429 -27.918  -2.335  1.00  0.00     0.286 C 
BRANCH  35  40
HETATM   40  N1  UNL     1     -14.498 -24.524  -2.685  1.00  0.00    -0.050 NA
BRANCH  40  41
HETATM   41  O3  UNL     1     -15.441 -24.071  -3.506  1.00  0.00    -0.292 OA
ATOM     42  H3  UNL     1     -15.162 -23.319  -4.017  1.00  0.00     0.238 HD
ENDBRANCH  40  41
ENDBRANCH  35  40
BRANCH  37  43
HETATM   43  O4  UNL     1     -15.008 -28.594  -3.978  1.00  0.00    -0.375 OA
ATOM     44  H4  UNL     1     -15.731 -28.914  -3.451  1.00  0.00     0.212 HD
ENDBRANCH  37  43
BRANCH  39  45
HETATM   45  N3  UNL     1     -14.186 -28.700  -1.373  1.00  0.00    -0.066 N 
ATOM     46  H33 UNL     1     -15.175 -28.738  -1.618  1.00  0.00     0.275 HD
ATOM     47  H32 UNL     1     -13.968 -29.694  -1.446  1.00  0.00     0.275 HD
ATOM     48  H31 UNL     1     -14.049 -28.356  -0.423  1.00  0.00     0.275 HD
ENDBRANCH  39  45
ENDBRANCH  32  33
ENDBRANCH   2  32
TORSDOF 14
ENDMDL
MODEL 3
REMARK VINA RESULT: -5.771162561      1.138      2.150
REMARK  14 active torsions:
REMARK  status: ('A' for Active; 'I' for Inactive)
REMARK    1  A    between atoms: S1_2  and  C2_3 
REMARK    2  A    between atoms: C3_4  and  O1_5 
REMARK    3  A    between atoms: O1_5  and  C4_6 
REMARK    4  A    between atoms: C5_8  and  N1_9 
REMARK    5  A    between atoms: N1_9  and  O3_10 
REMARK    6  A    between atoms: C6_14  and  O4_15 
REMARK    7  A    between atoms: C7_17  and  N3_18 
REMARK    8  A    between atoms: C8_23  and  C9_24 
REMARK    9  A    between atoms: C9_24  and  N4_25 
REMARK   10  A    between atoms: C10_29  and  O6_30 
REMARK   11  A    between atoms: O6_30  and  C11_31 
REMARK   12  A    between atoms: C12_32  and  N5_33 
REMARK   13  A    between atoms: C14_38  and  N6_39 
REMARK   14  A    between atoms: C16_44  and  N7_45 
ROOT
HETATM    1  C2  UNL     1      -9.843 -25.349  -1.353  1.00  0.00     0.133 C 
HETATM    2  C3  UNL     1     -11.070 -25.881  -2.019  1.00  0.00     0.279 C 
HETATM    3  O5  UNL     1     -11.288 -25.058  -3.124  1.00  0.00    -0.350 OA
HETATM    4  C8  UNL     1     -10.013 -24.701  -3.594  1.00  0.00     0.180 C 
HETATM    5  C10 UNL     1      -9.211 -24.432  -2.378  1.00  0.00     0.171 C 
ENDROOT
BRANCH   5   6
HETATM    6  O6  UNL     1      -7.864 -24.587  -2.488  1.00  0.00    -0.372 OA
BRANCH   6   7
HETATM    7  C11 UNL     1      -7.081 -23.603  -1.918  1.00  0.00     0.182 C 
HETATM    8  C12 UNL     1      -6.163 -24.330  -0.929  1.00  0.00     0.216 C 
HETATM    9  C13 UNL     1      -4.990 -23.529  -0.505  1.00  0.00     0.068 C 
HETATM   10  C14 UNL     1      -4.932 -22.136  -1.075  1.00  0.00     0.187 C 
HETATM   11  C15 UNL     1      -5.141 -22.126  -2.572  1.00  0.00     0.068 C 
HETATM   12  C16 UNL     1      -6.272 -22.979  -3.036  1.00  0.00     0.216 C 
BRANCH   8  13
HETATM   13  N5  UNL     1      -5.736 -25.597  -1.520  1.00  0.00    -0.072 N 
ATOM     14  H53 UNL     1      -6.356 -25.905  -2.270  1.00  0.00     0.274 HD
ATOM     15  H52 UNL     1      -4.883 -25.501  -2.070  1.00  0.00     0.274 HD
ATOM     16  H51 UNL     1      -5.645 -26.294  -0.780  1.00  0.00     0.274 HD
ENDBRANCH   8  13
BRANCH  10  17
HETATM   17  N6  UNL     1      -5.824 -21.220  -0.407  1.00  0.00    -0.075 N 
ATOM     18  H63 UNL     1      -6.584 -20.936  -1.024  1.00  0.00     0.274 HD
ATOM     19  H62 UNL     1      -6.364 -21.697   0.314  1.00  0.00     0.274 HD
ATOM     20  H61 UNL     1      -5.342 -20.407  -0.024  1.00  0.00     0.274 HD
ENDBRANCH  10  17
BRANCH  12  21
HETATM   21  N7  UNL     1      -5.868 -23.963  -4.020  1.00  0.00    -0.072 N 
ATOM     22  H73 UNL     1      -6.149 -23.687  -4.960  1.00  0.00     0.274 HD
ATOM     23  H72 UNL     1      -4.856 -23.965  -4.150  1.00  0.00     0.274 HD
ATOM     24  H71 UNL     1      -6.214 -24.894  -3.788  1.00  0.00     0.274 HD
ENDBRANCH  12  21
ENDBRANCH   6   7
ENDBRANCH   5   6
BRANCH   1  25
HETATM   25  S1  UNL     1     -10.287 -24.485   0.174  1.00  0.00    -0.161 SA
HETATM   26  C1  UNL     1     -10.587 -22.738  -0.086  1.00  0.00     0.090 C 
ENDBRANCH   1  25
BRANCH   4  27
HETATM   27  C9  UNL     1     -10.194 -23.497  -4.484  1.00  0.00     0.264 C 
BRANCH  27  28
HETATM   28  N4  UNL     1      -9.754 -22.264  -3.913  1.00  0.00    -0.077 N 
ATOM     29  H43 UNL     1      -9.127 -21.779  -4.556  1.00  0.00     0.274 HD
ATOM     30  H42 UNL     1     -10.523 -21.595  -3.880  1.00  0.00     0.274 HD
ATOM     31  H41 UNL     1      -9.319 -22.351  -2.994  1.00  0.00     0.274 HD
ENDBRANCH  27  28
ENDBRANCH   4  27
BRANCH   2  32
HETATM   32  O1  UNL     1     -12.219 -25.809  -1.249  1.00  0.00    -0.328 OA
BRANCH  32  33
HETATM   33  C4  UNL     1     -13.275 -26.529  -1.717  1.00  0.00     0.301 C 
HETATM   34  O2  UNL     1     -13.032 -27.342  -2.790  1.00  0.00    -0.318 OA
HETATM   35  C5  UNL     1     -14.083 -28.249  -2.899  1.00  0.00     0.347 C 
HETATM   36  N2  UNL     1     -15.364 -27.645  -3.049  1.00  0.00    -0.355 N 
HETATM   37  C6  UNL     1     -15.674 -26.646  -2.073  1.00  0.00     0.252 C 
ATOM     38  H2  UNL     1     -16.010 -27.905  -3.795  1.00  0.00     0.159 HD
HETATM   39  C7  UNL     1     -14.487 -25.671  -2.053  1.00  0.00     0.286 C 
BRANCH  35  40
HETATM   40  N1  UNL     1     -14.071 -29.215  -1.816  1.00  0.00    -0.050 NA
BRANCH  40  41
HETATM   41  O3  UNL     1     -14.585 -30.392  -2.159  1.00  0.00    -0.292 OA
ATOM     42  H3  UNL     1     -15.452 -30.324  -2.541  1.00  0.00     0.238 HD
ENDBRANCH  40  41
ENDBRANCH  35  40
BRANCH  37  43
HETATM   43  O4  UNL     1     -16.817 -25.962  -2.426  1.00  0.00    -0.375 OA
ATOM     44  H4  UNL     1     -16.664 -25.024  -2.409  1.00  0.00     0.212 HD
ENDBRANCH  37  43
BRANCH  39  45
HETATM   45  N3  UNL     1     -14.401 -25.136  -3.400  1.00  0.00    -0.066 N 
ATOM     46  H33 UNL     1     -13.441 -25.145  -3.746  1.00  0.00     0.275 HD
ATOM     47  H32 UNL     1     -14.818 -25.769  -4.082  1.00  0.00     0.275 HD
ATOM     48  H31 UNL     1     -14.809 -24.203  -3.457  1.00  0.00     0.275 HD
ENDBRANCH  39  45
ENDBRANCH  32  33
ENDBRANCH   2  32
TORSDOF 14
ENDMDL
MODEL 4
REMARK VINA RESULT: -5.717205515      1.117      1.575
REMARK  14 active torsions:
REMARK  status: ('A' for Active; 'I' for Inactive)
REMARK    1  A    between atoms: S1_2  and  C2_3 
REMARK    2  A    between atoms: C3_4  and  O1_5 
REMARK    3  A    between atoms: O1_5  and  C4_6 
REMARK    4  A    between atoms: C5_8  and  N1_9 
REMARK    5  A    between atoms: N1_9  and  O3_10 
REMARK    6  A    between atoms: C6_14  and  O4_15 
REMARK    7  A    between atoms: C7_17  and  N3_18 
REMARK    8  A    between atoms: C8_23  and  C9_24 
REMARK    9  A    between atoms: C9_24  and  N4_25 
REMARK   10  A    between atoms: C10_29  and  O6_30 
REMARK   11  A    between atoms: O6_30  and  C11_31 
REMARK   12  A    between atoms: C12_32  and  N5_33 
REMARK   13  A    between atoms: C14_38  and  N6_39 
REMARK   14  A    between atoms: C16_44  and  N7_45 
ROOT
HETATM    1  C2  UNL     1      -9.845 -25.535  -1.370  1.00  0.00     0.133 C 
HETATM    2  C3  UNL     1     -10.967 -26.429  -1.784  1.00  0.00     0.279 C 
HETATM    3  O5  UNL     1     -11.369 -25.976  -3.042  1.00  0.00    -0.350 OA
HETATM    4  C8  UNL     1     -10.199 -25.536  -3.683  1.00  0.00     0.180 C 
HETATM    5  C10 UNL     1      -9.427 -24.822  -2.638  1.00  0.00     0.171 C 
ENDROOT
BRANCH   5   6
HETATM    6  O6  UNL     1      -8.080 -24.760  -2.808  1.00  0.00    -0.372 OA
BRANCH   6   7
HETATM    7  C11 UNL     1      -7.446 -23.633  -2.325  1.00  0.00     0.182 C 
HETATM    8  C12 UNL     1      -6.525 -24.127  -1.205  1.00  0.00     0.216 C 
HETATM    9  C13 UNL     1      -5.476 -23.152  -0.824  1.00  0.00     0.068 C 
HETATM   10  C14 UNL     1      -5.529 -21.839  -1.559  1.00  0.00     0.187 C 
HETATM   11  C15 UNL     1      -5.637 -22.031  -3.055  1.00  0.00     0.068 C 
HETATM   12  C16 UNL     1      -6.636 -23.057  -3.468  1.00  0.00     0.216 C 
BRANCH   8  13
HETATM   13  N5  UNL     1      -5.925 -25.397  -1.609  1.00  0.00    -0.072 N 
ATOM     14  H53 UNL     1      -5.145 -25.667  -1.010  1.00  0.00     0.274 HD
ATOM     15  H52 UNL     1      -6.534 -26.192  -1.415  1.00  0.00     0.274 HD
ATOM     16  H51 UNL     1      -5.659 -25.342  -2.592  1.00  0.00     0.274 HD
ENDBRANCH   8  13
BRANCH  10  17
HETATM   17  N6  UNL     1      -6.557 -20.958  -1.061  1.00  0.00    -0.075 N 
ATOM     18  H63 UNL     1      -7.253 -21.477  -0.525  1.00  0.00     0.274 HD
ATOM     19  H62 UNL     1      -6.194 -20.355  -0.322  1.00  0.00     0.274 HD
ATOM     20  H61 UNL     1      -6.999 -20.408  -1.797  1.00  0.00     0.274 HD
ENDBRANCH  10  17
BRANCH  12  21
HETATM   21  N7  UNL     1      -6.063 -24.099  -4.298  1.00  0.00    -0.072 N 
ATOM     22  H73 UNL     1      -5.558 -24.785  -3.737  1.00  0.00     0.274 HD
ATOM     23  H72 UNL     1      -6.786 -24.707  -4.682  1.00  0.00     0.274 HD
ATOM     24  H71 UNL     1      -5.472 -23.713  -5.034  1.00  0.00     0.274 HD
ENDBRANCH  12  21
ENDBRANCH   6   7
ENDBRANCH   5   6
BRANCH   1  25
HETATM   25  S1  UNL     1     -10.402 -24.392  -0.081  1.00  0.00    -0.161 SA
HETATM   26  C1  UNL     1     -11.094 -22.883  -0.752  1.00  0.00     0.090 C 
ENDBRANCH   1  25
BRANCH   4  27
HETATM   27  C9  UNL     1     -10.629 -24.658  -4.830  1.00  0.00     0.264 C 
BRANCH  27  28
HETATM   28  N4  UNL     1      -9.603 -24.379  -5.784  1.00  0.00    -0.077 N 
ATOM     29  H43 UNL     1     -10.010 -24.206  -6.703  1.00  0.00     0.274 HD
ATOM     30  H42 UNL     1      -9.188 -23.465  -5.601  1.00  0.00     0.274 HD
ATOM     31  H41 UNL     1      -8.876 -25.092  -5.847  1.00  0.00     0.274 HD
ENDBRANCH  27  28
ENDBRANCH   4  27
BRANCH   2  32
HETATM   32  O1  UNL     1     -12.088 -26.361  -0.972  1.00  0.00    -0.328 OA
BRANCH  32  33
HETATM   33  C4  UNL     1     -13.115 -27.176  -1.335  1.00  0.00     0.301 C 
HETATM   34  O2  UNL     1     -14.278 -26.562  -1.712  1.00  0.00    -0.318 OA
HETATM   35  C5  UNL     1     -15.067 -27.494  -2.382  1.00  0.00     0.347 C 
HETATM   36  N2  UNL     1     -15.377 -28.655  -1.617  1.00  0.00    -0.355 N 
HETATM   37  C6  UNL     1     -14.247 -29.302  -1.024  1.00  0.00     0.252 C 
ATOM     38  H2  UNL     1     -16.331 -28.998  -1.502  1.00  0.00     0.159 HD
HETATM   39  C7  UNL     1     -13.464 -28.213  -0.276  1.00  0.00     0.286 C 
BRANCH  35  40
HETATM   40  N1  UNL     1     -14.508 -27.838  -3.675  1.00  0.00    -0.050 NA
BRANCH  40  41
HETATM   41  O3  UNL     1     -15.322 -28.585  -4.415  1.00  0.00    -0.292 OA
ATOM     42  H3  UNL     1     -15.032 -28.675  -5.315  1.00  0.00     0.238 HD
ENDBRANCH  40  41
ENDBRANCH  35  40
BRANCH  37  43
HETATM   43  O4  UNL     1     -14.655 -30.265  -0.128  1.00  0.00    -0.375 OA
ATOM     44  H4  UNL     1     -15.374 -29.942   0.404  1.00  0.00     0.212 HD
ENDBRANCH  37  43
BRANCH  39  45
HETATM   45  N3  UNL     1     -14.387 -27.676   0.709  1.00  0.00    -0.066 N 
ATOM     46  H33 UNL     1     -13.954 -26.939   1.264  1.00  0.00     0.275 HD
ATOM     47  H32 UNL     1     -15.125 -27.128   0.269  1.00  0.00     0.275 HD
ATOM     48  H31 UNL     1     -14.771 -28.413   1.301  1.00  0.00     0.275 HD
ENDBRANCH  39  45
ENDBRANCH  32  33
ENDBRANCH   2  32
TORSDOF 14
ENDMDL
MODEL 5
REMARK VINA RESULT: -5.686668224      1.085      1.622
REMARK  14 active torsions:
REMARK  status: ('A' for Active; 'I' for Inactive)
REMARK    1  A    between atoms: S1_2  and  C2_3 
REMARK    2  A    between atoms: C3_4  and  O1_5 
REMARK    3  A    between atoms: O1_5  and  C4_6 
REMARK    4  A    between atoms: C5_8  and  N1_9 
REMARK    5  A    between atoms: N1_9  and  O3_10 
REMARK    6  A    between atoms: C6_14  and  O4_15 
REMARK    7  A    between atoms: C7_17  and  N3_18 
REMARK    8  A    between atoms: C8_23  and  C9_24 
REMARK    9  A    between atoms: C9_24  and  N4_25 
REMARK   10  A    between atoms: C10_29  and  O6_30 
REMARK   11  A    between atoms: O6_30  and  C11_31 
REMARK   12  A    between atoms: C12_32  and  N5_33 
REMARK   13  A    between atoms: C14_38  and  N6_39 
REMARK   14  A    between atoms: C16_44  and  N7_45 
ROOT
HETATM    1  C2  UNL     1     -10.036 -25.358  -1.186  1.00  0.00     0.133 C 
HETATM    2  C3  UNL     1     -10.768 -26.515  -1.784  1.00  0.00     0.279 C 
HETATM    3  O5  UNL     1     -11.210 -26.078  -3.033  1.00  0.00    -0.350 OA
HETATM    4  C8  UNL     1     -10.212 -25.215  -3.514  1.00  0.00     0.180 C 
HETATM    5  C10 UNL     1      -9.793 -24.412  -2.342  1.00  0.00     0.171 C 
ENDROOT
BRANCH   5   6
HETATM    6  O6  UNL     1      -8.534 -23.900  -2.370  1.00  0.00    -0.372 OA
BRANCH   6   7
HETATM    7  C11 UNL     1      -7.734 -24.164  -1.276  1.00  0.00     0.182 C 
HETATM    8  C12 UNL     1      -6.448 -24.773  -1.844  1.00  0.00     0.216 C 
HETATM    9  C13 UNL     1      -5.314 -24.765  -0.890  1.00  0.00     0.068 C 
HETATM   10  C14 UNL     1      -5.633 -24.213   0.474  1.00  0.00     0.187 C 
HETATM   11  C15 UNL     1      -6.343 -22.880   0.394  1.00  0.00     0.068 C 
HETATM   12  C16 UNL     1      -7.446 -22.836  -0.608  1.00  0.00     0.216 C 
BRANCH   8  13
HETATM   13  N5  UNL     1      -6.092 -24.070  -3.075  1.00  0.00    -0.072 N 
ATOM     14  H53 UNL     1      -6.350 -23.083  -3.047  1.00  0.00     0.274 HD
ATOM     15  H52 UNL     1      -5.085 -23.952  -3.177  1.00  0.00     0.274 HD
ATOM     16  H51 UNL     1      -6.509 -24.558  -3.868  1.00  0.00     0.274 HD
ENDBRANCH   8  13
BRANCH  10  17
HETATM   17  N6  UNL     1      -6.350 -25.149   1.304  1.00  0.00    -0.075 N 
ATOM     18  H63 UNL     1      -7.349 -25.127   1.099  1.00  0.00     0.274 HD
ATOM     19  H62 UNL     1      -6.145 -26.110   1.031  1.00  0.00     0.274 HD
ATOM     20  H61 UNL     1      -6.178 -25.007   2.300  1.00  0.00     0.274 HD
ENDBRANCH  10  17
BRANCH  12  21
HETATM   21  N7  UNL     1      -7.282 -21.771  -1.578  1.00  0.00    -0.072 N 
ATOM     22  H73 UNL     1      -6.509 -21.964  -2.214  1.00  0.00     0.274 HD
ATOM     23  H72 UNL     1      -8.046 -21.764  -2.254  1.00  0.00     0.274 HD
ATOM     24  H71 UNL     1      -7.175 -20.862  -1.128  1.00  0.00     0.274 HD
ENDBRANCH  12  21
ENDBRANCH   6   7
ENDBRANCH   5   6
BRANCH   1  25
HETATM   25  S1  UNL     1     -11.026 -24.607   0.131  1.00  0.00    -0.161 SA
HETATM   26  C1  UNL     1     -11.975 -23.199  -0.439  1.00  0.00     0.090 C 
ENDBRANCH   1  25
BRANCH   4  27
HETATM   27  C9  UNL     1     -10.830 -24.401  -4.623  1.00  0.00     0.264 C 
BRANCH  27  28
HETATM   28  N4  UNL     1     -10.088 -24.397  -5.843  1.00  0.00    -0.077 N 
ATOM     29  H43 UNL     1      -9.218 -24.916  -5.731  1.00  0.00     0.274 HD
ATOM     30  H42 UNL     1     -10.551 -24.978  -6.541  1.00  0.00     0.274 HD
ATOM     31  H41 UNL     1      -9.900 -23.468  -6.223  1.00  0.00     0.274 HD
ENDBRANCH  27  28
ENDBRANCH   4  27
BRANCH   2  32
HETATM   32  O1  UNL     1     -11.900 -26.903  -1.085  1.00  0.00    -0.328 OA
BRANCH  32  33
HETATM   33  C4  UNL     1     -13.072 -26.765  -1.762  1.00  0.00     0.301 C 
HETATM   34  O2  UNL     1     -14.045 -26.019  -1.156  1.00  0.00    -0.318 OA
HETATM   35  C5  UNL     1     -14.999 -25.684  -2.113  1.00  0.00     0.347 C 
HETATM   36  N2  UNL     1     -15.600 -26.803  -2.756  1.00  0.00    -0.355 N 
HETATM   37  C6  UNL     1     -14.676 -27.754  -3.294  1.00  0.00     0.252 C 
ATOM     38  H2  UNL     1     -16.612 -26.918  -2.827  1.00  0.00     0.159 HD
HETATM   39  C7  UNL     1     -13.695 -28.096  -2.163  1.00  0.00     0.286 C 
BRANCH  35  40
HETATM   40  N1  UNL     1     -14.481 -24.729  -3.074  1.00  0.00    -0.050 NA
BRANCH  40  41
HETATM   41  O3  UNL     1     -15.435 -24.032  -3.684  1.00  0.00    -0.292 OA
ATOM     42  H3  UNL     1     -15.200 -23.122  -3.827  1.00  0.00     0.238 HD
ENDBRANCH  40  41
ENDBRANCH  35  40
BRANCH  37  43
HETATM   43  O4  UNL     1     -15.333 -28.900  -3.686  1.00  0.00    -0.375 OA
ATOM     44  H4  UNL     1     -15.988 -28.700  -4.346  1.00  0.00     0.212 HD
ENDBRANCH  37  43
BRANCH  39  45
HETATM   45  N3  UNL     1     -14.508 -28.645  -1.093  1.00  0.00    -0.066 N 
ATOM     46  H33 UNL     1     -14.827 -29.589  -1.311  1.00  0.00     0.275 HD
ATOM     47  H32 UNL     1     -13.947 -28.856  -0.268  1.00  0.00     0.275 HD
ATOM     48  H31 UNL     1     -15.290 -28.030  -0.866  1.00  0.00     0.275 HD
ENDBRANCH  39  45
ENDBRANCH  32  33
ENDBRANCH   2  32
TORSDOF 14
ENDMDL
