MODEL 1
REMARK VINA RESULT: -5.804210363      0.000      0.000
REMARK  13 active torsions:
REMARK  status: ('A' for Active; 'I' for Inactive)
REMARK    1  A    between atoms: C2_2  and  O2_4 
REMARK    2  A    between atoms: O2_4  and  C3_5 
REMARK    3  A    between atoms: C3_5  and  C4_6 
REMARK       I    between atoms: C4_6  and  N1_8 
REMARK    4  A    between atoms: N1_8  and  N2_10 
REMARK    5  A    between atoms: C6_16  and  N4_17 
REMARK    6  A    between atoms: N4_17  and  O4_19 
REMARK    7  A    between atoms: C7_23  and  O5_24 
REMARK    8  A    between atoms: C9_27  and  O6_28 
REMARK    9  A    between atoms: O6_28  and  C10_29 
REMARK   10  A    between atoms: C11_31  and  O8_32 
REMARK   11  A    between atoms: C11_31  and  C12_34 
REMARK   12  A    between atoms: C13_37  and  C14_38 
REMARK   13  A    between atoms: C14_38  and  O11_40 
ROOT
HETATM    1  C3  UNL     1      -6.827 -21.918  -3.826  1.00  0.00     0.250 C 
HETATM    2  C5  UNL     1      -6.342 -23.289  -3.919  1.00  0.00     0.289 C 
HETATM    3  N3  UNL     1      -7.121 -23.915  -5.015  1.00  0.00    -0.194 N 
ATOM      4  H3  UNL     1      -6.671 -24.482  -5.734  1.00  0.00     0.180 HD
HETATM    5  C6  UNL     1      -8.540 -23.688  -5.018  1.00  0.00     0.698 C 
HETATM    6  N5  UNL     1      -9.041 -22.768  -4.291  1.00  0.00    -0.184 N 
ATOM      7  H5  UNL     1     -10.052 -22.638  -4.322  1.00  0.00     0.181 HD
HETATM    8  C7  UNL     1      -8.288 -21.902  -3.433  1.00  0.00     0.223 C 
HETATM    9  C8  UNL     1      -8.535 -22.371  -2.055  1.00  0.00     0.049 C 
HETATM   10  C9  UNL     1      -9.543 -21.739  -1.475  1.00  0.00     0.156 C 
HETATM   11  C11 UNL     1      -7.943 -23.390  -1.157  1.00  0.00     0.205 C 
HETATM   12  C13 UNL     1      -6.574 -23.737  -1.602  1.00  0.00     0.202 C 
HETATM   13  O12 UNL     1      -6.485 -24.121  -2.863  1.00  0.00    -0.351 OA
ENDROOT
BRANCH   1  14
HETATM   14  O2  UNL     1      -6.140 -21.060  -2.916  1.00  0.00    -0.290 OA
BRANCH  14  15
HETATM   15  C2  UNL     1      -4.769 -21.028  -2.768  1.00  0.00     0.256 C 
HETATM   16  C1  UNL     1      -4.109 -21.400  -1.503  1.00  0.00     0.126 C 
HETATM   17  O1  UNL     1      -4.055 -20.676  -3.725  1.00  0.00    -0.266 OA
ENDBRANCH  14  15
ENDBRANCH   1  14
BRANCH   1  18
HETATM   18  C4  UNL     1      -6.742 -21.231  -5.126  1.00  0.00     0.281 C 
HETATM   19  O3  UNL     1      -6.690 -21.778  -6.264  1.00  0.00    -0.268 OA
HETATM   20  N1  UNL     1      -6.715 -19.785  -5.223  1.00  0.00    -0.274 N 
ATOM     21  H1  UNL     1      -6.761 -19.246  -4.358  1.00  0.00     0.189 HD
BRANCH  20  22
HETATM   22  N2  UNL     1      -6.630 -19.093  -6.412  1.00  0.00    -0.343 N 
ATOM     23  H22 UNL     1      -7.462 -19.084  -7.002  1.00  0.00     0.176 HD
ATOM     24  H21 UNL     1      -5.795 -18.599  -6.726  1.00  0.00     0.176 HD
ENDBRANCH  20  22
ENDBRANCH   1  18
BRANCH   8  25
HETATM   25  O5  UNL     1      -8.807 -20.613  -3.557  1.00  0.00    -0.363 OA
ATOM     26  H5  UNL     1      -9.375 -20.415  -2.821  1.00  0.00     0.213 HD
ENDBRANCH   8  25
BRANCH   5  27
HETATM   27  N4  UNL     1      -9.388 -24.478  -5.822  1.00  0.00    -0.099 N 
ATOM     28  H4  UNL     1      -9.075 -24.713  -6.764  1.00  0.00     0.213 HD
BRANCH  27  29
HETATM   29  O4  UNL     1     -10.598 -24.943  -5.412  1.00  0.00    -0.276 OA
ATOM     30  H4  UNL     1     -11.361 -24.998  -5.976  1.00  0.00     0.245 HD
ENDBRANCH  27  29
ENDBRANCH   5  27
BRANCH  12  31
HETATM   31  C14 UNL     1      -6.020 -24.895  -0.722  1.00  0.00     0.147 C 
HETATM   32  C15 UNL     1      -4.865 -24.394   0.119  1.00  0.00     0.042 C 
BRANCH  31  33
HETATM   33  O11 UNL     1      -5.718 -26.010  -1.461  1.00  0.00    -0.393 OA
ATOM     34  H11 UNL     1      -4.883 -25.931  -1.906  1.00  0.00     0.210 HD
ENDBRANCH  31  33
ENDBRANCH  12  31
BRANCH  10  35
HETATM   35  O6  UNL     1      -9.969 -22.008  -0.165  1.00  0.00    -0.298 OA
BRANCH  35  36
HETATM   36  C10 UNL     1     -11.316 -22.117   0.066  1.00  0.00     0.402 C 
HETATM   37  O7  UNL     1     -12.052 -22.676  -0.791  1.00  0.00    -0.276 OA
ENDBRANCH  35  36
ENDBRANCH  10  35
BRANCH  11  38
HETATM   38  O8  UNL     1      -7.771 -22.729   0.095  1.00  0.00    -0.372 OA
ATOM     39  H8  UNL     1      -7.044 -23.175   0.514  1.00  0.00     0.211 HD
ENDBRANCH  11  38
BRANCH  11  40
HETATM   40  C12 UNL     1      -8.847 -24.543  -0.980  1.00  0.00     0.216 C 
HETATM   41  O9  UNL     1      -9.360 -25.028  -2.035  1.00  0.00    -0.645 OA
HETATM   42  O10 UNL     1      -9.201 -25.159   0.184  1.00  0.00    -0.645 OA
ENDBRANCH  11  40
TORSDOF 13
ENDMDL
MODEL 2
REMARK VINA RESULT: -5.669612331      2.064      4.350
REMARK  13 active torsions:
REMARK  status: ('A' for Active; 'I' for Inactive)
REMARK    1  A    between atoms: C2_2  and  O2_4 
REMARK    2  A    between atoms: O2_4  and  C3_5 
REMARK    3  A    between atoms: C3_5  and  C4_6 
REMARK       I    between atoms: C4_6  and  N1_8 
REMARK    4  A    between atoms: N1_8  and  N2_10 
REMARK    5  A    between atoms: C6_16  and  N4_17 
REMARK    6  A    between atoms: N4_17  and  O4_19 
REMARK    7  A    between atoms: C7_23  and  O5_24 
REMARK    8  A    between atoms: C9_27  and  O6_28 
REMARK    9  A    between atoms: O6_28  and  C10_29 
REMARK   10  A    between atoms: C11_31  and  O8_32 
REMARK   11  A    between atoms: C11_31  and  C12_34 
REMARK   12  A    between atoms: C13_37  and  C14_38 
REMARK   13  A    between atoms: C14_38  and  O11_40 
ROOT
HETATM    1  C3  UNL     1      -6.957 -22.054  -4.041  1.00  0.00     0.250 C 
HETATM    2  C5  UNL     1      -8.393 -21.813  -3.988  1.00  0.00     0.289 C 
HETATM    3  N3  UNL     1      -8.557 -20.532  -3.259  1.00  0.00    -0.194 N 
ATOM      4  H3  UNL     1      -9.187 -19.804  -3.597  1.00  0.00     0.180 HD
HETATM    5  C6  UNL     1      -7.789 -20.361  -2.058  1.00  0.00     0.698 C 
HETATM    6  N5  UNL     1      -6.816 -21.147  -1.805  1.00  0.00    -0.184 N 
ATOM      7  H5  UNL     1      -6.295 -20.991  -0.942  1.00  0.00     0.181 HD
HETATM    8  C7  UNL     1      -6.401 -22.231  -2.644  1.00  0.00     0.223 C 
HETATM    9  C8  UNL     1      -6.857 -23.466  -1.978  1.00  0.00     0.049 C 
HETATM   10  C9  UNL     1      -5.934 -23.989  -1.186  1.00  0.00     0.156 C 
HETATM   11  C11 UNL     1      -8.105 -24.266  -1.961  1.00  0.00     0.205 C 
HETATM   12  C13 UNL     1      -8.923 -23.972  -3.160  1.00  0.00     0.202 C 
HETATM   13  O12 UNL     1      -9.193 -22.691  -3.343  1.00  0.00    -0.351 OA
ENDROOT
BRANCH   1  14
HETATM   14  O2  UNL     1      -6.527 -23.178  -4.807  1.00  0.00    -0.290 OA
BRANCH  14  15
HETATM   15  C2  UNL     1      -6.933 -23.433  -6.100  1.00  0.00     0.256 C 
HETATM   16  C1  UNL     1      -6.090 -23.107  -7.265  1.00  0.00     0.126 C 
HETATM   17  O1  UNL     1      -8.045 -23.956  -6.304  1.00  0.00    -0.266 OA
ENDBRANCH  14  15
ENDBRANCH   1  14
BRANCH   1  18
HETATM   18  C4  UNL     1      -6.243 -20.906  -4.626  1.00  0.00     0.281 C 
HETATM   19  O3  UNL     1      -5.066 -20.534  -4.355  1.00  0.00    -0.268 OA
HETATM   20  N1  UNL     1      -6.860 -20.054  -5.624  1.00  0.00    -0.274 N 
ATOM     21  H1  UNL     1      -7.810 -20.275  -5.920  1.00  0.00     0.189 HD
BRANCH  20  22
HETATM   22  N2  UNL     1      -6.239 -18.965  -6.198  1.00  0.00    -0.343 N 
ATOM     23  H22 UNL     1      -5.750 -18.328  -5.569  1.00  0.00     0.176 HD
ATOM     24  H21 UNL     1      -6.244 -18.767  -7.198  1.00  0.00     0.176 HD
ENDBRANCH  20  22
ENDBRANCH   1  18
BRANCH   8  25
HETATM   25  O5  UNL     1      -5.006 -22.241  -2.679  1.00  0.00    -0.363 OA
ATOM     26  H5  UNL     1      -4.663 -21.419  -2.346  1.00  0.00     0.213 HD
ENDBRANCH   8  25
BRANCH   5  27
HETATM   27  N4  UNL     1      -8.103 -19.329  -1.150  1.00  0.00    -0.099 N 
ATOM     28  H4  UNL     1      -9.059 -19.269  -0.801  1.00  0.00     0.213 HD
BRANCH  27  29
HETATM   29  O4  UNL     1      -7.202 -18.407  -0.714  1.00  0.00    -0.276 OA
ATOM     30  H4  UNL     1      -7.284 -17.937   0.108  1.00  0.00     0.245 HD
ENDBRANCH  27  29
ENDBRANCH   5  27
BRANCH  12  31
HETATM   31  C14 UNL     1     -10.280 -24.726  -3.061  1.00  0.00     0.147 C 
HETATM   32  C15 UNL     1     -10.474 -25.600  -4.281  1.00  0.00     0.042 C 
BRANCH  31  33
HETATM   33  O11 UNL     1     -11.330 -23.877  -2.822  1.00  0.00    -0.393 OA
ATOM     34  H11 UNL     1     -11.100 -23.183  -2.215  1.00  0.00     0.210 HD
ENDBRANCH  31  33
ENDBRANCH  12  31
BRANCH  10  35
HETATM   35  O6  UNL     1      -6.132 -25.165  -0.445  1.00  0.00    -0.298 OA
BRANCH  35  36
HETATM   36  C10 UNL     1      -5.638 -25.212   0.833  1.00  0.00     0.402 C 
HETATM   37  O7  UNL     1      -6.430 -25.140   1.811  1.00  0.00    -0.276 OA
ENDBRANCH  35  36
ENDBRANCH  10  35
BRANCH  11  38
HETATM   38  O8  UNL     1      -7.683 -25.619  -2.121  1.00  0.00    -0.372 OA
ATOM     39  H8  UNL     1      -6.942 -25.580  -2.715  1.00  0.00     0.211 HD
ENDBRANCH  11  38
BRANCH  11  40
HETATM   40  C12 UNL     1      -8.818 -24.125  -0.677  1.00  0.00     0.216 C 
HETATM   41  O9  UNL     1      -8.996 -22.941  -0.254  1.00  0.00    -0.645 OA
HETATM   42  O10 UNL     1      -9.316 -25.115   0.118  1.00  0.00    -0.645 OA
ENDBRANCH  11  40
TORSDOF 13
ENDMDL
MODEL 3
REMARK VINA RESULT: -5.664333524      2.536      5.709
REMARK  13 active torsions:
REMARK  status: ('A' for Active; 'I' for Inactive)
REMARK    1  A    between atoms: C2_2  and  O2_4 
REMARK    2  A    between atoms: O2_4  and  C3_5 
REMARK    3  A    between atoms: C3_5  and  C4_6 
REMARK       I    between atoms: C4_6  and  N1_8 
REMARK    4  A    between atoms: N1_8  and  N2_10 
REMARK    5  A    between atoms: C6_16  and  N4_17 
REMARK    6  A    between atoms: N4_17  and  O4_19 
REMARK    7  A    between atoms: C7_23  and  O5_24 
REMARK    8  A    between atoms: C9_27  and  O6_28 
REMARK    9  A    between atoms: O6_28  and  C10_29 
REMARK   10  A    between atoms: C11_31  and  O8_32 
REMARK   11  A    between atoms: C11_31  and  C12_34 
REMARK   12  A    between atoms: C13_37  and  C14_38 
REMARK   13  A    between atoms: C14_38  and  O11_40 
ROOT
HETATM    1  C3  UNL     1      -8.806 -23.736  -2.327  1.00  0.00     0.250 C 
HETATM    2  C5  UNL     1      -7.735 -24.564  -2.867  1.00  0.00     0.289 C 
HETATM    3  N3  UNL     1      -6.995 -25.076  -1.689  1.00  0.00    -0.194 N 
ATOM      4  H3  UNL     1      -6.724 -26.057  -1.614  1.00  0.00     0.180 HD
HETATM    5  C6  UNL     1      -6.675 -24.130  -0.657  1.00  0.00     0.698 C 
HETATM    6  N5  UNL     1      -7.251 -22.992  -0.633  1.00  0.00    -0.184 N 
ATOM      7  H5  UNL     1      -6.997 -22.349   0.117  1.00  0.00     0.181 HD
HETATM    8  C7  UNL     1      -8.230 -22.551  -1.581  1.00  0.00     0.223 C 
HETATM    9  C8  UNL     1      -7.548 -21.577  -2.455  1.00  0.00     0.049 C 
HETATM   10  C9  UNL     1      -7.686 -20.330  -2.033  1.00  0.00     0.156 C 
HETATM   11  C11 UNL     1      -6.727 -21.646  -3.687  1.00  0.00     0.205 C 
HETATM   12  C13 UNL     1      -6.969 -22.923  -4.397  1.00  0.00     0.202 C 
HETATM   13  O12 UNL     1      -6.795 -24.006  -3.661  1.00  0.00    -0.351 OA
ENDROOT
BRANCH   1  14
HETATM   14  O2  UNL     1      -9.747 -23.220  -3.267  1.00  0.00    -0.290 OA
BRANCH  14  15
HETATM   15  C2  UNL     1     -10.555 -24.004  -4.063  1.00  0.00     0.256 C 
HETATM   16  C1  UNL     1     -10.135 -24.453  -5.404  1.00  0.00     0.126 C 
HETATM   17  O1  UNL     1     -11.676 -24.351  -3.649  1.00  0.00    -0.266 OA
ENDBRANCH  14  15
ENDBRANCH   1  14
BRANCH   1  18
HETATM   18  C4  UNL     1      -9.620 -24.481  -1.352  1.00  0.00     0.281 C 
HETATM   19  O3  UNL     1     -10.166 -24.012  -0.313  1.00  0.00    -0.268 OA
HETATM   20  N1  UNL     1      -9.886 -25.898  -1.507  1.00  0.00    -0.274 N 
ATOM     21  H1  UNL     1      -9.496 -26.372  -2.321  1.00  0.00     0.189 HD
BRANCH  20  22
HETATM   22  N2  UNL     1     -10.635 -26.643  -0.620  1.00  0.00    -0.343 N 
ATOM     23  H22 UNL     1     -10.646 -26.330   0.351  1.00  0.00     0.176 HD
ATOM     24  H21 UNL     1     -11.167 -27.472  -0.880  1.00  0.00     0.176 HD
ENDBRANCH  20  22
ENDBRANCH   1  18
BRANCH   8  25
HETATM   25  O5  UNL     1      -9.238 -21.884  -0.884  1.00  0.00    -0.363 OA
ATOM     26  H5  UNL     1      -9.375 -21.019  -1.252  1.00  0.00     0.213 HD
ENDBRANCH   8  25
BRANCH   5  27
HETATM   27  N4  UNL     1      -5.724 -24.448   0.335  1.00  0.00    -0.099 N 
ATOM     28  H4  UNL     1      -4.980 -23.776   0.522  1.00  0.00     0.213 HD
BRANCH  27  29
HETATM   29  O4  UNL     1      -5.742 -25.602   1.055  1.00  0.00    -0.276 OA
ATOM     30  H4  UNL     1      -5.595 -25.640   1.993  1.00  0.00     0.245 HD
ENDBRANCH  27  29
ENDBRANCH   5  27
BRANCH  12  31
HETATM   31  C14 UNL     1      -6.009 -23.028  -5.617  1.00  0.00     0.147 C 
HETATM   32  C15 UNL     1      -6.766 -23.537  -6.825  1.00  0.00     0.042 C 
BRANCH  31  33
HETATM   33  O11 UNL     1      -4.882 -23.754  -5.329  1.00  0.00    -0.393 OA
ATOM     34  H11 UNL     1      -4.861 -24.584  -5.792  1.00  0.00     0.210 HD
ENDBRANCH  31  33
ENDBRANCH  12  31
BRANCH  10  35
HETATM   35  O6  UNL     1      -7.129 -19.226  -2.697  1.00  0.00    -0.298 OA
BRANCH  35  36
HETATM   36  C10 UNL     1      -6.517 -18.260  -1.940  1.00  0.00     0.402 C 
HETATM   37  O7  UNL     1      -5.526 -18.564  -1.223  1.00  0.00    -0.276 OA
ENDBRANCH  35  36
ENDBRANCH  10  35
BRANCH  11  38
HETATM   38  O8  UNL     1      -7.256 -20.636  -4.544  1.00  0.00    -0.372 OA
ATOM     39  H8  UNL     1      -8.076 -20.990  -4.868  1.00  0.00     0.211 HD
ENDBRANCH  11  38
BRANCH  11  40
HETATM   40  C12 UNL     1      -5.308 -21.354  -3.406  1.00  0.00     0.216 C 
HETATM   41  O9  UNL     1      -4.755 -22.049  -2.499  1.00  0.00    -0.645 OA
HETATM   42  O10 UNL     1      -4.509 -20.427  -4.006  1.00  0.00    -0.645 OA
ENDBRANCH  11  40
TORSDOF 13
ENDMDL
MODEL 4
REMARK VINA RESULT: -5.590484850      2.254      5.701
REMARK  13 active torsions:
REMARK  status: ('A' for Active; 'I' for Inactive)
REMARK    1  A    between atoms: C2_2  and  O2_4 
REMARK    2  A    between atoms: O2_4  and  C3_5 
REMARK    3  A    between atoms: C3_5  and  C4_6 
REMARK       I    between atoms: C4_6  and  N1_8 
REMARK    4  A    between atoms: N1_8  and  N2_10 
REMARK    5  A    between atoms: C6_16  and  N4_17 
REMARK    6  A    between atoms: N4_17  and  O4_19 
REMARK    7  A    between atoms: C7_23  and  O5_24 
REMARK    8  A    between atoms: C9_27  and  O6_28 
REMARK    9  A    between atoms: O6_28  and  C10_29 
REMARK   10  A    between atoms: C11_31  and  O8_32 
REMARK   11  A    between atoms: C11_31  and  C12_34 
REMARK   12  A    between atoms: C13_37  and  C14_38 
REMARK   13  A    between atoms: C14_38  and  O11_40 
ROOT
HETATM    1  C3  UNL     1      -9.622 -24.217  -2.828  1.00  0.00     0.250 C 
HETATM    2  C5  UNL     1      -9.113 -23.567  -1.628  1.00  0.00     0.289 C 
HETATM    3  N3  UNL     1      -9.819 -22.265  -1.549  1.00  0.00    -0.194 N 
ATOM      4  H3  UNL     1     -10.223 -21.930  -0.674  1.00  0.00     0.180 HD
HETATM    5  C6  UNL     1      -9.908 -21.497  -2.759  1.00  0.00     0.698 C 
HETATM    6  N5  UNL     1      -9.651 -22.043  -3.883  1.00  0.00    -0.184 N 
ATOM      7  H5  UNL     1      -9.727 -21.463  -4.719  1.00  0.00     0.181 HD
HETATM    8  C7  UNL     1      -9.262 -23.411  -4.058  1.00  0.00     0.223 C 
HETATM    9  C8  UNL     1      -7.816 -23.395  -4.352  1.00  0.00     0.049 C 
HETATM   10  C9  UNL     1      -7.561 -23.365  -5.651  1.00  0.00     0.156 C 
HETATM   11  C11 UNL     1      -6.569 -23.387  -3.552  1.00  0.00     0.205 C 
HETATM   12  C13 UNL     1      -6.830 -23.890  -2.184  1.00  0.00     0.202 C 
HETATM   13  O12 UNL     1      -7.799 -23.263  -1.541  1.00  0.00    -0.351 OA
ENDROOT
BRANCH   1  14
HETATM   14  O2  UNL     1      -9.183 -25.555  -3.063  1.00  0.00    -0.290 OA
BRANCH  14  15
HETATM   15  C2  UNL     1      -9.928 -26.676  -2.768  1.00  0.00     0.256 C 
HETATM   16  C1  UNL     1     -10.539 -27.511  -3.819  1.00  0.00     0.126 C 
HETATM   17  O1  UNL     1     -10.098 -27.007  -1.579  1.00  0.00    -0.266 OA
ENDBRANCH  14  15
ENDBRANCH   1  14
BRANCH   1  18
HETATM   18  C4  UNL     1     -11.092 -24.303  -2.808  1.00  0.00     0.281 C 
HETATM   19  O3  UNL     1     -11.862 -24.261  -3.808  1.00  0.00    -0.268 OA
HETATM   20  N1  UNL     1     -11.829 -24.458  -1.569  1.00  0.00    -0.274 N 
ATOM     21  H1  UNL     1     -11.297 -24.511  -0.700  1.00  0.00     0.189 HD
BRANCH  20  22
HETATM   22  N2  UNL     1     -13.203 -24.536  -1.493  1.00  0.00    -0.343 N 
ATOM     23  H22 UNL     1     -13.705 -23.668  -1.304  1.00  0.00     0.176 HD
ATOM     24  H21 UNL     1     -13.733 -25.398  -1.614  1.00  0.00     0.176 HD
ENDBRANCH  20  22
ENDBRANCH   1  18
BRANCH   8  25
HETATM   25  O5  UNL     1      -9.932 -23.911  -5.175  1.00  0.00    -0.363 OA
ATOM     26  H5  UNL     1      -9.327 -24.011  -5.902  1.00  0.00     0.213 HD
ENDBRANCH   8  25
BRANCH   5  27
HETATM   27  N4  UNL     1     -10.280 -20.137  -2.716  1.00  0.00    -0.099 N 
ATOM     28  H4  UNL     1     -11.269 -19.912  -2.609  1.00  0.00     0.213 HD
BRANCH  27  29
HETATM   29  O4  UNL     1      -9.394 -19.109  -2.810  1.00  0.00    -0.276 OA
ATOM     30  H4  UNL     1      -8.471 -19.225  -3.004  1.00  0.00     0.245 HD
ENDBRANCH  27  29
ENDBRANCH   5  27
BRANCH  12  31
HETATM   31  C14 UNL     1      -5.539 -23.757  -1.326  1.00  0.00     0.147 C 
HETATM   32  C15 UNL     1      -5.274 -25.053  -0.590  1.00  0.00     0.042 C 
BRANCH  31  33
HETATM   33  O11 UNL     1      -5.569 -22.658  -0.508  1.00  0.00    -0.393 OA
ATOM     34  H11 UNL     1      -4.750 -22.176  -0.522  1.00  0.00     0.210 HD
ENDBRANCH  31  33
ENDBRANCH  12  31
BRANCH  10  35
HETATM   35  O6  UNL     1      -6.261 -23.345  -6.179  1.00  0.00    -0.298 OA
BRANCH  35  36
HETATM   36  C10 UNL     1      -6.118 -23.201  -7.536  1.00  0.00     0.402 C 
HETATM   37  O7  UNL     1      -6.286 -22.069  -8.063  1.00  0.00    -0.276 OA
ENDBRANCH  35  36
ENDBRANCH  10  35
BRANCH  11  38
HETATM   38  O8  UNL     1      -5.732 -24.370  -4.157  1.00  0.00    -0.372 OA
ATOM     39  H8  UNL     1      -6.103 -24.516  -5.020  1.00  0.00     0.211 HD
ENDBRANCH  11  38
BRANCH  11  40
HETATM   40  C12 UNL     1      -5.899 -22.073  -3.610  1.00  0.00     0.216 C 
HETATM   41  O9  UNL     1      -6.583 -21.071  -3.237  1.00  0.00    -0.645 OA
HETATM   42  O10 UNL     1      -4.626 -21.799  -4.015  1.00  0.00    -0.645 OA
ENDBRANCH  11  40
TORSDOF 13
ENDMDL
MODEL 5
REMARK VINA RESULT: -5.557788999      1.738      4.799
REMARK  13 active torsions:
REMARK  status: ('A' for Active; 'I' for Inactive)
REMARK    1  A    between atoms: C2_2  and  O2_4 
REMARK    2  A    between atoms: O2_4  and  C3_5 
REMARK    3  A    between atoms: C3_5  and  C4_6 
REMARK       I    between atoms: C4_6  and  N1_8 
REMARK    4  A    between atoms: N1_8  and  N2_10 
REMARK    5  A    between atoms: C6_16  and  N4_17 
REMARK    6  A    between atoms: N4_17  and  O4_19 
REMARK    7  A    between atoms: C7_23  and  O5_24 
REMARK    8  A    between atoms: C9_27  and  O6_28 
REMARK    9  A    between atoms: O6_28  and  C10_29 
REMARK   10  A    between atoms: C11_31  and  O8_32 
REMARK   11  A    between atoms: C11_31  and  C12_34 
REMARK   12  A    between atoms: C13_37  and  C14_38 
REMARK   13  A    between atoms: C14_38  and  O11_40 
ROOT
HETATM    1  C3  UNL     1      -7.699 -22.878  -4.209  1.00  0.00     0.250 C 
HETATM    2  C5  UNL     1      -8.550 -21.786  -3.754  1.00  0.00     0.289 C 
HETATM    3  N3  UNL     1      -7.676 -20.588  -3.718  1.00  0.00    -0.194 N 
ATOM      4  H3  UNL     1      -7.982 -19.694  -4.101  1.00  0.00     0.180 HD
HETATM    5  C6  UNL     1      -6.381 -20.743  -3.118  1.00  0.00     0.698 C 
HETATM    6  N5  UNL     1      -5.913 -21.910  -2.900  1.00  0.00    -0.184 N 
ATOM      7  H5  UNL     1      -4.989 -21.977  -2.473  1.00  0.00     0.181 HD
HETATM    8  C7  UNL     1      -6.590 -23.133  -3.211  1.00  0.00     0.223 C 
HETATM    9  C8  UNL     1      -7.067 -23.679  -1.925  1.00  0.00     0.049 C 
HETATM   10  C9  UNL     1      -6.207 -24.527  -1.381  1.00  0.00     0.156 C 
HETATM   11  C11 UNL     1      -8.268 -23.504  -1.075  1.00  0.00     0.205 C 
HETATM   12  C13 UNL     1      -9.391 -22.963  -1.874  1.00  0.00     0.202 C 
HETATM   13  O12 UNL     1      -9.117 -21.848  -2.528  1.00  0.00    -0.351 OA
ENDROOT
BRANCH   1  14
HETATM   14  O2  UNL     1      -8.342 -24.129  -4.448  1.00  0.00    -0.290 OA
BRANCH  14  15
HETATM   15  C2  UNL     1      -9.458 -24.286  -5.243  1.00  0.00     0.256 C 
HETATM   16  C1  UNL     1     -10.810 -24.437  -4.675  1.00  0.00     0.126 C 
HETATM   17  O1  UNL     1      -9.333 -24.304  -6.482  1.00  0.00    -0.266 OA
ENDBRANCH  14  15
ENDBRANCH   1  14
BRANCH   1  18
HETATM   18  C4  UNL     1      -7.038 -22.547  -5.483  1.00  0.00     0.281 C 
HETATM   19  O3  UNL     1      -6.834 -21.389  -5.946  1.00  0.00    -0.268 OA
HETATM   20  N1  UNL     1      -6.529 -23.577  -6.367  1.00  0.00    -0.274 N 
ATOM     21  H1  UNL     1      -6.636 -24.549  -6.080  1.00  0.00     0.189 HD
BRANCH  20  22
HETATM   22  N2  UNL     1      -5.910 -23.321  -7.572  1.00  0.00    -0.343 N 
ATOM     23  H22 UNL     1      -4.939 -23.621  -7.665  1.00  0.00     0.176 HD
ATOM     24  H21 UNL     1      -6.363 -22.858  -8.359  1.00  0.00     0.176 HD
ENDBRANCH  20  22
ENDBRANCH   1  18
BRANCH   8  25
HETATM   25  O5  UNL     1      -5.656 -24.021  -3.745  1.00  0.00    -0.363 OA
ATOM     26  H5  UNL     1      -4.851 -23.995  -3.239  1.00  0.00     0.213 HD
ENDBRANCH   8  25
BRANCH   5  27
HETATM   27  N4  UNL     1      -5.617 -19.611  -2.765  1.00  0.00    -0.099 N 
ATOM     28  H4  UNL     1      -5.780 -18.743  -3.275  1.00  0.00     0.213 HD
BRANCH  27  29
HETATM   29  O4  UNL     1      -4.675 -19.612  -1.783  1.00  0.00    -0.276 OA
ATOM     30  H4  UNL     1      -4.593 -20.300  -1.132  1.00  0.00     0.245 HD
ENDBRANCH  27  29
ENDBRANCH   5  27
BRANCH  12  31
HETATM   31  C14 UNL     1     -10.600 -22.670  -0.940  1.00  0.00     0.147 C 
HETATM   32  C15 UNL     1     -11.620 -23.783  -1.055  1.00  0.00     0.042 C 
BRANCH  31  33
HETATM   33  O11 UNL     1     -11.125 -21.421  -1.146  1.00  0.00    -0.393 OA
ATOM     34  H11 UNL     1     -11.636 -21.372  -1.945  1.00  0.00     0.210 HD
ENDBRANCH  31  33
ENDBRANCH  12  31
BRANCH  10  35
HETATM   35  O6  UNL     1      -6.435 -25.177  -0.159  1.00  0.00    -0.298 OA
BRANCH  35  36
HETATM   36  C10 UNL     1      -5.432 -25.165   0.776  1.00  0.00     0.402 C 
HETATM   37  O7  UNL     1      -4.809 -24.094   1.007  1.00  0.00    -0.276 OA
ENDBRANCH  35  36
ENDBRANCH  10  35
BRANCH  11  38
HETATM   38  O8  UNL     1      -8.668 -24.825  -0.717  1.00  0.00    -0.372 OA
ATOM     39  H8  UNL     1      -9.360 -25.049  -1.327  1.00  0.00     0.211 HD
ENDBRANCH  11  38
BRANCH  11  40
HETATM   40  C12 UNL     1      -7.956 -22.739   0.148  1.00  0.00     0.216 C 
HETATM   41  O9  UNL     1      -7.295 -21.667  -0.007  1.00  0.00    -0.645 OA
HETATM   42  O10 UNL     1      -8.294 -23.041   1.434  1.00  0.00    -0.645 OA
ENDBRANCH  11  40
TORSDOF 13
ENDMDL
