MODEL 1
REMARK VINA RESULT: -6.774173362      0.000      0.000
REMARK  14 active torsions:
REMARK  status: ('A' for Active; 'I' for Inactive)
REMARK       I    between atoms: C2_5  and  N3_6 
REMARK       I    between atoms: C2_5  and  N5_17 
REMARK    1  A    between atoms: N3_6  and  O1_8 
REMARK    2  A    between atoms: O1_8  and  C3_9 
REMARK    3  A    between atoms: C3_9  and  C4_10 
REMARK    4  A    between atoms: C4_10  and  O2_11 
REMARK    5  A    between atoms: N4_13  and  O3_15 
REMARK    6  A    between atoms: N5_17  and  S1_19 
REMARK    7  A    between atoms: S1_19  and  N6_20 
REMARK    8  A    between atoms: N6_20  and  C5_21 
REMARK    9  A    between atoms: C7_23  and  O4_24 
REMARK   10  A    between atoms: O4_24  and  C8_25 
REMARK   11  A    between atoms: C10_28  and  O6_29 
REMARK   12  A    between atoms: C11_31  and  O7_32 
REMARK   13  A    between atoms: C12_34  and  N7_35 
REMARK   14  A    between atoms: C14_40  and  N8_41 
ROOT
HETATM    1  N1  UNL     1      -6.501 -18.986  -2.685  1.00  0.00    -0.171 NA
HETATM    2  C1  UNL     1      -6.292 -19.930  -3.311  1.00  0.00     0.196 C 
HETATM    3  N2  UNL     1      -6.038 -21.081  -4.048  1.00  0.00    -0.124 N 
ATOM      4  H2  UNL     1      -5.686 -21.919  -3.584  1.00  0.00     0.197 HD
HETATM    5  C2  UNL     1      -6.252 -21.086  -5.340  1.00  0.00     0.718 C 
HETATM    6  N3  UNL     1      -6.736 -19.944  -6.005  1.00  0.00    -0.088 N 
ATOM      7  H3  UNL     1      -7.107 -19.162  -5.465  1.00  0.00     0.213 HD
HETATM    8  N5  UNL     1      -5.996 -22.260  -6.103  1.00  0.00    -0.147 N 
ATOM      9  H5  UNL     1      -5.257 -22.295  -6.806  1.00  0.00     0.194 HD
ENDROOT
BRANCH   6  10
HETATM   10  O1  UNL     1      -6.712 -19.876  -7.364  1.00  0.00    -0.206 OA
BRANCH  10  11
HETATM   11  C3  UNL     1      -6.808 -18.692  -8.077  1.00  0.00     0.190 C 
HETATM   12  N4  UNL     1      -6.736 -18.746  -9.358  1.00  0.00    -0.247 N 
ATOM     13  H4  UNL     1      -6.805 -17.880  -9.893  1.00  0.00     0.196 HD
BRANCH  11  14
HETATM   14  C4  UNL     1      -6.991 -17.373  -7.392  1.00  0.00     0.252 C 
BRANCH  14  15
HETATM   15  O2  UNL     1      -7.877 -16.564  -8.059  1.00  0.00    -0.393 OA
ATOM     16  H2  UNL     1      -8.219 -15.874  -7.503  1.00  0.00     0.210 HD
ENDBRANCH  14  15
ENDBRANCH  11  14
BRANCH  12  17
HETATM   17  O3  UNL     1      -6.569 -19.917 -10.024  1.00  0.00    -0.288 OA
ATOM     18  H3  UNL     1      -5.784 -20.444  -9.934  1.00  0.00     0.244 HD
ENDBRANCH  12  17
ENDBRANCH  10  11
ENDBRANCH   6  10
BRANCH   8  19
HETATM   19  S1  UNL     1      -7.037 -23.660  -5.762  1.00  0.00     0.070 SA
BRANCH  19  20
HETATM   20  N6  UNL     1      -8.557 -23.035  -5.126  1.00  0.00    -0.151 NA
BRANCH  20  21
HETATM   21  C5  UNL     1      -9.001 -23.922  -4.077  1.00  0.00     0.122 C 
HETATM   22  C6  UNL     1     -10.472 -23.798  -3.813  1.00  0.00     0.058 C 
HETATM   23  C7  UNL     1     -10.886 -24.945  -2.908  1.00  0.00     0.157 C 
HETATM   24  C12 UNL     1      -9.712 -25.701  -2.374  1.00  0.00     0.214 C 
HETATM   25  C13 UNL     1      -8.608 -24.825  -1.852  1.00  0.00     0.070 C 
HETATM   26  C14 UNL     1      -8.276 -23.677  -2.773  1.00  0.00     0.205 C 
BRANCH  23  27
HETATM   27  O4  UNL     1     -11.663 -25.801  -3.674  1.00  0.00    -0.351 OA
BRANCH  27  28
HETATM   28  C8  UNL     1     -12.999 -25.557  -3.404  1.00  0.00     0.291 C 
HETATM   29  O5  UNL     1     -13.794 -26.680  -3.630  1.00  0.00    -0.356 OA
HETATM   30  C9  UNL     1     -13.645 -27.444  -2.453  1.00  0.00     0.205 C 
HETATM   31  C10 UNL     1     -13.873 -26.422  -1.386  1.00  0.00     0.175 C 
HETATM   32  C11 UNL     1     -13.145 -25.210  -1.939  1.00  0.00     0.204 C 
BRANCH  31  33
HETATM   33  O6  UNL     1     -13.328 -26.733  -0.167  1.00  0.00    -0.391 OA
ATOM     34  H6  UNL     1     -13.830 -27.355   0.347  1.00  0.00     0.210 HD
ENDBRANCH  31  33
BRANCH  32  35
HETATM   35  O7  UNL     1     -13.910 -24.066  -1.811  1.00  0.00    -0.388 OA
ATOM     36  H7  UNL     1     -14.122 -23.928  -0.895  1.00  0.00     0.210 HD
ENDBRANCH  32  35
ENDBRANCH  27  28
ENDBRANCH  23  27
BRANCH  24  37
HETATM   37  N7  UNL     1     -10.186 -26.494  -1.228  1.00  0.00    -0.072 N 
ATOM     38  H73 UNL     1     -10.277 -25.944  -0.374  1.00  0.00     0.274 HD
ATOM     39  H72 UNL     1     -11.163 -26.772  -1.311  1.00  0.00     0.274 HD
ATOM     40  H71 UNL     1      -9.553 -27.287  -1.124  1.00  0.00     0.274 HD
ENDBRANCH  24  37
BRANCH  26  41
HETATM   41  N8  UNL     1      -8.842 -22.462  -2.187  1.00  0.00    -0.073 N 
ATOM     42  H83 UNL     1      -8.270 -21.634  -2.355  1.00  0.00     0.274 HD
ATOM     43  H82 UNL     1      -9.682 -22.140  -2.666  1.00  0.00     0.274 HD
ATOM     44  H81 UNL     1      -8.994 -22.649  -1.196  1.00  0.00     0.274 HD
ENDBRANCH  26  41
ENDBRANCH  20  21
ENDBRANCH  19  20
ENDBRANCH   8  19
TORSDOF 14
ENDMDL
MODEL 2
REMARK VINA RESULT: -6.693887126      3.147      4.760
REMARK  14 active torsions:
REMARK  status: ('A' for Active; 'I' for Inactive)
REMARK       I    between atoms: C2_5  and  N3_6 
REMARK       I    between atoms: C2_5  and  N5_17 
REMARK    1  A    between atoms: N3_6  and  O1_8 
REMARK    2  A    between atoms: O1_8  and  C3_9 
REMARK    3  A    between atoms: C3_9  and  C4_10 
REMARK    4  A    between atoms: C4_10  and  O2_11 
REMARK    5  A    between atoms: N4_13  and  O3_15 
REMARK    6  A    between atoms: N5_17  and  S1_19 
REMARK    7  A    between atoms: S1_19  and  N6_20 
REMARK    8  A    between atoms: N6_20  and  C5_21 
REMARK    9  A    between atoms: C7_23  and  O4_24 
REMARK   10  A    between atoms: O4_24  and  C8_25 
REMARK   11  A    between atoms: C10_28  and  O6_29 
REMARK   12  A    between atoms: C11_31  and  O7_32 
REMARK   13  A    between atoms: C12_34  and  N7_35 
REMARK   14  A    between atoms: C14_40  and  N8_41 
ROOT
HETATM    1  N1  UNL     1      -6.536 -18.796  -2.586  1.00  0.00    -0.171 NA
HETATM    2  C1  UNL     1      -6.364 -19.782  -3.157  1.00  0.00     0.196 C 
HETATM    3  N2  UNL     1      -6.156 -20.982  -3.828  1.00  0.00    -0.124 N 
ATOM      4  H2  UNL     1      -5.856 -21.810  -3.313  1.00  0.00     0.197 HD
HETATM    5  C2  UNL     1      -6.346 -21.046  -5.121  1.00  0.00     0.718 C 
HETATM    6  N3  UNL     1      -6.759 -19.918  -5.855  1.00  0.00    -0.088 N 
ATOM      7  H3  UNL     1      -7.100 -19.091  -5.365  1.00  0.00     0.213 HD
HETATM    8  N5  UNL     1      -6.136 -22.270  -5.816  1.00  0.00    -0.147 N 
ATOM      9  H5  UNL     1      -5.388 -22.380  -6.500  1.00  0.00     0.194 HD
ENDROOT
BRANCH   6  10
HETATM   10  O1  UNL     1      -6.707 -19.924  -7.215  1.00  0.00    -0.206 OA
BRANCH  10  11
HETATM   11  C3  UNL     1      -6.804 -18.782  -7.994  1.00  0.00     0.190 C 
HETATM   12  N4  UNL     1      -6.719 -18.907  -9.270  1.00  0.00    -0.247 N 
ATOM     13  H4  UNL     1      -6.790 -18.073  -9.853  1.00  0.00     0.196 HD
BRANCH  11  14
HETATM   14  C4  UNL     1      -7.002 -17.429  -7.386  1.00  0.00     0.252 C 
BRANCH  14  15
HETATM   15  O2  UNL     1      -7.906 -16.674  -8.092  1.00  0.00    -0.393 OA
ATOM     16  H2  UNL     1      -7.594 -15.789  -8.240  1.00  0.00     0.210 HD
ENDBRANCH  14  15
ENDBRANCH  11  14
BRANCH  12  17
HETATM   17  O3  UNL     1      -6.539 -20.113  -9.868  1.00  0.00    -0.288 OA
ATOM     18  H3  UNL     1      -5.738 -20.335 -10.328  1.00  0.00     0.244 HD
ENDBRANCH  12  17
ENDBRANCH  10  11
ENDBRANCH   6  10
BRANCH   8  19
HETATM   19  S1  UNL     1      -7.254 -23.596  -5.424  1.00  0.00     0.070 SA
BRANCH  19  20
HETATM   20  N6  UNL     1      -8.819 -22.868  -5.067  1.00  0.00    -0.151 NA
BRANCH  20  21
HETATM   21  C5  UNL     1      -9.120 -23.116  -3.677  1.00  0.00     0.122 C 
HETATM   22  C6  UNL     1      -8.079 -23.969  -3.014  1.00  0.00     0.058 C 
HETATM   23  C7  UNL     1      -8.332 -23.943  -1.517  1.00  0.00     0.157 C 
HETATM   24  C12 UNL     1      -9.631 -23.290  -1.171  1.00  0.00     0.214 C 
HETATM   25  C13 UNL     1     -10.786 -23.742  -2.019  1.00  0.00     0.070 C 
HETATM   26  C14 UNL     1     -10.458 -23.793  -3.491  1.00  0.00     0.205 C 
BRANCH  23  27
HETATM   27  O4  UNL     1      -7.296 -23.217  -0.948  1.00  0.00    -0.351 OA
BRANCH  27  28
HETATM   28  C8  UNL     1      -6.090 -23.741  -1.382  1.00  0.00     0.291 C 
HETATM   29  O5  UNL     1      -5.107 -22.760  -1.509  1.00  0.00    -0.356 OA
HETATM   30  C9  UNL     1      -4.619 -22.596  -0.194  1.00  0.00     0.205 C 
HETATM   31  C10 UNL     1      -4.383 -24.010   0.230  1.00  0.00     0.175 C 
HETATM   32  C11 UNL     1      -5.588 -24.727  -0.351  1.00  0.00     0.204 C 
BRANCH  31  33
HETATM   33  O6  UNL     1      -4.375 -24.209   1.587  1.00  0.00    -0.391 OA
ATOM     34  H6  UNL     1      -4.156 -25.093   1.858  1.00  0.00     0.210 HD
ENDBRANCH  31  33
BRANCH  32  35
HETATM   35  O7  UNL     1      -5.216 -25.901  -0.979  1.00  0.00    -0.388 OA
ATOM     36  H7  UNL     1      -4.425 -25.753  -1.484  1.00  0.00     0.210 HD
ENDBRANCH  32  35
ENDBRANCH  27  28
ENDBRANCH  23  27
BRANCH  24  37
HETATM   37  N7  UNL     1      -9.960 -23.673   0.212  1.00  0.00    -0.072 N 
ATOM     38  H73 UNL     1     -10.263 -24.643   0.295  1.00  0.00     0.274 HD
ATOM     39  H72 UNL     1      -9.139 -23.739   0.814  1.00  0.00     0.274 HD
ATOM     40  H71 UNL     1     -10.654 -23.009   0.555  1.00  0.00     0.274 HD
ENDBRANCH  24  37
BRANCH  26  41
HETATM   41  N8  UNL     1     -10.285 -25.199  -3.857  1.00  0.00    -0.073 N 
ATOM     42  H83 UNL     1     -10.596 -25.405  -4.806  1.00  0.00     0.274 HD
ATOM     43  H82 UNL     1      -9.308 -25.463  -3.977  1.00  0.00     0.274 HD
ATOM     44  H81 UNL     1     -10.765 -25.755  -3.149  1.00  0.00     0.274 HD
ENDBRANCH  26  41
ENDBRANCH  20  21
ENDBRANCH  19  20
ENDBRANCH   8  19
TORSDOF 14
ENDMDL
MODEL 3
REMARK VINA RESULT: -6.657128765      2.436      3.901
REMARK  14 active torsions:
REMARK  status: ('A' for Active; 'I' for Inactive)
REMARK       I    between atoms: C2_5  and  N3_6 
REMARK       I    between atoms: C2_5  and  N5_17 
REMARK    1  A    between atoms: N3_6  and  O1_8 
REMARK    2  A    between atoms: O1_8  and  C3_9 
REMARK    3  A    between atoms: C3_9  and  C4_10 
REMARK    4  A    between atoms: C4_10  and  O2_11 
REMARK    5  A    between atoms: N4_13  and  O3_15 
REMARK    6  A    between atoms: N5_17  and  S1_19 
REMARK    7  A    between atoms: S1_19  and  N6_20 
REMARK    8  A    between atoms: N6_20  and  C5_21 
REMARK    9  A    between atoms: C7_23  and  O4_24 
REMARK   10  A    between atoms: O4_24  and  C8_25 
REMARK   11  A    between atoms: C10_28  and  O6_29 
REMARK   12  A    between atoms: C11_31  and  O7_32 
REMARK   13  A    between atoms: C12_34  and  N7_35 
REMARK   14  A    between atoms: C14_40  and  N8_41 
ROOT
HETATM    1  N1  UNL     1      -6.093 -23.278  -6.716  1.00  0.00    -0.171 NA
HETATM    2  C1  UNL     1      -6.402 -22.547  -5.882  1.00  0.00     0.196 C 
HETATM    3  N2  UNL     1      -6.772 -21.680  -4.860  1.00  0.00    -0.124 N 
ATOM      4  H2  UNL     1      -7.024 -22.048  -3.942  1.00  0.00     0.197 HD
HETATM    5  C2  UNL     1      -6.797 -20.389  -5.079  1.00  0.00     0.718 C 
HETATM    6  N3  UNL     1      -6.455 -19.855  -6.336  1.00  0.00    -0.088 N 
ATOM      7  H3  UNL     1      -6.001 -20.447  -7.032  1.00  0.00     0.213 HD
HETATM    8  N5  UNL     1      -7.174 -19.493  -4.039  1.00  0.00    -0.147 N 
ATOM      9  H5  UNL     1      -8.028 -18.938  -4.090  1.00  0.00     0.194 HD
ENDROOT
BRANCH   6  10
HETATM   10  O1  UNL     1      -6.727 -18.554  -6.628  1.00  0.00    -0.206 OA
BRANCH  10  11
HETATM   11  C3  UNL     1      -6.959 -18.086  -7.912  1.00  0.00     0.190 C 
HETATM   12  N4  UNL     1      -7.622 -16.994  -8.051  1.00  0.00    -0.247 N 
ATOM     13  H4  UNL     1      -7.798 -16.640  -8.991  1.00  0.00     0.196 HD
BRANCH  11  14
HETATM   14  C4  UNL     1      -6.459 -18.817  -9.119  1.00  0.00     0.252 C 
BRANCH  14  15
HETATM   15  O2  UNL     1      -6.788 -20.150  -9.088  1.00  0.00    -0.393 OA
ATOM     16  H2  UNL     1      -7.712 -20.285  -8.915  1.00  0.00     0.210 HD
ENDBRANCH  14  15
ENDBRANCH  11  14
BRANCH  12  17
HETATM   17  O3  UNL     1      -8.096 -16.296  -6.988  1.00  0.00    -0.288 OA
ATOM     18  H3  UNL     1      -8.490 -16.723  -6.236  1.00  0.00     0.244 HD
ENDBRANCH  12  17
ENDBRANCH  10  11
ENDBRANCH   6  10
BRANCH   8  19
HETATM   19  S1  UNL     1      -6.071 -19.398  -2.647  1.00  0.00     0.070 SA
BRANCH  19  20
HETATM   20  N6  UNL     1      -6.919 -20.088  -1.265  1.00  0.00    -0.151 NA
BRANCH  20  21
HETATM   21  C5  UNL     1      -6.775 -21.523  -1.323  1.00  0.00     0.122 C 
HETATM   22  C6  UNL     1      -8.092 -22.219  -1.499  1.00  0.00     0.058 C 
HETATM   23  C7  UNL     1      -7.814 -23.677  -1.823  1.00  0.00     0.157 C 
HETATM   24  C12 UNL     1      -6.373 -24.033  -1.651  1.00  0.00     0.214 C 
HETATM   25  C13 UNL     1      -5.766 -23.523  -0.373  1.00  0.00     0.070 C 
HETATM   26  C14 UNL     1      -6.118 -22.085  -0.084  1.00  0.00     0.205 C 
BRANCH  23  27
HETATM   27  O4  UNL     1      -8.170 -23.868  -3.149  1.00  0.00    -0.351 OA
BRANCH  27  28
HETATM   28  C8  UNL     1      -9.446 -23.368  -3.348  1.00  0.00     0.291 C 
HETATM   29  O5  UNL     1      -9.604 -22.822  -4.622  1.00  0.00    -0.356 OA
HETATM   30  C9  UNL     1      -9.862 -23.943  -5.441  1.00  0.00     0.205 C 
HETATM   31  C10 UNL     1     -10.922 -24.658  -4.667  1.00  0.00     0.175 C 
HETATM   32  C11 UNL     1     -10.437 -24.505  -3.237  1.00  0.00     0.204 C 
BRANCH  31  33
HETATM   33  O6  UNL     1     -11.032 -25.997  -4.943  1.00  0.00    -0.391 OA
ATOM     34  H6  UNL     1     -11.104 -26.557  -4.179  1.00  0.00     0.210 HD
ENDBRANCH  31  33
BRANCH  32  35
HETATM   35  O7  UNL     1     -11.470 -24.134  -2.396  1.00  0.00    -0.388 OA
ATOM     36  H7  UNL     1     -11.321 -23.250  -2.081  1.00  0.00     0.210 HD
ENDBRANCH  32  35
ENDBRANCH  27  28
ENDBRANCH  23  27
BRANCH  24  37
HETATM   37  N7  UNL     1      -6.288 -25.502  -1.588  1.00  0.00    -0.072 N 
ATOM     38  H73 UNL     1      -5.348 -25.839  -1.382  1.00  0.00     0.274 HD
ATOM     39  H72 UNL     1      -6.751 -25.893  -0.767  1.00  0.00     0.274 HD
ATOM     40  H71 UNL     1      -6.659 -25.865  -2.466  1.00  0.00     0.274 HD
ENDBRANCH  24  37
BRANCH  26  41
HETATM   41  N8  UNL     1      -7.125 -22.081   0.978  1.00  0.00    -0.073 N 
ATOM     42  H83 UNL     1      -7.133 -22.943   1.524  1.00  0.00     0.274 HD
ATOM     43  H82 UNL     1      -6.899 -21.444   1.741  1.00  0.00     0.274 HD
ATOM     44  H81 UNL     1      -8.023 -21.876   0.539  1.00  0.00     0.274 HD
ENDBRANCH  26  41
ENDBRANCH  20  21
ENDBRANCH  19  20
ENDBRANCH   8  19
TORSDOF 14
ENDMDL
MODEL 4
REMARK VINA RESULT: -6.651806809      2.976      8.282
REMARK  14 active torsions:
REMARK  status: ('A' for Active; 'I' for Inactive)
REMARK       I    between atoms: C2_5  and  N3_6 
REMARK       I    between atoms: C2_5  and  N5_17 
REMARK    1  A    between atoms: N3_6  and  O1_8 
REMARK    2  A    between atoms: O1_8  and  C3_9 
REMARK    3  A    between atoms: C3_9  and  C4_10 
REMARK    4  A    between atoms: C4_10  and  O2_11 
REMARK    5  A    between atoms: N4_13  and  O3_15 
REMARK    6  A    between atoms: N5_17  and  S1_19 
REMARK    7  A    between atoms: S1_19  and  N6_20 
REMARK    8  A    between atoms: N6_20  and  C5_21 
REMARK    9  A    between atoms: C7_23  and  O4_24 
REMARK   10  A    between atoms: O4_24  and  C8_25 
REMARK   11  A    between atoms: C10_28  and  O6_29 
REMARK   12  A    between atoms: C11_31  and  O7_32 
REMARK   13  A    between atoms: C12_34  and  N7_35 
REMARK   14  A    between atoms: C14_40  and  N8_41 
ROOT
HETATM    1  N1  UNL     1      -9.977 -23.645  -5.560  1.00  0.00    -0.171 NA
HETATM    2  C1  UNL     1      -9.713 -24.104  -4.538  1.00  0.00     0.196 C 
HETATM    3  N2  UNL     1      -9.377 -24.645  -3.302  1.00  0.00    -0.124 N 
ATOM      4  H2  UNL     1      -8.442 -24.503  -2.918  1.00  0.00     0.197 HD
HETATM    5  C2  UNL     1     -10.264 -25.336  -2.631  1.00  0.00     0.718 C 
HETATM    6  N3  UNL     1     -11.561 -25.546  -3.137  1.00  0.00    -0.088 N 
ATOM      7  H3  UNL     1     -11.887 -25.005  -3.938  1.00  0.00     0.213 HD
HETATM    8  N5  UNL     1      -9.930 -25.893  -1.365  1.00  0.00    -0.147 N 
ATOM      9  H5  UNL     1      -9.877 -26.901  -1.217  1.00  0.00     0.194 HD
ENDROOT
BRANCH   6  10
HETATM   10  O1  UNL     1     -12.383 -26.467  -2.564  1.00  0.00    -0.206 OA
BRANCH  10  11
HETATM   11  C3  UNL     1     -13.609 -26.839  -3.093  1.00  0.00     0.190 C 
HETATM   12  N4  UNL     1     -14.463 -25.916  -3.354  1.00  0.00    -0.247 N 
ATOM     13  H4  UNL     1     -15.369 -26.178  -3.744  1.00  0.00     0.196 HD
BRANCH  11  14
HETATM   14  C4  UNL     1     -13.949 -28.272  -3.361  1.00  0.00     0.252 C 
BRANCH  14  15
HETATM   15  O2  UNL     1     -15.086 -28.398  -4.120  1.00  0.00    -0.393 OA
ATOM     16  H2  UNL     1     -15.407 -29.292  -4.136  1.00  0.00     0.210 HD
ENDBRANCH  14  15
ENDBRANCH  11  14
BRANCH  12  17
HETATM   17  O3  UNL     1     -14.201 -24.603  -3.127  1.00  0.00    -0.288 OA
ATOM     18  H3  UNL     1     -13.623 -24.098  -3.687  1.00  0.00     0.244 HD
ENDBRANCH  12  17
ENDBRANCH  10  11
ENDBRANCH   6  10
BRANCH   8  19
HETATM   19  S1  UNL     1      -9.609 -24.732  -0.057  1.00  0.00     0.070 SA
BRANCH  19  20
HETATM   20  N6  UNL     1      -7.872 -24.752   0.241  1.00  0.00    -0.151 NA
BRANCH  20  21
HETATM   21  C5  UNL     1      -7.314 -23.530  -0.288  1.00  0.00     0.122 C 
HETATM   22  C6  UNL     1      -6.488 -23.769  -1.516  1.00  0.00     0.058 C 
HETATM   23  C7  UNL     1      -6.181 -22.422  -2.147  1.00  0.00     0.157 C 
HETATM   24  C12 UNL     1      -6.578 -21.280  -1.268  1.00  0.00     0.214 C 
HETATM   25  C13 UNL     1      -6.159 -21.439   0.167  1.00  0.00     0.070 C 
HETATM   26  C14 UNL     1      -6.447 -22.812   0.720  1.00  0.00     0.205 C 
BRANCH  23  27
HETATM   27  O4  UNL     1      -6.905 -22.357  -3.327  1.00  0.00    -0.351 OA
BRANCH  27  28
HETATM   28  C8  UNL     1      -6.060 -21.965  -4.351  1.00  0.00     0.291 C 
HETATM   29  O5  UNL     1      -4.997 -22.852  -4.524  1.00  0.00    -0.356 OA
HETATM   30  C9  UNL     1      -5.546 -23.890  -5.307  1.00  0.00     0.205 C 
HETATM   31  C10 UNL     1      -6.227 -23.131  -6.400  1.00  0.00     0.175 C 
HETATM   32  C11 UNL     1      -6.836 -21.961  -5.649  1.00  0.00     0.204 C 
BRANCH  31  33
HETATM   33  O6  UNL     1      -7.237 -23.812  -7.030  1.00  0.00    -0.391 OA
ATOM     34  H6  UNL     1      -7.287 -23.671  -7.968  1.00  0.00     0.210 HD
ENDBRANCH  31  33
BRANCH  32  35
HETATM   35  O7  UNL     1      -6.615 -20.770  -6.315  1.00  0.00    -0.388 OA
ATOM     36  H7  UNL     1      -6.321 -20.111  -5.696  1.00  0.00     0.210 HD
ENDBRANCH  32  35
ENDBRANCH  27  28
ENDBRANCH  23  27
BRANCH  24  37
HETATM   37  N7  UNL     1      -5.885 -20.081  -1.769  1.00  0.00    -0.072 N 
ATOM     38  H73 UNL     1      -5.143 -19.761  -1.148  1.00  0.00     0.274 HD
ATOM     39  H72 UNL     1      -5.303 -20.268  -2.586  1.00  0.00     0.274 HD
ATOM     40  H71 UNL     1      -6.595 -19.369  -1.940  1.00  0.00     0.274 HD
ENDBRANCH  24  37
BRANCH  26  41
HETATM   41  N8  UNL     1      -5.177 -23.536   0.789  1.00  0.00    -0.073 N 
ATOM     42  H83 UNL     1      -5.214 -24.350   1.403  1.00  0.00     0.274 HD
ATOM     43  H82 UNL     1      -4.951 -24.031  -0.072  1.00  0.00     0.274 HD
ATOM     44  H81 UNL     1      -4.461 -22.862   1.062  1.00  0.00     0.274 HD
ENDBRANCH  26  41
ENDBRANCH  20  21
ENDBRANCH  19  20
ENDBRANCH   8  19
TORSDOF 14
ENDMDL
MODEL 5
REMARK VINA RESULT: -6.528072211      2.935      8.112
REMARK  14 active torsions:
REMARK  status: ('A' for Active; 'I' for Inactive)
REMARK       I    between atoms: C2_5  and  N3_6 
REMARK       I    between atoms: C2_5  and  N5_17 
REMARK    1  A    between atoms: N3_6  and  O1_8 
REMARK    2  A    between atoms: O1_8  and  C3_9 
REMARK    3  A    between atoms: C3_9  and  C4_10 
REMARK    4  A    between atoms: C4_10  and  O2_11 
REMARK    5  A    between atoms: N4_13  and  O3_15 
REMARK    6  A    between atoms: N5_17  and  S1_19 
REMARK    7  A    between atoms: S1_19  and  N6_20 
REMARK    8  A    between atoms: N6_20  and  C5_21 
REMARK    9  A    between atoms: C7_23  and  O4_24 
REMARK   10  A    between atoms: O4_24  and  C8_25 
REMARK   11  A    between atoms: C10_28  and  O6_29 
REMARK   12  A    between atoms: C11_31  and  O7_32 
REMARK   13  A    between atoms: C12_34  and  N7_35 
REMARK   14  A    between atoms: C14_40  and  N8_41 
ROOT
HETATM    1  N1  UNL     1      -6.224 -22.863  -7.257  1.00  0.00    -0.171 NA
HETATM    2  C1  UNL     1      -6.059 -23.237  -6.181  1.00  0.00     0.196 C 
HETATM    3  N2  UNL     1      -5.839 -23.685  -4.883  1.00  0.00    -0.124 N 
ATOM      4  H2  UNL     1      -4.894 -23.916  -4.575  1.00  0.00     0.197 HD
HETATM    5  C2  UNL     1      -6.848 -23.811  -4.058  1.00  0.00     0.718 C 
HETATM    6  N3  UNL     1      -8.162 -23.500  -4.458  1.00  0.00    -0.088 N 
ATOM      7  H3  UNL     1      -8.320 -22.993  -5.329  1.00  0.00     0.213 HD
HETATM    8  N5  UNL     1      -6.633 -24.268  -2.728  1.00  0.00    -0.147 N 
ATOM      9  H5  UNL     1      -6.997 -25.162  -2.400  1.00  0.00     0.194 HD
ENDROOT
BRANCH   6  10
HETATM   10  O1  UNL     1      -9.222 -23.871  -3.690  1.00  0.00    -0.206 OA
BRANCH  10  11
HETATM   11  C3  UNL     1     -10.051 -24.941  -3.989  1.00  0.00     0.190 C 
HETATM   12  N4  UNL     1     -10.683 -24.925  -5.107  1.00  0.00    -0.247 N 
ATOM     13  H4  UNL     1     -11.296 -25.707  -5.338  1.00  0.00     0.196 HD
BRANCH  11  14
HETATM   14  C4  UNL     1     -10.220 -26.093  -3.048  1.00  0.00     0.252 C 
BRANCH  14  15
HETATM   15  O2  UNL     1      -9.073 -26.355  -2.341  1.00  0.00    -0.393 OA
ATOM     16  H2  UNL     1      -8.415 -26.785  -2.875  1.00  0.00     0.210 HD
ENDBRANCH  14  15
ENDBRANCH  11  14
BRANCH  12  17
HETATM   17  O3  UNL     1     -10.563 -23.903  -5.992  1.00  0.00    -0.288 OA
ATOM     18  H3  UNL     1      -9.833 -23.294  -5.967  1.00  0.00     0.244 HD
ENDBRANCH  12  17
ENDBRANCH  10  11
ENDBRANCH   6  10
BRANCH   8  19
HETATM   19  S1  UNL     1      -5.693 -23.190  -1.670  1.00  0.00     0.070 SA
BRANCH  19  20
HETATM   20  N6  UNL     1      -5.260 -21.773  -2.625  1.00  0.00    -0.151 NA
BRANCH  20  21
HETATM   21  C5  UNL     1      -6.336 -20.817  -2.519  1.00  0.00     0.122 C 
HETATM   22  C6  UNL     1      -5.972 -19.486  -3.106  1.00  0.00     0.058 C 
HETATM   23  C7  UNL     1      -7.237 -18.650  -3.198  1.00  0.00     0.157 C 
HETATM   24  C12 UNL     1      -8.390 -19.285  -2.491  1.00  0.00     0.214 C 
HETATM   25  C13 UNL     1      -8.055 -19.810  -1.123  1.00  0.00     0.070 C 
HETATM   26  C14 UNL     1      -6.764 -20.590  -1.088  1.00  0.00     0.205 C 
BRANCH  23  27
HETATM   27  O4  UNL     1      -7.543 -18.533  -4.545  1.00  0.00    -0.351 OA
BRANCH  27  28
HETATM   28  C8  UNL     1      -6.485 -17.916  -5.193  1.00  0.00     0.291 C 
HETATM   29  O5  UNL     1      -5.894 -18.749  -6.143  1.00  0.00    -0.356 OA
HETATM   30  C9  UNL     1      -6.728 -18.618  -7.275  1.00  0.00     0.205 C 
HETATM   31  C10 UNL     1      -6.868 -17.134  -7.390  1.00  0.00     0.175 C 
HETATM   32  C11 UNL     1      -7.008 -16.709  -5.939  1.00  0.00     0.204 C 
BRANCH  31  33
HETATM   33  O6  UNL     1      -7.981 -16.712  -8.071  1.00  0.00    -0.391 OA
ATOM     34  H6  UNL     1      -7.821 -16.448  -8.970  1.00  0.00     0.210 HD
ENDBRANCH  31  33
BRANCH  32  35
HETATM   35  O7  UNL     1      -6.211 -15.615  -5.660  1.00  0.00    -0.388 OA
ATOM     36  H7  UNL     1      -6.023 -15.589  -4.729  1.00  0.00     0.210 HD
ENDBRANCH  32  35
ENDBRANCH  27  28
ENDBRANCH  23  27
BRANCH  24  37
HETATM   37  N7  UNL     1      -9.411 -18.243  -2.292  1.00  0.00    -0.072 N 
ATOM     38  H73 UNL     1      -9.201 -17.379  -2.793  1.00  0.00     0.274 HD
ATOM     39  H72 UNL     1     -10.294 -18.454  -2.758  1.00  0.00     0.274 HD
ATOM     40  H71 UNL     1      -9.513 -18.105  -1.287  1.00  0.00     0.274 HD
ENDBRANCH  24  37
BRANCH  26  41
HETATM   41  N8  UNL     1      -5.750 -19.739  -0.465  1.00  0.00    -0.073 N 
ATOM     42  H83 UNL     1      -6.128 -19.139   0.268  1.00  0.00     0.274 HD
ATOM     43  H82 UNL     1      -5.094 -20.260   0.117  1.00  0.00     0.274 HD
ATOM     44  H81 UNL     1      -5.293 -19.218  -1.213  1.00  0.00     0.274 HD
ENDBRANCH  26  41
ENDBRANCH  20  21
ENDBRANCH  19  20
ENDBRANCH   8  19
TORSDOF 14
ENDMDL
