MODEL 1
REMARK VINA RESULT: -7.160454828      0.000      0.000
REMARK  9 active torsions:
REMARK  status: ('A' for Active; 'I' for Inactive)
REMARK    1  A    between atoms: N1_1  and  C1_4 
REMARK    2  A    between atoms: C3_8  and  O1_9 
REMARK    3  A    between atoms: O1_9  and  C4_10 
REMARK    4  A    between atoms: C4_10  and  C5_11 
REMARK    5  A    between atoms: C7_15  and  C8_16 
REMARK    6  A    between atoms: C9_20  and  S1_21 
REMARK    7  A    between atoms: S1_21  and  N5_22 
REMARK    8  A    between atoms: N5_22  and  N6_24 
REMARK    9  A    between atoms: C10_34  and  N11_35 
ROOT
HETATM    1  C5  UNL     1      -9.619 -24.521  -4.410  1.00  0.00     0.050 A 
HETATM    2  C6  UNL     1     -10.909 -24.585  -4.829  1.00  0.00     0.115 A 
HETATM    3  N3  UNL     1     -11.836 -25.257  -4.100  1.00  0.00    -0.362 N 
ATOM      4  H3  UNL     1     -12.798 -25.288  -4.439  1.00  0.00     0.165 HD
HETATM    5  C7  UNL     1     -11.537 -25.882  -2.950  1.00  0.00     0.101 A 
HETATM    6  C10 UNL     1     -10.193 -25.787  -2.560  1.00  0.00     0.125 A 
HETATM    7  N12 UNL     1      -9.271 -25.122  -3.280  1.00  0.00    -0.342 N 
ATOM      8  H12 UNL     1      -8.305 -25.079  -2.957  1.00  0.00     0.167 HD
ENDROOT
BRANCH   5   9
HETATM    9  C8  UNL     1     -12.520 -26.625  -2.120  1.00  0.00     0.384 C 
HETATM   10  N4  UNL     1     -12.943 -27.761  -2.890  1.00  0.00    -0.018 N 
HETATM   11  C9  UNL     1     -14.320 -27.760  -3.144  1.00  0.00     0.380 C 
ATOM     12  H42 UNL     1     -12.412 -27.833  -3.758  1.00  0.00     0.282 HD
ATOM     13  H41 UNL     1     -12.653 -28.632  -2.447  1.00  0.00     0.282 HD
HETATM   14  N10 UNL     1     -14.777 -26.402  -3.396  1.00  0.00    -0.278 N 
HETATM   15  S2  UNL     1     -13.996 -25.645  -2.020  1.00  0.00     0.264 S 
ATOM     16  H10 UNL     1     -15.363 -26.014  -4.136  1.00  0.00     0.175 HD
HETATM   17  O2  UNL     1     -13.792 -24.202  -2.214  1.00  0.00    -0.203 OA
HETATM   18  O3  UNL     1     -14.805 -25.982  -0.803  1.00  0.00    -0.203 OA
BRANCH  11  19
HETATM   19  S1  UNL     1     -15.316 -28.391  -1.759  1.00  0.00     0.020 SA
BRANCH  19  20
HETATM   20  N5  UNL     1     -14.307 -29.032  -0.470  1.00  0.00    -0.235 N 
ATOM     21  H5  UNL     1     -13.919 -28.404   0.233  1.00  0.00     0.198 HD
BRANCH  20  22
HETATM   22  N6  UNL     1     -14.038 -30.392  -0.407  1.00  0.00    -0.098 N 
HETATM   23  N7  UNL     1     -13.377 -31.235   0.344  1.00  0.00    -0.193 N 
HETATM   24  N8  UNL     1     -13.734 -32.274  -0.417  1.00  0.00     0.013 NA
ATOM     25  H7  UNL     1     -12.808 -31.137   1.185  1.00  0.00     0.208 HD
HETATM   26  N9  UNL     1     -14.400 -31.414  -1.170  1.00  0.00     0.034 NA
ENDBRANCH  20  22
ENDBRANCH  19  20
ENDBRANCH  11  19
ENDBRANCH   5   9
BRANCH   6  27
HETATM   27  N11 UNL     1      -9.902 -26.390  -1.447  1.00  0.00    -0.384 N 
ATOM     28 2H11 UNL     1      -9.219 -27.146  -1.401  1.00  0.00     0.157 HD
ATOM     29 1H11 UNL     1     -10.407 -26.051  -0.628  1.00  0.00     0.157 HD
ENDBRANCH   6  27
BRANCH   1  30
HETATM   30  C4  UNL     1      -8.583 -23.793  -5.185  1.00  0.00     0.234 C 
BRANCH  30  31
HETATM   31  O1  UNL     1      -8.420 -22.524  -4.622  1.00  0.00    -0.339 OA
BRANCH  31  32
HETATM   32  C3  UNL     1      -7.253 -22.038  -4.080  1.00  0.00     0.153 A 
HETATM   33  C2  UNL     1      -6.860 -22.416  -2.817  1.00  0.00     0.148 A 
HETATM   34  N2  UNL     1      -5.720 -21.945  -2.281  1.00  0.00    -0.199 N 
HETATM   35  C1  UNL     1      -4.941 -21.101  -2.958  1.00  0.00     0.678 A 
ATOM     36  H2  UNL     1      -5.447 -22.237  -1.343  1.00  0.00     0.183 HD
HETATM   37  N13 UNL     1      -5.327 -20.726  -4.207  1.00  0.00    -0.154 N 
HETATM   38  C11 UNL     1      -6.456 -21.167  -4.788  1.00  0.00     0.294 A 
ATOM     39  H13 UNL     1      -4.732 -20.082  -4.727  1.00  0.00     0.187 HD
HETATM   40  O4  UNL     1      -6.779 -20.788  -5.961  1.00  0.00    -0.265 OA
BRANCH  35  41
HETATM   41  N1  UNL     1      -3.851 -20.650  -2.449  1.00  0.00    -0.234 N 
ATOM     42  H12 UNL     1      -3.832 -20.299  -1.491  1.00  0.00     0.174 HD
ATOM     43  H11 UNL     1      -2.985 -20.631  -2.988  1.00  0.00     0.174 HD
ENDBRANCH  35  41
ENDBRANCH  31  32
ENDBRANCH  30  31
ENDBRANCH   1  30
TORSDOF 9
ENDMDL
MODEL 2
REMARK VINA RESULT: -7.128852991      0.942      1.413
REMARK  9 active torsions:
REMARK  status: ('A' for Active; 'I' for Inactive)
REMARK    1  A    between atoms: N1_1  and  C1_4 
REMARK    2  A    between atoms: C3_8  and  O1_9 
REMARK    3  A    between atoms: O1_9  and  C4_10 
REMARK    4  A    between atoms: C4_10  and  C5_11 
REMARK    5  A    between atoms: C7_15  and  C8_16 
REMARK    6  A    between atoms: C9_20  and  S1_21 
REMARK    7  A    between atoms: S1_21  and  N5_22 
REMARK    8  A    between atoms: N5_22  and  N6_24 
REMARK    9  A    between atoms: C10_34  and  N11_35 
ROOT
HETATM    1  C5  UNL     1      -9.713 -24.545  -4.077  1.00  0.00     0.050 A 
HETATM    2  C6  UNL     1     -10.936 -24.729  -4.636  1.00  0.00     0.115 A 
HETATM    3  N3  UNL     1     -11.894 -25.429  -3.977  1.00  0.00    -0.362 N 
ATOM      4  H3  UNL     1     -12.804 -25.552  -4.421  1.00  0.00     0.165 HD
HETATM    5  C7  UNL     1     -11.691 -25.966  -2.763  1.00  0.00     0.101 A 
HETATM    6  C10 UNL     1     -10.413 -25.747  -2.228  1.00  0.00     0.125 A 
HETATM    7  N12 UNL     1      -9.460 -25.054  -2.879  1.00  0.00    -0.342 N 
ATOM      8  H12 UNL     1      -8.544 -24.921  -2.451  1.00  0.00     0.167 HD
ENDROOT
BRANCH   5   9
HETATM    9  C8  UNL     1     -12.712 -26.735  -2.006  1.00  0.00     0.384 C 
HETATM   10  N4  UNL     1     -13.068 -27.866  -2.815  1.00  0.00    -0.018 N 
HETATM   11  C9  UNL     1     -14.426 -27.883  -3.155  1.00  0.00     0.380 C 
ATOM     12  H42 UNL     1     -12.483 -27.918  -3.649  1.00  0.00     0.282 HD
ATOM     13  H41 UNL     1     -12.793 -28.739  -2.366  1.00  0.00     0.282 HD
HETATM   14  N10 UNL     1     -14.888 -26.527  -3.417  1.00  0.00    -0.278 N 
HETATM   15  S2  UNL     1     -14.207 -25.778  -1.984  1.00  0.00     0.264 S 
ATOM     16  H10 UNL     1     -15.434 -26.138  -4.187  1.00  0.00     0.175 HD
HETATM   17  O2  UNL     1     -14.014 -24.330  -2.147  1.00  0.00    -0.203 OA
HETATM   18  O3  UNL     1     -15.084 -26.145  -0.825  1.00  0.00    -0.203 OA
BRANCH  11  19
HETATM   19  S1  UNL     1     -15.497 -28.547  -1.842  1.00  0.00     0.020 SA
BRANCH  19  20
HETATM   20  N5  UNL     1     -14.563 -29.111  -0.463  1.00  0.00    -0.235 N 
ATOM     21  H5  UNL     1     -14.323 -28.464   0.288  1.00  0.00     0.198 HD
BRANCH  20  22
HETATM   22  N6  UNL     1     -14.153 -30.434  -0.395  1.00  0.00    -0.098 N 
HETATM   23  N7  UNL     1     -13.414 -31.201   0.366  1.00  0.00    -0.193 N 
HETATM   24  N8  UNL     1     -13.651 -32.273  -0.397  1.00  0.00     0.013 NA
ATOM     25  H7  UNL     1     -12.868 -31.042   1.212  1.00  0.00     0.208 HD
HETATM   26  N9  UNL     1     -14.396 -31.490  -1.159  1.00  0.00     0.034 NA
ENDBRANCH  20  22
ENDBRANCH  19  20
ENDBRANCH  11  19
ENDBRANCH   5   9
BRANCH   6  27
HETATM   27  N11 UNL     1     -10.215 -26.265  -1.054  1.00  0.00    -0.384 N 
ATOM     28 2H11 UNL     1     -10.975 -26.649  -0.493  1.00  0.00     0.157 HD
ATOM     29 1H11 UNL     1      -9.245 -26.258  -0.738  1.00  0.00     0.157 HD
ENDBRANCH   6  27
BRANCH   1  30
HETATM   30  C4  UNL     1      -8.644 -23.784  -4.773  1.00  0.00     0.234 C 
BRANCH  30  31
HETATM   31  O1  UNL     1      -7.419 -24.097  -4.176  1.00  0.00    -0.339 OA
BRANCH  31  32
HETATM   32  C3  UNL     1      -6.529 -23.183  -3.661  1.00  0.00     0.153 A 
HETATM   33  C2  UNL     1      -5.667 -22.505  -4.491  1.00  0.00     0.148 A 
HETATM   34  N2  UNL     1      -4.794 -21.611  -3.994  1.00  0.00    -0.199 N 
HETATM   35  C1  UNL     1      -4.742 -21.356  -2.687  1.00  0.00     0.678 A 
ATOM     36  H2  UNL     1      -4.162 -21.120  -4.626  1.00  0.00     0.183 HD
HETATM   37  N13 UNL     1      -5.594 -22.024  -1.864  1.00  0.00    -0.154 N 
HETATM   38  C11 UNL     1      -6.484 -22.928  -2.309  1.00  0.00     0.294 A 
ATOM     39  H13 UNL     1      -5.557 -21.830  -0.864  1.00  0.00     0.187 HD
HETATM   40  O4  UNL     1      -7.264 -23.531  -1.501  1.00  0.00    -0.265 OA
BRANCH  35  41
HETATM   41  N1  UNL     1      -3.910 -20.501  -2.209  1.00  0.00    -0.234 N 
ATOM     42  H12 UNL     1      -2.912 -20.709  -2.181  1.00  0.00     0.174 HD
ATOM     43  H11 UNL     1      -4.227 -19.601  -1.848  1.00  0.00     0.174 HD
ENDBRANCH  35  41
ENDBRANCH  31  32
ENDBRANCH  30  31
ENDBRANCH   1  30
TORSDOF 9
ENDMDL
MODEL 3
REMARK VINA RESULT: -7.007221300      3.212      9.599
REMARK  9 active torsions:
REMARK  status: ('A' for Active; 'I' for Inactive)
REMARK    1  A    between atoms: N1_1  and  C1_4 
REMARK    2  A    between atoms: C3_8  and  O1_9 
REMARK    3  A    between atoms: O1_9  and  C4_10 
REMARK    4  A    between atoms: C4_10  and  C5_11 
REMARK    5  A    between atoms: C7_15  and  C8_16 
REMARK    6  A    between atoms: C9_20  and  S1_21 
REMARK    7  A    between atoms: S1_21  and  N5_22 
REMARK    8  A    between atoms: N5_22  and  N6_24 
REMARK    9  A    between atoms: C10_34  and  N11_35 
ROOT
HETATM    1  C5  UNL     1     -12.061 -25.627  -1.962  1.00  0.00     0.050 A 
HETATM    2  C6  UNL     1     -11.177 -24.868  -1.267  1.00  0.00     0.115 A 
HETATM    3  N3  UNL     1     -10.111 -24.308  -1.892  1.00  0.00    -0.362 N 
ATOM      4  H3  UNL     1      -9.462 -23.742  -1.344  1.00  0.00     0.165 HD
HETATM    5  C7  UNL     1      -9.874 -24.471  -3.204  1.00  0.00     0.101 A 
HETATM    6  C10 UNL     1     -10.816 -25.262  -3.878  1.00  0.00     0.125 A 
HETATM    7  N12 UNL     1     -11.875 -25.819  -3.262  1.00  0.00    -0.342 N 
ATOM      8  H12 UNL     1     -12.534 -26.387  -3.793  1.00  0.00     0.167 HD
ENDROOT
BRANCH   5   9
HETATM    9  C8  UNL     1      -8.722 -23.875  -3.928  1.00  0.00     0.384 C 
HETATM   10  N4  UNL     1      -7.533 -24.312  -3.253  1.00  0.00    -0.018 N 
HETATM   11  C9  UNL     1      -6.775 -23.248  -2.749  1.00  0.00     0.380 C 
ATOM     12  H42 UNL     1      -7.755 -24.982  -2.518  1.00  0.00     0.282 HD
ATOM     13  H41 UNL     1      -6.968 -24.910  -3.856  1.00  0.00     0.282 HD
HETATM   14  N10 UNL     1      -7.657 -22.211  -2.235  1.00  0.00    -0.278 N 
HETATM   15  S2  UNL     1      -8.732 -22.127  -3.618  1.00  0.00     0.264 S 
ATOM     16  H10 UNL     1      -7.651 -21.697  -1.353  1.00  0.00     0.175 HD
HETATM   17  O2  UNL     1     -10.048 -21.570  -3.273  1.00  0.00    -0.203 OA
HETATM   18  O3  UNL     1      -8.019 -21.368  -4.696  1.00  0.00    -0.203 OA
BRANCH  11  19
HETATM   19  S1  UNL     1      -5.715 -22.453  -3.996  1.00  0.00     0.020 SA
BRANCH  19  20
HETATM   20  N5  UNL     1      -5.271 -23.569  -5.280  1.00  0.00    -0.235 N 
ATOM     21  H5  UNL     1      -4.529 -24.252  -5.128  1.00  0.00     0.198 HD
BRANCH  20  22
HETATM   22  N6  UNL     1      -5.930 -23.523  -6.501  1.00  0.00    -0.098 N 
HETATM   23  N7  UNL     1      -5.683 -23.198  -7.744  1.00  0.00    -0.193 N 
HETATM   24  N8  UNL     1      -6.929 -23.499  -8.124  1.00  0.00     0.013 NA
ATOM     25  H7  UNL     1      -4.859 -22.850  -8.234  1.00  0.00     0.208 HD
HETATM   26  N9  UNL     1      -7.168 -23.824  -6.864  1.00  0.00     0.034 NA
ENDBRANCH  20  22
ENDBRANCH  19  20
ENDBRANCH  11  19
ENDBRANCH   5   9
BRANCH   6  27
HETATM   27  N11 UNL     1     -10.590 -25.420  -5.147  1.00  0.00    -0.384 N 
ATOM     28 2H11 UNL     1      -9.664 -25.294  -5.555  1.00  0.00     0.157 HD
ATOM     29 1H11 UNL     1     -11.407 -25.679  -5.701  1.00  0.00     0.157 HD
ENDBRANCH   6  27
BRANCH   1  30
HETATM   30  C4  UNL     1     -13.239 -26.252  -1.307  1.00  0.00     0.234 C 
BRANCH  30  31
HETATM   31  O1  UNL     1     -13.192 -27.630  -1.537  1.00  0.00    -0.339 OA
BRANCH  31  32
HETATM   32  C3  UNL     1     -14.284 -28.434  -1.769  1.00  0.00     0.153 A 
HETATM   33  C2  UNL     1     -14.804 -29.213  -0.760  1.00  0.00     0.148 A 
HETATM   34  N2  UNL     1     -15.870 -30.002  -0.981  1.00  0.00    -0.199 N 
HETATM   35  C1  UNL     1     -16.452 -30.049  -2.179  1.00  0.00     0.678 A 
ATOM     36  H2  UNL     1     -16.239 -30.572  -0.220  1.00  0.00     0.183 HD
HETATM   37  N13 UNL     1     -15.941 -29.280  -3.177  1.00  0.00    -0.154 N 
HETATM   38  C11 UNL     1     -14.877 -28.476  -3.010  1.00  0.00     0.294 A 
ATOM     39  H13 UNL     1     -16.386 -29.315  -4.094  1.00  0.00     0.187 HD
HETATM   40  O4  UNL     1     -14.431 -27.773  -3.975  1.00  0.00    -0.265 OA
BRANCH  35  41
HETATM   41  N1  UNL     1     -17.473 -30.802  -2.392  1.00  0.00    -0.234 N 
ATOM     42  H12 UNL     1     -17.801 -31.446  -1.673  1.00  0.00     0.174 HD
ATOM     43  H11 UNL     1     -17.974 -30.772  -3.280  1.00  0.00     0.174 HD
ENDBRANCH  35  41
ENDBRANCH  31  32
ENDBRANCH  30  31
ENDBRANCH   1  30
TORSDOF 9
ENDMDL
MODEL 4
REMARK VINA RESULT: -6.961430813      2.741      4.284
REMARK  9 active torsions:
REMARK  status: ('A' for Active; 'I' for Inactive)
REMARK    1  A    between atoms: N1_1  and  C1_4 
REMARK    2  A    between atoms: C3_8  and  O1_9 
REMARK    3  A    between atoms: O1_9  and  C4_10 
REMARK    4  A    between atoms: C4_10  and  C5_11 
REMARK    5  A    between atoms: C7_15  and  C8_16 
REMARK    6  A    between atoms: C9_20  and  S1_21 
REMARK    7  A    between atoms: S1_21  and  N5_22 
REMARK    8  A    between atoms: N5_22  and  N6_24 
REMARK    9  A    between atoms: C10_34  and  N11_35 
ROOT
HETATM    1  C5  UNL     1      -7.488 -23.821  -3.877  1.00  0.00     0.050 A 
HETATM    2  C6  UNL     1      -7.923 -24.404  -2.732  1.00  0.00     0.115 A 
HETATM    3  N3  UNL     1      -9.185 -24.896  -2.648  1.00  0.00    -0.362 N 
ATOM      4  H3  UNL     1      -9.485 -25.329  -1.774  1.00  0.00     0.165 HD
HETATM    5  C7  UNL     1     -10.055 -24.834  -3.669  1.00  0.00     0.101 A 
HETATM    6  C10 UNL     1      -9.558 -24.224  -4.830  1.00  0.00     0.125 A 
HETATM    7  N12 UNL     1      -8.307 -23.735  -4.917  1.00  0.00    -0.342 N 
ATOM      8  H12 UNL     1      -7.989 -23.299  -5.782  1.00  0.00     0.167 HD
ENDROOT
BRANCH   5   9
HETATM    9  C8  UNL     1     -11.443 -25.362  -3.621  1.00  0.00     0.384 C 
HETATM   10  N4  UNL     1     -12.045 -24.846  -2.424  1.00  0.00    -0.018 N 
HETATM   11  C9  UNL     1     -12.453 -25.856  -1.545  1.00  0.00     0.380 C 
ATOM     12  H42 UNL     1     -11.424 -24.185  -1.958  1.00  0.00     0.282 HD
ATOM     13  H41 UNL     1     -12.818 -24.218  -2.644  1.00  0.00     0.282 HD
HETATM   14  N10 UNL     1     -11.486 -26.943  -1.554  1.00  0.00    -0.278 N 
HETATM   15  S2  UNL     1     -11.350 -27.105  -3.296  1.00  0.00     0.264 S 
ATOM     16  H10 UNL     1     -11.032 -27.448  -0.793  1.00  0.00     0.175 HD
HETATM   17  O2  UNL     1     -10.088 -27.740  -3.703  1.00  0.00    -0.203 OA
HETATM   18  O3  UNL     1     -12.573 -27.825  -3.777  1.00  0.00    -0.203 OA
BRANCH  11  19
HETATM   19  S1  UNL     1     -14.060 -26.592  -1.976  1.00  0.00     0.020 SA
BRANCH  19  20
HETATM   20  N5  UNL     1     -14.861 -25.699  -3.262  1.00  0.00    -0.235 N 
ATOM     21  H5  UNL     1     -14.916 -26.095  -4.200  1.00  0.00     0.198 HD
BRANCH  20  22
HETATM   22  N6  UNL     1     -15.418 -24.455  -3.002  1.00  0.00    -0.098 N 
HETATM   23  N7  UNL     1     -16.334 -23.661  -3.494  1.00  0.00    -0.193 N 
HETATM   24  N8  UNL     1     -16.112 -22.736  -2.554  1.00  0.00     0.013 NA
ATOM     25  H7  UNL     1     -16.972 -23.723  -4.288  1.00  0.00     0.208 HD
HETATM   26  N9  UNL     1     -15.187 -23.546  -2.065  1.00  0.00     0.034 NA
ENDBRANCH  20  22
ENDBRANCH  19  20
ENDBRANCH  11  19
ENDBRANCH   5   9
BRANCH   6  27
HETATM   27  N11 UNL     1     -10.397 -24.164  -5.819  1.00  0.00    -0.384 N 
ATOM     28 2H11 UNL     1     -10.917 -24.980  -6.143  1.00  0.00     0.157 HD
ATOM     29 1H11 UNL     1     -10.495 -23.242  -6.246  1.00  0.00     0.157 HD
ENDBRANCH   6  27
BRANCH   1  30
HETATM   30  C4  UNL     1      -6.112 -23.274  -4.001  1.00  0.00     0.234 C 
BRANCH  30  31
HETATM   31  O1  UNL     1      -6.136 -22.224  -4.923  1.00  0.00    -0.339 OA
BRANCH  31  32
HETATM   32  C3  UNL     1      -6.252 -20.890  -4.606  1.00  0.00     0.153 A 
HETATM   33  C2  UNL     1      -6.085 -20.465  -3.308  1.00  0.00     0.148 A 
HETATM   34  N2  UNL     1      -6.199 -19.162  -2.992  1.00  0.00    -0.199 N 
HETATM   35  C1  UNL     1      -6.473 -18.251  -3.924  1.00  0.00     0.678 A 
ATOM     36  H2  UNL     1      -6.073 -18.868  -2.024  1.00  0.00     0.183 HD
HETATM   37  N13 UNL     1      -6.637 -18.669  -5.208  1.00  0.00    -0.154 N 
HETATM   38  C11 UNL     1      -6.536 -19.957  -5.578  1.00  0.00     0.294 A 
ATOM     39  H13 UNL     1      -6.846 -17.972  -5.923  1.00  0.00     0.187 HD
HETATM   40  O4  UNL     1      -6.698 -20.304  -6.793  1.00  0.00    -0.265 OA
BRANCH  35  41
HETATM   41  N1  UNL     1      -6.580 -17.005  -3.625  1.00  0.00    -0.234 N 
ATOM     42  H12 UNL     1      -7.421 -16.653  -3.166  1.00  0.00     0.174 HD
ATOM     43  H11 UNL     1      -5.833 -16.345  -3.838  1.00  0.00     0.174 HD
ENDBRANCH  35  41
ENDBRANCH  31  32
ENDBRANCH  30  31
ENDBRANCH   1  30
TORSDOF 9
ENDMDL
MODEL 5
REMARK VINA RESULT: -6.906888628      6.695      9.644
REMARK  9 active torsions:
REMARK  status: ('A' for Active; 'I' for Inactive)
REMARK    1  A    between atoms: N1_1  and  C1_4 
REMARK    2  A    between atoms: C3_8  and  O1_9 
REMARK    3  A    between atoms: O1_9  and  C4_10 
REMARK    4  A    between atoms: C4_10  and  C5_11 
REMARK    5  A    between atoms: C7_15  and  C8_16 
REMARK    6  A    between atoms: C9_20  and  S1_21 
REMARK    7  A    between atoms: S1_21  and  N5_22 
REMARK    8  A    between atoms: N5_22  and  N6_24 
REMARK    9  A    between atoms: C10_34  and  N11_35 
ROOT
HETATM    1  C5  UNL     1      -6.087 -16.550  -1.877  1.00  0.00     0.050 A 
HETATM    2  C6  UNL     1      -5.798 -17.590  -1.054  1.00  0.00     0.115 A 
HETATM    3  N3  UNL     1      -5.930 -18.868  -1.489  1.00  0.00    -0.362 N 
ATOM      4  H3  UNL     1      -5.704 -19.630  -0.849  1.00  0.00     0.165 HD
HETATM    5  C7  UNL     1      -6.345 -19.170  -2.730  1.00  0.00     0.101 A 
HETATM    6  C10 UNL     1      -6.631 -18.063  -3.541  1.00  0.00     0.125 A 
HETATM    7  N12 UNL     1      -6.502 -16.793  -3.114  1.00  0.00    -0.342 N 
ATOM      8  H12 UNL     1      -6.721 -16.019  -3.739  1.00  0.00     0.167 HD
ENDROOT
BRANCH   5   9
HETATM    9  C8  UNL     1      -6.501 -20.554  -3.248  1.00  0.00     0.384 C 
HETATM   10  N4  UNL     1      -7.283 -21.276  -2.284  1.00  0.00    -0.018 N 
HETATM   11  C9  UNL     1      -6.603 -22.377  -1.750  1.00  0.00     0.380 C 
ATOM     12  H42 UNL     1      -7.613 -20.657  -1.544  1.00  0.00     0.282 HD
ATOM     13  H41 UNL     1      -8.181 -21.556  -2.677  1.00  0.00     0.282 HD
HETATM   14  N10 UNL     1      -5.197 -22.049  -1.563  1.00  0.00    -0.278 N 
HETATM   15  S2  UNL     1      -4.918 -21.352  -3.149  1.00  0.00     0.264 S 
ATOM     16  H10 UNL     1      -4.575 -22.182  -0.766  1.00  0.00     0.175 HD
HETATM   17  O2  UNL     1      -3.766 -20.439  -3.164  1.00  0.00    -0.203 OA
HETATM   18  O3  UNL     1      -4.805 -22.484  -4.124  1.00  0.00    -0.203 OA
BRANCH  11  19
HETATM   19  S1  UNL     1      -6.651 -23.850  -2.818  1.00  0.00     0.020 SA
BRANCH  19  20
HETATM   20  N5  UNL     1      -7.887 -23.713  -4.061  1.00  0.00    -0.235 N 
ATOM     21  H5  UNL     1      -8.868 -23.621  -3.796  1.00  0.00     0.198 HD
BRANCH  20  22
HETATM   22  N6  UNL     1      -7.531 -23.731  -5.402  1.00  0.00    -0.098 N 
HETATM   23  N7  UNL     1      -6.515 -23.404  -6.158  1.00  0.00    -0.193 N 
HETATM   24  N8  UNL     1      -7.146 -23.803  -7.267  1.00  0.00     0.013 NA
ATOM     25  H7  UNL     1      -5.597 -23.001  -5.973  1.00  0.00     0.208 HD
HETATM   26  N9  UNL     1      -8.168 -24.130  -6.494  1.00  0.00     0.034 NA
ENDBRANCH  20  22
ENDBRANCH  19  20
ENDBRANCH  11  19
ENDBRANCH   5   9
BRANCH   6  27
HETATM   27  N11 UNL     1      -7.033 -18.353  -4.742  1.00  0.00    -0.384 N 
ATOM     28 2H11 UNL     1      -7.338 -19.290  -5.003  1.00  0.00     0.157 HD
ATOM     29 1H11 UNL     1      -7.019 -17.573  -5.400  1.00  0.00     0.157 HD
ENDBRANCH   6  27
BRANCH   1  30
HETATM   30  C4  UNL     1      -5.952 -15.140  -1.430  1.00  0.00     0.234 C 
BRANCH  30  31
HETATM   31  O1  UNL     1      -6.444 -14.308  -2.440  1.00  0.00    -0.339 OA
BRANCH  31  32
HETATM   32  C3  UNL     1      -5.679 -13.492  -3.242  1.00  0.00     0.153 A 
HETATM   33  C2  UNL     1      -4.836 -12.559  -2.684  1.00  0.00     0.148 A 
HETATM   34  N2  UNL     1      -4.086 -11.758  -3.462  1.00  0.00    -0.199 N 
HETATM   35  C1  UNL     1      -4.137 -11.849  -4.790  1.00  0.00     0.678 A 
ATOM     36  H2  UNL     1      -3.468 -11.072  -3.029  1.00  0.00     0.183 HD
HETATM   37  N13 UNL     1      -4.968 -12.771  -5.344  1.00  0.00    -0.154 N 
HETATM   38  C11 UNL     1      -5.740 -13.594  -4.613  1.00  0.00     0.294 A 
ATOM     39  H13 UNL     1      -5.008 -12.843  -6.360  1.00  0.00     0.187 HD
HETATM   40  O4  UNL     1      -6.505 -14.444  -5.174  1.00  0.00    -0.265 OA
BRANCH  35  41
HETATM   41  N1  UNL     1      -3.420 -11.086  -5.536  1.00  0.00    -0.234 N 
ATOM     42  H12 UNL     1      -3.760 -10.787  -6.451  1.00  0.00     0.174 HD
ATOM     43  H11 UNL     1      -2.500 -10.765  -5.234  1.00  0.00     0.174 HD
ENDBRANCH  35  41
ENDBRANCH  31  32
ENDBRANCH  30  31
ENDBRANCH   1  30
TORSDOF 9
ENDMDL
