MODEL 1
REMARK VINA RESULT: -7.208098647      0.000      0.000
REMARK  7 active torsions:
REMARK  status: ('A' for Active; 'I' for Inactive)
REMARK    1  A    between atoms: C3_5  and  C4_6 
REMARK    2  A    between atoms: C5_11  and  N3_12 
REMARK       I    between atoms: N3_12  and  C6_14 
REMARK       I    between atoms: C6_14  and  N4_15 
REMARK       I    between atoms: C6_14  and  N5_19 
REMARK    3  A    between atoms: C8_25  and  N7_26 
REMARK    4  A    between atoms: C9_31  and  C10_32 
REMARK       I    between atoms: C10_32  and  N10_34 
REMARK       I    between atoms: N10_34  and  C11_36 
REMARK       I    between atoms: C11_36  and  N12_40 
REMARK    5  A    between atoms: N12_40  and  N13_42 
REMARK    6  A    between atoms: C12_45  and  C13_46 
REMARK       I    between atoms: C13_46  and  N14_48 
REMARK    7  A    between atoms: N14_48  and  O5_50 
ROOT
HETATM    1  N7  UNL     1     -10.661 -26.195  -3.377  1.00  0.00    -0.230 N 
HETATM    2  N8  UNL     1     -10.372 -27.339  -4.011  1.00  0.00    -0.234 N 
ATOM      3  H8  UNL     1      -9.464 -27.549  -4.425  1.00  0.00     0.209 HD
HETATM    4  N9  UNL     1     -11.372 -28.137  -4.034  1.00  0.00    -0.278 N 
ATOM      5  H9  UNL     1     -11.378 -29.064  -4.462  1.00  0.00     0.189 HD
HETATM    6  C9  UNL     1     -12.441 -27.547  -3.389  1.00  0.00     0.152 A 
HETATM    7  C12 UNL     1     -11.946 -26.320  -2.987  1.00  0.00     0.161 A 
ENDROOT
BRANCH   1   8
HETATM    8  C8  UNL     1      -9.753 -25.132  -3.174  1.00  0.00     0.108 C 
HETATM    9  C2  UNL     1      -9.627 -24.266  -4.232  1.00  0.00     0.038 C 
HETATM   10  C1  UNL     1     -10.785 -24.252  -5.153  1.00  0.00     0.070 C 
HETATM   11  N1  UNL     1      -8.584 -23.430  -4.527  1.00  0.00    -0.338 N 
HETATM   12  C3  UNL     1      -7.716 -22.875  -3.679  1.00  0.00     0.185 C 
ATOM     13  H1  UNL     1      -8.455 -23.204  -5.513  1.00  0.00     0.167 HD
HETATM   14  N2  UNL     1      -7.379 -23.313  -2.454  1.00  0.00    -0.322 N 
HETATM   15  C5  UNL     1      -8.015 -24.204  -1.632  1.00  0.00     0.132 C 
ATOM     16  H2  UNL     1      -6.516 -22.921  -2.078  1.00  0.00     0.169 HD
HETATM   17  C7  UNL     1      -9.081 -25.013  -1.969  1.00  0.00     0.120 C 
HETATM   18  N6  UNL     1      -9.545 -25.838  -0.920  1.00  0.00    -0.096 NA
BRANCH  12  19
HETATM   19  C4  UNL     1      -7.033 -21.637  -4.113  1.00  0.00     0.245 C 
HETATM   20  O1  UNL     1      -6.329 -20.964  -3.354  1.00  0.00    -0.642 OA
HETATM   21  O2  UNL     1      -7.213 -21.244  -5.426  1.00  0.00    -0.642 OA
ENDBRANCH  12  19
BRANCH  15  22
HETATM   22  N3  UNL     1      -7.598 -24.325  -0.420  1.00  0.00    -0.325 N 
HETATM   23  C6  UNL     1      -6.175 -24.323  -0.174  1.00  0.00     0.481 C 
HETATM   24  N4  UNL     1      -5.802 -25.388   0.745  1.00  0.00    -0.033 N 
HETATM   25  N5  UNL     1      -5.718 -23.039   0.329  1.00  0.00    -0.033 N 
ATOM     26  H43 UNL     1      -6.334 -25.338   1.614  1.00  0.00     0.278 HD
ATOM     27  H42 UNL     1      -6.126 -26.298   0.417  1.00  0.00     0.278 HD
ATOM     28  H41 UNL     1      -4.797 -25.387   0.919  1.00  0.00     0.278 HD
ATOM     29  H53 UNL     1      -5.989 -22.277  -0.294  1.00  0.00     0.278 HD
ATOM     30  H52 UNL     1      -6.239 -22.758   1.159  1.00  0.00     0.278 HD
ATOM     31  H51 UNL     1      -4.713 -23.038   0.503  1.00  0.00     0.278 HD
ATOM     32  H3  UNL     1      -8.259 -24.419   0.350  1.00  0.00     0.165 HD
ENDBRANCH  15  22
ENDBRANCH   1   8
BRANCH   7  33
HETATM   33  C13 UNL     1     -12.680 -25.309  -2.253  1.00  0.00     0.296 C 
HETATM   34  O4  UNL     1     -13.451 -24.561  -2.902  1.00  0.00    -0.264 OA
HETATM   35  N14 UNL     1     -12.584 -25.111  -0.869  1.00  0.00    -0.232 N 
ATOM     36  H14 UNL     1     -11.963 -25.699  -0.313  1.00  0.00     0.197 HD
BRANCH  35  37
HETATM   37  O5  UNL     1     -13.325 -24.126  -0.259  1.00  0.00    -0.287 OA
ATOM     38  H5  UNL     1     -13.507 -23.313  -0.716  1.00  0.00     0.244 HD
ENDBRANCH  35  37
ENDBRANCH   7  33
BRANCH   6  39
HETATM   39  C10 UNL     1     -13.714 -28.196  -3.228  1.00  0.00     0.290 C 
HETATM   40  O3  UNL     1     -14.698 -27.767  -3.923  1.00  0.00    -0.265 OA
HETATM   41  N10 UNL     1     -13.963 -29.261  -2.358  1.00  0.00    -0.153 N 
HETATM   42  C11 UNL     1     -15.246 -29.884  -2.242  1.00  0.00     0.693 C 
ATOM     43  H10 UNL     1     -13.197 -29.609  -1.781  1.00  0.00     0.187 HD
HETATM   44  N11 UNL     1     -15.365 -30.857  -1.410  1.00  0.00    -0.233 N 
HETATM   45  N12 UNL     1     -16.380 -29.481  -2.995  1.00  0.00    -0.139 N 
ATOM     46 2H11 UNL     1     -14.550 -31.146  -0.869  1.00  0.00     0.174 HD
ATOM     47 1H11 UNL     1     -16.280 -31.301  -1.327  1.00  0.00     0.174 HD
ATOM     48  H12 UNL     1     -16.364 -29.544  -4.013  1.00  0.00     0.205 HD
BRANCH  45  49
HETATM   49  N13 UNL     1     -17.519 -29.000  -2.345  1.00  0.00    -0.331 N 
ATOM     50 2H13 UNL     1     -17.676 -29.256  -1.369  1.00  0.00     0.177 HD
ATOM     51 1H13 UNL     1     -18.179 -28.402  -2.842  1.00  0.00     0.177 HD
ENDBRANCH  45  49
ENDBRANCH   6  39
TORSDOF 7
ENDMDL
MODEL 2
REMARK VINA RESULT: -7.049941407      2.028      3.257
REMARK  7 active torsions:
REMARK  status: ('A' for Active; 'I' for Inactive)
REMARK    1  A    between atoms: C3_5  and  C4_6 
REMARK    2  A    between atoms: C5_11  and  N3_12 
REMARK       I    between atoms: N3_12  and  C6_14 
REMARK       I    between atoms: C6_14  and  N4_15 
REMARK       I    between atoms: C6_14  and  N5_19 
REMARK    3  A    between atoms: C8_25  and  N7_26 
REMARK    4  A    between atoms: C9_31  and  C10_32 
REMARK       I    between atoms: C10_32  and  N10_34 
REMARK       I    between atoms: N10_34  and  C11_36 
REMARK       I    between atoms: C11_36  and  N12_40 
REMARK    5  A    between atoms: N12_40  and  N13_42 
REMARK    6  A    between atoms: C12_45  and  C13_46 
REMARK       I    between atoms: C13_46  and  N14_48 
REMARK    7  A    between atoms: N14_48  and  O5_50 
ROOT
HETATM    1  N7  UNL     1      -9.894 -23.558  -1.681  1.00  0.00    -0.230 N 
HETATM    2  N8  UNL     1     -10.632 -23.303  -0.594  1.00  0.00    -0.234 N 
ATOM      3  H8  UNL     1     -10.330 -22.703   0.174  1.00  0.00     0.209 HD
HETATM    4  N9  UNL     1     -11.763 -23.903  -0.633  1.00  0.00    -0.278 N 
ATOM      5  H9  UNL     1     -12.484 -23.850   0.087  1.00  0.00     0.189 HD
HETATM    6  C9  UNL     1     -11.852 -24.630  -1.803  1.00  0.00     0.152 A 
HETATM    7  C12 UNL     1     -10.649 -24.382  -2.438  1.00  0.00     0.161 A 
ENDROOT
BRANCH   1   8
HETATM    8  C8  UNL     1      -8.611 -23.022  -1.931  1.00  0.00     0.108 C 
HETATM    9  C2  UNL     1      -8.587 -21.948  -2.787  1.00  0.00     0.038 C 
HETATM   10  C1  UNL     1      -9.867 -21.211  -2.881  1.00  0.00     0.070 C 
HETATM   11  N1  UNL     1      -7.543 -21.485  -3.541  1.00  0.00    -0.338 N 
HETATM   12  C3  UNL     1      -6.238 -21.599  -3.289  1.00  0.00     0.185 C 
ATOM     13  H1  UNL     1      -7.792 -20.995  -4.400  1.00  0.00     0.167 HD
HETATM   14  N2  UNL     1      -5.634 -22.521  -2.519  1.00  0.00    -0.322 N 
HETATM   15  C5  UNL     1      -6.158 -23.357  -1.571  1.00  0.00     0.132 C 
ATOM     16  H2  UNL     1      -4.628 -22.613  -2.665  1.00  0.00     0.169 HD
HETATM   17  C7  UNL     1      -7.497 -23.569  -1.316  1.00  0.00     0.120 C 
HETATM   18  N6  UNL     1      -7.758 -24.486  -0.272  1.00  0.00    -0.096 NA
BRANCH  12  19
HETATM   19  C4  UNL     1      -5.332 -20.612  -3.915  1.00  0.00     0.245 C 
HETATM   20  O1  UNL     1      -5.721 -19.778  -4.738  1.00  0.00    -0.642 OA
HETATM   21  O2  UNL     1      -4.001 -20.654  -3.544  1.00  0.00    -0.642 OA
ENDBRANCH  12  19
BRANCH  15  22
HETATM   22  N3  UNL     1      -5.347 -24.025  -0.828  1.00  0.00    -0.325 N 
HETATM   23  C6  UNL     1      -4.648 -23.334   0.230  1.00  0.00     0.481 C 
HETATM   24  N4  UNL     1      -3.238 -23.694   0.247  1.00  0.00    -0.033 N 
HETATM   25  N5  UNL     1      -5.250 -23.589   1.528  1.00  0.00    -0.033 N 
ATOM     26  H43 UNL     1      -3.109 -24.704   0.309  1.00  0.00     0.278 HD
ATOM     27  H42 UNL     1      -2.799 -23.536  -0.659  1.00  0.00     0.278 HD
ATOM     28  H41 UNL     1      -2.744 -23.206   0.995  1.00  0.00     0.278 HD
ATOM     29  H53 UNL     1      -6.244 -23.361   1.528  1.00  0.00     0.278 HD
ATOM     30  H52 UNL     1      -5.316 -24.589   1.717  1.00  0.00     0.278 HD
ATOM     31  H51 UNL     1      -4.756 -23.101   2.275  1.00  0.00     0.278 HD
ATOM     32  H3  UNL     1      -5.201 -25.022  -0.983  1.00  0.00     0.165 HD
ENDBRANCH  15  22
ENDBRANCH   1   8
BRANCH   7  33
HETATM   33  C13 UNL     1     -10.242 -24.913  -3.723  1.00  0.00     0.296 C 
HETATM   34  O4  UNL     1      -9.914 -26.123  -3.778  1.00  0.00    -0.264 OA
HETATM   35  N14 UNL     1     -10.189 -24.165  -4.907  1.00  0.00    -0.232 N 
ATOM     36  H14 UNL     1     -10.444 -23.177  -4.896  1.00  0.00     0.197 HD
BRANCH  35  37
HETATM   37  O5  UNL     1      -9.794 -24.759  -6.082  1.00  0.00    -0.287 OA
ATOM     38  H5  UNL     1      -9.966 -24.333  -6.914  1.00  0.00     0.244 HD
ENDBRANCH  35  37
ENDBRANCH   7  33
BRANCH   6  39
HETATM   39  C10 UNL     1     -13.010 -25.405  -2.158  1.00  0.00     0.290 C 
HETATM   40  O3  UNL     1     -14.160 -24.867  -2.008  1.00  0.00    -0.265 OA
HETATM   41  N10 UNL     1     -12.975 -26.714  -2.648  1.00  0.00    -0.153 N 
HETATM   42  C11 UNL     1     -14.156 -27.440  -3.000  1.00  0.00     0.693 C 
ATOM     43  H10 UNL     1     -12.069 -27.170  -2.760  1.00  0.00     0.187 HD
HETATM   44  N11 UNL     1     -14.010 -28.639  -3.442  1.00  0.00    -0.233 N 
HETATM   45  N12 UNL     1     -15.466 -26.906  -2.885  1.00  0.00    -0.139 N 
ATOM     46 2H11 UNL     1     -13.069 -29.023  -3.525  1.00  0.00     0.174 HD
ATOM     47 1H11 UNL     1     -14.852 -29.158  -3.693  1.00  0.00     0.174 HD
ATOM     48  H12 UNL     1     -15.728 -26.081  -3.425  1.00  0.00     0.205 HD
BRANCH  45  49
HETATM   49  N13 UNL     1     -16.397 -27.507  -2.034  1.00  0.00    -0.331 N 
ATOM     50 2H13 UNL     1     -17.112 -26.925  -1.595  1.00  0.00     0.177 HD
ATOM     51 1H13 UNL     1     -16.358 -28.510  -1.858  1.00  0.00     0.177 HD
ENDBRANCH  45  49
ENDBRANCH   6  39
TORSDOF 7
ENDMDL
MODEL 3
REMARK VINA RESULT: -6.848903557      2.095      2.880
REMARK  7 active torsions:
REMARK  status: ('A' for Active; 'I' for Inactive)
REMARK    1  A    between atoms: C3_5  and  C4_6 
REMARK    2  A    between atoms: C5_11  and  N3_12 
REMARK       I    between atoms: N3_12  and  C6_14 
REMARK       I    between atoms: C6_14  and  N4_15 
REMARK       I    between atoms: C6_14  and  N5_19 
REMARK    3  A    between atoms: C8_25  and  N7_26 
REMARK    4  A    between atoms: C9_31  and  C10_32 
REMARK       I    between atoms: C10_32  and  N10_34 
REMARK       I    between atoms: N10_34  and  C11_36 
REMARK       I    between atoms: C11_36  and  N12_40 
REMARK    5  A    between atoms: N12_40  and  N13_42 
REMARK    6  A    between atoms: C12_45  and  C13_46 
REMARK       I    between atoms: C13_46  and  N14_48 
REMARK    7  A    between atoms: N14_48  and  O5_50 
ROOT
HETATM    1  N7  UNL     1      -9.340 -23.996  -3.421  1.00  0.00    -0.230 N 
HETATM    2  N8  UNL     1      -9.462 -24.404  -4.690  1.00  0.00    -0.234 N 
ATOM      3  H8  UNL     1      -8.830 -24.130  -5.443  1.00  0.00     0.209 HD
HETATM    4  N9  UNL     1     -10.468 -25.182  -4.846  1.00  0.00    -0.278 N 
ATOM      5  H9  UNL     1     -10.750 -25.612  -5.727  1.00  0.00     0.189 HD
HETATM    6  C9  UNL     1     -11.109 -25.345  -3.634  1.00  0.00     0.152 A 
HETATM    7  C12 UNL     1     -10.360 -24.579  -2.759  1.00  0.00     0.161 A 
ENDROOT
BRANCH   1   8
HETATM    8  C8  UNL     1      -8.315 -23.150  -2.940  1.00  0.00     0.108 C 
HETATM    9  C2  UNL     1      -8.517 -21.809  -3.163  1.00  0.00     0.038 C 
HETATM   10  C1  UNL     1      -9.932 -21.428  -3.363  1.00  0.00     0.070 C 
HETATM   11  N1  UNL     1      -7.586 -20.807  -3.215  1.00  0.00    -0.338 N 
HETATM   12  C3  UNL     1      -6.404 -20.756  -2.599  1.00  0.00     0.185 C 
ATOM     13  H1  UNL     1      -7.826 -20.002  -3.793  1.00  0.00     0.167 HD
HETATM   14  N2  UNL     1      -5.667 -21.792  -2.161  1.00  0.00    -0.322 N 
HETATM   15  C5  UNL     1      -6.027 -23.092  -1.931  1.00  0.00     0.132 C 
ATOM     16  H2  UNL     1      -4.689 -21.575  -1.969  1.00  0.00     0.169 HD
HETATM   17  C7  UNL     1      -7.220 -23.688  -2.285  1.00  0.00     0.120 C 
HETATM   18  N6  UNL     1      -7.328 -25.049  -1.920  1.00  0.00    -0.096 NA
BRANCH  12  19
HETATM   19  C4  UNL     1      -5.814 -19.421  -2.362  1.00  0.00     0.245 C 
HETATM   20  O1  UNL     1      -4.993 -19.205  -1.464  1.00  0.00    -0.642 OA
HETATM   21  O2  UNL     1      -6.219 -18.395  -3.195  1.00  0.00    -0.642 OA
ENDBRANCH  12  19
BRANCH  15  22
HETATM   22  N3  UNL     1      -5.188 -23.862  -1.329  1.00  0.00    -0.325 N 
HETATM   23  C6  UNL     1      -4.924 -23.636   0.072  1.00  0.00     0.481 C 
HETATM   24  N4  UNL     1      -3.496 -23.680   0.348  1.00  0.00    -0.033 N 
HETATM   25  N5  UNL     1      -5.630 -24.588   0.912  1.00  0.00    -0.033 N 
ATOM     26  H43 UNL     1      -3.076 -24.551   0.022  1.00  0.00     0.278 HD
ATOM     27  H42 UNL     1      -2.979 -23.028  -0.242  1.00  0.00     0.278 HD
ATOM     28  H41 UNL     1      -3.309 -23.521   1.338  1.00  0.00     0.278 HD
ATOM     29  H53 UNL     1      -6.632 -24.585   0.718  1.00  0.00     0.278 HD
ATOM     30  H52 UNL     1      -5.419 -25.549   0.644  1.00  0.00     0.278 HD
ATOM     31  H51 UNL     1      -5.443 -24.429   1.902  1.00  0.00     0.278 HD
ATOM     32  H3  UNL     1      -4.720 -24.616  -1.833  1.00  0.00     0.165 HD
ENDBRANCH  15  22
ENDBRANCH   1   8
BRANCH   7  33
HETATM   33  C13 UNL     1     -10.614 -24.418  -1.343  1.00  0.00     0.296 C 
HETATM   34  O4  UNL     1     -11.433 -23.533  -0.993  1.00  0.00    -0.264 OA
HETATM   35  N14 UNL     1     -10.006 -25.181  -0.338  1.00  0.00    -0.232 N 
ATOM     36  H14 UNL     1      -9.332 -25.905  -0.587  1.00  0.00     0.197 HD
BRANCH  35  37
HETATM   37  O5  UNL     1     -10.315 -24.957   0.984  1.00  0.00    -0.287 OA
ATOM     38  H5  UNL     1      -9.701 -25.203   1.666  1.00  0.00     0.244 HD
ENDBRANCH  35  37
ENDBRANCH   7  33
BRANCH   6  39
HETATM   39  C10 UNL     1     -12.270 -26.177  -3.468  1.00  0.00     0.290 C 
HETATM   40  O3  UNL     1     -12.148 -27.428  -3.697  1.00  0.00    -0.265 OA
HETATM   41  N10 UNL     1     -13.533 -25.717  -3.082  1.00  0.00    -0.153 N 
HETATM   42  C11 UNL     1     -14.656 -26.587  -2.917  1.00  0.00     0.693 C 
ATOM     43  H10 UNL     1     -13.658 -24.719  -2.911  1.00  0.00     0.187 HD
HETATM   44  N11 UNL     1     -15.773 -26.059  -2.558  1.00  0.00    -0.233 N 
HETATM   45  N12 UNL     1     -14.596 -27.990  -3.128  1.00  0.00    -0.139 N 
ATOM     46 2H11 UNL     1     -15.816 -25.052  -2.406  1.00  0.00     0.174 HD
ATOM     47 1H11 UNL     1     -16.574 -26.680  -2.441  1.00  0.00     0.174 HD
ATOM     48  H12 UNL     1     -13.978 -28.565  -2.556  1.00  0.00     0.205 HD
BRANCH  45  49
HETATM   49  N13 UNL     1     -15.382 -28.585  -4.119  1.00  0.00    -0.331 N 
ATOM     50 2H13 UNL     1     -16.256 -28.134  -4.393  1.00  0.00     0.177 HD
ATOM     51 1H13 UNL     1     -15.082 -29.455  -4.557  1.00  0.00     0.177 HD
ENDBRANCH  45  49
ENDBRANCH   6  39
TORSDOF 7
ENDMDL
MODEL 4
REMARK VINA RESULT: -6.745298328      2.061      2.991
REMARK  7 active torsions:
REMARK  status: ('A' for Active; 'I' for Inactive)
REMARK    1  A    between atoms: C3_5  and  C4_6 
REMARK    2  A    between atoms: C5_11  and  N3_12 
REMARK       I    between atoms: N3_12  and  C6_14 
REMARK       I    between atoms: C6_14  and  N4_15 
REMARK       I    between atoms: C6_14  and  N5_19 
REMARK    3  A    between atoms: C8_25  and  N7_26 
REMARK    4  A    between atoms: C9_31  and  C10_32 
REMARK       I    between atoms: C10_32  and  N10_34 
REMARK       I    between atoms: N10_34  and  C11_36 
REMARK       I    between atoms: C11_36  and  N12_40 
REMARK    5  A    between atoms: N12_40  and  N13_42 
REMARK    6  A    between atoms: C12_45  and  C13_46 
REMARK       I    between atoms: C13_46  and  N14_48 
REMARK    7  A    between atoms: N14_48  and  O5_50 
ROOT
HETATM    1  N7  UNL     1     -10.412 -24.486  -2.244  1.00  0.00    -0.230 N 
HETATM    2  N8  UNL     1     -11.285 -23.715  -1.583  1.00  0.00    -0.234 N 
ATOM      3  H8  UNL     1     -11.133 -22.728  -1.375  1.00  0.00     0.209 HD
HETATM    4  N9  UNL     1     -12.334 -24.366  -1.243  1.00  0.00    -0.278 N 
ATOM      5  H9  UNL     1     -13.130 -23.979  -0.735  1.00  0.00     0.189 HD
HETATM    6  C9  UNL     1     -12.219 -25.673  -1.675  1.00  0.00     0.152 A 
HETATM    7  C12 UNL     1     -10.989 -25.704  -2.306  1.00  0.00     0.161 A 
ENDROOT
BRANCH   1   8
HETATM    8  C8  UNL     1      -9.175 -24.044  -2.762  1.00  0.00     0.108 C 
HETATM    9  C2  UNL     1      -9.136 -23.897  -4.127  1.00  0.00     0.038 C 
HETATM   10  C1  UNL     1     -10.460 -23.701  -4.760  1.00  0.00     0.070 C 
HETATM   11  N1  UNL     1      -8.044 -23.904  -4.952  1.00  0.00    -0.338 N 
HETATM   12  C3  UNL     1      -6.792 -23.554  -4.655  1.00  0.00     0.185 C 
ATOM     13  H1  UNL     1      -8.208 -24.213  -5.910  1.00  0.00     0.167 HD
HETATM   14  N2  UNL     1      -6.217 -23.536  -3.439  1.00  0.00    -0.322 N 
HETATM   15  C5  UNL     1      -6.789 -23.549  -2.196  1.00  0.00     0.132 C 
ATOM     16  H2  UNL     1      -5.197 -23.507  -3.445  1.00  0.00     0.169 HD
HETATM   17  C7  UNL     1      -8.118 -23.777  -1.907  1.00  0.00     0.120 C 
HETATM   18  N6  UNL     1      -8.437 -23.729  -0.531  1.00  0.00    -0.096 NA
BRANCH  12  19
HETATM   19  C4  UNL     1      -5.915 -23.137  -5.770  1.00  0.00     0.245 C 
HETATM   20  O1  UNL     1      -6.264 -22.312  -6.620  1.00  0.00    -0.642 OA
HETATM   21  O2  UNL     1      -4.660 -23.714  -5.836  1.00  0.00    -0.642 OA
ENDBRANCH  12  19
BRANCH  15  22
HETATM   22  N3  UNL     1      -6.036 -23.335  -1.174  1.00  0.00    -0.325 N 
HETATM   23  C6  UNL     1      -5.466 -22.020  -0.998  1.00  0.00     0.481 C 
HETATM   24  N4  UNL     1      -4.054 -22.104  -0.653  1.00  0.00    -0.033 N 
HETATM   25  N5  UNL     1      -6.185 -21.252   0.003  1.00  0.00    -0.033 N 
ATOM     26  H43 UNL     1      -3.902 -22.692   0.167  1.00  0.00     0.278 HD
ATOM     27  H42 UNL     1      -3.532 -22.651  -1.336  1.00  0.00     0.278 HD
ATOM     28  H41 UNL     1      -3.652 -21.175  -0.529  1.00  0.00     0.278 HD
ATOM     29  H53 UNL     1      -7.182 -21.200  -0.213  1.00  0.00     0.278 HD
ATOM     30  H52 UNL     1      -6.241 -21.754   0.889  1.00  0.00     0.278 HD
ATOM     31  H51 UNL     1      -5.783 -20.323   0.128  1.00  0.00     0.278 HD
ATOM     32  H3  UNL     1      -5.845 -24.078  -0.502  1.00  0.00     0.165 HD
ENDBRANCH  15  22
ENDBRANCH   1   8
BRANCH   7  33
HETATM   33  C13 UNL     1     -10.393 -26.859  -2.945  1.00  0.00     0.296 C 
HETATM   34  O4  UNL     1      -9.378 -27.366  -2.408  1.00  0.00    -0.264 OA
HETATM   35  N14 UNL     1     -10.873 -27.446  -4.124  1.00  0.00    -0.232 N 
ATOM     36  H14 UNL     1     -11.693 -27.056  -4.589  1.00  0.00     0.197 HD
BRANCH  35  37
HETATM   37  O5  UNL     1     -10.242 -28.547  -4.654  1.00  0.00    -0.287 OA
ATOM     38  H5  UNL     1     -10.428 -28.822  -5.545  1.00  0.00     0.244 HD
ENDBRANCH  35  37
ENDBRANCH   7  33
BRANCH   6  39
HETATM   39  C10 UNL     1     -13.243 -26.660  -1.465  1.00  0.00     0.290 C 
HETATM   40  O3  UNL     1     -13.523 -26.986  -0.261  1.00  0.00    -0.265 OA
HETATM   41  N10 UNL     1     -13.956 -27.300  -2.484  1.00  0.00    -0.153 N 
HETATM   42  C11 UNL     1     -14.977 -28.268  -2.223  1.00  0.00     0.693 C 
ATOM     43  H10 UNL     1     -13.738 -27.068  -3.453  1.00  0.00     0.187 HD
HETATM   44  N11 UNL     1     -15.570 -28.797  -3.235  1.00  0.00    -0.233 N 
HETATM   45  N12 UNL     1     -15.361 -28.667  -0.916  1.00  0.00    -0.139 N 
ATOM     46 2H11 UNL     1     -15.294 -28.510  -4.174  1.00  0.00     0.174 HD
ATOM     47 1H11 UNL     1     -16.298 -29.488  -3.050  1.00  0.00     0.174 HD
ATOM     48  H12 UNL     1     -15.748 -27.981  -0.269  1.00  0.00     0.205 HD
BRANCH  45  49
HETATM   49  N13 UNL     1     -15.210 -29.997  -0.515  1.00  0.00    -0.331 N 
ATOM     50 2H13 UNL     1     -15.811 -30.361   0.225  1.00  0.00     0.177 HD
ATOM     51 1H13 UNL     1     -14.509 -30.590  -0.959  1.00  0.00     0.177 HD
ENDBRANCH  45  49
ENDBRANCH   6  39
TORSDOF 7
ENDMDL
MODEL 5
REMARK VINA RESULT: -6.721414137      2.025      2.876
REMARK  7 active torsions:
REMARK  status: ('A' for Active; 'I' for Inactive)
REMARK    1  A    between atoms: C3_5  and  C4_6 
REMARK    2  A    between atoms: C5_11  and  N3_12 
REMARK       I    between atoms: N3_12  and  C6_14 
REMARK       I    between atoms: C6_14  and  N4_15 
REMARK       I    between atoms: C6_14  and  N5_19 
REMARK    3  A    between atoms: C8_25  and  N7_26 
REMARK    4  A    between atoms: C9_31  and  C10_32 
REMARK       I    between atoms: C10_32  and  N10_34 
REMARK       I    between atoms: N10_34  and  C11_36 
REMARK       I    between atoms: C11_36  and  N12_40 
REMARK    5  A    between atoms: N12_40  and  N13_42 
REMARK    6  A    between atoms: C12_45  and  C13_46 
REMARK       I    between atoms: C13_46  and  N14_48 
REMARK    7  A    between atoms: N14_48  and  O5_50 
ROOT
HETATM    1  N7  UNL     1     -10.332 -24.582  -1.870  1.00  0.00    -0.230 N 
HETATM    2  N8  UNL     1     -11.241 -23.832  -1.235  1.00  0.00    -0.234 N 
ATOM      3  H8  UNL     1     -11.053 -22.903  -0.857  1.00  0.00     0.209 HD
HETATM    4  N9  UNL     1     -12.376 -24.421  -1.160  1.00  0.00    -0.278 N 
ATOM      5  H9  UNL     1     -13.213 -24.036  -0.721  1.00  0.00     0.189 HD
HETATM    6  C9  UNL     1     -12.288 -25.658  -1.766  1.00  0.00     0.152 A 
HETATM    7  C12 UNL     1     -10.977 -25.718  -2.205  1.00  0.00     0.161 A 
ENDROOT
BRANCH   1   8
HETATM    8  C8  UNL     1      -8.998 -24.190  -2.125  1.00  0.00     0.108 C 
HETATM    9  C2  UNL     1      -8.778 -23.653  -3.370  1.00  0.00     0.038 C 
HETATM   10  C1  UNL     1      -9.984 -23.089  -4.015  1.00  0.00     0.070 C 
HETATM   11  N1  UNL     1      -7.602 -23.575  -4.065  1.00  0.00    -0.338 N 
HETATM   12  C3  UNL     1      -6.363 -23.515  -3.574  1.00  0.00     0.185 C 
ATOM     13  H1  UNL     1      -7.682 -23.560  -5.082  1.00  0.00     0.167 HD
HETATM   14  N2  UNL     1      -5.942 -23.940  -2.370  1.00  0.00    -0.322 N 
HETATM   15  C5  UNL     1      -6.657 -24.238  -1.242  1.00  0.00     0.132 C 
ATOM     16  H2  UNL     1      -4.932 -24.060  -2.284  1.00  0.00     0.169 HD
HETATM   17  C7  UNL     1      -8.030 -24.345  -1.147  1.00  0.00     0.120 C 
HETATM   18  N6  UNL     1      -8.505 -24.661   0.147  1.00  0.00    -0.096 NA
BRANCH  12  19
HETATM   19  C4  UNL     1      -5.315 -22.918  -4.431  1.00  0.00     0.245 C 
HETATM   20  O1  UNL     1      -4.813 -21.815  -4.198  1.00  0.00    -0.642 OA
HETATM   21  O2  UNL     1      -4.907 -23.651  -5.530  1.00  0.00    -0.642 OA
ENDBRANCH  12  19
BRANCH  15  22
HETATM   22  N3  UNL     1      -6.014 -24.447  -0.147  1.00  0.00    -0.325 N 
HETATM   23  C6  UNL     1      -5.349 -23.335   0.488  1.00  0.00     0.481 C 
HETATM   24  N4  UNL     1      -4.002 -23.699   0.904  1.00  0.00    -0.033 N 
HETATM   25  N5  UNL     1      -6.107 -22.829   1.620  1.00  0.00    -0.033 N 
ATOM     26  H43 UNL     1      -4.004 -24.526   1.501  1.00  0.00     0.278 HD
ATOM     27  H42 UNL     1      -3.456 -24.070   0.127  1.00  0.00     0.278 HD
ATOM     28  H41 UNL     1      -3.532 -22.913   1.353  1.00  0.00     0.278 HD
ATOM     29  H53 UNL     1      -7.061 -22.587   1.350  1.00  0.00     0.278 HD
ATOM     30  H52 UNL     1      -6.314 -23.570   2.289  1.00  0.00     0.278 HD
ATOM     31  H51 UNL     1      -5.637 -22.043   2.068  1.00  0.00     0.278 HD
ATOM     32  H3  UNL     1      -5.976 -25.380   0.264  1.00  0.00     0.165 HD
ENDBRANCH  15  22
ENDBRANCH   1   8
BRANCH   7  33
HETATM   33  C13 UNL     1     -10.372 -26.822  -2.919  1.00  0.00     0.296 C 
HETATM   34  O4  UNL     1      -9.324 -27.322  -2.442  1.00  0.00    -0.264 OA
HETATM   35  N14 UNL     1     -10.876 -27.368  -4.107  1.00  0.00    -0.232 N 
ATOM     36  H14 UNL     1     -11.723 -26.982  -4.524  1.00  0.00     0.197 HD
BRANCH  35  37
HETATM   37  O5  UNL     1     -10.233 -28.422  -4.712  1.00  0.00    -0.287 OA
ATOM     38  H5  UNL     1     -10.712 -29.212  -4.932  1.00  0.00     0.244 HD
ENDBRANCH  35  37
ENDBRANCH   7  33
BRANCH   6  39
HETATM   39  C10 UNL     1     -13.401 -26.563  -1.866  1.00  0.00     0.290 C 
HETATM   40  O3  UNL     1     -13.150 -27.807  -2.015  1.00  0.00    -0.265 OA
HETATM   41  N10 UNL     1     -14.745 -26.182  -1.819  1.00  0.00    -0.153 N 
HETATM   42  C11 UNL     1     -15.819 -27.123  -1.909  1.00  0.00     0.693 C 
ATOM     43  H10 UNL     1     -14.970 -25.193  -1.718  1.00  0.00     0.187 HD
HETATM   44  N11 UNL     1     -17.020 -26.665  -1.856  1.00  0.00    -0.233 N 
HETATM   45  N12 UNL     1     -15.624 -28.522  -2.053  1.00  0.00    -0.139 N 
ATOM     46 2H11 UNL     1     -17.161 -25.660  -1.752  1.00  0.00     0.174 HD
ATOM     47 1H11 UNL     1     -17.787 -27.336  -1.920  1.00  0.00     0.174 HD
ATOM     48  H12 UNL     1     -15.134 -29.044  -1.326  1.00  0.00     0.205 HD
BRANCH  45  49
HETATM   49  N13 UNL     1     -16.100 -29.185  -3.187  1.00  0.00    -0.331 N 
ATOM     50 2H13 UNL     1     -15.572 -29.115  -4.058  1.00  0.00     0.177 HD
ATOM     51 1H13 UNL     1     -16.962 -29.727  -3.139  1.00  0.00     0.177 HD
ENDBRANCH  45  49
ENDBRANCH   6  39
TORSDOF 7
ENDMDL
