MODEL 1
REMARK VINA RESULT: -5.845159323      0.000      0.000
REMARK  4 active torsions:
REMARK  status: ('A' for Active; 'I' for Inactive)
REMARK    1  A    between atoms: O1_1  and  C1_3 
REMARK    2  A    between atoms: C1_3  and  C2_4 
REMARK    3  A    between atoms: C6_8  and  O2_9 
REMARK    4  A    between atoms: C7_11  and  O3_12 
ROOT
HETATM    1  C2  UNL     1      -4.738  18.195  -8.431  1.00  0.00     0.252 C 
HETATM    2  C3  UNL     1      -3.678  19.116  -9.036  1.00  0.00     0.074 C 
HETATM    3  C4  UNL     1      -3.940  20.027  -7.862  1.00  0.00     0.231 C 
HETATM    4  C5  UNL     1      -2.744  20.248  -6.960  1.00  0.00     0.072 C 
HETATM    5  C6  UNL     1      -3.269  19.724  -5.635  1.00  0.00     0.179 C 
HETATM    6  C7  UNL     1      -4.068  18.513  -6.099  1.00  0.00     0.386 C 
HETATM    7  N1  UNL     1      -4.726  18.991  -7.259  1.00  0.00     0.131 N 
ENDROOT
BRANCH   1   8
HETATM    8  C1  UNL     1      -4.181  16.801  -8.332  1.00  0.00     0.200 C 
BRANCH   8   9
HETATM    9  O1  UNL     1      -4.822  15.885  -9.126  1.00  0.00    -0.399 OA
ATOM     10  H1  UNL     1      -4.398  15.732  -9.961  1.00  0.00     0.209 HD
ENDBRANCH   8   9
ENDBRANCH   1   8
BRANCH   6  11
HETATM   11  O3  UNL     1      -4.959  18.222  -5.051  1.00  0.00    -0.366 OA
ATOM     12  H3  UNL     1      -5.108  17.284  -5.093  1.00  0.00     0.212 HD
ENDBRANCH   6  11
BRANCH   5  13
HETATM   13  O2  UNL     1      -2.256  19.244  -4.819  1.00  0.00    -0.391 OA
ATOM     14  H2  UNL     1      -1.638  19.922  -4.574  1.00  0.00     0.210 HD
ENDBRANCH   5  13
TORSDOF 4
ENDMDL
MODEL 2
REMARK VINA RESULT: -5.838753420      2.004      4.068
REMARK  4 active torsions:
REMARK  status: ('A' for Active; 'I' for Inactive)
REMARK    1  A    between atoms: O1_1  and  C1_3 
REMARK    2  A    between atoms: C1_3  and  C2_4 
REMARK    3  A    between atoms: C6_8  and  O2_9 
REMARK    4  A    between atoms: C7_11  and  O3_12 
ROOT
HETATM    1  C2  UNL     1      -3.843  19.905  -6.865  1.00  0.00     0.252 C 
HETATM    2  C3  UNL     1      -2.881  18.734  -6.669  1.00  0.00     0.074 C 
HETATM    3  C4  UNL     1      -4.078  17.842  -6.885  1.00  0.00     0.231 C 
HETATM    4  C5  UNL     1      -3.976  16.935  -8.093  1.00  0.00     0.072 C 
HETATM    5  C6  UNL     1      -5.179  17.382  -8.905  1.00  0.00     0.179 C 
HETATM    6  C7  UNL     1      -5.141  18.887  -8.672  1.00  0.00     0.386 C 
HETATM    7  N1  UNL     1      -4.834  18.989  -7.292  1.00  0.00     0.131 N 
ENDROOT
BRANCH   1   8
HETATM    8  C1  UNL     1      -3.274  20.846  -7.891  1.00  0.00     0.200 C 
BRANCH   8   9
HETATM    9  O1  UNL     1      -2.631  21.934  -7.358  1.00  0.00    -0.399 OA
ATOM     10  H1  UNL     1      -1.694  21.944  -7.511  1.00  0.00     0.209 HD
ENDBRANCH   8   9
ENDBRANCH   1   8
BRANCH   6  11
HETATM   11  O3  UNL     1      -6.433  19.351  -8.977  1.00  0.00    -0.366 OA
ATOM     12  H3  UNL     1      -6.316  20.015  -9.647  1.00  0.00     0.212 HD
ENDBRANCH   6  11
BRANCH   5  13
HETATM   13  O2  UNL     1      -5.000  17.185 -10.266  1.00  0.00    -0.391 OA
ATOM     14  H2  UNL     1      -5.132  17.981 -10.766  1.00  0.00     0.210 HD
ENDBRANCH   5  13
TORSDOF 4
ENDMDL
MODEL 3
REMARK VINA RESULT: -5.798990499      2.525      3.603
REMARK  4 active torsions:
REMARK  status: ('A' for Active; 'I' for Inactive)
REMARK    1  A    between atoms: O1_1  and  C1_3 
REMARK    2  A    between atoms: C1_3  and  C2_4 
REMARK    3  A    between atoms: C6_8  and  O2_9 
REMARK    4  A    between atoms: C7_11  and  O3_12 
ROOT
HETATM    1  C2  UNL     1      -3.200  18.686  -5.965  1.00  0.00     0.252 C 
HETATM    2  C3  UNL     1      -3.802  17.860  -7.102  1.00  0.00     0.074 C 
HETATM    3  C4  UNL     1      -5.019  18.741  -6.967  1.00  0.00     0.231 C 
HETATM    4  C5  UNL     1      -5.344  19.556  -8.201  1.00  0.00     0.072 C 
HETATM    5  C6  UNL     1      -5.258  20.970  -7.656  1.00  0.00     0.179 C 
HETATM    6  C7  UNL     1      -4.061  20.847  -6.721  1.00  0.00     0.386 C 
HETATM    7  N1  UNL     1      -4.277  19.597  -6.090  1.00  0.00     0.131 N 
ENDROOT
BRANCH   1   8
HETATM    8  C1  UNL     1      -1.833  19.162  -6.372  1.00  0.00     0.200 C 
BRANCH   8   9
HETATM    9  O1  UNL     1      -0.928  19.211  -5.343  1.00  0.00    -0.399 OA
ATOM     10  H1  UNL     1      -0.709  18.361  -4.978  1.00  0.00     0.209 HD
ENDBRANCH   8   9
ENDBRANCH   1   8
BRANCH   6  11
HETATM   11  O3  UNL     1      -4.163  21.930  -5.830  1.00  0.00    -0.366 OA
ATOM     12  H3  UNL     1      -4.641  22.605  -6.298  1.00  0.00     0.212 HD
ENDBRANCH   6  11
BRANCH   5  13
HETATM   13  O2  UNL     1      -4.908  21.891  -8.631  1.00  0.00    -0.391 OA
ATOM     14  H2  UNL     1      -4.683  22.738  -8.264  1.00  0.00     0.210 HD
ENDBRANCH   5  13
TORSDOF 4
ENDMDL
MODEL 4
REMARK VINA RESULT: -5.775543997      2.115      2.849
REMARK  4 active torsions:
REMARK  status: ('A' for Active; 'I' for Inactive)
REMARK    1  A    between atoms: O1_1  and  C1_3 
REMARK    2  A    between atoms: C1_3  and  C2_4 
REMARK    3  A    between atoms: C6_8  and  O2_9 
REMARK    4  A    between atoms: C7_11  and  O3_12 
ROOT
HETATM    1  C2  UNL     1      -4.243  20.393  -8.236  1.00  0.00     0.252 C 
HETATM    2  C3  UNL     1      -4.134  18.885  -8.010  1.00  0.00     0.074 C 
HETATM    3  C4  UNL     1      -2.925  19.198  -7.163  1.00  0.00     0.231 C 
HETATM    4  C5  UNL     1      -3.053  18.794  -5.710  1.00  0.00     0.072 C 
HETATM    5  C6  UNL     1      -2.884  20.132  -5.012  1.00  0.00     0.179 C 
HETATM    6  C7  UNL     1      -3.652  21.049  -5.955  1.00  0.00     0.386 C 
HETATM    7  N1  UNL     1      -3.260  20.590  -7.236  1.00  0.00     0.131 N 
ENDROOT
BRANCH   1   8
HETATM    8  C1  UNL     1      -5.647  20.837  -7.930  1.00  0.00     0.200 C 
BRANCH   8   9
HETATM    9  O1  UNL     1      -6.608  20.216  -8.686  1.00  0.00    -0.399 OA
ATOM     10  H1  UNL     1      -7.101  20.804  -9.246  1.00  0.00     0.209 HD
ENDBRANCH   8   9
ENDBRANCH   1   8
BRANCH   6  11
HETATM   11  O3  UNL     1      -3.191  22.349  -5.679  1.00  0.00    -0.366 OA
ATOM     12  H3  UNL     1      -3.288  22.834  -6.490  1.00  0.00     0.212 HD
ENDBRANCH   6  11
BRANCH   5  13
HETATM   13  O2  UNL     1      -3.539  20.176  -3.791  1.00  0.00    -0.391 OA
ATOM     14  H2  UNL     1      -3.932  21.024  -3.623  1.00  0.00     0.210 HD
ENDBRANCH   5  13
TORSDOF 4
ENDMDL
MODEL 5
REMARK VINA RESULT: -5.697181779      1.766      3.872
REMARK  4 active torsions:
REMARK  status: ('A' for Active; 'I' for Inactive)
REMARK    1  A    between atoms: O1_1  and  C1_3 
REMARK    2  A    between atoms: C1_3  and  C2_4 
REMARK    3  A    between atoms: C6_8  and  O2_9 
REMARK    4  A    between atoms: C7_11  and  O3_12 
ROOT
HETATM    1  C2  UNL     1      -2.649  20.149  -6.721  1.00  0.00     0.252 C 
HETATM    2  C3  UNL     1      -3.814  20.193  -5.734  1.00  0.00     0.074 C 
HETATM    3  C4  UNL     1      -4.700  20.397  -6.938  1.00  0.00     0.231 C 
HETATM    4  C5  UNL     1      -5.722  19.303  -7.160  1.00  0.00     0.072 C 
HETATM    5  C6  UNL     1      -5.332  18.805  -8.540  1.00  0.00     0.179 C 
HETATM    6  C7  UNL     1      -3.812  18.869  -8.451  1.00  0.00     0.386 C 
HETATM    7  N1  UNL     1      -3.583  20.098  -7.785  1.00  0.00     0.131 N 
ENDROOT
BRANCH   1   8
HETATM    8  C1  UNL     1      -1.825  18.920  -6.457  1.00  0.00     0.200 C 
BRANCH   8   9
HETATM    9  O1  UNL     1      -0.791  19.116  -5.577  1.00  0.00    -0.399 OA
ATOM     10  H1  UNL     1      -1.056  19.495  -4.747  1.00  0.00     0.209 HD
ENDBRANCH   8   9
ENDBRANCH   1   8
BRANCH   6  11
HETATM   11  O3  UNL     1      -3.354  18.879  -9.781  1.00  0.00    -0.366 OA
ATOM     12  H3  UNL     1      -4.096  19.154 -10.307  1.00  0.00     0.212 HD
ENDBRANCH   6  11
BRANCH   5  13
HETATM   13  O2  UNL     1      -5.664  17.473  -8.734  1.00  0.00    -0.391 OA
ATOM     14  H2  UNL     1      -6.575  17.360  -8.978  1.00  0.00     0.210 HD
ENDBRANCH   5  13
TORSDOF 4
ENDMDL
