MODEL 1
REMARK VINA RESULT: -5.673280984      0.000      0.000
REMARK  4 active torsions:
REMARK  status: ('A' for Active; 'I' for Inactive)
REMARK    1  A    between atoms: C3_3  and  O1_4 
REMARK    2  A    between atoms: C5_7  and  C6_8 
REMARK    3  A    between atoms: C6_8  and  N1_9 
REMARK    4  A    between atoms: C8_14  and  O2_15 
ROOT
HETATM    1  C1  UNL     1      -3.073  21.319  -8.397  1.00  0.00     0.021 C 
HETATM    2  C2  UNL     1      -3.864  20.272  -7.652  1.00  0.00     0.015 A 
HETATM    3  C3  UNL     1      -5.233  19.985  -8.187  1.00  0.00     0.129 C 
HETATM    4  C4  UNL     1      -5.553  18.548  -7.846  1.00  0.00     0.039 C 
HETATM    5  C5  UNL     1      -4.277  17.903  -7.421  1.00  0.00     0.021 C 
HETATM    6  C7  UNL     1      -3.239  18.976  -7.313  1.00  0.00     0.034 A 
HETATM    7  C8  UNL     1      -3.494  20.009  -6.255  1.00  0.00     0.134 A 
ENDROOT
BRANCH   5   8
HETATM    8  C6  UNL     1      -3.848  16.761  -8.309  1.00  0.00     0.234 C 
BRANCH   8   9
HETATM    9  N1  UNL     1      -5.028  16.297  -9.010  1.00  0.00    -0.079 N 
ATOM     10  H13 UNL     1      -5.183  16.780  -9.896  1.00  0.00     0.274 HD
ATOM     11  H12 UNL     1      -4.923  15.356  -9.390  1.00  0.00     0.274 HD
ATOM     12  H11 UNL     1      -5.814  16.383  -8.365  1.00  0.00     0.274 HD
ENDBRANCH   8   9
ENDBRANCH   5   8
BRANCH   3  13
HETATM   13  O1  UNL     1      -6.202  20.850  -7.750  1.00  0.00    -0.395 OA
ATOM     14  H1  UNL     1      -7.012  20.813  -8.246  1.00  0.00     0.210 HD
ENDBRANCH   3  13
BRANCH   7  15
HETATM   15  O2  UNL     1      -4.446  19.763  -5.271  1.00  0.00    -0.394 OA
ATOM     16  H2  UNL     1      -4.254  19.240  -4.501  1.00  0.00     0.210 HD
ENDBRANCH   7  15
TORSDOF 4
ENDMDL
MODEL 2
REMARK VINA RESULT: -5.640794271      2.036      2.748
REMARK  4 active torsions:
REMARK  status: ('A' for Active; 'I' for Inactive)
REMARK    1  A    between atoms: C3_3  and  O1_4 
REMARK    2  A    between atoms: C5_7  and  C6_8 
REMARK    3  A    between atoms: C6_8  and  N1_9 
REMARK    4  A    between atoms: C8_14  and  O2_15 
ROOT
HETATM    1  C1  UNL     1      -3.282  20.463  -9.753  1.00  0.00     0.021 C 
HETATM    2  C2  UNL     1      -4.168  20.018  -8.615  1.00  0.00     0.015 A 
HETATM    3  C3  UNL     1      -4.338  18.539  -8.461  1.00  0.00     0.129 C 
HETATM    4  C4  UNL     1      -4.593  18.269  -6.996  1.00  0.00     0.039 C 
HETATM    5  C5  UNL     1      -4.246  19.515  -6.254  1.00  0.00     0.021 C 
HETATM    6  C7  UNL     1      -3.977  20.586  -7.264  1.00  0.00     0.034 A 
HETATM    7  C8  UNL     1      -5.154  20.981  -8.108  1.00  0.00     0.134 A 
ENDROOT
BRANCH   5   8
HETATM    8  C6  UNL     1      -3.116  19.342  -5.270  1.00  0.00     0.234 C 
BRANCH   8   9
HETATM    9  N1  UNL     1      -2.247  18.308  -5.794  1.00  0.00    -0.079 N 
ATOM     10  H13 UNL     1      -1.292  18.370  -5.438  1.00  0.00     0.274 HD
ATOM     11  H12 UNL     1      -2.463  17.381  -5.428  1.00  0.00     0.274 HD
ATOM     12  H11 UNL     1      -2.298  18.359  -6.811  1.00  0.00     0.274 HD
ENDBRANCH   8   9
ENDBRANCH   5   8
BRANCH   3  13
HETATM   13  O1  UNL     1      -5.307  17.996  -9.265  1.00  0.00    -0.395 OA
ATOM     14  H1  UNL     1      -5.853  17.348  -8.836  1.00  0.00     0.210 HD
ENDBRANCH   3  13
BRANCH   7  15
HETATM   15  O2  UNL     1      -6.434  20.597  -7.723  1.00  0.00    -0.394 OA
ATOM     16  H2  UNL     1      -6.766  20.751  -6.846  1.00  0.00     0.210 HD
ENDBRANCH   7  15
TORSDOF 4
ENDMDL
MODEL 3
REMARK VINA RESULT: -5.630474167      2.356      3.815
REMARK  4 active torsions:
REMARK  status: ('A' for Active; 'I' for Inactive)
REMARK    1  A    between atoms: C3_3  and  O1_4 
REMARK    2  A    between atoms: C5_7  and  C6_8 
REMARK    3  A    between atoms: C6_8  and  N1_9 
REMARK    4  A    between atoms: C8_14  and  O2_15 
ROOT
HETATM    1  C1  UNL     1      -4.274  17.319  -8.143  1.00  0.00     0.021 C 
HETATM    2  C2  UNL     1      -4.645  18.689  -7.633  1.00  0.00     0.015 A 
HETATM    3  C3  UNL     1      -4.114  19.048  -6.280  1.00  0.00     0.129 C 
HETATM    4  C4  UNL     1      -3.948  20.550  -6.249  1.00  0.00     0.039 C 
HETATM    5  C5  UNL     1      -4.055  21.032  -7.656  1.00  0.00     0.021 C 
HETATM    6  C7  UNL     1      -4.479  19.873  -8.503  1.00  0.00     0.034 A 
HETATM    7  C8  UNL     1      -5.842  19.324  -8.201  1.00  0.00     0.134 A 
ENDROOT
BRANCH   5   8
HETATM    8  C6  UNL     1      -2.804  21.704  -8.166  1.00  0.00     0.234 C 
BRANCH   8   9
HETATM    9  N1  UNL     1      -2.801  23.055  -7.645  1.00  0.00    -0.079 N 
ATOM     10  H13 UNL     1      -3.183  23.121  -6.701  1.00  0.00     0.274 HD
ATOM     11  H12 UNL     1      -1.864  23.399  -7.431  1.00  0.00     0.274 HD
ATOM     12  H11 UNL     1      -3.297  23.639  -8.319  1.00  0.00     0.274 HD
ENDBRANCH   8   9
ENDBRANCH   5   8
BRANCH   3  13
HETATM   13  O1  UNL     1      -4.873  18.589  -5.235  1.00  0.00    -0.395 OA
ATOM     14  H1  UNL     1      -5.010  17.648  -5.235  1.00  0.00     0.210 HD
ENDBRANCH   3  13
BRANCH   7  15
HETATM   15  O2  UNL     1      -6.726  20.067  -7.426  1.00  0.00    -0.394 OA
ATOM     16  H2  UNL     1      -6.861  20.997  -7.564  1.00  0.00     0.210 HD
ENDBRANCH   7  15
TORSDOF 4
ENDMDL
MODEL 4
REMARK VINA RESULT: -5.623036242      1.748      3.476
REMARK  4 active torsions:
REMARK  status: ('A' for Active; 'I' for Inactive)
REMARK    1  A    between atoms: C3_3  and  O1_4 
REMARK    2  A    between atoms: C5_7  and  C6_8 
REMARK    3  A    between atoms: C6_8  and  N1_9 
REMARK    4  A    between atoms: C8_14  and  O2_15 
ROOT
HETATM    1  C1  UNL     1      -3.910  16.695  -8.208  1.00  0.00     0.021 C 
HETATM    2  C2  UNL     1      -3.979  18.076  -7.602  1.00  0.00     0.015 A 
HETATM    3  C3  UNL     1      -2.773  18.510  -6.827  1.00  0.00     0.129 C 
HETATM    4  C4  UNL     1      -2.696  20.016  -6.928  1.00  0.00     0.039 C 
HETATM    5  C5  UNL     1      -3.634  20.431  -8.011  1.00  0.00     0.021 C 
HETATM    6  C7  UNL     1      -4.415  19.223  -8.425  1.00  0.00     0.034 A 
HETATM    7  C8  UNL     1      -5.312  18.648  -7.369  1.00  0.00     0.134 A 
ENDROOT
BRANCH   5   8
HETATM    8  C6  UNL     1      -2.956  21.116  -9.172  1.00  0.00     0.234 C 
BRANCH   8   9
HETATM    9  N1  UNL     1      -3.054  20.226 -10.311  1.00  0.00    -0.079 N 
ATOM     10  H13 UNL     1      -2.161  20.076 -10.780  1.00  0.00     0.274 HD
ATOM     11  H12 UNL     1      -3.228  19.256 -10.046  1.00  0.00     0.274 HD
ATOM     12  H11 UNL     1      -3.771  20.607 -10.929  1.00  0.00     0.274 HD
ENDBRANCH   8   9
ENDBRANCH   5   8
BRANCH   3  13
HETATM   13  O1  UNL     1      -2.751  18.075  -5.528  1.00  0.00    -0.395 OA
ATOM     14  H1  UNL     1      -3.184  18.656  -4.913  1.00  0.00     0.210 HD
ENDBRANCH   3  13
BRANCH   7  15
HETATM   15  O2  UNL     1      -5.608  19.399  -6.236  1.00  0.00    -0.394 OA
ATOM     16  H2  UNL     1      -6.430  19.306  -5.769  1.00  0.00     0.210 HD
ENDBRANCH   7  15
TORSDOF 4
ENDMDL
MODEL 5
REMARK VINA RESULT: -5.509308101      0.965      1.011
REMARK  4 active torsions:
REMARK  status: ('A' for Active; 'I' for Inactive)
REMARK    1  A    between atoms: C3_3  and  O1_4 
REMARK    2  A    between atoms: C5_7  and  C6_8 
REMARK    3  A    between atoms: C6_8  and  N1_9 
REMARK    4  A    between atoms: C8_14  and  O2_15 
ROOT
HETATM    1  C1  UNL     1      -2.412  20.511  -7.106  1.00  0.00     0.021 C 
HETATM    2  C2  UNL     1      -3.597  19.587  -6.968  1.00  0.00     0.015 A 
HETATM    3  C3  UNL     1      -4.767  19.889  -7.854  1.00  0.00     0.129 C 
HETATM    4  C4  UNL     1      -5.476  18.581  -8.118  1.00  0.00     0.039 C 
HETATM    5  C5  UNL     1      -4.559  17.488  -7.681  1.00  0.00     0.021 C 
HETATM    6  C7  UNL     1      -3.398  18.122  -6.979  1.00  0.00     0.034 A 
HETATM    7  C8  UNL     1      -3.735  18.845  -5.708  1.00  0.00     0.134 A 
ENDROOT
BRANCH   5   8
HETATM    8  C6  UNL     1      -4.135  16.567  -8.798  1.00  0.00     0.234 C 
BRANCH   8   9
HETATM    9  N1  UNL     1      -4.716  17.081 -10.021  1.00  0.00    -0.079 N 
ATOM     10  H13 UNL     1      -5.657  16.728 -10.196  1.00  0.00     0.274 HD
ATOM     11  H12 UNL     1      -4.957  18.071  -9.963  1.00  0.00     0.274 HD
ATOM     12  H11 UNL     1      -4.063  16.871 -10.776  1.00  0.00     0.274 HD
ENDBRANCH   8   9
ENDBRANCH   5   8
BRANCH   3  13
HETATM   13  O1  UNL     1      -5.614  20.848  -7.362  1.00  0.00    -0.395 OA
ATOM     14  H1  UNL     1      -6.533  20.611  -7.393  1.00  0.00     0.210 HD
ENDBRANCH   3  13
BRANCH   7  15
HETATM   15  O2  UNL     1      -4.970  18.633  -5.105  1.00  0.00    -0.394 OA
ATOM     16  H2  UNL     1      -5.380  19.285  -4.548  1.00  0.00     0.210 HD
ENDBRANCH   7  15
TORSDOF 4
ENDMDL
