MODEL 1
REMARK VINA RESULT: -5.551922108      0.000      0.000
REMARK  2 active torsions:
REMARK  status: ('A' for Active; 'I' for Inactive)
REMARK    1  A    between atoms: N1_2  and  C2_5 
REMARK    2  A    between atoms: N3_12  and  N4_13 
ROOT
HETATM    1  C2  UNL     1      -4.499  18.284  -8.237  1.00  0.00     0.350 C 
HETATM    2  C3  UNL     1      -4.504  18.262  -6.828  1.00  0.00    -0.119 C 
HETATM    3  C4  UNL     1      -4.288  18.361  -5.433  1.00  0.00     0.177 C 
HETATM    4  N2  UNL     1      -2.953  18.997  -5.214  1.00  0.00    -0.286 NA
HETATM    5  C5  UNL     1      -3.120  20.235  -4.537  1.00  0.00     0.116 C 
HETATM    6  C6  UNL     1      -2.127  19.019  -6.382  1.00  0.00     0.073 C 
HETATM    7  C7  UNL     1      -2.492  19.574  -7.656  1.00  0.00     0.097 C 
HETATM    8  N3  UNL     1      -3.171  18.806  -8.692  1.00  0.00    -0.172 NA
ENDROOT
BRANCH   1   9
HETATM    9  N1  UNL     1      -5.551  19.084  -8.899  1.00  0.00    -0.051 N 
HETATM   10  C1  UNL     1      -6.212  19.957  -8.007  1.00  0.00     0.270 C 
ATOM     11  H12 UNL     1      -6.218  18.484  -9.384  1.00  0.00     0.279 HD
ATOM     12  H11 UNL     1      -5.176  19.594  -9.698  1.00  0.00     0.279 HD
ENDBRANCH   1   9
BRANCH   8  13
HETATM   13  N4  UNL     1      -3.304  19.580  -9.818  1.00  0.00    -0.357 NA
ATOM     14  H42 UNL     1      -4.277  19.564 -10.126  1.00  0.00     0.171 HD
ATOM     15  H41 UNL     1      -2.660  19.279 -10.549  1.00  0.00     0.171 HD
ENDBRANCH   8  13
TORSDOF 2
ENDMDL
MODEL 2
REMARK VINA RESULT: -5.505385335      1.568      2.308
REMARK  2 active torsions:
REMARK  status: ('A' for Active; 'I' for Inactive)
REMARK    1  A    between atoms: N1_2  and  C2_5 
REMARK    2  A    between atoms: N3_12  and  N4_13 
ROOT
HETATM    1  C2  UNL     1      -4.461  19.404  -8.862  1.00  0.00     0.350 C 
HETATM    2  C3  UNL     1      -4.322  20.271  -7.760  1.00  0.00    -0.119 C 
HETATM    3  C4  UNL     1      -4.150  20.929  -6.518  1.00  0.00     0.177 C 
HETATM    4  N2  UNL     1      -4.010  19.886  -5.456  1.00  0.00    -0.286 NA
HETATM    5  C5  UNL     1      -2.726  19.987  -4.856  1.00  0.00     0.116 C 
HETATM    6  C6  UNL     1      -4.415  18.579  -5.874  1.00  0.00     0.073 C 
HETATM    7  C7  UNL     1      -3.913  17.874  -7.021  1.00  0.00     0.097 C 
HETATM    8  N3  UNL     1      -4.500  17.997  -8.349  1.00  0.00    -0.172 NA
ENDROOT
BRANCH   1   9
HETATM    9  N1  UNL     1      -3.419  19.477  -9.908  1.00  0.00    -0.051 N 
HETATM   10  C1  UNL     1      -2.833  20.758 -10.004  1.00  0.00     0.270 C 
ATOM     11  H12 UNL     1      -3.783  19.172 -10.811  1.00  0.00     0.279 HD
ATOM     12  H11 UNL     1      -2.708  18.760  -9.766  1.00  0.00     0.279 HD
ENDBRANCH   1   9
BRANCH   8  13
HETATM   13  N4  UNL     1      -3.860  17.140  -9.211  1.00  0.00    -0.357 NA
ATOM     14  H42 UNL     1      -4.544  16.726  -9.845  1.00  0.00     0.171 HD
ATOM     15  H41 UNL     1      -3.328  16.436  -8.699  1.00  0.00     0.171 HD
ENDBRANCH   8  13
TORSDOF 2
ENDMDL
MODEL 3
REMARK VINA RESULT: -5.471831944      1.875      3.814
REMARK  2 active torsions:
REMARK  status: ('A' for Active; 'I' for Inactive)
REMARK    1  A    between atoms: N1_2  and  C2_5 
REMARK    2  A    between atoms: N3_12  and  N4_13 
ROOT
HETATM    1  C2  UNL     1      -3.089  20.972  -6.268  1.00  0.00     0.350 C 
HETATM    2  C3  UNL     1      -3.279  20.457  -7.566  1.00  0.00    -0.119 C 
HETATM    3  C4  UNL     1      -3.507  19.719  -8.752  1.00  0.00     0.177 C 
HETATM    4  N2  UNL     1      -3.700  18.285  -8.376  1.00  0.00    -0.286 NA
HETATM    5  C5  UNL     1      -5.011  17.870  -8.735  1.00  0.00     0.116 C 
HETATM    6  C6  UNL     1      -3.279  17.976  -7.044  1.00  0.00     0.073 C 
HETATM    7  C7  UNL     1      -3.727  18.638  -5.850  1.00  0.00     0.097 C 
HETATM    8  N3  UNL     1      -3.077  19.823  -5.306  1.00  0.00    -0.172 NA
ENDROOT
BRANCH   1   9
HETATM    9  N1  UNL     1      -4.080  21.957  -5.786  1.00  0.00    -0.051 N 
HETATM   10  C1  UNL     1      -4.298  23.005  -6.707  1.00  0.00     0.270 C 
ATOM     11  H12 UNL     1      -3.818  22.323  -4.871  1.00  0.00     0.279 HD
ATOM     12  H11 UNL     1      -4.957  21.501  -5.537  1.00  0.00     0.279 HD
ENDBRANCH   1   9
BRANCH   8  13
HETATM   13  N4  UNL     1      -3.677  20.167  -4.120  1.00  0.00    -0.357 NA
ATOM     14  H42 UNL     1      -2.959  20.418  -3.439  1.00  0.00     0.171 HD
ATOM     15  H41 UNL     1      -4.285  19.420  -3.786  1.00  0.00     0.171 HD
ENDBRANCH   8  13
TORSDOF 2
ENDMDL
MODEL 4
REMARK VINA RESULT: -5.433593986      1.540      2.218
REMARK  2 active torsions:
REMARK  status: ('A' for Active; 'I' for Inactive)
REMARK    1  A    between atoms: N1_2  and  C2_5 
REMARK    2  A    between atoms: N3_12  and  N4_13 
ROOT
HETATM    1  C2  UNL     1      -4.025  18.757  -8.408  1.00  0.00     0.350 C 
HETATM    2  C3  UNL     1      -3.027  18.769  -7.413  1.00  0.00    -0.119 C 
HETATM    3  C4  UNL     1      -2.128  19.001  -6.345  1.00  0.00     0.177 C 
HETATM    4  N2  UNL     1      -2.449  20.335  -5.751  1.00  0.00    -0.286 NA
HETATM    5  C5  UNL     1      -2.862  20.169  -4.401  1.00  0.00     0.116 C 
HETATM    6  C6  UNL     1      -3.289  21.147  -6.576  1.00  0.00     0.073 C 
HETATM    7  C7  UNL     1      -4.570  20.763  -7.101  1.00  0.00     0.097 C 
HETATM    8  N3  UNL     1      -4.733  20.076  -8.376  1.00  0.00    -0.172 NA
ENDROOT
BRANCH   1   9
HETATM    9  N1  UNL     1      -5.047  17.692  -8.320  1.00  0.00    -0.051 N 
HETATM   10  C1  UNL     1      -4.770  16.600  -9.170  1.00  0.00     0.270 C 
ATOM     11  H12 UNL     1      -5.980  18.064  -8.494  1.00  0.00     0.279 HD
ATOM     12  H11 UNL     1      -5.170  17.382  -7.356  1.00  0.00     0.279 HD
ENDBRANCH   1   9
BRANCH   8  13
HETATM   13  N4  UNL     1      -6.072  19.925  -8.643  1.00  0.00    -0.357 NA
ATOM     14  H42 UNL     1      -6.501  19.363  -7.907  1.00  0.00     0.171 HD
ATOM     15  H41 UNL     1      -6.218  19.527  -9.571  1.00  0.00     0.171 HD
ENDBRANCH   8  13
TORSDOF 2
ENDMDL
MODEL 5
REMARK VINA RESULT: -5.385411363      1.827      3.075
REMARK  2 active torsions:
REMARK  status: ('A' for Active; 'I' for Inactive)
REMARK    1  A    between atoms: N1_2  and  C2_5 
REMARK    2  A    between atoms: N3_12  and  N4_13 
ROOT
HETATM    1  C2  UNL     1      -4.253  17.982  -6.996  1.00  0.00     0.350 C 
HETATM    2  C3  UNL     1      -5.018  19.039  -7.528  1.00  0.00    -0.119 C 
HETATM    3  C4  UNL     1      -5.600  20.249  -7.978  1.00  0.00     0.177 C 
HETATM    4  N2  UNL     1      -4.723  21.377  -7.538  1.00  0.00    -0.286 NA
HETATM    5  C5  UNL     1      -4.209  22.053  -8.676  1.00  0.00     0.116 C 
HETATM    6  C6  UNL     1      -3.772  21.010  -6.534  1.00  0.00     0.073 C 
HETATM    7  C7  UNL     1      -2.817  19.941  -6.637  1.00  0.00     0.097 C 
HETATM    8  N3  UNL     1      -3.109  18.572  -6.230  1.00  0.00    -0.172 NA
ENDROOT
BRANCH   1   9
HETATM    9  N1  UNL     1      -3.700  17.005  -7.958  1.00  0.00    -0.051 N 
HETATM   10  C1  UNL     1      -4.536  16.811  -9.078  1.00  0.00     0.270 C 
ATOM     11  H12 UNL     1      -3.490  16.118  -7.499  1.00  0.00     0.279 HD
ATOM     12  H11 UNL     1      -2.758  17.268  -8.246  1.00  0.00     0.279 HD
ENDBRANCH   1   9
BRANCH   8  13
HETATM   13  N4  UNL     1      -1.977  17.806  -6.366  1.00  0.00    -0.357 NA
ATOM     14  H42 UNL     1      -2.211  16.942  -6.855  1.00  0.00     0.171 HD
ATOM     15  H41 UNL     1      -1.540  17.635  -5.461  1.00  0.00     0.171 HD
ENDBRANCH   8  13
TORSDOF 2
ENDMDL
