MODEL 1
REMARK VINA RESULT: -6.236621674      0.000      0.000
REMARK  4 active torsions:
REMARK  status: ('A' for Active; 'I' for Inactive)
REMARK    1  A    between atoms: N1_1  and  C1_5 
REMARK    2  A    between atoms: C6_10  and  C7_11 
REMARK    3  A    between atoms: C7_11  and  O1_12 
REMARK    4  A    between atoms: C8_14  and  O2_15 
ROOT
HETATM    1  C1  UNL     1      -2.611  19.093  -6.843  1.00  0.00     0.188 C 
HETATM    2  C2  UNL     1      -3.444  20.375  -6.821  1.00  0.00     0.040 C 
HETATM    3  C3  UNL     1      -4.835  19.891  -7.066  1.00  0.00     0.017 C 
HETATM    4  C4  UNL     1      -4.800  18.567  -6.292  1.00  0.00     0.014 C 
HETATM    5  C5  UNL     1      -3.625  17.970  -7.082  1.00  0.00     0.025 C 
HETATM    6  C6  UNL     1      -4.079  18.109  -8.488  1.00  0.00     0.044 C 
HETATM    7  C8  UNL     1      -4.902  19.360  -8.485  1.00  0.00     0.128 C 
ENDROOT
BRANCH   1   8
HETATM    8  N1  UNL     1      -1.949  18.847  -5.603  1.00  0.00    -0.075 N 
ATOM      9  H13 UNL     1      -1.459  19.681  -5.278  1.00  0.00     0.274 HD
ATOM     10  H12 UNL     1      -2.621  18.744  -4.843  1.00  0.00     0.274 HD
ATOM     11  H11 UNL     1      -1.319  18.047  -5.646  1.00  0.00     0.274 HD
ENDBRANCH   1   8
BRANCH   6  12
HETATM   12  C7  UNL     1      -4.782  16.907  -9.032  1.00  0.00     0.171 C 
BRANCH  12  13
HETATM   13  O1  UNL     1      -5.116  16.985 -10.362  1.00  0.00    -0.400 OA
ATOM     14  H1  UNL     1      -5.893  16.498 -10.609  1.00  0.00     0.209 HD
ENDBRANCH  12  13
ENDBRANCH   6  12
BRANCH   7  15
HETATM   15  O2  UNL     1      -6.186  19.172  -8.934  1.00  0.00    -0.395 OA
ATOM     16  H2  UNL     1      -6.285  18.396  -9.473  1.00  0.00     0.210 HD
ENDBRANCH   7  15
TORSDOF 4
ENDMDL
MODEL 2
REMARK VINA RESULT: -5.763624017      2.859      3.714
REMARK  4 active torsions:
REMARK  status: ('A' for Active; 'I' for Inactive)
REMARK    1  A    between atoms: N1_1  and  C1_5 
REMARK    2  A    between atoms: C6_10  and  C7_11 
REMARK    3  A    between atoms: C7_11  and  O1_12 
REMARK    4  A    between atoms: C8_14  and  O2_15 
ROOT
HETATM    1  C1  UNL     1      -3.648  18.801  -8.890  1.00  0.00     0.188 C 
HETATM    2  C2  UNL     1      -5.048  18.306  -8.527  1.00  0.00     0.040 C 
HETATM    3  C3  UNL     1      -5.318  18.958  -7.211  1.00  0.00     0.017 C 
HETATM    4  C4  UNL     1      -4.636  20.313  -7.436  1.00  0.00     0.014 C 
HETATM    5  C5  UNL     1      -3.248  19.726  -7.737  1.00  0.00     0.025 C 
HETATM    6  C6  UNL     1      -3.008  18.851  -6.562  1.00  0.00     0.044 C 
HETATM    7  C8  UNL     1      -4.372  18.358  -6.189  1.00  0.00     0.128 C 
ENDROOT
BRANCH   1   8
HETATM    8  N1  UNL     1      -3.630  19.556 -10.101  1.00  0.00    -0.075 N 
ATOM      9  H13 UNL     1      -4.206  19.113 -10.817  1.00  0.00     0.274 HD
ATOM     10  H12 UNL     1      -4.143  20.431  -9.995  1.00  0.00     0.274 HD
ATOM     11  H11 UNL     1      -2.685  19.725 -10.444  1.00  0.00     0.274 HD
ENDBRANCH   1   8
BRANCH   6  12
HETATM   12  C7  UNL     1      -2.259  19.505  -5.446  1.00  0.00     0.171 C 
BRANCH  12  13
HETATM   13  O1  UNL     1      -0.917  19.219  -5.404  1.00  0.00    -0.400 OA
ATOM     14  H1  UNL     1      -0.660  18.601  -4.730  1.00  0.00     0.209 HD
ENDBRANCH  12  13
ENDBRANCH   6  12
BRANCH   7  15
HETATM   15  O2  UNL     1      -4.722  18.644  -4.892  1.00  0.00    -0.395 OA
ATOM     16  H2  UNL     1      -3.998  18.972  -4.371  1.00  0.00     0.210 HD
ENDBRANCH   7  15
TORSDOF 4
ENDMDL
MODEL 3
REMARK VINA RESULT: -5.726474196      3.070      4.199
REMARK  4 active torsions:
REMARK  status: ('A' for Active; 'I' for Inactive)
REMARK    1  A    between atoms: N1_1  and  C1_5 
REMARK    2  A    between atoms: C6_10  and  C7_11 
REMARK    3  A    between atoms: C7_11  and  O1_12 
REMARK    4  A    between atoms: C8_14  and  O2_15 
ROOT
HETATM    1  C1  UNL     1      -4.759  20.423  -7.498  1.00  0.00     0.188 C 
HETATM    2  C2  UNL     1      -4.072  19.441  -8.446  1.00  0.00     0.040 C 
HETATM    3  C3  UNL     1      -3.393  18.484  -7.523  1.00  0.00     0.017 C 
HETATM    4  C4  UNL     1      -4.432  18.409  -6.399  1.00  0.00     0.014 C 
HETATM    5  C5  UNL     1      -4.422  19.915  -6.093  1.00  0.00     0.025 C 
HETATM    6  C6  UNL     1      -2.978  20.190  -5.885  1.00  0.00     0.044 C 
HETATM    7  C8  UNL     1      -2.286  19.232  -6.805  1.00  0.00     0.128 C 
ENDROOT
BRANCH   1   8
HETATM    8  N1  UNL     1      -6.179  20.428  -7.647  1.00  0.00    -0.075 N 
ATOM      9  H13 UNL     1      -6.602  19.644  -7.151  1.00  0.00     0.274 HD
ATOM     10  H12 UNL     1      -6.599  21.198  -7.127  1.00  0.00     0.274 HD
ATOM     11  H11 UNL     1      -6.471  20.443  -8.625  1.00  0.00     0.274 HD
ENDBRANCH   1   8
BRANCH   6  12
HETATM   12  C7  UNL     1      -2.532  20.111  -4.461  1.00  0.00     0.171 C 
BRANCH  12  13
HETATM   13  O1  UNL     1      -3.542  20.190  -3.533  1.00  0.00    -0.400 OA
ATOM     14  H1  UNL     1      -4.036  21.002  -3.546  1.00  0.00     0.209 HD
ENDBRANCH  12  13
ENDBRANCH   6  12
BRANCH   7  15
HETATM   15  O2  UNL     1      -1.397  18.403  -6.165  1.00  0.00    -0.395 OA
ATOM     16  H2  UNL     1      -0.535  18.787  -6.061  1.00  0.00     0.210 HD
ENDBRANCH   7  15
TORSDOF 4
ENDMDL
MODEL 4
REMARK VINA RESULT: -5.605044885      3.087      4.034
REMARK  4 active torsions:
REMARK  status: ('A' for Active; 'I' for Inactive)
REMARK    1  A    between atoms: N1_1  and  C1_5 
REMARK    2  A    between atoms: C6_10  and  C7_11 
REMARK    3  A    between atoms: C7_11  and  O1_12 
REMARK    4  A    between atoms: C8_14  and  O2_15 
ROOT
HETATM    1  C1  UNL     1      -3.836  18.769  -8.341  1.00  0.00     0.188 C 
HETATM    2  C2  UNL     1      -3.803  17.849  -7.122  1.00  0.00     0.040 C 
HETATM    3  C3  UNL     1      -4.490  18.647  -6.064  1.00  0.00     0.017 C 
HETATM    4  C4  UNL     1      -5.563  19.346  -6.907  1.00  0.00     0.014 C 
HETATM    5  C5  UNL     1      -4.573  20.025  -7.866  1.00  0.00     0.025 C 
HETATM    6  C6  UNL     1      -3.651  20.723  -6.934  1.00  0.00     0.044 C 
HETATM    7  C8  UNL     1      -3.609  19.836  -5.729  1.00  0.00     0.128 C 
ENDROOT
BRANCH   1   8
HETATM    8  N1  UNL     1      -4.562  18.207  -9.434  1.00  0.00    -0.075 N 
ATOM      9  H13 UNL     1      -3.979  18.145 -10.268  1.00  0.00     0.274 HD
ATOM     10  H12 UNL     1      -4.740  17.213  -9.283  1.00  0.00     0.274 HD
ATOM     11  H11 UNL     1      -5.428  18.708  -9.629  1.00  0.00     0.274 HD
ENDBRANCH   1   8
BRANCH   6  12
HETATM   12  C7  UNL     1      -4.022  22.142  -6.645  1.00  0.00     0.171 C 
BRANCH  12  13
HETATM   13  O1  UNL     1      -3.152  22.810  -5.819  1.00  0.00    -0.400 OA
ATOM     14  H1  UNL     1      -3.168  23.756  -5.902  1.00  0.00     0.209 HD
ENDBRANCH  12  13
ENDBRANCH   6  12
BRANCH   7  15
HETATM   15  O2  UNL     1      -3.975  20.471  -4.567  1.00  0.00    -0.395 OA
ATOM     16  H2  UNL     1      -4.368  21.324  -4.714  1.00  0.00     0.210 HD
ENDBRANCH   7  15
TORSDOF 4
ENDMDL
MODEL 5
REMARK VINA RESULT: -5.498272155      2.993      3.917
REMARK  4 active torsions:
REMARK  status: ('A' for Active; 'I' for Inactive)
REMARK    1  A    between atoms: N1_1  and  C1_5 
REMARK    2  A    between atoms: C6_10  and  C7_11 
REMARK    3  A    between atoms: C7_11  and  O1_12 
REMARK    4  A    between atoms: C8_14  and  O2_15 
ROOT
HETATM    1  C1  UNL     1      -4.887  20.268  -7.775  1.00  0.00     0.188 C 
HETATM    2  C2  UNL     1      -4.844  18.920  -8.494  1.00  0.00     0.040 C 
HETATM    3  C3  UNL     1      -4.280  17.995  -7.467  1.00  0.00     0.017 C 
HETATM    4  C4  UNL     1      -4.932  18.566  -6.202  1.00  0.00     0.014 C 
HETATM    5  C5  UNL     1      -4.354  19.980  -6.368  1.00  0.00     0.025 C 
HETATM    6  C6  UNL     1      -2.901  19.717  -6.518  1.00  0.00     0.044 C 
HETATM    7  C8  UNL     1      -2.838  18.396  -7.219  1.00  0.00     0.128 C 
ENDROOT
BRANCH   1   8
HETATM    8  N1  UNL     1      -6.213  20.786  -7.657  1.00  0.00    -0.075 N 
ATOM      9  H13 UNL     1      -6.205  21.805  -7.610  1.00  0.00     0.274 HD
ATOM     10  H12 UNL     1      -6.731  20.665  -8.527  1.00  0.00     0.274 HD
ATOM     11  H11 UNL     1      -6.721  20.387  -6.868  1.00  0.00     0.274 HD
ENDBRANCH   1   8
BRANCH   6  12
HETATM   12  C7  UNL     1      -2.126  19.777  -5.241  1.00  0.00     0.171 C 
BRANCH  12  13
HETATM   13  O1  UNL     1      -0.813  19.390  -5.341  1.00  0.00    -0.400 OA
ATOM     14  H1  UNL     1      -0.301  19.870  -5.981  1.00  0.00     0.209 HD
ENDBRANCH  12  13
ENDBRANCH   6  12
BRANCH   7  15
HETATM   15  O2  UNL     1      -2.121  17.445  -6.533  1.00  0.00    -0.395 OA
ATOM     16  H2  UNL     1      -2.025  16.631  -7.013  1.00  0.00     0.210 HD
ENDBRANCH   7  15
TORSDOF 4
ENDMDL
