MODEL 1
REMARK VINA RESULT: -5.936818874      0.000      0.000
REMARK  8 active torsions:
REMARK  status: ('A' for Active; 'I' for Inactive)
REMARK    1  A    between atoms: C2_2  and  O1_3 
REMARK    2  A    between atoms: C8_16  and  N4_17 
REMARK       I    between atoms: N4_17  and  C9_19 
REMARK    3  A    between atoms: C9_19  and  C10_21 
REMARK    4  A    between atoms: C10_21  and  C11_22 
REMARK    5  A    between atoms: C11_22  and  O3_23 
REMARK    6  A    between atoms: N5_25  and  N6_27 
REMARK    7  A    between atoms: N6_27  and  N7_29 
REMARK    8  A    between atoms: C12_34  and  O4_35 
ROOT
HETATM    1  C1  UNL     1      46.273  12.757  10.793  1.00  0.00     0.054 C 
HETATM    2  C2  UNL     1      47.510  12.746   9.979  1.00  0.00     0.114 C 
HETATM    3  C3  UNL     1      48.209  11.372   9.973  1.00  0.00     0.163 C 
HETATM    4  N1  UNL     1      49.541  11.766   9.531  1.00  0.00    -0.385 N 
ATOM      5  H1  UNL     1      50.181  11.168   9.008  1.00  0.00     0.159 HD
HETATM    6  C4  UNL     1      49.800  13.001   9.903  1.00  0.00     0.080 C 
HETATM    7  C5  UNL     1      48.645  13.513  10.629  1.00  0.00     0.068 C 
HETATM    8  N2  UNL     1      48.600  14.360  11.544  1.00  0.00    -0.387 N 
ATOM      9  H2  UNL     1      47.660  14.553  11.891  1.00  0.00     0.159 HD
HETATM   10  C6  UNL     1      49.630  15.106  12.191  1.00  0.00     0.140 C 
HETATM   11  C7  UNL     1      50.633  14.211  12.880  1.00  0.00     0.157 C 
HETATM   12  N3  UNL     1      51.993  14.466  12.603  1.00  0.00    -0.225 N 
ATOM     13  H3  UNL     1      52.501  14.977  13.324  1.00  0.00     0.177 HD
HETATM   14  C8  UNL     1      52.684  14.139  11.554  1.00  0.00     0.679 C 
HETATM   15  N8  UNL     1      52.158  13.421  10.465  1.00  0.00    -0.194 N 
ATOM     16  H8  UNL     1      52.625  12.542  10.240  1.00  0.00     0.180 HD
HETATM   17  C12 UNL     1      51.038  13.776   9.628  1.00  0.00     0.287 C 
ENDROOT
BRANCH  14  18
HETATM   18  N4  UNL     1      54.050  14.539  11.566  1.00  0.00    -0.155 N 
HETATM   19  C9  UNL     1      54.722  15.208  10.534  1.00  0.00     0.285 C 
HETATM   20  O2  UNL     1      54.020  15.477   9.498  1.00  0.00    -0.265 OA
ATOM     21  H4  UNL     1      54.589  14.320  12.403  1.00  0.00     0.187 HD
BRANCH  19  22
HETATM   22  C10 UNL     1      56.088  15.599  10.549  1.00  0.00     0.118 C 
HETATM   23  N5  UNL     1      56.977  15.458   9.676  1.00  0.00    -0.283 N 
ATOM     24  H5  UNL     1      57.873  15.843   9.974  1.00  0.00     0.188 HD
BRANCH  22  25
HETATM   25  C11 UNL     1      56.562  16.300  11.820  1.00  0.00     0.228 C 
BRANCH  25  26
HETATM   26  O3  UNL     1      56.693  15.402  12.872  1.00  0.00    -0.395 OA
ATOM     27  H3  UNL     1      55.852  15.215  13.273  1.00  0.00     0.209 HD
ENDBRANCH  25  26
ENDBRANCH  22  25
BRANCH  23  28
HETATM   28  N6  UNL     1      57.038  14.922   8.438  1.00  0.00    -0.249 N 
ATOM     29  H6  UNL     1      57.620  14.102   8.266  1.00  0.00     0.207 HD
BRANCH  28  30
HETATM   30  N7  UNL     1      56.302  15.492   7.391  1.00  0.00    -0.331 N 
ATOM     31  H72 UNL     1      56.069  16.485   7.432  1.00  0.00     0.178 HD
ATOM     32  H71 UNL     1      56.008  14.916   6.602  1.00  0.00     0.178 HD
ENDBRANCH  28  30
ENDBRANCH  23  28
ENDBRANCH  19  22
ENDBRANCH  14  18
BRANCH  17  33
HETATM   33  O4  UNL     1      51.384  13.462   8.279  1.00  0.00    -0.370 OA
ATOM     34  H4  UNL     1      52.261  13.808   8.160  1.00  0.00     0.212 HD
ENDBRANCH  17  33
BRANCH   2  35
HETATM   35  O1  UNL     1      47.390  13.194   8.687  1.00  0.00    -0.382 OA
ATOM     36  H1  UNL     1      46.629  12.890   8.206  1.00  0.00     0.211 HD
ENDBRANCH   2  35
TORSDOF 8
ENDMDL
MODEL 2
REMARK VINA RESULT: -5.894694355      3.219      5.026
REMARK  8 active torsions:
REMARK  status: ('A' for Active; 'I' for Inactive)
REMARK    1  A    between atoms: C2_2  and  O1_3 
REMARK    2  A    between atoms: C8_16  and  N4_17 
REMARK       I    between atoms: N4_17  and  C9_19 
REMARK    3  A    between atoms: C9_19  and  C10_21 
REMARK    4  A    between atoms: C10_21  and  C11_22 
REMARK    5  A    between atoms: C11_22  and  O3_23 
REMARK    6  A    between atoms: N5_25  and  N6_27 
REMARK    7  A    between atoms: N6_27  and  N7_29 
REMARK    8  A    between atoms: C12_34  and  O4_35 
ROOT
HETATM    1  C1  UNL     1      51.529  15.132  13.938  1.00  0.00     0.054 C 
HETATM    2  C2  UNL     1      51.843  15.042  12.494  1.00  0.00     0.114 C 
HETATM    3  C3  UNL     1      52.208  13.611  12.049  1.00  0.00     0.163 C 
HETATM    4  N1  UNL     1      52.887  13.900  10.793  1.00  0.00    -0.385 N 
ATOM      5  H1  UNL     1      52.924  13.270   9.992  1.00  0.00     0.159 HD
HETATM    6  C4  UNL     1      53.447  15.090  10.839  1.00  0.00     0.080 C 
HETATM    7  C5  UNL     1      53.177  15.675  12.145  1.00  0.00     0.068 C 
HETATM    8  N2  UNL     1      53.860  16.484  12.805  1.00  0.00    -0.387 N 
ATOM      9  H2  UNL     1      53.450  16.747  13.701  1.00  0.00     0.159 HD
HETATM   10  C6  UNL     1      55.115  17.106  12.528  1.00  0.00     0.140 C 
HETATM   11  C7  UNL     1      56.224  16.094  12.355  1.00  0.00     0.157 C 
HETATM   12  N3  UNL     1      57.025  16.236  11.202  1.00  0.00    -0.225 N 
ATOM     13  H3  UNL     1      57.937  16.668  11.349  1.00  0.00     0.177 HD
HETATM   14  C8  UNL     1      56.758  15.892   9.979  1.00  0.00     0.679 C 
HETATM   15  N8  UNL     1      55.558  15.270   9.588  1.00  0.00    -0.194 N 
ATOM     16  H8  UNL     1      55.652  14.363   9.132  1.00  0.00     0.180 HD
HETATM   17  C12 UNL     1      54.212  15.760   9.754  1.00  0.00     0.287 C 
ENDROOT
BRANCH  14  18
HETATM   18  N4  UNL     1      57.777  16.165   9.024  1.00  0.00    -0.155 N 
HETATM   19  C9  UNL     1      58.281  15.265   8.076  1.00  0.00     0.285 C 
HETATM   20  O2  UNL     1      57.756  14.098   8.086  1.00  0.00    -0.265 OA
ATOM     21  H4  UNL     1      58.178  17.103   9.031  1.00  0.00     0.187 HD
BRANCH  19  22
HETATM   22  C10 UNL     1      59.304  15.541   7.129  1.00  0.00     0.118 C 
HETATM   23  N5  UNL     1      60.252  14.823   6.733  1.00  0.00    -0.283 N 
ATOM     24  H5  UNL     1      60.832  15.297   6.041  1.00  0.00     0.188 HD
BRANCH  22  25
HETATM   25  C11 UNL     1      59.254  16.926   6.487  1.00  0.00     0.228 C 
BRANCH  25  26
HETATM   26  O3  UNL     1      59.656  17.911   7.381  1.00  0.00    -0.395 OA
ATOM     27  H3  UNL     1      58.955  18.137   7.982  1.00  0.00     0.209 HD
ENDBRANCH  25  26
ENDBRANCH  22  25
BRANCH  23  28
HETATM   28  N6  UNL     1      60.694  13.575   6.999  1.00  0.00    -0.249 N 
ATOM     29  H6  UNL     1      61.542  13.440   7.550  1.00  0.00     0.207 HD
BRANCH  28  30
HETATM   30  N7  UNL     1      59.986  12.465   6.517  1.00  0.00    -0.331 N 
ATOM     31  H72 UNL     1      60.257  12.055   5.623  1.00  0.00     0.178 HD
ATOM     32  H71 UNL     1      59.214  12.079   7.060  1.00  0.00     0.178 HD
ENDBRANCH  28  30
ENDBRANCH  23  28
ENDBRANCH  19  22
ENDBRANCH  14  18
BRANCH  17  33
HETATM   33  O4  UNL     1      53.491  15.473   8.556  1.00  0.00    -0.370 OA
ATOM     34  H4  UNL     1      53.743  16.155   7.944  1.00  0.00     0.212 HD
ENDBRANCH  17  33
BRANCH   2  35
HETATM   35  O1  UNL     1      50.902  15.553  11.635  1.00  0.00    -0.382 OA
ATOM     36  H1  UNL     1      51.221  16.155  10.973  1.00  0.00     0.211 HD
ENDBRANCH   2  35
TORSDOF 8
ENDMDL
MODEL 3
REMARK VINA RESULT: -5.740402773      2.884      4.168
REMARK  8 active torsions:
REMARK  status: ('A' for Active; 'I' for Inactive)
REMARK    1  A    between atoms: C2_2  and  O1_3 
REMARK    2  A    between atoms: C8_16  and  N4_17 
REMARK       I    between atoms: N4_17  and  C9_19 
REMARK    3  A    between atoms: C9_19  and  C10_21 
REMARK    4  A    between atoms: C10_21  and  C11_22 
REMARK    5  A    between atoms: C11_22  and  O3_23 
REMARK    6  A    between atoms: N5_25  and  N6_27 
REMARK    7  A    between atoms: N6_27  and  N7_29 
REMARK    8  A    between atoms: C12_34  and  O4_35 
ROOT
HETATM    1  C1  UNL     1      49.939  14.335  13.501  1.00  0.00     0.054 C 
HETATM    2  C2  UNL     1      50.568  14.355  12.160  1.00  0.00     0.114 C 
HETATM    3  C3  UNL     1      51.091  12.972  11.723  1.00  0.00     0.163 C 
HETATM    4  N1  UNL     1      52.015  13.370  10.670  1.00  0.00    -0.385 N 
ATOM      5  H1  UNL     1      52.257  12.798   9.861  1.00  0.00     0.159 HD
HETATM    6  C4  UNL     1      52.492  14.572  10.910  1.00  0.00     0.080 C 
HETATM    7  C5  UNL     1      51.913  15.056  12.156  1.00  0.00     0.068 C 
HETATM    8  N2  UNL     1      52.395  15.840  12.998  1.00  0.00    -0.387 N 
ATOM      9  H2  UNL     1      51.785  16.027  13.794  1.00  0.00     0.159 HD
HETATM   10  C6  UNL     1      53.648  16.522  13.045  1.00  0.00     0.140 C 
HETATM   11  C7  UNL     1      54.816  15.564  13.063  1.00  0.00     0.157 C 
HETATM   12  N3  UNL     1      55.842  15.812  12.128  1.00  0.00    -0.225 N 
ATOM     13  H3  UNL     1      56.677  16.264  12.500  1.00  0.00     0.177 HD
HETATM   14  C8  UNL     1      55.868  15.544  10.858  1.00  0.00     0.679 C 
HETATM   15  N8  UNL     1      54.815  14.910  10.173  1.00  0.00    -0.194 N 
ATOM     16  H8  UNL     1      55.051  14.040   9.696  1.00  0.00     0.180 HD
HETATM   17  C12 UNL     1      53.443  15.341  10.064  1.00  0.00     0.287 C 
ENDROOT
BRANCH  14  18
HETATM   18  N4  UNL     1      57.058  15.917  10.172  1.00  0.00    -0.155 N 
HETATM   19  C9  UNL     1      57.651  17.186  10.181  1.00  0.00     0.285 C 
HETATM   20  O2  UNL     1      57.052  18.073  10.883  1.00  0.00    -0.265 OA
ATOM     21  H4  UNL     1      57.522  15.193   9.623  1.00  0.00     0.187 HD
BRANCH  19  22
HETATM   22  C10 UNL     1      58.836  17.555   9.489  1.00  0.00     0.118 C 
HETATM   23  N5  UNL     1      59.602  18.532   9.665  1.00  0.00    -0.283 N 
ATOM     24  H5  UNL     1      60.380  18.534   9.006  1.00  0.00     0.188 HD
BRANCH  22  25
HETATM   25  C11 UNL     1      59.254  16.626   8.352  1.00  0.00     0.228 C 
BRANCH  25  26
HETATM   26  O3  UNL     1      60.038  15.577   8.819  1.00  0.00    -0.395 OA
ATOM     27  H3  UNL     1      59.579  14.748   8.753  1.00  0.00     0.209 HD
ENDBRANCH  25  26
ENDBRANCH  22  25
BRANCH  23  28
HETATM   28  N6  UNL     1      59.647  19.583  10.511  1.00  0.00    -0.249 N 
ATOM     29  H6  UNL     1      59.321  19.478  11.472  1.00  0.00     0.207 HD
BRANCH  28  30
HETATM   30  N7  UNL     1      60.142  20.817  10.069  1.00  0.00    -0.331 N 
ATOM     31  H72 UNL     1      59.534  21.635  10.103  1.00  0.00     0.178 HD
ATOM     32  H71 UNL     1      61.098  20.887   9.721  1.00  0.00     0.178 HD
ENDBRANCH  28  30
ENDBRANCH  23  28
ENDBRANCH  19  22
ENDBRANCH  14  18
BRANCH  17  33
HETATM   33  O4  UNL     1      53.018  15.113   8.720  1.00  0.00    -0.370 OA
ATOM     34  H4  UNL     1      53.779  14.758   8.275  1.00  0.00     0.212 HD
ENDBRANCH  17  33
BRANCH   2  35
HETATM   35  O1  UNL     1      49.815  14.891  11.145  1.00  0.00    -0.382 OA
ATOM     36  H1  UNL     1      49.892  14.469  10.297  1.00  0.00     0.211 HD
ENDBRANCH   2  35
TORSDOF 8
ENDMDL
MODEL 4
REMARK VINA RESULT: -5.517601574      2.564      3.555
REMARK  8 active torsions:
REMARK  status: ('A' for Active; 'I' for Inactive)
REMARK    1  A    between atoms: C2_2  and  O1_3 
REMARK    2  A    between atoms: C8_16  and  N4_17 
REMARK       I    between atoms: N4_17  and  C9_19 
REMARK    3  A    between atoms: C9_19  and  C10_21 
REMARK    4  A    between atoms: C10_21  and  C11_22 
REMARK    5  A    between atoms: C11_22  and  O3_23 
REMARK    6  A    between atoms: N5_25  and  N6_27 
REMARK    7  A    between atoms: N6_27  and  N7_29 
REMARK    8  A    between atoms: C12_34  and  O4_35 
ROOT
HETATM    1  C1  UNL     1      49.314  14.906  12.644  1.00  0.00     0.054 C 
HETATM    2  C2  UNL     1      50.051  14.689  11.378  1.00  0.00     0.114 C 
HETATM    3  C3  UNL     1      50.742  13.312  11.316  1.00  0.00     0.163 C 
HETATM    4  N1  UNL     1      51.710  13.560  10.257  1.00  0.00    -0.385 N 
ATOM      5  H1  UNL     1      52.076  12.848   9.624  1.00  0.00     0.159 HD
HETATM    6  C4  UNL     1      52.046  14.831  10.232  1.00  0.00     0.080 C 
HETATM    7  C5  UNL     1      51.317  15.520  11.289  1.00  0.00     0.068 C 
HETATM    8  N2  UNL     1      51.646  16.526  11.948  1.00  0.00    -0.387 N 
ATOM      9  H2  UNL     1      50.954  16.820  12.638  1.00  0.00     0.159 HD
HETATM   10  C6  UNL     1      52.818  17.340  11.908  1.00  0.00     0.140 C 
HETATM   11  C7  UNL     1      54.067  16.552  12.225  1.00  0.00     0.157 C 
HETATM   12  N3  UNL     1      55.141  16.695  11.322  1.00  0.00    -0.225 N 
ATOM     13  H3  UNL     1      55.894  17.313  11.626  1.00  0.00     0.177 HD
HETATM   14  C8  UNL     1      55.303  16.146  10.156  1.00  0.00     0.679 C 
HETATM   15  N8  UNL     1      54.380  15.255   9.579  1.00  0.00    -0.194 N 
ATOM     16  H8  UNL     1      54.740  14.332   9.338  1.00  0.00     0.180 HD
HETATM   17  C12 UNL     1      52.987  15.489   9.287  1.00  0.00     0.287 C 
ENDROOT
BRANCH  14  18
HETATM   18  N4  UNL     1      56.506  16.486   9.476  1.00  0.00    -0.155 N 
HETATM   19  C9  UNL     1      57.368  15.590   8.829  1.00  0.00     0.285 C 
HETATM   20  O2  UNL     1      57.016  14.360   8.863  1.00  0.00    -0.265 OA
ATOM     21  H4  UNL     1      56.764  17.472   9.456  1.00  0.00     0.187 HD
BRANCH  19  22
HETATM   22  C10 UNL     1      58.571  15.934   8.156  1.00  0.00     0.118 C 
HETATM   23  N5  UNL     1      59.282  15.255   7.377  1.00  0.00    -0.283 N 
ATOM     24  H5  UNL     1      60.095  15.775   7.047  1.00  0.00     0.188 HD
BRANCH  22  25
HETATM   25  C11 UNL     1      59.092  17.346   8.413  1.00  0.00     0.228 C 
BRANCH  25  26
HETATM   26  O3  UNL     1      59.276  17.576   9.771  1.00  0.00    -0.395 OA
ATOM     27  H3  UNL     1      58.480  17.902  10.176  1.00  0.00     0.209 HD
ENDBRANCH  25  26
ENDBRANCH  22  25
BRANCH  23  28
HETATM   28  N6  UNL     1      59.234  14.006   6.868  1.00  0.00    -0.249 N 
ATOM     29  H6  UNL     1      58.338  13.596   6.606  1.00  0.00     0.207 HD
BRANCH  28  30
HETATM   30  N7  UNL     1      60.416  13.272   6.701  1.00  0.00    -0.331 N 
ATOM     31  H72 UNL     1      60.840  12.824   7.513  1.00  0.00     0.178 HD
ATOM     32  H71 UNL     1      60.840  13.193   5.776  1.00  0.00     0.178 HD
ENDBRANCH  28  30
ENDBRANCH  23  28
ENDBRANCH  19  22
ENDBRANCH  14  18
BRANCH  17  33
HETATM   33  O4  UNL     1      52.704  14.910   8.013  1.00  0.00    -0.370 OA
ATOM     34  H4  UNL     1      53.513  14.986   7.520  1.00  0.00     0.212 HD
ENDBRANCH  17  33
BRANCH   2  35
HETATM   35  O1  UNL     1      49.340  14.887  10.221  1.00  0.00    -0.382 OA
ATOM     36  H1  UNL     1      49.714  14.515   9.430  1.00  0.00     0.211 HD
ENDBRANCH   2  35
TORSDOF 8
ENDMDL
MODEL 5
REMARK VINA RESULT: -5.493313397      2.616      7.983
REMARK  8 active torsions:
REMARK  status: ('A' for Active; 'I' for Inactive)
REMARK    1  A    between atoms: C2_2  and  O1_3 
REMARK    2  A    between atoms: C8_16  and  N4_17 
REMARK       I    between atoms: N4_17  and  C9_19 
REMARK    3  A    between atoms: C9_19  and  C10_21 
REMARK    4  A    between atoms: C10_21  and  C11_22 
REMARK    5  A    between atoms: C11_22  and  O3_23 
REMARK    6  A    between atoms: N5_25  and  N6_27 
REMARK    7  A    between atoms: N6_27  and  N7_29 
REMARK    8  A    between atoms: C12_34  and  O4_35 
ROOT
HETATM    1  C1  UNL     1      59.173  19.245  10.056  1.00  0.00     0.054 C 
HETATM    2  C2  UNL     1      58.751  17.915   9.561  1.00  0.00     0.114 C 
HETATM    3  C3  UNL     1      58.256  17.949   8.101  1.00  0.00     0.163 C 
HETATM    4  N1  UNL     1      57.511  16.698   8.055  1.00  0.00    -0.385 N 
ATOM      5  H1  UNL     1      57.374  16.132   7.217  1.00  0.00     0.159 HD
HETATM    6  C4  UNL     1      57.040  16.401   9.246  1.00  0.00     0.080 C 
HETATM    7  C5  UNL     1      57.443  17.450  10.174  1.00  0.00     0.068 C 
HETATM    8  N2  UNL     1      56.866  17.861  11.201  1.00  0.00    -0.387 N 
ATOM      9  H2  UNL     1      57.357  18.612  11.686  1.00  0.00     0.159 HD
HETATM   10  C6  UNL     1      55.641  17.464  11.817  1.00  0.00     0.140 C 
HETATM   11  C7  UNL     1      54.455  17.663  10.903  1.00  0.00     0.157 C 
HETATM   12  N3  UNL     1      53.586  16.561  10.759  1.00  0.00    -0.225 N 
ATOM     13  H3  UNL     1      52.719  16.610  11.294  1.00  0.00     0.177 HD
HETATM   14  C8  UNL     1      53.741  15.492  10.038  1.00  0.00     0.679 C 
HETATM   15  N8  UNL     1      54.864  15.255   9.225  1.00  0.00    -0.194 N 
ATOM     16  H8  UNL     1      54.675  15.105   8.233  1.00  0.00     0.180 HD
HETATM   17  C12 UNL     1      56.249  15.200   9.621  1.00  0.00     0.287 C 
ENDROOT
BRANCH  14  18
HETATM   18  N4  UNL     1      52.677  14.548  10.098  1.00  0.00    -0.155 N 
HETATM   19  C9  UNL     1      51.396  14.713   9.555  1.00  0.00     0.285 C 
HETATM   20  O2  UNL     1      51.190  15.822   8.949  1.00  0.00    -0.265 OA
ATOM     21  H4  UNL     1      52.865  13.669  10.581  1.00  0.00     0.187 HD
BRANCH  19  22
HETATM   22  C10 UNL     1      50.336  13.770   9.624  1.00  0.00     0.118 C 
HETATM   23  N5  UNL     1      49.146  13.865   9.242  1.00  0.00    -0.283 N 
ATOM     24  H5  UNL     1      48.613  13.015   9.426  1.00  0.00     0.188 HD
BRANCH  22  25
HETATM   25  C11 UNL     1      50.686  12.427  10.261  1.00  0.00     0.228 C 
BRANCH  25  26
HETATM   26  O3  UNL     1      51.438  11.640   9.397  1.00  0.00    -0.395 OA
ATOM     27  H3  UNL     1      50.890  11.021   8.929  1.00  0.00     0.209 HD
ENDBRANCH  25  26
ENDBRANCH  22  25
BRANCH  23  28
HETATM   28  N6  UNL     1      48.397  14.816   8.645  1.00  0.00    -0.249 N 
ATOM     29  H6  UNL     1      47.673  15.302   9.175  1.00  0.00     0.207 HD
BRANCH  28  30
HETATM   30  N7  UNL     1      48.614  15.137   7.298  1.00  0.00    -0.331 N 
ATOM     31  H72 UNL     1      49.200  14.523   6.732  1.00  0.00     0.178 HD
ATOM     32  H71 UNL     1      48.189  15.973   6.899  1.00  0.00     0.178 HD
ENDBRANCH  28  30
ENDBRANCH  23  28
ENDBRANCH  19  22
ENDBRANCH  14  18
BRANCH  17  33
HETATM   33  O4  UNL     1      56.861  14.115   8.922  1.00  0.00    -0.370 OA
ATOM     34  H4  UNL     1      56.755  14.321   8.001  1.00  0.00     0.212 HD
ENDBRANCH  17  33
BRANCH   2  35
HETATM   35  O1  UNL     1      59.662  16.897   9.702  1.00  0.00    -0.382 OA
ATOM     36  H1  UNL     1      59.481  16.101   9.216  1.00  0.00     0.211 HD
ENDBRANCH   2  35
TORSDOF 8
ENDMDL
