MODEL 1
REMARK VINA RESULT: -6.001580677      0.000      0.000
REMARK  8 active torsions:
REMARK  status: ('A' for Active; 'I' for Inactive)
REMARK    1  A    between atoms: C1_2  and  C2_4 
REMARK    2  A    between atoms: N2_9  and  N3_10 
REMARK    3  A    between atoms: C5_12  and  C6_13 
REMARK    4  A    between atoms: C6_13  and  O3_14 
REMARK    5  A    between atoms: C6_13  and  N4_16 
REMARK    6  A    between atoms: N4_16  and  O4_18 
REMARK    7  A    between atoms: C9_26  and  O7_27 
REMARK    8  A    between atoms: C9_26  and  C10_29 
ROOT
HETATM    1  N3  UNL     1      58.858  14.662   6.307  1.00  0.00    -0.213 N 
HETATM    2  C4  UNL     1      58.098  14.080   5.363  1.00  0.00     0.138 A 
HETATM    3  C5  UNL     1      58.476  12.922   4.661  1.00  0.00     0.077 A 
HETATM    4  C7  UNL     1      59.689  12.410   5.000  1.00  0.00     0.261 A 
HETATM    5  O5  UNL     1      60.143  11.374   4.440  1.00  0.00    -0.267 OA
HETATM    6  N5  UNL     1      60.431  13.023   5.958  1.00  0.00    -0.273 N 
ATOM      7  H5  UNL     1      61.337  12.616   6.191  1.00  0.00     0.173 HD
HETATM    8  C8  UNL     1      60.049  14.134   6.621  1.00  0.00     0.348 A 
HETATM    9  O6  UNL     1      60.824  14.622   7.498  1.00  0.00    -0.245 OA
ENDROOT
BRANCH   1  10
HETATM   10  N2  UNL     1      58.375  15.833   6.963  1.00  0.00    -0.245 N 
HETATM   11  C3  UNL     1      58.086  17.031   6.152  1.00  0.00     0.380 C 
HETATM   12  N1  UNL     1      57.262  17.872   6.940  1.00  0.00    -0.038 N 
HETATM   13  C2  UNL     1      57.801  17.683   8.252  1.00  0.00     0.355 C 
ATOM     14  H12 UNL     1      56.261  17.694   6.855  1.00  0.00     0.280 HD
ATOM     15  H11 UNL     1      57.217  18.842   6.629  1.00  0.00     0.280 HD
HETATM   16  C9  UNL     1      58.082  16.145   8.302  1.00  0.00     0.279 C 
BRANCH  13  17
HETATM   17  C1  UNL     1      59.056  18.437   8.474  1.00  0.00     0.210 C 
HETATM   18  O1  UNL     1      59.336  18.925   9.604  1.00  0.00    -0.646 OA
HETATM   19  O2  UNL     1      59.974  18.638   7.456  1.00  0.00    -0.646 OA
ENDBRANCH  13  17
BRANCH  16  20
HETATM   20  O7  UNL     1      59.179  16.015   9.169  1.00  0.00    -0.359 OA
ATOM     21  H7  UNL     1      58.837  15.543   9.919  1.00  0.00     0.213 HD
ENDBRANCH  16  20
BRANCH  16  22
HETATM   22  C10 UNL     1      56.862  15.568   8.884  1.00  0.00     0.236 C 
HETATM   23  O8  UNL     1      56.767  14.391   9.313  1.00  0.00    -0.644 OA
HETATM   24  O9  UNL     1      55.717  16.350   8.980  1.00  0.00    -0.644 OA
ENDBRANCH  16  22
ENDBRANCH   1  10
BRANCH   3  25
HETATM   25  C6  UNL     1      57.548  12.364   3.657  1.00  0.00     0.280 C 
BRANCH  25  26
HETATM   26  O3  UNL     1      56.240  12.851   3.919  1.00  0.00    -0.371 OA
ATOM     27  H3  UNL     1      55.632  12.443   3.314  1.00  0.00     0.212 HD
ENDBRANCH  25  26
BRANCH  25  28
HETATM   28  N4  UNL     1      57.845  12.579   2.297  1.00  0.00    -0.272 N 
ATOM     29  H4  UNL     1      57.318  13.251   1.740  1.00  0.00     0.190 HD
BRANCH  28  30
HETATM   30  O4  UNL     1      58.839  11.874   1.770  1.00  0.00    -0.292 OA
ATOM     31  H4  UNL     1      59.255  12.219   0.989  1.00  0.00     0.244 HD
ENDBRANCH  28  30
ENDBRANCH  25  28
ENDBRANCH   3  25
TORSDOF 8
ENDMDL
MODEL 2
REMARK VINA RESULT: -5.835655334      2.490      6.576
REMARK  8 active torsions:
REMARK  status: ('A' for Active; 'I' for Inactive)
REMARK    1  A    between atoms: C1_2  and  C2_4 
REMARK    2  A    between atoms: N2_9  and  N3_10 
REMARK    3  A    between atoms: C5_12  and  C6_13 
REMARK    4  A    between atoms: C6_13  and  O3_14 
REMARK    5  A    between atoms: C6_13  and  N4_16 
REMARK    6  A    between atoms: N4_16  and  O4_18 
REMARK    7  A    between atoms: C9_26  and  O7_27 
REMARK    8  A    between atoms: C9_26  and  C10_29 
ROOT
HETATM    1  N3  UNL     1      57.107  16.118   8.149  1.00  0.00    -0.213 N 
HETATM    2  C4  UNL     1      56.914  15.420   9.281  1.00  0.00     0.138 A 
HETATM    3  C5  UNL     1      56.123  15.872  10.352  1.00  0.00     0.077 A 
HETATM    4  C7  UNL     1      55.548  17.091  10.172  1.00  0.00     0.261 A 
HETATM    5  O5  UNL     1      54.817  17.608  11.061  1.00  0.00    -0.267 OA
HETATM    6  N5  UNL     1      55.764  17.770   9.016  1.00  0.00    -0.273 N 
ATOM      7  H5  UNL     1      55.320  18.682   8.909  1.00  0.00     0.173 HD
HETATM    8  C8  UNL     1      56.527  17.317   7.999  1.00  0.00     0.348 A 
HETATM    9  O6  UNL     1      56.659  18.037   6.964  1.00  0.00    -0.245 OA
ENDROOT
BRANCH   1  10
HETATM   10  N2  UNL     1      57.925  15.563   7.121  1.00  0.00    -0.245 N 
HETATM   11  C3  UNL     1      57.292  14.715   6.093  1.00  0.00     0.380 C 
HETATM   12  N1  UNL     1      58.197  14.640   5.006  1.00  0.00    -0.038 N 
HETATM   13  C2  UNL     1      59.465  14.595   5.669  1.00  0.00     0.355 C 
ATOM     14  H12 UNL     1      58.099  15.382   4.313  1.00  0.00     0.280 HD
ATOM     15  H11 UNL     1      58.025  13.875   4.355  1.00  0.00     0.280 HD
HETATM   16  C9  UNL     1      59.298  15.635   6.825  1.00  0.00     0.279 C 
BRANCH  13  17
HETATM   17  C1  UNL     1      59.776  13.259   6.228  1.00  0.00     0.210 C 
HETATM   18  O1  UNL     1      60.733  12.568   5.780  1.00  0.00    -0.646 OA
HETATM   19  O2  UNL     1      59.033  12.712   7.262  1.00  0.00    -0.646 OA
ENDBRANCH  13  17
BRANCH  16  20
HETATM   20  O7  UNL     1      60.127  15.156   7.853  1.00  0.00    -0.359 OA
ATOM     21  H7  UNL     1      60.712  15.880   8.045  1.00  0.00     0.213 HD
ENDBRANCH  16  20
BRANCH  16  22
HETATM   22  C10 UNL     1      59.807  16.894   6.262  1.00  0.00     0.236 C 
HETATM   23  O8  UNL     1      59.982  17.948   6.923  1.00  0.00    -0.644 OA
HETATM   24  O9  UNL     1      60.124  16.957   4.911  1.00  0.00    -0.644 OA
ENDBRANCH  16  22
ENDBRANCH   1  10
BRANCH   3  25
HETATM   25  C6  UNL     1      55.971  15.006  11.538  1.00  0.00     0.280 C 
BRANCH  25  26
HETATM   26  O3  UNL     1      56.717  15.561  12.611  1.00  0.00    -0.371 OA
ATOM     27  H3  UNL     1      57.545  15.885  12.276  1.00  0.00     0.212 HD
ENDBRANCH  25  26
BRANCH  25  28
HETATM   28  N4  UNL     1      54.664  14.737  11.991  1.00  0.00    -0.272 N 
ATOM     29  H4  UNL     1      54.070  14.057  11.517  1.00  0.00     0.190 HD
BRANCH  28  30
HETATM   30  O4  UNL     1      54.237  15.404  13.056  1.00  0.00    -0.292 OA
ATOM     31  H4  UNL     1      53.458  15.939  12.955  1.00  0.00     0.244 HD
ENDBRANCH  28  30
ENDBRANCH  25  28
ENDBRANCH   3  25
TORSDOF 8
ENDMDL
MODEL 3
REMARK VINA RESULT: -5.829830035      2.308      4.462
REMARK  8 active torsions:
REMARK  status: ('A' for Active; 'I' for Inactive)
REMARK    1  A    between atoms: C1_2  and  C2_4 
REMARK    2  A    between atoms: N2_9  and  N3_10 
REMARK    3  A    between atoms: C5_12  and  C6_13 
REMARK    4  A    between atoms: C6_13  and  O3_14 
REMARK    5  A    between atoms: C6_13  and  N4_16 
REMARK    6  A    between atoms: N4_16  and  O4_18 
REMARK    7  A    between atoms: C9_26  and  O7_27 
REMARK    8  A    between atoms: C9_26  and  C10_29 
ROOT
HETATM    1  N3  UNL     1      56.916  15.344   7.880  1.00  0.00    -0.213 N 
HETATM    2  C4  UNL     1      58.213  15.002   7.782  1.00  0.00     0.138 A 
HETATM    3  C5  UNL     1      58.790  14.457   6.621  1.00  0.00     0.077 A 
HETATM    4  C7  UNL     1      57.938  14.291   5.574  1.00  0.00     0.261 A 
HETATM    5  O5  UNL     1      58.334  13.809   4.477  1.00  0.00    -0.267 OA
HETATM    6  N5  UNL     1      56.635  14.648   5.707  1.00  0.00    -0.273 N 
ATOM      7  H5  UNL     1      56.020  14.512   4.905  1.00  0.00     0.173 HD
HETATM    8  C8  UNL     1      56.101  15.171   6.831  1.00  0.00     0.348 A 
HETATM    9  O6  UNL     1      54.869  15.469   6.843  1.00  0.00    -0.245 OA
ENDROOT
BRANCH   1  10
HETATM   10  N2  UNL     1      56.435  15.896   9.104  1.00  0.00    -0.245 N 
HETATM   11  C3  UNL     1      56.085  14.978  10.204  1.00  0.00     0.380 C 
HETATM   12  N1  UNL     1      56.039  15.754  11.388  1.00  0.00    -0.038 N 
HETATM   13  C2  UNL     1      55.478  16.985  10.923  1.00  0.00     0.355 C 
ATOM     14  H12 UNL     1      56.929  15.844  11.878  1.00  0.00     0.280 HD
ATOM     15  H11 UNL     1      55.542  15.321  12.167  1.00  0.00     0.280 HD
HETATM   16  C9  UNL     1      56.195  17.207   9.552  1.00  0.00     0.279 C 
BRANCH  13  17
HETATM   17  C1  UNL     1      54.012  16.912  10.724  1.00  0.00     0.210 C 
HETATM   18  O1  UNL     1      53.256  17.865  11.061  1.00  0.00    -0.646 OA
HETATM   19  O2  UNL     1      53.409  15.798  10.162  1.00  0.00    -0.646 OA
ENDBRANCH  13  17
BRANCH  16  20
HETATM   20  O7  UNL     1      55.261  17.911   8.774  1.00  0.00    -0.359 OA
ATOM     21  H7  UNL     1      55.384  17.578   7.893  1.00  0.00     0.213 HD
ENDBRANCH  16  20
BRANCH  16  22
HETATM   22  C10 UNL     1      57.362  18.038   9.879  1.00  0.00     0.236 C 
HETATM   23  O8  UNL     1      58.291  18.307   9.076  1.00  0.00    -0.644 OA
HETATM   24  O9  UNL     1      57.480  18.577  11.154  1.00  0.00    -0.644 OA
ENDBRANCH  16  22
ENDBRANCH   1  10
BRANCH   3  25
HETATM   25  C6  UNL     1      60.232  14.136   6.628  1.00  0.00     0.280 C 
BRANCH  25  26
HETATM   26  O3  UNL     1      60.763  14.430   7.911  1.00  0.00    -0.371 OA
ATOM     27  H3  UNL     1      61.529  13.888   8.060  1.00  0.00     0.212 HD
ENDBRANCH  25  26
BRANCH  25  28
HETATM   28  N4  UNL     1      60.613  12.827   6.271  1.00  0.00    -0.272 N 
ATOM     29  H4  UNL     1      61.511  12.641   5.824  1.00  0.00     0.190 HD
BRANCH  28  30
HETATM   30  O4  UNL     1      59.759  11.847   6.538  1.00  0.00    -0.292 OA
ATOM     31  H4  UNL     1      58.832  12.045   6.472  1.00  0.00     0.244 HD
ENDBRANCH  28  30
ENDBRANCH  25  28
ENDBRANCH   3  25
TORSDOF 8
ENDMDL
MODEL 4
REMARK VINA RESULT: -5.818452134      2.250      6.489
REMARK  8 active torsions:
REMARK  status: ('A' for Active; 'I' for Inactive)
REMARK    1  A    between atoms: C1_2  and  C2_4 
REMARK    2  A    between atoms: N2_9  and  N3_10 
REMARK    3  A    between atoms: C5_12  and  C6_13 
REMARK    4  A    between atoms: C6_13  and  O3_14 
REMARK    5  A    between atoms: C6_13  and  N4_16 
REMARK    6  A    between atoms: N4_16  and  O4_18 
REMARK    7  A    between atoms: C9_26  and  O7_27 
REMARK    8  A    between atoms: C9_26  and  C10_29 
ROOT
HETATM    1  N3  UNL     1      56.695  14.990   7.051  1.00  0.00    -0.213 N 
HETATM    2  C4  UNL     1      57.004  15.400   8.293  1.00  0.00     0.138 A 
HETATM    3  C5  UNL     1      56.047  15.793   9.246  1.00  0.00     0.077 A 
HETATM    4  C7  UNL     1      54.754  15.734   8.826  1.00  0.00     0.261 A 
HETATM    5  O5  UNL     1      53.803  16.064   9.586  1.00  0.00    -0.267 OA
HETATM    6  N5  UNL     1      54.478  15.316   7.565  1.00  0.00    -0.273 N 
ATOM      7  H5  UNL     1      53.500  15.282   7.277  1.00  0.00     0.173 HD
HETATM    8  C8  UNL     1      55.413  14.942   6.665  1.00  0.00     0.348 A 
HETATM    9  O6  UNL     1      55.040  14.567   5.513  1.00  0.00    -0.245 OA
ENDROOT
BRANCH   1  10
HETATM   10  N2  UNL     1      57.746  14.607   6.165  1.00  0.00    -0.245 N 
HETATM   11  C3  UNL     1      57.521  14.719   4.712  1.00  0.00     0.380 C 
HETATM   12  N1  UNL     1      58.796  14.681   4.095  1.00  0.00    -0.038 N 
HETATM   13  C2  UNL     1      59.499  13.737   4.908  1.00  0.00     0.355 C 
ATOM     14  H12 UNL     1      59.252  15.588   3.995  1.00  0.00     0.280 HD
ATOM     15  H11 UNL     1      58.785  14.467   3.097  1.00  0.00     0.280 HD
HETATM   16  C9  UNL     1      59.047  14.111   6.358  1.00  0.00     0.279 C 
BRANCH  13  17
HETATM   17  C1  UNL     1      59.135  12.333   4.607  1.00  0.00     0.210 C 
HETATM   18  O1  UNL     1      60.009  11.424   4.564  1.00  0.00    -0.646 OA
HETATM   19  O2  UNL     1      57.824  11.959   4.361  1.00  0.00    -0.646 OA
ENDBRANCH  13  17
BRANCH  16  20
HETATM   20  O7  UNL     1      59.093  12.898   7.065  1.00  0.00    -0.359 OA
ATOM     21  H7  UNL     1      59.701  12.358   6.573  1.00  0.00     0.213 HD
ENDBRANCH  16  20
BRANCH  16  22
HETATM   22  C10 UNL     1      60.071  15.052   6.830  1.00  0.00     0.236 C 
HETATM   23  O8  UNL     1      60.439  16.076   6.201  1.00  0.00    -0.644 OA
HETATM   24  O9  UNL     1      60.696  14.824   8.050  1.00  0.00    -0.644 OA
ENDBRANCH  16  22
ENDBRANCH   1  10
BRANCH   3  25
HETATM   25  C6  UNL     1      56.506  16.208  10.587  1.00  0.00     0.280 C 
BRANCH  25  26
HETATM   26  O3  UNL     1      55.980  17.494  10.877  1.00  0.00    -0.371 OA
ATOM     27  H3  UNL     1      55.836  17.960  10.061  1.00  0.00     0.212 HD
ENDBRANCH  25  26
BRANCH  25  28
HETATM   28  N4  UNL     1      56.226  15.352  11.670  1.00  0.00    -0.272 N 
ATOM     29  H4  UNL     1      55.556  14.588  11.581  1.00  0.00     0.190 HD
BRANCH  28  30
HETATM   30  O4  UNL     1      56.868  15.578  12.810  1.00  0.00    -0.292 OA
ATOM     31  H4  UNL     1      57.818  15.594  12.782  1.00  0.00     0.244 HD
ENDBRANCH  28  30
ENDBRANCH  25  28
ENDBRANCH   3  25
TORSDOF 8
ENDMDL
MODEL 5
REMARK VINA RESULT: -5.771082957      2.465      4.077
REMARK  8 active torsions:
REMARK  status: ('A' for Active; 'I' for Inactive)
REMARK    1  A    between atoms: C1_2  and  C2_4 
REMARK    2  A    between atoms: N2_9  and  N3_10 
REMARK    3  A    between atoms: C5_12  and  C6_13 
REMARK    4  A    between atoms: C6_13  and  O3_14 
REMARK    5  A    between atoms: C6_13  and  N4_16 
REMARK    6  A    between atoms: N4_16  and  O4_18 
REMARK    7  A    between atoms: C9_26  and  O7_27 
REMARK    8  A    between atoms: C9_26  and  C10_29 
ROOT
HETATM    1  N3  UNL     1      56.654  15.782   7.891  1.00  0.00    -0.213 N 
HETATM    2  C4  UNL     1      57.962  15.472   7.899  1.00  0.00     0.138 A 
HETATM    3  C5  UNL     1      58.607  14.783   6.856  1.00  0.00     0.077 A 
HETATM    4  C7  UNL     1      57.809  14.438   5.810  1.00  0.00     0.261 A 
HETATM    5  O5  UNL     1      58.268  13.814   4.814  1.00  0.00    -0.267 OA
HETATM    6  N5  UNL     1      56.492  14.766   5.835  1.00  0.00    -0.273 N 
ATOM      7  H5  UNL     1      55.918  14.494   5.036  1.00  0.00     0.173 HD
HETATM    8  C8  UNL     1      55.892  15.429   6.846  1.00  0.00     0.348 A 
HETATM    9  O6  UNL     1      54.653  15.684   6.762  1.00  0.00    -0.245 OA
ENDROOT
BRANCH   1  10
HETATM   10  N2  UNL     1      56.101  16.490   8.999  1.00  0.00    -0.245 N 
HETATM   11  C3  UNL     1      55.985  17.958   8.913  1.00  0.00     0.380 C 
HETATM   12  N1  UNL     1      55.065  18.357   9.914  1.00  0.00    -0.038 N 
HETATM   13  C2  UNL     1      55.373  17.458  10.985  1.00  0.00     0.355 C 
ATOM     14  H12 UNL     1      54.088  18.361   9.623  1.00  0.00     0.280 HD
ATOM     15  H11 UNL     1      55.099  19.346  10.160  1.00  0.00     0.280 HD
HETATM   16  C9  UNL     1      55.598  16.096  10.251  1.00  0.00     0.279 C 
BRANCH  13  17
HETATM   17  C1  UNL     1      56.594  17.844  11.728  1.00  0.00     0.210 C 
HETATM   18  O1  UNL     1      56.694  17.649  12.971  1.00  0.00    -0.646 OA
HETATM   19  O2  UNL     1      57.676  18.433  11.094  1.00  0.00    -0.646 OA
ENDBRANCH  13  17
BRANCH  16  20
HETATM   20  O7  UNL     1      56.533  15.416  11.050  1.00  0.00    -0.359 OA
ATOM     21  H7  UNL     1      56.074  14.637  11.342  1.00  0.00     0.213 HD
ENDBRANCH  16  20
BRANCH  16  22
HETATM   22  C10 UNL     1      54.283  15.441  10.281  1.00  0.00     0.236 C 
HETATM   23  O8  UNL     1      53.316  15.757   9.543  1.00  0.00    -0.644 OA
HETATM   24  O9  UNL     1      54.059  14.401  11.174  1.00  0.00    -0.644 OA
ENDBRANCH  16  22
ENDBRANCH   1  10
BRANCH   3  25
HETATM   25  C6  UNL     1      60.054  14.515   6.970  1.00  0.00     0.280 C 
BRANCH  25  26
HETATM   26  O3  UNL     1      60.484  14.855   8.279  1.00  0.00    -0.371 OA
ATOM     27  H3  UNL     1      60.305  14.127   8.862  1.00  0.00     0.212 HD
ENDBRANCH  25  26
BRANCH  25  28
HETATM   28  N4  UNL     1      60.506  13.214   6.671  1.00  0.00    -0.272 N 
ATOM     29  H4  UNL     1      61.392  13.058   6.191  1.00  0.00     0.190 HD
BRANCH  28  30
HETATM   30  O4  UNL     1      59.732  12.199   7.040  1.00  0.00    -0.292 OA
ATOM     31  H4  UNL     1      60.127  11.519   7.573  1.00  0.00     0.244 HD
ENDBRANCH  28  30
ENDBRANCH  25  28
ENDBRANCH   3  25
TORSDOF 8
ENDMDL
