MODEL 1
REMARK VINA RESULT: -4.653933332      0.000      0.000
REMARK  4 active torsions:
REMARK  status: ('A' for Active; 'I' for Inactive)
REMARK    1  A    between atoms: C2_2  and  N1_4 
REMARK    2  A    between atoms: N1_4  and  C4_6 
REMARK    3  A    between atoms: C4_6  and  N2_8 
REMARK    4  A    between atoms: N2_8  and  C5_10 
ROOT
HETATM    1  C5  UNL     1       9.398  -6.219 -10.633  1.00  0.00     0.084 C 
HETATM    2  C6  UNL     1      10.498  -5.207 -10.687  1.00  0.00     0.032 C 
HETATM    3  C7  UNL     1      11.710  -5.611  -9.896  1.00  0.00     0.022 C 
HETATM    4  C8  UNL     1      11.309  -6.109  -8.499  1.00  0.00     0.008 C 
HETATM    5  C9  UNL     1      11.149  -7.604  -8.607  1.00  0.00     0.008 C 
HETATM    6  C10 UNL     1      11.228  -7.855 -10.095  1.00  0.00     0.022 C 
HETATM    7  C11 UNL     1       9.858  -7.632 -10.667  1.00  0.00     0.032 C 
HETATM    8  C12 UNL     1      12.272  -6.878 -10.500  1.00  0.00     0.178 C 
HETATM    9  F1  UNL     1      12.627  -6.821 -11.789  1.00  0.00    -0.249 F 
ENDROOT
BRANCH   1  10
HETATM   10  N2  UNL     1       8.283  -5.983 -11.509  1.00  0.00    -0.363 N 
ATOM     11  H2  UNL     1       7.848  -6.822 -11.894  1.00  0.00     0.162 HD
BRANCH  10  12
HETATM   12  C4  UNL     1       7.710  -4.783 -11.909  1.00  0.00     0.168 C 
HETATM   13  S1  UNL     1       8.019  -4.232 -13.441  1.00  0.00    -0.041 SA
BRANCH  12  14
HETATM   14  N1  UNL     1       6.875  -3.984 -11.116  1.00  0.00    -0.363 N 
ATOM     15  H1  UNL     1       5.898  -4.247 -10.988  1.00  0.00     0.162 HD
BRANCH  14  16
HETATM   16  C2  UNL     1       7.389  -2.778 -10.467  1.00  0.00     0.075 C 
HETATM   17  C1  UNL     1       6.295  -1.751 -10.350  1.00  0.00     0.032 C 
HETATM   18  C3  UNL     1       7.952  -3.080  -9.094  1.00  0.00     0.032 C 
ENDBRANCH  14  16
ENDBRANCH  12  14
ENDBRANCH  10  12
ENDBRANCH   1  10
TORSDOF 4
ENDMDL
MODEL 2
REMARK VINA RESULT: -4.637393030      2.819      5.141
REMARK  4 active torsions:
REMARK  status: ('A' for Active; 'I' for Inactive)
REMARK    1  A    between atoms: C2_2  and  N1_4 
REMARK    2  A    between atoms: N1_4  and  C4_6 
REMARK    3  A    between atoms: C4_6  and  N2_8 
REMARK    4  A    between atoms: N2_8  and  C5_10 
ROOT
HETATM    1  C5  UNL     1       8.180  -4.476 -12.698  1.00  0.00     0.084 C 
HETATM    2  C6  UNL     1       9.115  -5.420 -13.386  1.00  0.00     0.032 C 
HETATM    3  C7  UNL     1       9.418  -5.022 -14.803  1.00  0.00     0.022 C 
HETATM    4  C8  UNL     1       8.127  -4.668 -15.558  1.00  0.00     0.008 C 
HETATM    5  C9  UNL     1       7.937  -3.181 -15.409  1.00  0.00     0.008 C 
HETATM    6  C10 UNL     1       8.982  -2.798 -14.388  1.00  0.00     0.022 C 
HETATM    7  C11 UNL     1       8.398  -3.043 -13.026  1.00  0.00     0.032 C 
HETATM    8  C12 UNL     1      10.112  -3.678 -14.781  1.00  0.00     0.178 C 
HETATM    9  F1  UNL     1      11.252  -3.604 -14.086  1.00  0.00    -0.249 F 
ENDROOT
BRANCH   1  10
HETATM   10  N2  UNL     1       7.989  -4.695 -11.290  1.00  0.00    -0.363 N 
ATOM     11  H2  UNL     1       7.412  -5.501 -11.050  1.00  0.00     0.162 HD
BRANCH  10  12
HETATM   12  C4  UNL     1       8.474  -3.972 -10.209  1.00  0.00     0.168 C 
HETATM   13  S1  UNL     1       7.502  -2.810  -9.535  1.00  0.00    -0.041 SA
BRANCH  12  14
HETATM   14  N1  UNL     1       9.736  -4.143  -9.624  1.00  0.00    -0.363 N 
ATOM     15  H1  UNL     1      10.117  -3.412  -9.023  1.00  0.00     0.162 HD
BRANCH  14  16
HETATM   16  C2  UNL     1      10.514  -5.358  -9.866  1.00  0.00     0.075 C 
HETATM   17  C1  UNL     1      11.612  -5.077 -10.857  1.00  0.00     0.032 C 
HETATM   18  C3  UNL     1      11.112  -5.900  -8.585  1.00  0.00     0.032 C 
ENDBRANCH  14  16
ENDBRANCH  12  14
ENDBRANCH  10  12
ENDBRANCH   1  10
TORSDOF 4
ENDMDL
MODEL 3
REMARK VINA RESULT: -4.493049146      1.922      2.506
REMARK  4 active torsions:
REMARK  status: ('A' for Active; 'I' for Inactive)
REMARK    1  A    between atoms: C2_2  and  N1_4 
REMARK    2  A    between atoms: N1_4  and  C4_6 
REMARK    3  A    between atoms: C4_6  and  N2_8 
REMARK    4  A    between atoms: N2_8  and  C5_10 
ROOT
HETATM    1  C5  UNL     1       9.090  -5.331 -10.484  1.00  0.00     0.084 C 
HETATM    2  C6  UNL     1      10.126  -4.324 -10.098  1.00  0.00     0.032 C 
HETATM    3  C7  UNL     1      11.404  -4.949  -9.612  1.00  0.00     0.022 C 
HETATM    4  C8  UNL     1      11.113  -6.057  -8.586  1.00  0.00     0.008 C 
HETATM    5  C9  UNL     1      11.030  -7.347  -9.362  1.00  0.00     0.008 C 
HETATM    6  C10 UNL     1      11.037  -6.888 -10.801  1.00  0.00     0.022 C 
HETATM    7  C11 UNL     1       9.625  -6.535 -11.172  1.00  0.00     0.032 C 
HETATM    8  C12 UNL     1      11.999  -5.757 -10.742  1.00  0.00     0.178 C 
HETATM    9  F1  UNL     1      12.275  -5.095 -11.871  1.00  0.00    -0.249 F 
ENDROOT
BRANCH   1  10
HETATM   10  N2  UNL     1       7.915  -4.809 -11.126  1.00  0.00    -0.363 N 
ATOM     11  H2  UNL     1       7.199  -5.500 -11.351  1.00  0.00     0.162 HD
BRANCH  10  12
HETATM   12  C4  UNL     1       7.609  -3.503 -11.486  1.00  0.00     0.168 C 
HETATM   13  S1  UNL     1       6.852  -2.534 -10.373  1.00  0.00    -0.041 SA
BRANCH  12  14
HETATM   14  N1  UNL     1       7.892  -2.920 -12.728  1.00  0.00    -0.363 N 
ATOM     15  H1  UNL     1       7.719  -1.925 -12.870  1.00  0.00     0.162 HD
BRANCH  14  16
HETATM   16  C2  UNL     1       8.434  -3.723 -13.825  1.00  0.00     0.075 C 
HETATM   17  C1  UNL     1       7.964  -3.173 -15.145  1.00  0.00     0.032 C 
HETATM   18  C3  UNL     1       9.948  -3.754 -13.796  1.00  0.00     0.032 C 
ENDBRANCH  14  16
ENDBRANCH  12  14
ENDBRANCH  10  12
ENDBRANCH   1  10
TORSDOF 4
ENDMDL
MODEL 4
REMARK VINA RESULT: -4.454147064      1.227      2.221
REMARK  4 active torsions:
REMARK  status: ('A' for Active; 'I' for Inactive)
REMARK    1  A    between atoms: C2_2  and  N1_4 
REMARK    2  A    between atoms: N1_4  and  C4_6 
REMARK    3  A    between atoms: C4_6  and  N2_8 
REMARK    4  A    between atoms: N2_8  and  C5_10 
ROOT
HETATM    1  C5  UNL     1       9.556  -6.074 -11.138  1.00  0.00     0.084 C 
HETATM    2  C6  UNL     1       9.512  -7.368 -10.390  1.00  0.00     0.032 C 
HETATM    3  C7  UNL     1      10.876  -7.935 -10.113  1.00  0.00     0.022 C 
HETATM    4  C8  UNL     1      11.746  -7.907 -11.379  1.00  0.00     0.008 C 
HETATM    5  C9  UNL     1      12.515  -6.611 -11.343  1.00  0.00     0.008 C 
HETATM    6  C10 UNL     1      11.876  -5.861 -10.198  1.00  0.00     0.022 C 
HETATM    7  C11 UNL     1      10.659  -5.164 -10.733  1.00  0.00     0.032 C 
HETATM    8  C12 UNL     1      11.626  -6.962  -9.232  1.00  0.00     0.178 C 
HETATM    9  F1  UNL     1      11.063  -6.663  -8.055  1.00  0.00    -0.249 F 
ENDROOT
BRANCH   1  10
HETATM   10  N2  UNL     1       8.301  -5.387 -11.278  1.00  0.00    -0.363 N 
ATOM     11  H2  UNL     1       7.541  -5.748 -10.702  1.00  0.00     0.162 HD
BRANCH  10  12
HETATM   12  C4  UNL     1       7.970  -4.303 -12.082  1.00  0.00     0.168 C 
HETATM   13  S1  UNL     1       7.960  -4.514 -13.726  1.00  0.00    -0.041 SA
BRANCH  12  14
HETATM   14  N1  UNL     1       7.635  -3.025 -11.616  1.00  0.00    -0.363 N 
ATOM     15  H1  UNL     1       7.854  -2.207 -12.184  1.00  0.00     0.162 HD
BRANCH  14  16
HETATM   16  C2  UNL     1       6.975  -2.849 -10.322  1.00  0.00     0.075 C 
HETATM   17  C1  UNL     1       7.997  -2.868  -9.216  1.00  0.00     0.032 C 
HETATM   18  C3  UNL     1       6.191  -1.555 -10.269  1.00  0.00     0.032 C 
ENDBRANCH  14  16
ENDBRANCH  12  14
ENDBRANCH  10  12
ENDBRANCH   1  10
TORSDOF 4
ENDMDL
MODEL 5
REMARK VINA RESULT: -4.447214602      2.078      3.085
REMARK  4 active torsions:
REMARK  status: ('A' for Active; 'I' for Inactive)
REMARK    1  A    between atoms: C2_2  and  N1_4 
REMARK    2  A    between atoms: N1_4  and  C4_6 
REMARK    3  A    between atoms: C4_6  and  N2_8 
REMARK    4  A    between atoms: N2_8  and  C5_10 
ROOT
HETATM    1  C5  UNL     1       9.438  -6.035 -11.143  1.00  0.00     0.084 C 
HETATM    2  C6  UNL     1       9.552  -7.373 -10.484  1.00  0.00     0.032 C 
HETATM    3  C7  UNL     1      10.975  -7.818 -10.295  1.00  0.00     0.022 C 
HETATM    4  C8  UNL     1      11.784  -7.623 -11.587  1.00  0.00     0.008 C 
HETATM    5  C9  UNL     1      12.424  -6.262 -11.490  1.00  0.00     0.008 C 
HETATM    6  C10 UNL     1      11.765  -5.654 -10.275  1.00  0.00     0.022 C 
HETATM    7  C11 UNL     1      10.464  -5.048 -10.717  1.00  0.00     0.032 C 
HETATM    8  C12 UNL     1      11.664  -6.833  -9.377  1.00  0.00     0.178 C 
HETATM    9  F1  UNL     1      11.126  -6.668  -8.164  1.00  0.00    -0.249 F 
ENDROOT
BRANCH   1  10
HETATM   10  N2  UNL     1       8.118  -5.469 -11.191  1.00  0.00    -0.363 N 
ATOM     11  H2  UNL     1       7.374  -6.072 -10.840  1.00  0.00     0.162 HD
BRANCH  10  12
HETATM   12  C4  UNL     1       7.705  -4.222 -11.644  1.00  0.00     0.168 C 
HETATM   13  S1  UNL     1       7.187  -3.110 -10.531  1.00  0.00    -0.041 SA
BRANCH  12  14
HETATM   14  N1  UNL     1       7.692  -3.815 -12.985  1.00  0.00    -0.363 N 
ATOM     15  H1  UNL     1       6.962  -4.159 -13.609  1.00  0.00     0.162 HD
BRANCH  14  16
HETATM   16  C2  UNL     1       8.712  -2.903 -13.501  1.00  0.00     0.075 C 
HETATM   17  C1  UNL     1       9.852  -3.688 -14.092  1.00  0.00     0.032 C 
HETATM   18  C3  UNL     1       8.143  -1.965 -14.545  1.00  0.00     0.032 C 
ENDBRANCH  14  16
ENDBRANCH  12  14
ENDBRANCH  10  12
ENDBRANCH   1  10
TORSDOF 4
ENDMDL
