MODEL 1
REMARK VINA RESULT: -5.779928043      0.000      0.000
REMARK  4 active torsions:
REMARK  status: ('A' for Active; 'I' for Inactive)
REMARK       I    between atoms: N1_2  and  C2_4 
REMARK       I    between atoms: C2_4  and  N2_5 
REMARK       I    between atoms: C2_4  and  N4_15 
REMARK    1  A    between atoms: N2_5  and  C3_7 
REMARK    2  A    between atoms: N4_15  and  C8_17 
REMARK    3  A    between atoms: C8_17  and  C9_18 
REMARK    4  A    between atoms: C8_17  and  C13_25 
ROOT
HETATM    1  C1  UNL     1      12.049  -4.887 -13.154  1.00  0.00     0.165 C 
HETATM    2  N1  UNL     1      10.724  -4.894 -12.638  1.00  0.00    -0.231 N 
ATOM      3  H1  UNL     1       9.973  -4.787 -13.320  1.00  0.00     0.177 HD
HETATM    4  C2  UNL     1      10.365  -5.020 -11.410  1.00  0.00     0.674 C 
HETATM    5  N2  UNL     1      11.379  -5.171 -10.445  1.00  0.00    -0.189 N 
ATOM      6  H2  UNL     1      11.736  -4.305 -10.043  1.00  0.00     0.184 HD
HETATM    7  N4  UNL     1       9.022  -5.009 -10.987  1.00  0.00    -0.214 N 
ATOM      8  H4  UNL     1       8.778  -5.712 -10.289  1.00  0.00     0.178 HD
ENDROOT
BRANCH   5   9
HETATM    9  C3  UNL     1      11.911  -6.239 -10.005  1.00  0.00     0.090 A 
HETATM   10  C4  UNL     1      12.623  -7.014 -10.897  1.00  0.00     0.050 A 
HETATM   11  C5  UNL     1      13.230  -8.178 -10.512  1.00  0.00     0.090 A 
HETATM   12  N3  UNL     1      13.132  -8.583  -9.224  1.00  0.00    -0.372 N 
HETATM   13  C6  UNL     1      12.440  -7.839  -8.340  1.00  0.00     0.132 A 
ATOM     14  H3  UNL     1      13.580  -9.449  -8.923  1.00  0.00     0.164 HD
HETATM   15  C7  UNL     1      11.821  -6.662  -8.701  1.00  0.00     0.158 A 
HETATM   16  F1  UNL     1      11.127  -5.938  -7.766  1.00  0.00    -0.202 F 
ENDBRANCH   5   9
BRANCH   7  17
HETATM   17  C8  UNL     1       7.959  -4.163 -11.392  1.00  0.00     0.170 C 
BRANCH  17  18
HETATM   18  C9  UNL     1       6.855  -4.961 -12.042  1.00  0.00     0.107 A 
HETATM   19  N5  UNL     1       5.817  -5.548 -11.435  1.00  0.00    -0.353 N 
HETATM   20  C10 UNL     1       5.026  -6.173 -12.322  1.00  0.00     0.106 A 
ATOM     21  H5  UNL     1       5.648  -5.523 -10.430  1.00  0.00     0.166 HD
HETATM   22  C11 UNL     1       5.605  -5.965 -13.559  1.00  0.00     0.108 A 
HETATM   23  N6  UNL     1       6.715  -5.226 -13.357  1.00  0.00    -0.348 N 
HETATM   24  C12 UNL     1       7.573  -4.816 -14.443  1.00  0.00     0.157 C 
ENDBRANCH  17  18
BRANCH  17  25
HETATM   25  C13 UNL     1       7.418  -3.361 -10.257  1.00  0.00     0.008 C 
HETATM   26  C14 UNL     1       6.584  -2.184 -10.608  1.00  0.00     0.012 C 
HETATM   27  C15 UNL     1       8.609  -2.805  -9.450  1.00  0.00     0.012 C 
ENDBRANCH  17  25
ENDBRANCH   7  17
TORSDOF 4
ENDMDL
MODEL 2
REMARK VINA RESULT: -5.613360916      2.185      6.613
REMARK  4 active torsions:
REMARK  status: ('A' for Active; 'I' for Inactive)
REMARK       I    between atoms: N1_2  and  C2_4 
REMARK       I    between atoms: C2_4  and  N2_5 
REMARK       I    between atoms: C2_4  and  N4_15 
REMARK    1  A    between atoms: N2_5  and  C3_7 
REMARK    2  A    between atoms: N4_15  and  C8_17 
REMARK    3  A    between atoms: C8_17  and  C9_18 
REMARK    4  A    between atoms: C8_17  and  C13_25 
ROOT
HETATM    1  C1  UNL     1      11.248  -6.112  -8.304  1.00  0.00     0.165 C 
HETATM    2  N1  UNL     1      11.816  -6.186  -9.606  1.00  0.00    -0.231 N 
ATOM      3  H1  UNL     1      12.477  -6.945  -9.768  1.00  0.00     0.177 HD
HETATM    4  C2  UNL     1      11.591  -5.404 -10.601  1.00  0.00     0.674 C 
HETATM    5  N2  UNL     1      10.681  -4.347 -10.410  1.00  0.00    -0.189 N 
ATOM      6  H2  UNL     1      11.086  -3.473 -10.073  1.00  0.00     0.184 HD
HETATM    7  N4  UNL     1      12.207  -5.549 -11.859  1.00  0.00    -0.214 N 
ATOM      8  H4  UNL     1      11.591  -5.429 -12.664  1.00  0.00     0.178 HD
ENDROOT
BRANCH   5   9
HETATM    9  C3  UNL     1       9.424  -4.329 -10.598  1.00  0.00     0.090 A 
HETATM   10  C4  UNL     1       8.867  -5.380 -11.298  1.00  0.00     0.050 A 
HETATM   11  C5  UNL     1       7.524  -5.446 -11.548  1.00  0.00     0.090 A 
HETATM   12  N3  UNL     1       6.716  -4.456 -11.098  1.00  0.00    -0.372 N 
HETATM   13  C6  UNL     1       7.244  -3.423 -10.414  1.00  0.00     0.132 A 
ATOM     14  H3  UNL     1       5.712  -4.492 -11.277  1.00  0.00     0.164 HD
HETATM   15  C7  UNL     1       8.592  -3.333 -10.149  1.00  0.00     0.158 A 
HETATM   16  F1  UNL     1       9.083  -2.261  -9.448  1.00  0.00    -0.202 F 
ENDBRANCH   5   9
BRANCH   7  17
HETATM   17  C8  UNL     1      13.560  -5.839 -12.169  1.00  0.00     0.170 C 
BRANCH  17  18
HETATM   18  C9  UNL     1      13.774  -7.327 -12.298  1.00  0.00     0.107 A 
HETATM   19  N5  UNL     1      13.301  -8.132 -13.256  1.00  0.00    -0.353 N 
HETATM   20  C10 UNL     1      13.689  -9.402 -13.059  1.00  0.00     0.106 A 
ATOM     21  H5  UNL     1      12.720  -7.822 -14.034  1.00  0.00     0.166 HD
HETATM   22  C11 UNL     1      14.452  -9.391 -11.908  1.00  0.00     0.108 A 
HETATM   23  N6  UNL     1      14.486  -8.117 -11.468  1.00  0.00    -0.348 N 
HETATM   24  C12 UNL     1      15.203  -7.734 -10.275  1.00  0.00     0.157 C 
ENDBRANCH  17  18
BRANCH  17  25
HETATM   25  C13 UNL     1      14.012  -5.142 -13.408  1.00  0.00     0.008 C 
HETATM   26  C14 UNL     1      15.459  -5.221 -13.728  1.00  0.00     0.012 C 
HETATM   27  C15 UNL     1      13.697  -3.640 -13.257  1.00  0.00     0.012 C 
ENDBRANCH  17  25
ENDBRANCH   7  17
TORSDOF 4
ENDMDL
MODEL 3
REMARK VINA RESULT: -5.583155889      1.243      1.554
REMARK  4 active torsions:
REMARK  status: ('A' for Active; 'I' for Inactive)
REMARK       I    between atoms: N1_2  and  C2_4 
REMARK       I    between atoms: C2_4  and  N2_5 
REMARK       I    between atoms: C2_4  and  N4_15 
REMARK    1  A    between atoms: N2_5  and  C3_7 
REMARK    2  A    between atoms: N4_15  and  C8_17 
REMARK    3  A    between atoms: C8_17  and  C9_18 
REMARK    4  A    between atoms: C8_17  and  C13_25 
ROOT
HETATM    1  C1  UNL     1      11.209  -6.322 -13.783  1.00  0.00     0.165 C 
HETATM    2  N1  UNL     1      10.108  -5.852 -13.015  1.00  0.00    -0.231 N 
ATOM      3  H1  UNL     1       9.193  -5.897 -13.461  1.00  0.00     0.177 HD
HETATM    4  C2  UNL     1      10.137  -5.376 -11.821  1.00  0.00     0.674 C 
HETATM    5  N2  UNL     1      11.386  -5.302 -11.176  1.00  0.00    -0.189 N 
ATOM      6  H2  UNL     1      11.904  -4.435 -11.319  1.00  0.00     0.184 HD
HETATM    7  N4  UNL     1       8.992  -4.926 -11.135  1.00  0.00    -0.214 N 
ATOM      8  H4  UNL     1       8.930  -5.207 -10.157  1.00  0.00     0.178 HD
ENDROOT
BRANCH   5   9
HETATM    9  C3  UNL     1      11.959  -6.166 -10.440  1.00  0.00     0.090 A 
HETATM   10  C4  UNL     1      11.346  -6.498  -9.248  1.00  0.00     0.050 A 
HETATM   11  C5  UNL     1      11.889  -7.418  -8.393  1.00  0.00     0.090 A 
HETATM   12  N3  UNL     1      13.057  -8.020  -8.721  1.00  0.00    -0.372 N 
HETATM   13  C6  UNL     1      13.668  -7.707  -9.880  1.00  0.00     0.132 A 
ATOM     14  H3  UNL     1      13.473  -8.708  -8.093  1.00  0.00     0.164 HD
HETATM   15  C7  UNL     1      13.142  -6.786 -10.758  1.00  0.00     0.158 A 
HETATM   16  F1  UNL     1      13.801  -6.499 -11.927  1.00  0.00    -0.202 F 
ENDBRANCH   5   9
BRANCH   7  17
HETATM   17  C8  UNL     1       7.913  -4.139 -11.610  1.00  0.00     0.170 C 
BRANCH  17  18
HETATM   18  C9  UNL     1       6.824  -5.012 -12.186  1.00  0.00     0.107 A 
HETATM   19  N5  UNL     1       5.903  -5.708 -11.510  1.00  0.00    -0.353 N 
HETATM   20  C10 UNL     1       5.088  -6.374 -12.343  1.00  0.00     0.106 A 
ATOM     21  H5  UNL     1       5.830  -5.730 -10.493  1.00  0.00     0.166 HD
HETATM   22  C11 UNL     1       5.526  -6.076 -13.619  1.00  0.00     0.108 A 
HETATM   23  N6  UNL     1       6.582  -5.246 -13.491  1.00  0.00    -0.348 N 
HETATM   24  C12 UNL     1       7.294  -4.727 -14.635  1.00  0.00     0.157 C 
ENDBRANCH  17  18
BRANCH  17  25
HETATM   25  C13 UNL     1       7.356  -3.252 -10.547  1.00  0.00     0.008 C 
HETATM   26  C14 UNL     1       6.756  -1.970 -10.993  1.00  0.00     0.012 C 
HETATM   27  C15 UNL     1       8.504  -2.868  -9.592  1.00  0.00     0.012 C 
ENDBRANCH  17  25
ENDBRANCH   7  17
TORSDOF 4
ENDMDL
MODEL 4
REMARK VINA RESULT: -5.578038601      1.216      1.561
REMARK  4 active torsions:
REMARK  status: ('A' for Active; 'I' for Inactive)
REMARK       I    between atoms: N1_2  and  C2_4 
REMARK       I    between atoms: C2_4  and  N2_5 
REMARK       I    between atoms: C2_4  and  N4_15 
REMARK    1  A    between atoms: N2_5  and  C3_7 
REMARK    2  A    between atoms: N4_15  and  C8_17 
REMARK    3  A    between atoms: C8_17  and  C9_18 
REMARK    4  A    between atoms: C8_17  and  C13_25 
ROOT
HETATM    1  C1  UNL     1      12.854  -4.464 -12.796  1.00  0.00     0.165 C 
HETATM    2  N1  UNL     1      11.449  -4.408 -12.576  1.00  0.00    -0.231 N 
ATOM      3  H1  UNL     1      10.878  -4.124 -13.371  1.00  0.00     0.177 HD
HETATM    4  C2  UNL     1      10.819  -4.677 -11.488  1.00  0.00     0.674 C 
HETATM    5  N2  UNL     1      11.580  -5.074 -10.372  1.00  0.00    -0.189 N 
ATOM      6  H2  UNL     1      11.899  -4.318  -9.766  1.00  0.00     0.184 HD
HETATM    7  N4  UNL     1       9.420  -4.587 -11.358  1.00  0.00    -0.214 N 
ATOM      8  H4  UNL     1       8.979  -5.356 -10.853  1.00  0.00     0.178 HD
ENDROOT
BRANCH   5   9
HETATM    9  C3  UNL     1      11.925  -6.244 -10.015  1.00  0.00     0.090 A 
HETATM   10  C4  UNL     1      12.355  -7.112 -10.998  1.00  0.00     0.050 A 
HETATM   11  C5  UNL     1      12.746  -8.390 -10.707  1.00  0.00     0.090 A 
HETATM   12  N3  UNL     1      12.712  -8.819  -9.422  1.00  0.00    -0.372 N 
HETATM   13  C6  UNL     1      12.294  -7.985  -8.451  1.00  0.00     0.132 A 
ATOM     14  H3  UNL     1      13.001  -9.769  -9.191  1.00  0.00     0.164 HD
HETATM   15  C7  UNL     1      11.896  -6.693  -8.717  1.00  0.00     0.158 A 
HETATM   16  F1  UNL     1      11.478  -5.880  -7.694  1.00  0.00    -0.202 F 
ENDBRANCH   5   9
BRANCH   7  17
HETATM   17  C8  UNL     1       8.536  -3.584 -11.827  1.00  0.00     0.170 C 
BRANCH  17  18
HETATM   18  C9  UNL     1       7.965  -3.959 -13.173  1.00  0.00     0.107 A 
HETATM   19  N5  UNL     1       7.419  -5.130 -13.522  1.00  0.00    -0.353 N 
HETATM   20  C10 UNL     1       7.012  -5.114 -14.801  1.00  0.00     0.106 A 
ATOM     21  H5  UNL     1       7.324  -5.930 -12.897  1.00  0.00     0.166 HD
HETATM   22  C11 UNL     1       7.322  -3.857 -15.282  1.00  0.00     0.108 A 
HETATM   23  N6  UNL     1       7.899  -3.178 -14.270  1.00  0.00    -0.348 N 
HETATM   24  C12 UNL     1       8.354  -1.815 -14.419  1.00  0.00     0.157 C 
ENDBRANCH  17  18
BRANCH  17  25
HETATM   25  C13 UNL     1       7.437  -3.307 -10.858  1.00  0.00     0.008 C 
HETATM   26  C14 UNL     1       6.689  -2.038 -11.040  1.00  0.00     0.012 C 
HETATM   27  C15 UNL     1       8.049  -3.234  -9.444  1.00  0.00     0.012 C 
ENDBRANCH  17  25
ENDBRANCH   7  17
TORSDOF 4
ENDMDL
MODEL 5
REMARK VINA RESULT: -5.436694490      4.661      7.972
REMARK  4 active torsions:
REMARK  status: ('A' for Active; 'I' for Inactive)
REMARK       I    between atoms: N1_2  and  C2_4 
REMARK       I    between atoms: C2_4  and  N2_5 
REMARK       I    between atoms: C2_4  and  N4_15 
REMARK    1  A    between atoms: N2_5  and  C3_7 
REMARK    2  A    between atoms: N4_15  and  C8_17 
REMARK    3  A    between atoms: C8_17  and  C9_18 
REMARK    4  A    between atoms: C8_17  and  C13_25 
ROOT
HETATM    1  C1  UNL     1       9.171  -3.782 -17.304  1.00  0.00     0.165 C 
HETATM    2  N1  UNL     1       8.941  -3.502 -15.929  1.00  0.00    -0.231 N 
ATOM      3  H1  UNL     1       9.622  -3.879 -15.270  1.00  0.00     0.177 HD
HETATM    4  C2  UNL     1       7.971  -2.826 -15.422  1.00  0.00     0.674 C 
HETATM    5  N2  UNL     1       7.015  -2.290 -16.306  1.00  0.00    -0.189 N 
ATOM      6  H2  UNL     1       6.221  -2.895 -16.513  1.00  0.00     0.184 HD
HETATM    7  N4  UNL     1       7.818  -2.603 -14.040  1.00  0.00    -0.214 N 
ATOM      8  H4  UNL     1       7.550  -1.654 -13.778  1.00  0.00     0.178 HD
ENDROOT
BRANCH   5   9
HETATM    9  C3  UNL     1       7.005  -1.156 -16.881  1.00  0.00     0.090 A 
HETATM   10  C4  UNL     1       8.103  -0.340 -16.704  1.00  0.00     0.050 A 
HETATM   11  C5  UNL     1       8.180   0.896 -17.285  1.00  0.00     0.090 A 
HETATM   12  N3  UNL     1       7.153   1.333 -18.054  1.00  0.00    -0.372 N 
HETATM   13  C6  UNL     1       6.074   0.549 -18.235  1.00  0.00     0.132 A 
ATOM     14  H3  UNL     1       7.197   2.253 -18.493  1.00  0.00     0.164 HD
HETATM   15  C7  UNL     1       5.972  -0.700 -17.662  1.00  0.00     0.158 A 
HETATM   16  F1  UNL     1       4.853  -1.463 -17.876  1.00  0.00    -0.202 F 
ENDBRANCH   5   9
BRANCH   7  17
HETATM   17  C8  UNL     1       7.983  -3.507 -12.960  1.00  0.00     0.170 C 
BRANCH  17  18
HETATM   18  C9  UNL     1       7.645  -2.842 -11.648  1.00  0.00     0.107 A 
HETATM   19  N5  UNL     1       6.709  -1.912 -11.430  1.00  0.00    -0.353 N 
HETATM   20  C10 UNL     1       6.680  -1.544 -10.139  1.00  0.00     0.106 A 
ATOM     21  H5  UNL     1       6.096  -1.532 -12.151  1.00  0.00     0.166 HD
HETATM   22  C11 UNL     1       7.659  -2.289  -9.511  1.00  0.00     0.108 A 
HETATM   23  N6  UNL     1       8.228  -3.069 -10.453  1.00  0.00    -0.348 N 
HETATM   24  C12 UNL     1       9.299  -3.987 -10.146  1.00  0.00     0.157 C 
ENDBRANCH  17  18
BRANCH  17  25
HETATM   25  C13 UNL     1       7.170  -4.745 -13.137  1.00  0.00     0.008 C 
HETATM   26  C14 UNL     1       6.249  -5.104 -12.029  1.00  0.00     0.012 C 
HETATM   27  C15 UNL     1       8.136  -5.938 -13.282  1.00  0.00     0.012 C 
ENDBRANCH  17  25
ENDBRANCH   7  17
TORSDOF 4
ENDMDL
