MODEL 1
REMARK VINA RESULT: -4.830211852      0.000      0.000
REMARK  4 active torsions:
REMARK  status: ('A' for Active; 'I' for Inactive)
REMARK    1  A    between atoms: C10_11  and  O1_12 
REMARK    2  A    between atoms: C10_11  and  C11_14 
REMARK    3  A    between atoms: C11_14  and  N1_15 
REMARK    4  A    between atoms: N1_15  and  S1_17 
ROOT
HETATM    1  C1  UNL     1      12.497  -4.382 -12.194  1.00  0.00     0.012 C 
HETATM    2  C2  UNL     1      11.840  -5.709 -12.362  1.00  0.00     0.012 C 
HETATM    3  C3  UNL     1      11.246  -5.891 -13.732  1.00  0.00     0.095 C 
HETATM    4 CL1  UNL     1      11.508  -4.472 -14.776  1.00  0.00    -0.124 Cl
HETATM    5  C4  UNL     1       9.756  -6.159 -13.541  1.00  0.00    -0.024 C 
HETATM    6  C5  UNL     1       9.073  -6.197 -14.860  1.00  0.00     0.016 C 
HETATM    7  C6  UNL     1       9.626  -7.469 -12.813  1.00  0.00     0.011 C 
HETATM    8  C7  UNL     1      10.445  -7.510 -11.554  1.00  0.00     0.013 C 
HETATM    9  C8  UNL     1      10.855  -6.051 -11.267  1.00  0.00    -0.007 C 
HETATM   10  C9  UNL     1      11.566  -6.091  -9.954  1.00  0.00     0.019 C 
HETATM   11  C10 UNL     1       9.606  -5.263 -11.290  1.00  0.00     0.083 C 
HETATM   12  C13 UNL     1       9.223  -4.995 -12.732  1.00  0.00     0.051 C 
ENDROOT
BRANCH  11  13
HETATM   13  O1  UNL     1       8.543  -6.047 -10.782  1.00  0.00    -0.387 OA
ATOM     14  H1  UNL     1       7.759  -5.891 -11.297  1.00  0.00     0.210 HD
ENDBRANCH  11  13
BRANCH  11  15
HETATM   15  C11 UNL     1       9.624  -3.999 -10.477  1.00  0.00     0.170 C 
BRANCH  15  16
HETATM   16  N1  UNL     1       8.713  -3.044 -11.045  1.00  0.00    -0.317 N 
ATOM     17  H1  UNL     1       8.926  -2.481 -11.868  1.00  0.00     0.172 HD
BRANCH  16  18
HETATM   18  S1  UNL     1       7.226  -2.951 -10.189  1.00  0.00     0.222 S 
HETATM   19  C12 UNL     1       6.523  -1.353 -10.448  1.00  0.00     0.185 C 
HETATM   20  O2  UNL     1       6.258  -3.997 -10.588  1.00  0.00    -0.206 OA
HETATM   21  O3  UNL     1       7.496  -3.101  -8.723  1.00  0.00    -0.206 OA
ENDBRANCH  16  18
ENDBRANCH  15  16
ENDBRANCH  11  15
TORSDOF 4
ENDMDL
MODEL 2
REMARK VINA RESULT: -4.782041633      3.477      4.809
REMARK  4 active torsions:
REMARK  status: ('A' for Active; 'I' for Inactive)
REMARK    1  A    between atoms: C10_11  and  O1_12 
REMARK    2  A    between atoms: C10_11  and  C11_14 
REMARK    3  A    between atoms: C11_14  and  N1_15 
REMARK    4  A    between atoms: N1_15  and  S1_17 
ROOT
HETATM    1  C1  UNL     1       9.270  -3.628  -9.655  1.00  0.00     0.012 C 
HETATM    2  C2  UNL     1       9.324  -3.694 -11.143  1.00  0.00     0.012 C 
HETATM    3  C3  UNL     1       7.958  -3.752 -11.770  1.00  0.00     0.095 C 
HETATM    4 CL1  UNL     1       6.654  -3.712 -10.556  1.00  0.00    -0.124 Cl
HETATM    5  C4  UNL     1       7.898  -5.038 -12.590  1.00  0.00    -0.024 C 
HETATM    6  C5  UNL     1       6.522  -5.241 -13.116  1.00  0.00     0.016 C 
HETATM    7  C6  UNL     1       8.901  -4.907 -13.703  1.00  0.00     0.011 C 
HETATM    8  C7  UNL     1      10.268  -4.537 -13.202  1.00  0.00     0.013 C 
HETATM    9  C8  UNL     1      10.240  -4.771 -11.678  1.00  0.00    -0.007 C 
HETATM   10  C9  UNL     1      11.636  -4.514 -11.212  1.00  0.00     0.019 C 
HETATM   11  C10 UNL     1       9.750  -6.152 -11.485  1.00  0.00     0.083 C 
HETATM   12  C13 UNL     1       8.241  -6.161 -11.633  1.00  0.00     0.051 C 
ENDROOT
BRANCH  11  13
HETATM   13  O1  UNL     1      10.213  -6.970 -12.544  1.00  0.00    -0.387 OA
ATOM     14  H1  UNL     1      10.342  -7.856 -12.227  1.00  0.00     0.210 HD
ENDBRANCH  11  13
BRANCH  11  15
HETATM   15  C11 UNL     1      10.186  -6.821 -10.213  1.00  0.00     0.170 C 
BRANCH  15  16
HETATM   16  N1  UNL     1      11.187  -7.811 -10.503  1.00  0.00    -0.317 N 
ATOM     17  H1  UNL     1      11.158  -8.420 -11.320  1.00  0.00     0.172 HD
BRANCH  16  18
HETATM   18  S1  UNL     1      12.436  -7.858  -9.323  1.00  0.00     0.222 S 
HETATM   19  C12 UNL     1      13.981  -7.566 -10.125  1.00  0.00     0.185 C 
HETATM   20  O2  UNL     1      12.243  -6.878  -8.231  1.00  0.00    -0.206 OA
HETATM   21  O3  UNL     1      12.485  -9.228  -8.718  1.00  0.00    -0.206 OA
ENDBRANCH  16  18
ENDBRANCH  15  16
ENDBRANCH  11  15
TORSDOF 4
ENDMDL
MODEL 3
REMARK VINA RESULT: -4.708628469      3.282      4.362
REMARK  4 active torsions:
REMARK  status: ('A' for Active; 'I' for Inactive)
REMARK    1  A    between atoms: C10_11  and  O1_12 
REMARK    2  A    between atoms: C10_11  and  C11_14 
REMARK    3  A    between atoms: C11_14  and  N1_15 
REMARK    4  A    between atoms: N1_15  and  S1_17 
ROOT
HETATM    1  C1  UNL     1       8.503  -2.856  -9.817  1.00  0.00     0.012 C 
HETATM    2  C2  UNL     1       8.677  -4.276 -10.234  1.00  0.00     0.012 C 
HETATM    3  C3  UNL     1      10.108  -4.732 -10.153  1.00  0.00     0.095 C 
HETATM    4 CL1  UNL     1      11.195  -3.447  -9.566  1.00  0.00    -0.124 Cl
HETATM    5  C4  UNL     1      10.512  -5.188 -11.552  1.00  0.00    -0.024 C 
HETATM    6  C5  UNL     1      11.963  -5.509 -11.584  1.00  0.00     0.016 C 
HETATM    7  C6  UNL     1       9.673  -6.391 -11.890  1.00  0.00     0.011 C 
HETATM    8  C7  UNL     1       8.204  -6.135 -11.704  1.00  0.00     0.013 C 
HETATM    9  C8  UNL     1       8.052  -4.606 -11.571  1.00  0.00    -0.007 C 
HETATM   10  C9  UNL     1       6.580  -4.359 -11.505  1.00  0.00     0.019 C 
HETATM   11  C10 UNL     1       8.744  -4.023 -12.738  1.00  0.00     0.083 C 
HETATM   12  C13 UNL     1      10.236  -4.016 -12.470  1.00  0.00     0.051 C 
ENDROOT
BRANCH  11  13
HETATM   13  O1  UNL     1       8.590  -4.878 -13.855  1.00  0.00    -0.387 OA
ATOM     14  H1  UNL     1       8.589  -4.361 -14.653  1.00  0.00     0.210 HD
ENDBRANCH  11  13
BRANCH  11  15
HETATM   15  C11 UNL     1       8.253  -2.670 -13.172  1.00  0.00     0.170 C 
BRANCH  15  16
HETATM   16  N1  UNL     1       8.961  -2.251 -14.350  1.00  0.00    -0.317 N 
ATOM     17  H1  UNL     1       9.972  -2.120 -14.384  1.00  0.00     0.172 HD
BRANCH  16  18
HETATM   18  S1  UNL     1       7.922  -1.994 -15.694  1.00  0.00     0.222 S 
HETATM   19  C12 UNL     1       8.912  -1.761 -17.137  1.00  0.00     0.185 C 
HETATM   20  O2  UNL     1       6.967  -3.103 -15.913  1.00  0.00    -0.206 OA
HETATM   21  O3  UNL     1       7.135  -0.738 -15.471  1.00  0.00    -0.206 OA
ENDBRANCH  16  18
ENDBRANCH  15  16
ENDBRANCH  11  15
TORSDOF 4
ENDMDL
MODEL 4
REMARK VINA RESULT: -4.608920150      1.167      1.390
REMARK  4 active torsions:
REMARK  status: ('A' for Active; 'I' for Inactive)
REMARK    1  A    between atoms: C10_11  and  O1_12 
REMARK    2  A    between atoms: C10_11  and  C11_14 
REMARK    3  A    between atoms: C11_14  and  N1_15 
REMARK    4  A    between atoms: N1_15  and  S1_17 
ROOT
HETATM    1  C1  UNL     1      12.456  -4.705 -12.114  1.00  0.00     0.012 C 
HETATM    2  C2  UNL     1      11.811  -5.937 -11.580  1.00  0.00     0.012 C 
HETATM    3  C3  UNL     1      11.541  -6.959 -12.649  1.00  0.00     0.095 C 
HETATM    4 CL1  UNL     1      12.083  -6.414 -14.257  1.00  0.00    -0.124 Cl
HETATM    5  C4  UNL     1      10.039  -7.226 -12.643  1.00  0.00    -0.024 C 
HETATM    6  C5  UNL     1       9.676  -8.114 -13.780  1.00  0.00     0.016 C 
HETATM    7  C6  UNL     1       9.701  -7.857 -11.320  1.00  0.00     0.011 C 
HETATM    8  C7  UNL     1      10.209  -7.054 -10.156  1.00  0.00     0.013 C 
HETATM    9  C8  UNL     1      10.591  -5.673 -10.727  1.00  0.00    -0.007 C 
HETATM   10  C9  UNL     1      10.980  -4.849  -9.544  1.00  0.00     0.019 C 
HETATM   11  C10 UNL     1       9.407  -5.196 -11.472  1.00  0.00     0.083 C 
HETATM   12  C13 UNL     1       9.374  -5.878 -12.826  1.00  0.00     0.051 C 
ENDROOT
BRANCH  11  13
HETATM   13  O1  UNL     1       8.230  -5.641 -10.824  1.00  0.00    -0.387 OA
ATOM     14  H1  UNL     1       8.406  -6.457 -10.371  1.00  0.00     0.210 HD
ENDBRANCH  11  13
BRANCH  11  15
HETATM   15  C11 UNL     1       9.281  -3.705 -11.600  1.00  0.00     0.170 C 
BRANCH  15  16
HETATM   16  N1  UNL     1       7.940  -3.301 -11.276  1.00  0.00    -0.317 N 
ATOM     17  H1  UNL     1       7.135  -3.488 -11.873  1.00  0.00     0.172 HD
BRANCH  16  18
HETATM   18  S1  UNL     1       7.840  -2.470  -9.775  1.00  0.00     0.222 S 
HETATM   19  C12 UNL     1       6.712  -1.123  -9.950  1.00  0.00     0.185 C 
HETATM   20  O2  UNL     1       7.416  -3.339  -8.655  1.00  0.00    -0.206 OA
HETATM   21  O3  UNL     1       9.185  -1.900  -9.441  1.00  0.00    -0.206 OA
ENDBRANCH  16  18
ENDBRANCH  15  16
ENDBRANCH  11  15
TORSDOF 4
ENDMDL
MODEL 5
REMARK VINA RESULT: -4.538685633      3.775      5.414
REMARK  4 active torsions:
REMARK  status: ('A' for Active; 'I' for Inactive)
REMARK    1  A    between atoms: C10_11  and  O1_12 
REMARK    2  A    between atoms: C10_11  and  C11_14 
REMARK    3  A    between atoms: C11_14  and  N1_15 
REMARK    4  A    between atoms: N1_15  and  S1_17 
ROOT
HETATM    1  C1  UNL     1       8.953  -3.514 -12.526  1.00  0.00     0.012 C 
HETATM    2  C2  UNL     1       9.005  -4.847 -11.862  1.00  0.00     0.012 C 
HETATM    3  C3  UNL     1       9.332  -4.752 -10.397  1.00  0.00     0.095 C 
HETATM    4 CL1  UNL     1       9.553  -3.066  -9.862  1.00  0.00    -0.124 Cl
HETATM    5  C4  UNL     1      10.603  -5.565 -10.170  1.00  0.00    -0.024 C 
HETATM    6  C5  UNL     1      11.075  -5.391  -8.771  1.00  0.00     0.016 C 
HETATM    7  C6  UNL     1      10.274  -7.003 -10.467  1.00  0.00     0.011 C 
HETATM    8  C7  UNL     1       9.640  -7.178 -11.818  1.00  0.00     0.013 C 
HETATM    9  C8  UNL     1       9.878  -5.855 -12.574  1.00  0.00    -0.007 C 
HETATM   10  C9  UNL     1       9.349  -6.086 -13.952  1.00  0.00     0.019 C 
HETATM   11  C10 UNL     1      11.328  -5.589 -12.486  1.00  0.00     0.083 C 
HETATM   12  C13 UNL     1      11.637  -5.002 -11.123  1.00  0.00     0.051 C 
ENDROOT
BRANCH  11  13
HETATM   13  O1  UNL     1      12.037  -6.814 -12.511  1.00  0.00    -0.387 OA
ATOM     14  H1  UNL     1      11.439  -7.522 -12.724  1.00  0.00     0.210 HD
ENDBRANCH  11  13
BRANCH  11  15
HETATM   15  C11 UNL     1      11.900  -4.749 -13.593  1.00  0.00     0.170 C 
BRANCH  15  16
HETATM   16  N1  UNL     1      12.936  -3.899 -13.073  1.00  0.00    -0.317 N 
ATOM     17  H1  UNL     1      12.758  -3.102 -12.462  1.00  0.00     0.172 HD
BRANCH  16  18
HETATM   18  S1  UNL     1      14.505  -4.370 -13.592  1.00  0.00     0.222 S 
HETATM   19  C12 UNL     1      14.457  -4.679 -15.329  1.00  0.00     0.185 C 
HETATM   20  O2  UNL     1      15.545  -3.362 -13.289  1.00  0.00    -0.206 OA
HETATM   21  O3  UNL     1      14.882  -5.649 -12.909  1.00  0.00    -0.206 OA
ENDBRANCH  16  18
ENDBRANCH  15  16
ENDBRANCH  11  15
TORSDOF 4
ENDMDL
