MODEL 1
REMARK VINA RESULT: -5.716351258      0.000      0.000
REMARK  4 active torsions:
REMARK  status: ('A' for Active; 'I' for Inactive)
REMARK    1  A    between atoms: N2_7  and  C5_9 
REMARK    2  A    between atoms: C5_9  and  C6_10 
REMARK    3  A    between atoms: C6_10  and  N3_13 
REMARK    4  A    between atoms: N3_13  and  C9_16 
ROOT
HETATM    1  C9  UNL     1      12.994  -7.812  -9.906  1.00  0.00     0.288 C 
HETATM    2  C10 UNL     1      14.481  -7.703 -10.128  1.00  0.00     0.056 C 
HETATM    3  C11 UNL     1      12.681  -9.265  -9.880  1.00  0.00     0.092 C 
HETATM    4  N4  UNL     1      12.447 -10.394  -9.841  1.00  0.00    -0.195 NA
ENDROOT
BRANCH   1   5
HETATM    5  N3  UNL     1      12.175  -7.199 -10.883  1.00  0.00    -0.049 N 
ATOM      6  H32 UNL     1      11.895  -7.879 -11.590  1.00  0.00     0.279 HD
ATOM      7  H31 UNL     1      12.726  -6.564 -11.461  1.00  0.00     0.279 HD
BRANCH   5   8
HETATM    8  C6  UNL     1      11.033  -6.530 -10.361  1.00  0.00     0.136 C 
HETATM    9  C7  UNL     1       9.720  -7.214 -10.566  1.00  0.00     0.048 C 
HETATM   10  C8  UNL     1      11.244  -6.124  -8.919  1.00  0.00     0.048 C 
BRANCH   8  11
HETATM   11  C5  UNL     1      10.880  -5.169 -11.111  1.00  0.00     0.159 C 
BRANCH  11  12
HETATM   12  N2  UNL     1      10.168  -4.310 -10.247  1.00  0.00    -0.373 N 
HETATM   13  C4  UNL     1       9.166  -3.567 -10.373  1.00  0.00     0.118 A 
HETATM   14  N1  UNL     1       8.762  -2.866  -9.265  1.00  0.00    -0.351 N 
HETATM   15  C12 UNL     1       8.490  -3.447 -11.557  1.00  0.00     0.055 A 
HETATM   16  C3  UNL     1       7.710  -2.048  -9.296  1.00  0.00     0.096 A 
ATOM     17  H1  UNL     1       9.282  -2.973  -8.394  1.00  0.00     0.166 HD
HETATM   18  C2  UNL     1       7.016  -1.910 -10.477  1.00  0.00    -0.045 A 
HETATM   19  C1  UNL     1       5.845  -1.000 -10.518  1.00  0.00     0.049 C 
HETATM   20  C13 UNL     1       7.388  -2.596 -11.609  1.00  0.00     0.031 A 
HETATM   21 BR1  UNL     1       8.944  -4.361 -13.169  1.00  0.00    -0.047 Br
ATOM     22  H2  UNL     1      10.557  -4.288  -9.305  1.00  0.00     0.161 HD
ENDBRANCH  11  12
ENDBRANCH   8  11
ENDBRANCH   5   8
ENDBRANCH   1   5
TORSDOF 4
ENDMDL
MODEL 2
REMARK VINA RESULT: -5.511707034      1.230      1.655
REMARK  4 active torsions:
REMARK  status: ('A' for Active; 'I' for Inactive)
REMARK    1  A    between atoms: N2_7  and  C5_9 
REMARK    2  A    between atoms: C5_9  and  C6_10 
REMARK    3  A    between atoms: C6_10  and  N3_13 
REMARK    4  A    between atoms: N3_13  and  C9_16 
ROOT
HETATM    1  C9  UNL     1      12.950  -7.260 -10.327  1.00  0.00     0.288 C 
HETATM    2  C10 UNL     1      14.355  -7.555 -10.785  1.00  0.00     0.056 C 
HETATM    3  C11 UNL     1      12.694  -8.152  -9.165  1.00  0.00     0.092 C 
HETATM    4  N4  UNL     1      12.508  -8.831  -8.251  1.00  0.00    -0.195 NA
ENDROOT
BRANCH   1   5
HETATM    5  N3  UNL     1      11.929  -7.475 -11.283  1.00  0.00    -0.049 N 
ATOM      6  H32 UNL     1      11.289  -8.202 -10.963  1.00  0.00     0.279 HD
ATOM      7  H31 UNL     1      12.310  -7.930 -12.113  1.00  0.00     0.279 HD
BRANCH   5   8
HETATM    8  C6  UNL     1      11.206  -6.305 -11.647  1.00  0.00     0.136 C 
HETATM    9  C7  UNL     1      11.776  -5.007 -11.173  1.00  0.00     0.048 C 
HETATM   10  C8  UNL     1      10.902  -6.284 -13.129  1.00  0.00     0.048 C 
BRANCH   8  11
HETATM   11  C5  UNL     1       9.796  -6.375 -10.980  1.00  0.00     0.159 C 
BRANCH  11  12
HETATM   12  N2  UNL     1       9.612  -5.154 -10.296  1.00  0.00    -0.373 N 
HETATM   13  C4  UNL     1       8.754  -4.242 -10.338  1.00  0.00     0.118 A 
HETATM   14  N1  UNL     1       8.926  -3.179  -9.488  1.00  0.00    -0.351 N 
HETATM   15  C12 UNL     1       7.683  -4.286 -11.188  1.00  0.00     0.055 A 
HETATM   16  C3  UNL     1       8.070  -2.159  -9.456  1.00  0.00     0.096 A 
ATOM     17  H1  UNL     1       9.732  -3.171  -8.862  1.00  0.00     0.166 HD
HETATM   18  C2  UNL     1       6.985  -2.180 -10.304  1.00  0.00    -0.045 A 
HETATM   19  C1  UNL     1       6.030  -1.046 -10.275  1.00  0.00     0.049 C 
HETATM   20  C13 UNL     1       6.777  -3.227 -11.170  1.00  0.00     0.031 A 
HETATM   21 BR1  UNL     1       7.324  -5.700 -12.419  1.00  0.00    -0.047 Br
ATOM     22  H2  UNL     1      10.346  -4.973  -9.612  1.00  0.00     0.161 HD
ENDBRANCH  11  12
ENDBRANCH   8  11
ENDBRANCH   5   8
ENDBRANCH   1   5
TORSDOF 4
ENDMDL
MODEL 3
REMARK VINA RESULT: -5.503484965      2.151      6.304
REMARK  4 active torsions:
REMARK  status: ('A' for Active; 'I' for Inactive)
REMARK    1  A    between atoms: N2_7  and  C5_9 
REMARK    2  A    between atoms: C5_9  and  C6_10 
REMARK    3  A    between atoms: C6_10  and  N3_13 
REMARK    4  A    between atoms: N3_13  and  C9_16 
ROOT
HETATM    1  C9  UNL     1       6.797  -2.300 -10.968  1.00  0.00     0.288 C 
HETATM    2  C10 UNL     1       6.091  -1.005 -10.660  1.00  0.00     0.056 C 
HETATM    3  C11 UNL     1       7.364  -2.784  -9.681  1.00  0.00     0.092 C 
HETATM    4  N4  UNL     1       7.784  -3.164  -8.676  1.00  0.00    -0.195 NA
ENDROOT
BRANCH   1   5
HETATM    5  N3  UNL     1       7.847  -2.224 -11.914  1.00  0.00    -0.049 N 
ATOM      6  H32 UNL     1       8.745  -2.127 -11.441  1.00  0.00     0.279 HD
ATOM      7  H31 UNL     1       7.813  -1.334 -12.410  1.00  0.00     0.279 HD
BRANCH   5   8
HETATM    8  C6  UNL     1       7.888  -3.305 -12.838  1.00  0.00     0.136 C 
HETATM    9  C7  UNL     1       6.990  -4.462 -12.537  1.00  0.00     0.048 C 
HETATM   10  C8  UNL     1       7.729  -2.819 -14.262  1.00  0.00     0.048 C 
BRANCH   8  11
HETATM   11  C5  UNL     1       9.324  -3.915 -12.812  1.00  0.00     0.159 C 
BRANCH  11  12
HETATM   12  N2  UNL     1       9.660  -4.102 -11.454  1.00  0.00    -0.373 N 
HETATM   13  C4  UNL     1      10.360  -4.930 -10.825  1.00  0.00     0.118 A 
HETATM   14  N1  UNL     1      10.445  -4.774  -9.465  1.00  0.00    -0.351 N 
HETATM   15  C12 UNL     1      11.019  -5.952 -11.451  1.00  0.00     0.055 A 
HETATM   16  C3  UNL     1      11.162  -5.602  -8.706  1.00  0.00     0.096 A 
ATOM     17  H1  UNL     1       9.945  -4.003  -9.022  1.00  0.00     0.166 HD
HETATM   18  C2  UNL     1      11.833  -6.640  -9.314  1.00  0.00    -0.045 A 
HETATM   19  C1  UNL     1      12.632  -7.567  -8.475  1.00  0.00     0.049 C 
HETATM   20  C13 UNL     1      11.774  -6.830 -10.675  1.00  0.00     0.031 A 
HETATM   21 BR1  UNL     1      10.986  -6.283 -13.330  1.00  0.00    -0.047 Br
ATOM     22  H2  UNL     1       9.235  -3.402 -10.845  1.00  0.00     0.161 HD
ENDBRANCH  11  12
ENDBRANCH   8  11
ENDBRANCH   5   8
ENDBRANCH   1   5
TORSDOF 4
ENDMDL
MODEL 4
REMARK VINA RESULT: -5.488891646      1.164      1.724
REMARK  4 active torsions:
REMARK  status: ('A' for Active; 'I' for Inactive)
REMARK    1  A    between atoms: N2_7  and  C5_9 
REMARK    2  A    between atoms: C5_9  and  C6_10 
REMARK    3  A    between atoms: C6_10  and  N3_13 
REMARK    4  A    between atoms: N3_13  and  C9_16 
ROOT
HETATM    1  C9  UNL     1      11.310  -6.785  -9.166  1.00  0.00     0.288 C 
HETATM    2  C10 UNL     1      11.285  -5.883  -7.959  1.00  0.00     0.056 C 
HETATM    3  C11 UNL     1      12.069  -8.000  -8.764  1.00  0.00     0.092 C 
HETATM    4  N4  UNL     1      12.640  -8.948  -8.440  1.00  0.00    -0.195 NA
ENDROOT
BRANCH   1   5
HETATM    5  N3  UNL     1      11.916  -6.249 -10.328  1.00  0.00    -0.049 N 
ATOM      6  H32 UNL     1      12.853  -6.632 -10.449  1.00  0.00     0.279 HD
ATOM      7  H31 UNL     1      12.145  -5.265 -10.186  1.00  0.00     0.279 HD
BRANCH   5   8
HETATM    8  C6  UNL     1      11.155  -6.414 -11.519  1.00  0.00     0.136 C 
HETATM    9  C7  UNL     1      11.866  -7.051 -12.669  1.00  0.00     0.048 C 
HETATM   10  C8  UNL     1       9.825  -7.076 -11.236  1.00  0.00     0.048 C 
BRANCH   8  11
HETATM   11  C5  UNL     1      10.760  -4.998 -12.045  1.00  0.00     0.159 C 
BRANCH  11  12
HETATM   12  N2  UNL     1      10.083  -4.349 -10.991  1.00  0.00    -0.373 N 
HETATM   13  C4  UNL     1       9.097  -3.579 -10.921  1.00  0.00     0.118 A 
HETATM   14  N1  UNL     1       8.728  -3.145  -9.673  1.00  0.00    -0.351 N 
HETATM   15  C12 UNL     1       8.404  -3.176 -12.030  1.00  0.00     0.055 A 
HETATM   16  C3  UNL     1       7.695  -2.323  -9.491  1.00  0.00     0.096 A 
ATOM     17  H1  UNL     1       9.260  -3.461  -8.861  1.00  0.00     0.166 HD
HETATM   18  C2  UNL     1       6.984  -1.903 -10.593  1.00  0.00    -0.045 A 
HETATM   19  C1  UNL     1       5.834  -0.986 -10.397  1.00  0.00     0.049 C 
HETATM   20  C13 UNL     1       7.321  -2.315 -11.860  1.00  0.00     0.031 A 
HETATM   21 BR1  UNL     1       8.809  -3.701 -13.819  1.00  0.00    -0.047 Br
ATOM     22  H2  UNL     1      10.489  -4.554 -10.079  1.00  0.00     0.161 HD
ENDBRANCH  11  12
ENDBRANCH   8  11
ENDBRANCH   5   8
ENDBRANCH   1   5
TORSDOF 4
ENDMDL
MODEL 5
REMARK VINA RESULT: -5.463139632      1.464      1.922
REMARK  4 active torsions:
REMARK  status: ('A' for Active; 'I' for Inactive)
REMARK    1  A    between atoms: N2_7  and  C5_9 
REMARK    2  A    between atoms: C5_9  and  C6_10 
REMARK    3  A    between atoms: C6_10  and  N3_13 
REMARK    4  A    between atoms: N3_13  and  C9_16 
ROOT
HETATM    1  C9  UNL     1      12.725  -7.666  -9.762  1.00  0.00     0.288 C 
HETATM    2  C10 UNL     1      12.330  -7.931  -8.331  1.00  0.00     0.056 C 
HETATM    3  C11 UNL     1      14.210  -7.723  -9.803  1.00  0.00     0.092 C 
HETATM    4  N4  UNL     1      15.362  -7.788  -9.833  1.00  0.00    -0.195 NA
ENDROOT
BRANCH   1   5
HETATM    5  N3  UNL     1      12.314  -6.421 -10.297  1.00  0.00    -0.049 N 
ATOM      6  H32 UNL     1      13.126  -5.855 -10.542  1.00  0.00     0.279 HD
ATOM      7  H31 UNL     1      11.908  -5.838  -9.566  1.00  0.00     0.279 HD
BRANCH   5   8
HETATM    8  C6  UNL     1      11.426  -6.519 -11.404  1.00  0.00     0.136 C 
HETATM    9  C7  UNL     1      11.472  -5.393 -12.385  1.00  0.00     0.048 C 
HETATM   10  C8  UNL     1      11.537  -7.867 -12.081  1.00  0.00     0.048 C 
BRANCH   8  11
HETATM   11  C5  UNL     1       9.963  -6.497 -10.859  1.00  0.00     0.159 C 
BRANCH  11  12
HETATM   12  N2  UNL     1       9.792  -5.255 -10.212  1.00  0.00    -0.373 N 
HETATM   13  C4  UNL     1       8.931  -4.345 -10.265  1.00  0.00     0.118 A 
HETATM   14  N1  UNL     1       9.119  -3.255  -9.455  1.00  0.00    -0.351 N 
HETATM   15  C12 UNL     1       7.842  -4.418 -11.091  1.00  0.00     0.055 A 
HETATM   16  C3  UNL     1       8.263  -2.234  -9.439  1.00  0.00     0.096 A 
ATOM     17  H1  UNL     1       9.938  -3.225  -8.847  1.00  0.00     0.166 HD
HETATM   18  C2  UNL     1       7.160  -2.285 -10.263  1.00  0.00    -0.045 A 
HETATM   19  C1  UNL     1       6.204  -1.151 -10.251  1.00  0.00     0.049 C 
HETATM   20  C13 UNL     1       6.935  -3.360 -11.089  1.00  0.00     0.031 A 
HETATM   21 BR1  UNL     1       7.460  -5.872 -12.267  1.00  0.00    -0.047 Br
ATOM     22  H2  UNL     1      10.540  -5.050  -9.550  1.00  0.00     0.161 HD
ENDBRANCH  11  12
ENDBRANCH   8  11
ENDBRANCH   5   8
ENDBRANCH   1   5
TORSDOF 4
ENDMDL
