MODEL 1
REMARK VINA RESULT: -6.305917088      0.000      0.000
REMARK  5 active torsions:
REMARK  status: ('A' for Active; 'I' for Inactive)
REMARK    1  A    between atoms: C2_2  and  N1_3 
REMARK    2  A    between atoms: C2_2  and  O1_19 
REMARK    3  A    between atoms: N1_3  and  C3_5 
REMARK    4  A    between atoms: N3_11  and  C7_13 
REMARK    5  A    between atoms: O1_19  and  C11_20 
ROOT
HETATM    1  C3  UNL     1       7.975  -2.167 -13.490  1.00  0.00     0.120 A 
HETATM    2  C4  UNL     1       9.101  -2.835 -13.904  1.00  0.00     0.066 A 
HETATM    3  C5  UNL     1       9.693  -2.616 -15.125  1.00  0.00     0.110 A 
HETATM    4  N2  UNL     1       9.116  -1.687 -15.947  1.00  0.00    -0.202 N 
ATOM      5  H2  UNL     1       9.530  -1.501 -16.861  1.00  0.00     0.183 HD
HETATM    6  C6  UNL     1       8.021  -1.019 -15.575  1.00  0.00     0.680 A 
HETATM    7  N3  UNL     1       7.493  -0.159 -16.343  1.00  0.00    -0.218 N 
ATOM      8  H3  UNL     1       6.660   0.297 -15.971  1.00  0.00     0.178 HD
HETATM    9  N4  UNL     1       7.459  -1.269 -14.341  1.00  0.00    -0.177 N 
ATOM     10  H4  UNL     1       6.623  -0.754 -14.067  1.00  0.00     0.185 HD
ENDROOT
BRANCH   1  11
HETATM   11  N1  UNL     1       7.413  -2.359 -12.358  1.00  0.00    -0.349 N 
ATOM     12  H1  UNL     1       6.414  -2.158 -12.316  1.00  0.00     0.163 HD
BRANCH  11  13
HETATM   13  C2  UNL     1       8.009  -2.820 -11.149  1.00  0.00     0.224 C 
HETATM   14  C1  UNL     1       7.152  -2.335  -9.993  1.00  0.00     0.063 C 
BRANCH  13  15
HETATM   15  O1  UNL     1       8.250  -4.184 -11.104  1.00  0.00    -0.326 OA
BRANCH  15  16
HETATM   16  C11 UNL     1       9.219  -4.911 -10.518  1.00  0.00     0.071 A 
HETATM   17  C12 UNL     1      10.108  -4.296  -9.659  1.00  0.00     0.040 A 
HETATM   18  C13 UNL     1      11.126  -5.027  -9.036  1.00  0.00     0.045 A 
HETATM   19  C14 UNL     1      11.259  -6.365  -9.267  1.00  0.00     0.116 A 
HETATM   20  F1  UNL     1      12.262  -7.068  -8.648  1.00  0.00    -0.206 F 
HETATM   21  C15 UNL     1      10.387  -6.989 -10.114  1.00  0.00     0.045 A 
HETATM   22  C16 UNL     1       9.383  -6.256 -10.726  1.00  0.00     0.040 A 
ENDBRANCH  15  16
ENDBRANCH  13  15
ENDBRANCH  11  13
ENDBRANCH   1  11
BRANCH   7  23
HETATM   23  C7  UNL     1       7.880   0.262 -17.629  1.00  0.00     0.036 C 
HETATM   24  C8  UNL     1       8.291  -0.852 -18.554  1.00  0.00     0.038 C 
HETATM   25  C9  UNL     1       8.994   1.274 -17.562  1.00  0.00     0.038 C 
HETATM   26  C10 UNL     1       6.687   0.970 -18.321  1.00  0.00     0.038 C 
ENDBRANCH   7  23
TORSDOF 5
ENDMDL
MODEL 2
REMARK VINA RESULT: -6.239226609      4.887      8.561
REMARK  5 active torsions:
REMARK  status: ('A' for Active; 'I' for Inactive)
REMARK    1  A    between atoms: C2_2  and  N1_3 
REMARK    2  A    between atoms: C2_2  and  O1_19 
REMARK    3  A    between atoms: N1_3  and  C3_5 
REMARK    4  A    between atoms: N3_11  and  C7_13 
REMARK    5  A    between atoms: O1_19  and  C11_20 
ROOT
HETATM    1  C3  UNL     1      11.500  -6.483  -9.818  1.00  0.00     0.120 A 
HETATM    2  C4  UNL     1      11.709  -7.127  -8.624  1.00  0.00     0.066 A 
HETATM    3  C5  UNL     1      12.816  -7.903  -8.376  1.00  0.00     0.110 A 
HETATM    4  N2  UNL     1      13.736  -8.026  -9.381  1.00  0.00    -0.202 N 
ATOM      5  H2  UNL     1      14.569  -8.596  -9.230  1.00  0.00     0.183 HD
HETATM    6  C6  UNL     1      13.564  -7.413 -10.555  1.00  0.00     0.680 A 
HETATM    7  N3  UNL     1      14.424  -7.531 -11.480  1.00  0.00    -0.218 N 
ATOM      8  H3  UNL     1      14.204  -7.027 -12.339  1.00  0.00     0.178 HD
HETATM    9  N4  UNL     1      12.440  -6.643 -10.761  1.00  0.00    -0.177 N 
ATOM     10  H4  UNL     1      12.318  -6.180 -11.661  1.00  0.00     0.185 HD
ENDROOT
BRANCH   1  11
HETATM   11  N1  UNL     1      10.477  -5.758 -10.065  1.00  0.00    -0.349 N 
ATOM     12  H1  UNL     1      10.036  -5.319  -9.257  1.00  0.00     0.163 HD
BRANCH  11  13
HETATM   13  C2  UNL     1       9.878  -5.488 -11.328  1.00  0.00     0.224 C 
HETATM   14  C1  UNL     1       8.622  -6.334 -11.438  1.00  0.00     0.063 C 
BRANCH  13  15
HETATM   15  O1  UNL     1       9.645  -4.145 -11.585  1.00  0.00    -0.326 OA
BRANCH  15  16
HETATM   16  C11 UNL     1       8.664  -3.310 -11.196  1.00  0.00     0.071 A 
HETATM   17  C12 UNL     1       7.814  -2.770 -12.139  1.00  0.00     0.040 A 
HETATM   18  C13 UNL     1       6.785  -1.898 -11.762  1.00  0.00     0.045 A 
HETATM   19  C14 UNL     1       6.603  -1.566 -10.452  1.00  0.00     0.116 A 
HETATM   20  F1  UNL     1       5.590  -0.710 -10.098  1.00  0.00    -0.206 F 
HETATM   21  C15 UNL     1       7.436  -2.092  -9.505  1.00  0.00     0.045 A 
HETATM   22  C16 UNL     1       8.451  -2.954  -9.889  1.00  0.00     0.040 A 
ENDBRANCH  15  16
ENDBRANCH  13  15
ENDBRANCH  11  13
ENDBRANCH   1  11
BRANCH   7  23
HETATM   23  C7  UNL     1      15.632  -8.252 -11.504  1.00  0.00     0.036 C 
HETATM   24  C8  UNL     1      15.474  -9.744 -11.388  1.00  0.00     0.038 C 
HETATM   25  C9  UNL     1      16.573  -7.778 -10.426  1.00  0.00     0.038 C 
HETATM   26  C10 UNL     1      16.355  -8.005 -12.853  1.00  0.00     0.038 C 
ENDBRANCH   7  23
TORSDOF 5
ENDMDL
MODEL 3
REMARK VINA RESULT: -6.044202104      1.686      2.305
REMARK  5 active torsions:
REMARK  status: ('A' for Active; 'I' for Inactive)
REMARK    1  A    between atoms: C2_2  and  N1_3 
REMARK    2  A    between atoms: C2_2  and  O1_19 
REMARK    3  A    between atoms: N1_3  and  C3_5 
REMARK    4  A    between atoms: N3_11  and  C7_13 
REMARK    5  A    between atoms: O1_19  and  C11_20 
ROOT
HETATM    1  C3  UNL     1       9.310  -2.791 -14.054  1.00  0.00     0.120 A 
HETATM    2  C4  UNL     1       8.297  -2.165 -13.370  1.00  0.00     0.066 A 
HETATM    3  C5  UNL     1       7.503  -1.195 -13.934  1.00  0.00     0.110 A 
HETATM    4  N2  UNL     1       7.754  -0.853 -15.235  1.00  0.00    -0.202 N 
ATOM      5  H2  UNL     1       7.184  -0.135 -15.683  1.00  0.00     0.183 HD
HETATM    6  C6  UNL     1       8.731  -1.443 -15.928  1.00  0.00     0.680 A 
HETATM    7  N3  UNL     1       8.956  -1.120 -17.134  1.00  0.00    -0.218 N 
ATOM      8  H3  UNL     1       9.723  -1.624 -17.580  1.00  0.00     0.178 HD
HETATM    9  N4  UNL     1       9.503  -2.412 -15.325  1.00  0.00    -0.177 N 
ATOM     10  H4  UNL     1      10.247  -2.855 -15.864  1.00  0.00     0.185 HD
ENDROOT
BRANCH   1  11
HETATM   11  N1  UNL     1      10.056  -3.695 -13.545  1.00  0.00    -0.349 N 
ATOM     12  H1  UNL     1      10.838  -4.005 -14.121  1.00  0.00     0.163 HD
BRANCH  11  13
HETATM   13  C2  UNL     1       9.930  -4.323 -12.272  1.00  0.00     0.224 C 
HETATM   14  C1  UNL     1       9.166  -5.621 -12.467  1.00  0.00     0.063 C 
BRANCH  13  15
HETATM   15  O1  UNL     1      11.125  -4.500 -11.591  1.00  0.00    -0.326 OA
BRANCH  15  16
HETATM   16  C11 UNL     1      11.531  -5.432 -10.710  1.00  0.00     0.071 A 
HETATM   17  C12 UNL     1      11.060  -5.397  -9.414  1.00  0.00     0.040 A 
HETATM   18  C13 UNL     1      11.467  -6.355  -8.477  1.00  0.00     0.045 A 
HETATM   19  C14 UNL     1      12.338  -7.343  -8.830  1.00  0.00     0.116 A 
HETATM   20  F1  UNL     1      12.727  -8.275  -7.900  1.00  0.00    -0.206 F 
HETATM   21  C15 UNL     1      12.814  -7.392 -10.110  1.00  0.00     0.045 A 
HETATM   22  C16 UNL     1      12.405  -6.440 -11.030  1.00  0.00     0.040 A 
ENDBRANCH  15  16
ENDBRANCH  13  15
ENDBRANCH  11  13
ENDBRANCH   1  11
BRANCH   7  23
HETATM   23  C7  UNL     1       8.311  -0.174 -17.952  1.00  0.00     0.036 C 
HETATM   24  C8  UNL     1       6.808  -0.247 -17.927  1.00  0.00     0.038 C 
HETATM   25  C9  UNL     1       8.779  -0.275 -19.381  1.00  0.00     0.038 C 
HETATM   26  C10 UNL     1       8.674   1.255 -17.474  1.00  0.00     0.038 C 
ENDBRANCH   7  23
TORSDOF 5
ENDMDL
MODEL 4
REMARK VINA RESULT: -5.952076844      5.988      7.808
REMARK  5 active torsions:
REMARK  status: ('A' for Active; 'I' for Inactive)
REMARK    1  A    between atoms: C2_2  and  N1_3 
REMARK    2  A    between atoms: C2_2  and  O1_19 
REMARK    3  A    between atoms: N1_3  and  C3_5 
REMARK    4  A    between atoms: N3_11  and  C7_13 
REMARK    5  A    between atoms: O1_19  and  C11_20 
ROOT
HETATM    1  C3  UNL     1      15.092  -7.569 -10.601  1.00  0.00     0.120 A 
HETATM    2  C4  UNL     1      16.448  -7.597 -10.388  1.00  0.00     0.066 A 
HETATM    3  C5  UNL     1      17.354  -7.042 -11.259  1.00  0.00     0.110 A 
HETATM    4  N2  UNL     1      16.858  -6.441 -12.384  1.00  0.00    -0.202 N 
ATOM      5  H2  UNL     1      17.504  -6.020 -13.053  1.00  0.00     0.183 HD
HETATM    6  C6  UNL     1      15.545  -6.396 -12.623  1.00  0.00     0.680 A 
HETATM    7  N3  UNL     1      15.094  -5.837 -13.668  1.00  0.00    -0.218 N 
ATOM      8  H3  UNL     1      14.079  -5.853 -13.762  1.00  0.00     0.178 HD
HETATM    9  N4  UNL     1      14.671  -6.965 -11.722  1.00  0.00    -0.177 N 
ATOM     10  H4  UNL     1      13.670  -6.925 -11.913  1.00  0.00     0.185 HD
ENDROOT
BRANCH   1  11
HETATM   11  N1  UNL     1      14.237  -8.080  -9.801  1.00  0.00    -0.349 N 
ATOM     12  H1  UNL     1      14.590  -8.797  -9.167  1.00  0.00     0.163 HD
BRANCH  11  13
HETATM   13  C2  UNL     1      12.851  -7.771  -9.685  1.00  0.00     0.224 C 
HETATM   14  C1  UNL     1      12.415  -8.114  -8.271  1.00  0.00     0.063 C 
BRANCH  13  15
HETATM   15  O1  UNL     1      12.511  -6.478 -10.052  1.00  0.00    -0.326 OA
BRANCH  15  16
HETATM   16  C11 UNL     1      11.323  -5.861 -10.188  1.00  0.00     0.071 A 
HETATM   17  C12 UNL     1      11.164  -4.575  -9.714  1.00  0.00     0.040 A 
HETATM   18  C13 UNL     1       9.938  -3.910  -9.842  1.00  0.00     0.045 A 
HETATM   19  C14 UNL     1       8.877  -4.524 -10.439  1.00  0.00     0.116 A 
HETATM   20  F1  UNL     1       7.681  -3.859 -10.558  1.00  0.00    -0.206 F 
HETATM   21  C15 UNL     1       9.017  -5.797 -10.914  1.00  0.00     0.045 A 
HETATM   22  C16 UNL     1      10.234  -6.446 -10.783  1.00  0.00     0.040 A 
ENDBRANCH  15  16
ENDBRANCH  13  15
ENDBRANCH  11  13
ENDBRANCH   1  11
BRANCH   7  23
HETATM   23  C7  UNL     1      15.780  -5.196 -14.717  1.00  0.00     0.036 C 
HETATM   24  C8  UNL     1      16.781  -6.064 -15.431  1.00  0.00     0.038 C 
HETATM   25  C9  UNL     1      16.474  -3.948 -14.236  1.00  0.00     0.038 C 
HETATM   26  C10 UNL     1      14.765  -4.742 -15.797  1.00  0.00     0.038 C 
ENDBRANCH   7  23
TORSDOF 5
ENDMDL
MODEL 5
REMARK VINA RESULT: -5.934092846      4.088      7.645
REMARK  5 active torsions:
REMARK  status: ('A' for Active; 'I' for Inactive)
REMARK    1  A    between atoms: C2_2  and  N1_3 
REMARK    2  A    between atoms: C2_2  and  O1_19 
REMARK    3  A    between atoms: N1_3  and  C3_5 
REMARK    4  A    between atoms: N3_11  and  C7_13 
REMARK    5  A    between atoms: O1_19  and  C11_20 
ROOT
HETATM    1  C3  UNL     1      10.880  -4.966  -9.478  1.00  0.00     0.120 A 
HETATM    2  C4  UNL     1      11.108  -5.819  -8.427  1.00  0.00     0.066 A 
HETATM    3  C5  UNL     1      11.968  -6.887  -8.504  1.00  0.00     0.110 A 
HETATM    4  N2  UNL     1      12.614  -7.091  -9.693  1.00  0.00    -0.202 N 
ATOM      5  H2  UNL     1      13.259  -7.877  -9.784  1.00  0.00     0.183 HD
HETATM    6  C6  UNL     1      12.415  -6.280 -10.736  1.00  0.00     0.680 A 
HETATM    7  N3  UNL     1      13.019  -6.476 -11.834  1.00  0.00    -0.218 N 
ATOM      8  H3  UNL     1      12.802  -5.806 -12.571  1.00  0.00     0.178 HD
HETATM    9  N4  UNL     1      11.544  -5.220 -10.615  1.00  0.00    -0.177 N 
ATOM     10  H4  UNL     1      11.399  -4.607 -11.417  1.00  0.00     0.185 HD
ENDROOT
BRANCH   1  11
HETATM   11  N1  UNL     1      10.084  -3.968  -9.422  1.00  0.00    -0.349 N 
ATOM     12  H1  UNL     1      10.456  -3.122  -8.990  1.00  0.00     0.163 HD
BRANCH  11  13
HETATM   13  C2  UNL     1       8.740  -3.891  -9.890  1.00  0.00     0.224 C 
HETATM   14  C1  UNL     1       8.211  -2.506  -9.558  1.00  0.00     0.063 C 
BRANCH  13  15
HETATM   15  O1  UNL     1       8.570  -4.225 -11.225  1.00  0.00    -0.326 OA
BRANCH  15  16
HETATM   16  C11 UNL     1       8.638  -3.495 -12.353  1.00  0.00     0.071 A 
HETATM   17  C12 UNL     1       9.703  -3.667 -13.214  1.00  0.00     0.040 A 
HETATM   18  C13 UNL     1       9.798  -2.920 -14.395  1.00  0.00     0.045 A 
HETATM   19  C14 UNL     1       8.838  -2.006 -14.716  1.00  0.00     0.116 A 
HETATM   20  F1  UNL     1       8.946  -1.282 -15.877  1.00  0.00    -0.206 F 
HETATM   21  C15 UNL     1       7.777  -1.824 -13.875  1.00  0.00     0.045 A 
HETATM   22  C16 UNL     1       7.692  -2.568 -12.709  1.00  0.00     0.040 A 
ENDBRANCH  15  16
ENDBRANCH  13  15
ENDBRANCH  11  13
ENDBRANCH   1  11
BRANCH   7  23
HETATM   23  C7  UNL     1      13.942  -7.477 -12.191  1.00  0.00     0.036 C 
HETATM   24  C8  UNL     1      13.398  -8.879 -12.130  1.00  0.00     0.038 C 
HETATM   25  C9  UNL     1      15.187  -7.401 -11.345  1.00  0.00     0.038 C 
HETATM   26  C10 UNL     1      14.396  -7.261 -13.657  1.00  0.00     0.038 C 
ENDBRANCH   7  23
TORSDOF 5
ENDMDL
