MODEL 1
REMARK VINA RESULT: -6.159427185      0.000      0.000
REMARK  3 active torsions:
REMARK  status: ('A' for Active; 'I' for Inactive)
REMARK    1  A    between atoms: C6_6  and  C7_7 
REMARK    2  A    between atoms: C9_11  and  N2_12 
REMARK    3  A    between atoms: N2_12  and  N3_14 
ROOT
HETATM    1  C7  UNL     1      11.175  -6.856 -11.033  1.00  0.00     0.045 C 
HETATM    2  C8  UNL     1      10.479  -5.606 -11.056  1.00  0.00     0.061 A 
HETATM    3  N1  UNL     1       9.771  -5.290 -12.199  1.00  0.00    -0.190 N 
ATOM      4  H1  UNL     1       9.807  -5.943 -12.982  1.00  0.00     0.184 HD
HETATM    5  C9  UNL     1       9.041  -4.180 -12.344  1.00  0.00     0.700 A 
HETATM    6  N4  UNL     1       8.958  -3.278 -11.336  1.00  0.00    -0.154 N 
ATOM      7  H4  UNL     1       8.404  -2.427 -11.435  1.00  0.00     0.187 HD
HETATM    8  C12 UNL     1       9.626  -3.539 -10.206  1.00  0.00     0.267 A 
HETATM    9  O1  UNL     1       9.569  -2.727  -9.258  1.00  0.00    -0.267 OA
HETATM   10  C13 UNL     1      10.401  -4.708 -10.039  1.00  0.00     0.034 A 
HETATM   11  C14 UNL     1      11.113  -4.948  -8.799  1.00  0.00     0.056 C 
ENDROOT
BRANCH   1  12
HETATM   12  C6  UNL     1      12.585  -7.036 -11.002  1.00  0.00     0.011 A 
HETATM   13  C4  UNL     1      13.231  -7.617  -9.942  1.00  0.00    -0.048 A 
HETATM   14  C3  UNL     1      14.608  -7.765  -9.873  1.00  0.00     0.014 A 
HETATM   15  C5  UNL     1      12.483  -8.135  -8.740  1.00  0.00     0.049 C 
HETATM   16  C2  UNL     1      15.382  -7.319 -10.900  1.00  0.00    -0.059 A 
HETATM   17  C1  UNL     1      16.890  -7.484 -10.821  1.00  0.00     0.048 C 
HETATM   18  C16 UNL     1      14.801  -6.731 -11.981  1.00  0.00     0.049 A 
HETATM   19  C15 UNL     1      13.429  -6.603 -12.006  1.00  0.00     0.127 A 
HETATM   20  F1  UNL     1      12.945  -5.950 -13.103  1.00  0.00    -0.205 F 
ENDBRANCH   1  12
BRANCH   5  21
HETATM   21  N2  UNL     1       8.389  -3.905 -13.420  1.00  0.00    -0.135 N 
ATOM     22  H2  UNL     1       7.604  -4.509 -13.662  1.00  0.00     0.205 HD
BRANCH  21  23
HETATM   23  N3  UNL     1       8.669  -2.862 -14.267  1.00  0.00    -0.322 N 
HETATM   24  C10 UNL     1       9.857  -2.953 -15.116  1.00  0.00     0.171 C 
HETATM   25  C11 UNL     1       7.869  -1.657 -14.390  1.00  0.00     0.171 C 
ENDBRANCH  21  23
ENDBRANCH   5  21
TORSDOF 3
ENDMDL
MODEL 2
REMARK VINA RESULT: -6.053720937      3.480      6.686
REMARK  3 active torsions:
REMARK  status: ('A' for Active; 'I' for Inactive)
REMARK    1  A    between atoms: C6_6  and  C7_7 
REMARK    2  A    between atoms: C9_11  and  N2_12 
REMARK    3  A    between atoms: N2_12  and  N3_14 
ROOT
HETATM    1  C7  UNL     1      11.822  -5.410 -10.957  1.00  0.00     0.045 C 
HETATM    2  C8  UNL     1      12.189  -6.755 -10.638  1.00  0.00     0.061 A 
HETATM    3  N1  UNL     1      12.651  -7.552 -11.668  1.00  0.00    -0.190 N 
ATOM      4  H1  UNL     1      12.673  -7.156 -12.608  1.00  0.00     0.184 HD
HETATM    5  C9  UNL     1      13.069  -8.811 -11.509  1.00  0.00     0.700 A 
HETATM    6  N4  UNL     1      13.060  -9.387 -10.283  1.00  0.00    -0.154 N 
ATOM      7  H4  UNL     1      13.377 -10.348 -10.149  1.00  0.00     0.187 HD
HETATM    8  C12 UNL     1      12.622  -8.655  -9.251  1.00  0.00     0.267 A 
HETATM    9  O1  UNL     1      12.602  -9.157  -8.107  1.00  0.00    -0.267 OA
HETATM   10  C13 UNL     1      12.177  -7.323  -9.404  1.00  0.00     0.034 A 
HETATM   11  C14 UNL     1      11.706  -6.568  -8.259  1.00  0.00     0.056 C 
ENDROOT
BRANCH   1  12
HETATM   12  C6  UNL     1      10.511  -4.859 -10.910  1.00  0.00     0.011 A 
HETATM   13  C4  UNL     1      10.206  -3.745 -10.174  1.00  0.00    -0.048 A 
HETATM   14  C3  UNL     1       8.927  -3.216 -10.082  1.00  0.00     0.014 A 
HETATM   15  C5  UNL     1      11.250  -3.003  -9.381  1.00  0.00     0.049 C 
HETATM   16  C2  UNL     1       7.904  -3.816 -10.749  1.00  0.00    -0.059 A 
HETATM   17  C1  UNL     1       6.505  -3.233 -10.646  1.00  0.00     0.048 C 
HETATM   18  C16 UNL     1       8.142  -4.928 -11.497  1.00  0.00     0.049 A 
HETATM   19  C15 UNL     1       9.428  -5.420 -11.558  1.00  0.00     0.127 A 
HETATM   20  F1  UNL     1       9.556  -6.570 -12.284  1.00  0.00    -0.205 F 
ENDBRANCH   1  12
BRANCH   5  21
HETATM   21  N2  UNL     1      13.494  -9.537 -12.485  1.00  0.00    -0.135 N 
ATOM     22  H2  UNL     1      12.832  -9.762 -13.227  1.00  0.00     0.205 HD
BRANCH  21  23
HETATM   23  N3  UNL     1      14.770 -10.030 -12.603  1.00  0.00    -0.322 N 
HETATM   24  C10 UNL     1      15.877  -9.080 -12.712  1.00  0.00     0.171 C 
HETATM   25  C11 UNL     1      15.113 -11.440 -12.630  1.00  0.00     0.171 C 
ENDBRANCH  21  23
ENDBRANCH   5  21
TORSDOF 3
ENDMDL
MODEL 3
REMARK VINA RESULT: -6.046111760      1.246      1.572
REMARK  3 active torsions:
REMARK  status: ('A' for Active; 'I' for Inactive)
REMARK    1  A    between atoms: C6_6  and  C7_7 
REMARK    2  A    between atoms: C9_11  and  N2_12 
REMARK    3  A    between atoms: N2_12  and  N3_14 
ROOT
HETATM    1  C7  UNL     1      11.028  -6.999 -10.748  1.00  0.00     0.045 C 
HETATM    2  C8  UNL     1      10.280  -5.787 -10.886  1.00  0.00     0.061 A 
HETATM    3  N1  UNL     1       9.464  -5.662 -11.994  1.00  0.00    -0.190 N 
ATOM      4  H1  UNL     1       9.461  -6.421 -12.675  1.00  0.00     0.184 HD
HETATM    5  C9  UNL     1       8.679  -4.607 -12.229  1.00  0.00     0.700 A 
HETATM    6  N4  UNL     1       8.645  -3.570 -11.358  1.00  0.00    -0.154 N 
ATOM      7  H4  UNL     1       8.049  -2.759 -11.528  1.00  0.00     0.187 HD
HETATM    8  C12 UNL     1       9.417  -3.643 -10.268  1.00  0.00     0.267 A 
HETATM    9  O1  UNL     1       9.408  -2.703  -9.444  1.00  0.00    -0.267 OA
HETATM   10  C13 UNL     1      10.252  -4.752 -10.005  1.00  0.00     0.034 A 
HETATM   11  C14 UNL     1      11.077  -4.788  -8.814  1.00  0.00     0.056 C 
ENDROOT
BRANCH   1  12
HETATM   12  C6  UNL     1      12.441  -7.131 -10.819  1.00  0.00     0.011 A 
HETATM   13  C4  UNL     1      13.188  -7.632  -9.785  1.00  0.00    -0.048 A 
HETATM   14  C3  UNL     1      14.570  -7.732  -9.817  1.00  0.00     0.014 A 
HETATM   15  C5  UNL     1      12.555  -8.108  -8.502  1.00  0.00     0.049 C 
HETATM   16  C2  UNL     1      15.246  -7.318 -10.924  1.00  0.00    -0.059 A 
HETATM   17  C1  UNL     1      16.761  -7.429 -10.956  1.00  0.00     0.048 C 
HETATM   18  C16 UNL     1      14.563  -6.809 -11.985  1.00  0.00     0.049 A 
HETATM   19  C15 UNL     1      13.189  -6.728 -11.908  1.00  0.00     0.127 A 
HETATM   20  F1  UNL     1      12.598  -6.151 -12.996  1.00  0.00    -0.205 F 
ENDBRANCH   1  12
BRANCH   5  21
HETATM   21  N2  UNL     1       7.927  -4.512 -13.271  1.00  0.00    -0.135 N 
ATOM     22  H2  UNL     1       8.146  -3.778 -13.944  1.00  0.00     0.205 HD
BRANCH  21  23
HETATM   23  N3  UNL     1       6.852  -5.322 -13.545  1.00  0.00    -0.322 N 
HETATM   24  C10 UNL     1       6.694  -5.831 -14.906  1.00  0.00     0.171 C 
HETATM   25  C11 UNL     1       5.847  -5.718 -12.576  1.00  0.00     0.171 C 
ENDBRANCH  21  23
ENDBRANCH   5  21
TORSDOF 3
ENDMDL
MODEL 4
REMARK VINA RESULT: -6.031520032      4.619      7.794
REMARK  3 active torsions:
REMARK  status: ('A' for Active; 'I' for Inactive)
REMARK    1  A    between atoms: C6_6  and  C7_7 
REMARK    2  A    between atoms: C9_11  and  N2_12 
REMARK    3  A    between atoms: N2_12  and  N3_14 
ROOT
HETATM    1  C7  UNL     1      13.663  -7.802 -11.472  1.00  0.00     0.045 C 
HETATM    2  C8  UNL     1      15.083  -7.744 -11.307  1.00  0.00     0.061 A 
HETATM    3  N1  UNL     1      15.668  -8.678 -10.473  1.00  0.00    -0.190 N 
ATOM      4  H1  UNL     1      15.059  -9.339  -9.991  1.00  0.00     0.184 HD
HETATM    5  C9  UNL     1      16.984  -8.770 -10.260  1.00  0.00     0.700 A 
HETATM    6  N4  UNL     1      17.839  -7.917 -10.875  1.00  0.00    -0.154 N 
ATOM      7  H4  UNL     1      18.845  -7.977 -10.719  1.00  0.00     0.187 HD
HETATM    8  C12 UNL     1      17.321  -6.994 -11.693  1.00  0.00     0.267 A 
HETATM    9  O1  UNL     1      18.083  -6.192 -12.276  1.00  0.00    -0.267 OA
HETATM   10  C13 UNL     1      15.933  -6.885 -11.929  1.00  0.00     0.034 A 
HETATM   11  C14 UNL     1      15.414  -5.865 -12.819  1.00  0.00     0.056 C 
ENDROOT
BRANCH   1  12
HETATM   12  C6  UNL     1      12.722  -6.831 -11.033  1.00  0.00     0.011 A 
HETATM   13  C4  UNL     1      12.303  -6.747  -9.731  1.00  0.00    -0.048 A 
HETATM   14  C3  UNL     1      11.356  -5.836  -9.289  1.00  0.00     0.014 A 
HETATM   15  C5  UNL     1      12.838  -7.664  -8.661  1.00  0.00     0.049 C 
HETATM   16  C2  UNL     1      10.798  -4.967 -10.176  1.00  0.00    -0.059 A 
HETATM   17  C1  UNL     1       9.761  -3.970  -9.687  1.00  0.00     0.048 C 
HETATM   18  C16 UNL     1      11.169  -5.001 -11.484  1.00  0.00     0.049 A 
HETATM   19  C15 UNL     1      12.113  -5.924 -11.879  1.00  0.00     0.127 A 
HETATM   20  F1  UNL     1      12.378  -5.921 -13.219  1.00  0.00    -0.205 F 
ENDBRANCH   1  12
BRANCH   5  21
HETATM   21  N2  UNL     1      17.507  -9.649  -9.478  1.00  0.00    -0.135 N 
ATOM     22  H2  UNL     1      17.619  -9.398  -8.496  1.00  0.00     0.205 HD
BRANCH  21  23
HETATM   23  N3  UNL     1      17.927 -10.898  -9.863  1.00  0.00    -0.322 N 
HETATM   24  C10 UNL     1      19.077 -11.489  -9.179  1.00  0.00     0.171 C 
HETATM   25  C11 UNL     1      17.310 -11.691 -10.911  1.00  0.00     0.171 C 
ENDBRANCH  21  23
ENDBRANCH   5  21
TORSDOF 3
ENDMDL
MODEL 5
REMARK VINA RESULT: -6.026867543      3.466      6.707
REMARK  3 active torsions:
REMARK  status: ('A' for Active; 'I' for Inactive)
REMARK    1  A    between atoms: C6_6  and  C7_7 
REMARK    2  A    between atoms: C9_11  and  N2_12 
REMARK    3  A    between atoms: N2_12  and  N3_14 
ROOT
HETATM    1  C7  UNL     1      11.854  -5.241 -10.959  1.00  0.00     0.045 C 
HETATM    2  C8  UNL     1      12.180  -6.597 -10.642  1.00  0.00     0.061 A 
HETATM    3  N1  UNL     1      12.597  -7.413 -11.676  1.00  0.00    -0.190 N 
ATOM      4  H1  UNL     1      12.618  -7.020 -12.617  1.00  0.00     0.184 HD
HETATM    5  C9  UNL     1      12.975  -8.685 -11.519  1.00  0.00     0.700 A 
HETATM    6  N4  UNL     1      12.965  -9.256 -10.291  1.00  0.00    -0.154 N 
ATOM      7  H4  UNL     1      13.251 -10.227 -10.159  1.00  0.00     0.187 HD
HETATM    8  C12 UNL     1      12.570  -8.507  -9.255  1.00  0.00     0.267 A 
HETATM    9  O1  UNL     1      12.550  -9.005  -8.109  1.00  0.00    -0.267 OA
HETATM   10  C13 UNL     1      12.168  -7.161  -9.405  1.00  0.00     0.034 A 
HETATM   11  C14 UNL     1      11.742  -6.387  -8.256  1.00  0.00     0.056 C 
ENDROOT
BRANCH   1  12
HETATM   12  C6  UNL     1      10.564  -4.645 -10.893  1.00  0.00     0.011 A 
HETATM   13  C4  UNL     1       9.552  -4.981 -11.754  1.00  0.00    -0.048 A 
HETATM   14  C3  UNL     1       8.301  -4.384 -11.735  1.00  0.00     0.014 A 
HETATM   15  C5  UNL     1       9.729  -6.033 -12.819  1.00  0.00     0.049 C 
HETATM   16  C2  UNL     1       8.037  -3.411 -10.820  1.00  0.00    -0.059 A 
HETATM   17  C1  UNL     1       6.665  -2.760 -10.802  1.00  0.00     0.048 C 
HETATM   18  C16 UNL     1       9.001  -3.031  -9.938  1.00  0.00     0.049 A 
HETATM   19  C15 UNL     1      10.231  -3.650  -9.995  1.00  0.00     0.127 A 
HETATM   20  F1  UNL     1      11.148  -3.161  -9.110  1.00  0.00    -0.205 F 
ENDBRANCH   1  12
BRANCH   5  21
HETATM   21  N2  UNL     1      13.359  -9.427 -12.499  1.00  0.00    -0.135 N 
ATOM     22  H2  UNL     1      12.681  -9.625 -13.234  1.00  0.00     0.205 HD
BRANCH  21  23
HETATM   23  N3  UNL     1      14.612  -9.973 -12.630  1.00  0.00    -0.322 N 
HETATM   24  C10 UNL     1      15.757  -9.070 -12.743  1.00  0.00     0.171 C 
HETATM   25  C11 UNL     1      14.895 -11.396 -12.667  1.00  0.00     0.171 C 
ENDBRANCH  21  23
ENDBRANCH   5  21
TORSDOF 3
ENDMDL
