MODEL 1
REMARK VINA RESULT: -6.929445038      0.000      0.000
REMARK  6 active torsions:
REMARK  status: ('A' for Active; 'I' for Inactive)
REMARK    1  A    between atoms: C3_7  and  N3_8 
REMARK    2  A    between atoms: N3_8  and  C4_10 
REMARK    3  A    between atoms: C4_10  and  C5_11 
REMARK    4  A    between atoms: C8_14  and  C9_15 
REMARK    5  A    between atoms: C14_20  and  S1_21 
REMARK    6  A    between atoms: S1_21  and  N4_24 
ROOT
HETATM    1  C5  UNL     1     -28.273  -6.768  -9.714  1.00  0.00    -0.040 A 
HETATM    2  C6  UNL     1     -27.415  -7.417  -8.851  1.00  0.00     0.009 A 
HETATM    3  C7  UNL     1     -26.219  -7.951  -9.285  1.00  0.00     0.013 A 
HETATM    4  C8  UNL     1     -25.811  -7.864 -10.624  1.00  0.00    -0.024 A 
HETATM    5  C16 UNL     1     -26.668  -7.217 -11.477  1.00  0.00     0.013 A 
HETATM    6  C17 UNL     1     -27.883  -6.674 -11.032  1.00  0.00     0.009 A 
ENDROOT
BRANCH   1   7
HETATM    7  C4  UNL     1     -29.558  -6.194  -9.234  1.00  0.00     0.176 C 
BRANCH   7   8
HETATM    8  N3  UNL     1     -29.589  -4.769  -9.221  1.00  0.00    -0.222 N 
ATOM      9  H3  UNL     1     -28.986  -4.248  -8.584  1.00  0.00     0.178 HD
BRANCH   8  10
HETATM   10  C3  UNL     1     -30.381  -4.147 -10.017  1.00  0.00     0.679 A 
HETATM   11  N2  UNL     1     -31.325  -3.324  -9.534  1.00  0.00    -0.174 N 
HETATM   12  C2  UNL     1     -32.200  -2.630 -10.337  1.00  0.00     0.157 A 
ATOM     13  H2  UNL     1     -31.397  -3.208  -8.523  1.00  0.00     0.186 HD
HETATM   14  N1  UNL     1     -33.071  -1.865  -9.798  1.00  0.00    -0.378 N 
HETATM   15  C19 UNL     1     -32.096  -2.791 -11.686  1.00  0.00     0.176 A 
HETATM   16  C1  UNL     1     -34.024  -1.098 -10.489  1.00  0.00     0.147 C 
ATOM     17  H1  UNL     1     -33.074  -1.807  -8.780  1.00  0.00     0.160 HD
HETATM   18  C18 UNL     1     -31.126  -3.636 -12.184  1.00  0.00     0.152 A 
HETATM   19  F1  UNL     1     -32.931  -2.134 -12.574  1.00  0.00    -0.201 F 
HETATM   20  N5  UNL     1     -30.305  -4.283 -11.351  1.00  0.00    -0.199 N 
ATOM     21  H5  UNL     1     -29.596  -4.902 -11.742  1.00  0.00     0.183 HD
ENDBRANCH   8  10
ENDBRANCH   7   8
ENDBRANCH   1   7
BRANCH   4  22
HETATM   22  C9  UNL     1     -24.515  -8.386 -11.035  1.00  0.00    -0.003 A 
HETATM   23  C10 UNL     1     -23.408  -7.537 -10.831  1.00  0.00     0.014 A 
HETATM   24  C11 UNL     1     -22.134  -7.863 -11.210  1.00  0.00     0.001 A 
HETATM   25  C12 UNL     1     -21.937  -9.097 -11.826  1.00  0.00     0.002 A 
HETATM   26  C13 UNL     1     -23.013  -9.918 -12.021  1.00  0.00     0.026 A 
HETATM   27  C14 UNL     1     -24.316  -9.586 -11.632  1.00  0.00     0.090 A 
BRANCH  27  28
HETATM   28  S1  UNL     1     -25.548 -10.754 -11.887  1.00  0.00     0.259 S 
HETATM   29  O1  UNL     1     -26.641 -10.340 -12.829  1.00  0.00    -0.201 OA
HETATM   30  O2  UNL     1     -24.928 -11.982 -12.576  1.00  0.00    -0.201 OA
BRANCH  28  31
HETATM   31  N4  UNL     1     -26.308 -11.247 -10.426  1.00  0.00    -0.320 N 
HETATM   32  C15 UNL     1     -27.726 -11.119 -10.456  1.00  0.00     0.159 C 
ATOM     33  H4  UNL     1     -25.794 -11.596  -9.618  1.00  0.00     0.171 HD
ENDBRANCH  28  31
ENDBRANCH  27  28
ENDBRANCH   4  22
TORSDOF 6
ENDMDL
MODEL 2
REMARK VINA RESULT: -6.884898255      1.300      1.668
REMARK  6 active torsions:
REMARK  status: ('A' for Active; 'I' for Inactive)
REMARK    1  A    between atoms: C3_7  and  N3_8 
REMARK    2  A    between atoms: N3_8  and  C4_10 
REMARK    3  A    between atoms: C4_10  and  C5_11 
REMARK    4  A    between atoms: C8_14  and  C9_15 
REMARK    5  A    between atoms: C14_20  and  S1_21 
REMARK    6  A    between atoms: S1_21  and  N4_24 
ROOT
HETATM    1  C5  UNL     1     -28.494  -6.242  -9.855  1.00  0.00    -0.040 A 
HETATM    2  C6  UNL     1     -27.922  -6.285 -11.110  1.00  0.00     0.009 A 
HETATM    3  C7  UNL     1     -26.830  -7.082 -11.380  1.00  0.00     0.013 A 
HETATM    4  C8  UNL     1     -26.240  -7.890 -10.398  1.00  0.00    -0.024 A 
HETATM    5  C16 UNL     1     -26.812  -7.844  -9.153  1.00  0.00     0.013 A 
HETATM    6  C17 UNL     1     -27.924  -7.032  -8.880  1.00  0.00     0.009 A 
ENDROOT
BRANCH   1   7
HETATM    7  C4  UNL     1     -29.673  -5.382  -9.576  1.00  0.00     0.176 C 
BRANCH   7   8
HETATM    8  N3  UNL     1     -30.759  -5.572 -10.480  1.00  0.00    -0.222 N 
ATOM      9  H3  UNL     1     -31.112  -6.511 -10.667  1.00  0.00     0.178 HD
BRANCH   8  10
HETATM   10  C3  UNL     1     -31.288  -4.555 -11.056  1.00  0.00     0.679 A 
HETATM   11  N2  UNL     1     -32.184  -3.794 -10.410  1.00  0.00    -0.174 N 
HETATM   12  C2  UNL     1     -32.783  -2.692 -10.974  1.00  0.00     0.157 A 
ATOM     13  H2  UNL     1     -32.434  -4.045  -9.453  1.00  0.00     0.186 HD
HETATM   14  N1  UNL     1     -33.626  -2.018 -10.290  1.00  0.00    -0.378 N 
HETATM   15  C19 UNL     1     -32.442  -2.363 -12.253  1.00  0.00     0.176 A 
HETATM   16  C1  UNL     1     -34.312  -0.876 -10.734  1.00  0.00     0.147 C 
ATOM     17  H1  UNL     1     -33.818  -2.339  -9.341  1.00  0.00     0.160 HD
HETATM   18  C18 UNL     1     -31.521  -3.144 -12.919  1.00  0.00     0.152 A 
HETATM   19  F1  UNL     1     -32.991  -1.272 -12.904  1.00  0.00    -0.201 F 
HETATM   20  N5  UNL     1     -30.975  -4.204 -12.314  1.00  0.00    -0.199 N 
ATOM     21  H5  UNL     1     -30.296  -4.767 -12.827  1.00  0.00     0.183 HD
ENDBRANCH   8  10
ENDBRANCH   7   8
ENDBRANCH   1   7
BRANCH   4  22
HETATM   22  C9  UNL     1     -25.124  -8.764 -10.734  1.00  0.00    -0.003 A 
HETATM   23  C10 UNL     1     -23.841  -8.181 -10.690  1.00  0.00     0.014 A 
HETATM   24  C11 UNL     1     -22.699  -8.857 -11.027  1.00  0.00     0.001 A 
HETATM   25  C12 UNL     1     -22.827 -10.183 -11.431  1.00  0.00     0.002 A 
HETATM   26  C13 UNL     1     -24.073 -10.745 -11.472  1.00  0.00     0.026 A 
HETATM   27  C14 UNL     1     -25.241 -10.056 -11.125  1.00  0.00     0.090 A 
BRANCH  27  28
HETATM   28  S1  UNL     1     -26.722 -10.923 -11.165  1.00  0.00     0.259 S 
HETATM   29  O1  UNL     1     -26.619 -12.349 -11.622  1.00  0.00    -0.201 OA
HETATM   30  O2  UNL     1     -27.261 -11.045  -9.729  1.00  0.00    -0.201 OA
BRANCH  28  31
HETATM   31  N4  UNL     1     -27.908 -10.166 -12.153  1.00  0.00    -0.320 N 
HETATM   32  C15 UNL     1     -29.156  -9.976 -11.492  1.00  0.00     0.159 C 
ATOM     33  H4  UNL     1     -27.736  -9.882 -13.117  1.00  0.00     0.171 HD
ENDBRANCH  28  31
ENDBRANCH  27  28
ENDBRANCH   4  22
TORSDOF 6
ENDMDL
MODEL 3
REMARK VINA RESULT: -6.830391890      3.905      8.323
REMARK  6 active torsions:
REMARK  status: ('A' for Active; 'I' for Inactive)
REMARK    1  A    between atoms: C3_7  and  N3_8 
REMARK    2  A    between atoms: N3_8  and  C4_10 
REMARK    3  A    between atoms: C4_10  and  C5_11 
REMARK    4  A    between atoms: C8_14  and  C9_15 
REMARK    5  A    between atoms: C14_20  and  S1_21 
REMARK    6  A    between atoms: S1_21  and  N4_24 
ROOT
HETATM    1  C5  UNL     1     -28.461  -6.877  -9.206  1.00  0.00    -0.040 A 
HETATM    2  C6  UNL     1     -28.304  -5.526  -8.975  1.00  0.00     0.009 A 
HETATM    3  C7  UNL     1     -29.165  -4.595  -9.517  1.00  0.00     0.013 A 
HETATM    4  C8  UNL     1     -30.243  -4.967 -10.332  1.00  0.00    -0.024 A 
HETATM    5  C16 UNL     1     -30.395  -6.311 -10.558  1.00  0.00     0.013 A 
HETATM    6  C17 UNL     1     -29.518  -7.257 -10.005  1.00  0.00     0.009 A 
ENDROOT
BRANCH   1   7
HETATM    7  C4  UNL     1     -27.530  -7.872  -8.614  1.00  0.00     0.176 C 
BRANCH   7   8
HETATM    8  N3  UNL     1     -27.073  -8.861  -9.535  1.00  0.00    -0.222 N 
ATOM      9  H3  UNL     1     -27.441  -9.811  -9.493  1.00  0.00     0.178 HD
BRANCH   8  10
HETATM   10  C3  UNL     1     -26.195  -8.545 -10.417  1.00  0.00     0.679 A 
HETATM   11  N2  UNL     1     -24.946  -8.219 -10.050  1.00  0.00    -0.174 N 
HETATM   12  C2  UNL     1     -23.963  -7.875 -10.948  1.00  0.00     0.157 A 
ATOM     13  H2  UNL     1     -24.714  -8.227  -9.056  1.00  0.00     0.186 HD
HETATM   14  N1  UNL     1     -22.798  -7.578 -10.517  1.00  0.00    -0.378 N 
HETATM   15  C19 UNL     1     -24.282  -7.868 -12.273  1.00  0.00     0.176 A 
HETATM   16  C1  UNL     1     -21.701  -7.209 -11.315  1.00  0.00     0.147 C 
ATOM     17  H1  UNL     1     -22.651  -7.612  -9.509  1.00  0.00     0.160 HD
HETATM   18  C18 UNL     1     -25.566  -8.203 -12.652  1.00  0.00     0.152 A 
HETATM   19  F1  UNL     1     -23.360  -7.535 -13.252  1.00  0.00    -0.201 F 
HETATM   20  N5  UNL     1     -26.476  -8.528 -11.729  1.00  0.00    -0.199 N 
ATOM     21  H5  UNL     1     -27.419  -8.772 -12.034  1.00  0.00     0.183 HD
ENDBRANCH   8  10
ENDBRANCH   7   8
ENDBRANCH   1   7
BRANCH   4  22
HETATM   22  C9  UNL     1     -31.166  -3.961 -10.839  1.00  0.00    -0.003 A 
HETATM   23  C10 UNL     1     -31.950  -3.293  -9.876  1.00  0.00     0.014 A 
HETATM   24  C11 UNL     1     -32.898  -2.359 -10.198  1.00  0.00     0.001 A 
HETATM   25  C12 UNL     1     -33.085  -2.065 -11.547  1.00  0.00     0.002 A 
HETATM   26  C13 UNL     1     -32.323  -2.714 -12.477  1.00  0.00     0.026 A 
HETATM   27  C14 UNL     1     -31.352  -3.668 -12.149  1.00  0.00     0.090 A 
BRANCH  27  28
HETATM   28  S1  UNL     1     -30.431  -4.344 -13.430  1.00  0.00     0.259 S 
HETATM   29  O1  UNL     1     -30.762  -5.767 -13.778  1.00  0.00    -0.201 OA
HETATM   30  O2  UNL     1     -30.748  -3.576 -14.725  1.00  0.00    -0.201 OA
BRANCH  28  31
HETATM   31  N4  UNL     1     -28.738  -4.283 -13.135  1.00  0.00    -0.320 N 
HETATM   32  C15 UNL     1     -28.077  -5.522 -13.374  1.00  0.00     0.159 C 
ATOM     33  H4  UNL     1     -28.255  -3.443 -12.819  1.00  0.00     0.171 HD
ENDBRANCH  28  31
ENDBRANCH  27  28
ENDBRANCH   4  22
TORSDOF 6
ENDMDL
MODEL 4
REMARK VINA RESULT: -6.788024179      3.983      8.440
REMARK  6 active torsions:
REMARK  status: ('A' for Active; 'I' for Inactive)
REMARK    1  A    between atoms: C3_7  and  N3_8 
REMARK    2  A    between atoms: N3_8  and  C4_10 
REMARK    3  A    between atoms: C4_10  and  C5_11 
REMARK    4  A    between atoms: C8_14  and  C9_15 
REMARK    5  A    between atoms: C14_20  and  S1_21 
REMARK    6  A    between atoms: S1_21  and  N4_24 
ROOT
HETATM    1  C5  UNL     1     -28.485  -6.792  -9.183  1.00  0.00    -0.040 A 
HETATM    2  C6  UNL     1     -28.320  -5.440  -8.961  1.00  0.00     0.009 A 
HETATM    3  C7  UNL     1     -29.181  -4.508  -9.501  1.00  0.00     0.013 A 
HETATM    4  C8  UNL     1     -30.269  -4.880 -10.304  1.00  0.00    -0.024 A 
HETATM    5  C16 UNL     1     -30.428  -6.224 -10.521  1.00  0.00     0.013 A 
HETATM    6  C17 UNL     1     -29.551  -7.171  -9.970  1.00  0.00     0.009 A 
ENDROOT
BRANCH   1   7
HETATM    7  C4  UNL     1     -27.553  -7.788  -8.594  1.00  0.00     0.176 C 
BRANCH   7   8
HETATM    8  N3  UNL     1     -27.000  -8.698  -9.541  1.00  0.00    -0.222 N 
ATOM      9  H3  UNL     1     -27.287  -9.677  -9.540  1.00  0.00     0.178 HD
BRANCH   8  10
HETATM   10  C3  UNL     1     -26.139  -8.277 -10.395  1.00  0.00     0.679 A 
HETATM   11  N2  UNL     1     -24.848  -8.147 -10.054  1.00  0.00    -0.174 N 
HETATM   12  C2  UNL     1     -23.880  -7.703 -10.926  1.00  0.00     0.157 A 
ATOM     13  H2  UNL     1     -24.570  -8.389  -9.103  1.00  0.00     0.186 HD
HETATM   14  N1  UNL     1     -22.672  -7.608 -10.523  1.00  0.00    -0.378 N 
HETATM   15  C19 UNL     1     -24.261  -7.383 -12.195  1.00  0.00     0.176 A 
HETATM   16  C1  UNL     1     -21.584  -7.172 -11.298  1.00  0.00     0.147 C 
ATOM     17  H1  UNL     1     -22.480  -7.871  -9.556  1.00  0.00     0.160 HD
HETATM   18  C18 UNL     1     -25.588  -7.516 -12.547  1.00  0.00     0.152 A 
HETATM   19  F1  UNL     1     -23.359  -6.928 -13.142  1.00  0.00    -0.201 F 
HETATM   20  N5  UNL     1     -26.481  -7.953 -11.653  1.00  0.00    -0.199 N 
ATOM     21  H5  UNL     1     -27.456  -8.043 -11.936  1.00  0.00     0.183 HD
ENDBRANCH   8  10
ENDBRANCH   7   8
ENDBRANCH   1   7
BRANCH   4  22
HETATM   22  C9  UNL     1     -31.192  -3.873 -10.809  1.00  0.00    -0.003 A 
HETATM   23  C10 UNL     1     -32.036  -3.267  -9.855  1.00  0.00     0.014 A 
HETATM   24  C11 UNL     1     -32.990  -2.341 -10.179  1.00  0.00     0.001 A 
HETATM   25  C12 UNL     1     -33.122  -1.990 -11.521  1.00  0.00     0.002 A 
HETATM   26  C13 UNL     1     -32.302  -2.578 -12.442  1.00  0.00     0.026 A 
HETATM   27  C14 UNL     1     -31.324  -3.525 -12.112  1.00  0.00     0.090 A 
BRANCH  27  28
HETATM   28  S1  UNL     1     -30.329  -4.121 -13.376  1.00  0.00     0.259 S 
HETATM   29  O1  UNL     1     -28.912  -4.430 -12.988  1.00  0.00    -0.201 OA
HETATM   30  O2  UNL     1     -30.879  -5.482 -13.837  1.00  0.00    -0.201 OA
BRANCH  28  31
HETATM   31  N4  UNL     1     -30.257  -3.054 -14.723  1.00  0.00    -0.320 N 
HETATM   32  C15 UNL     1     -29.195  -3.353 -15.624  1.00  0.00     0.159 C 
ATOM     33  H4  UNL     1     -30.909  -2.284 -14.863  1.00  0.00     0.171 HD
ENDBRANCH  28  31
ENDBRANCH  27  28
ENDBRANCH   4  22
TORSDOF 6
ENDMDL
MODEL 5
REMARK VINA RESULT: -6.784703541      4.755      6.304
REMARK  6 active torsions:
REMARK  status: ('A' for Active; 'I' for Inactive)
REMARK    1  A    between atoms: C3_7  and  N3_8 
REMARK    2  A    between atoms: N3_8  and  C4_10 
REMARK    3  A    between atoms: C4_10  and  C5_11 
REMARK    4  A    between atoms: C8_14  and  C9_15 
REMARK    5  A    between atoms: C14_20  and  S1_21 
REMARK    6  A    between atoms: S1_21  and  N4_24 
ROOT
HETATM    1  C5  UNL     1     -29.138  -4.182 -14.654  1.00  0.00    -0.040 A 
HETATM    2  C6  UNL     1     -29.693  -5.393 -14.297  1.00  0.00     0.009 A 
HETATM    3  C7  UNL     1     -29.185  -6.143 -13.256  1.00  0.00     0.013 A 
HETATM    4  C8  UNL     1     -28.081  -5.716 -12.505  1.00  0.00    -0.024 A 
HETATM    5  C16 UNL     1     -27.534  -4.511 -12.863  1.00  0.00     0.013 A 
HETATM    6  C17 UNL     1     -28.053  -3.750 -13.923  1.00  0.00     0.009 A 
ENDROOT
BRANCH   1   7
HETATM    7  C4  UNL     1     -29.696  -3.381 -15.775  1.00  0.00     0.176 C 
BRANCH   7   8
HETATM    8  N3  UNL     1     -30.420  -2.225 -15.360  1.00  0.00    -0.222 N 
ATOM      9  H3  UNL     1     -30.155  -1.731 -14.509  1.00  0.00     0.178 HD
BRANCH   8  10
HETATM   10  C3  UNL     1     -31.409  -1.812 -16.067  1.00  0.00     0.679 A 
HETATM   11  N2  UNL     1     -31.467  -0.537 -16.480  1.00  0.00    -0.174 N 
HETATM   12  C2  UNL     1     -32.499  -0.037 -17.240  1.00  0.00     0.157 A 
ATOM     13  H2  UNL     1     -30.708   0.093 -16.219  1.00  0.00     0.186 HD
HETATM   14  N1  UNL     1     -32.478   1.190 -17.594  1.00  0.00    -0.378 N 
HETATM   15  C19 UNL     1     -33.508  -0.886 -17.585  1.00  0.00     0.176 A 
HETATM   16  C1  UNL     1     -33.459   1.834 -18.367  1.00  0.00     0.147 C 
ATOM     17  H1  UNL     1     -31.682   1.750 -17.289  1.00  0.00     0.160 HD
HETATM   18  C18 UNL     1     -33.450  -2.198 -17.161  1.00  0.00     0.152 A 
HETATM   19  F1  UNL     1     -34.588  -0.475 -18.347  1.00  0.00    -0.201 F 
HETATM   20  N5  UNL     1     -32.419  -2.622 -16.424  1.00  0.00    -0.199 N 
ATOM     21  H5  UNL     1     -32.399  -3.596 -16.122  1.00  0.00     0.183 HD
ENDBRANCH   8  10
ENDBRANCH   7   8
ENDBRANCH   1   7
BRANCH   4  22
HETATM   22  C9  UNL     1     -27.609  -6.505 -11.375  1.00  0.00    -0.003 A 
HETATM   23  C10 UNL     1     -26.604  -7.455 -11.654  1.00  0.00     0.014 A 
HETATM   24  C11 UNL     1     -26.094  -8.305 -10.711  1.00  0.00     0.001 A 
HETATM   25  C12 UNL     1     -26.602  -8.215  -9.416  1.00  0.00     0.002 A 
HETATM   26  C13 UNL     1     -27.575  -7.293  -9.150  1.00  0.00     0.026 A 
HETATM   27  C14 UNL     1     -28.096  -6.422 -10.113  1.00  0.00     0.090 A 
BRANCH  27  28
HETATM   28  S1  UNL     1     -29.267  -5.275  -9.604  1.00  0.00     0.259 S 
HETATM   29  O1  UNL     1     -29.602  -5.306  -8.141  1.00  0.00    -0.201 OA
HETATM   30  O2  UNL     1     -28.695  -3.861  -9.810  1.00  0.00    -0.201 OA
BRANCH  28  31
HETATM   31  N4  UNL     1     -30.751  -5.416 -10.460  1.00  0.00    -0.320 N 
HETATM   32  C15 UNL     1     -31.274  -4.165 -10.895  1.00  0.00     0.159 C 
ATOM     33  H4  UNL     1     -31.212  -6.308 -10.638  1.00  0.00     0.171 HD
ENDBRANCH  28  31
ENDBRANCH  27  28
ENDBRANCH   4  22
TORSDOF 6
ENDMDL
