MODEL 1
REMARK VINA RESULT: -6.240406906      0.000      0.000
REMARK  7 active torsions:
REMARK  status: ('A' for Active; 'I' for Inactive)
REMARK    1  A    between atoms: O1_2  and  C2_3 
REMARK    2  A    between atoms: C10_14  and  N2_15 
REMARK    3  A    between atoms: N2_15  and  C11_17 
REMARK    4  A    between atoms: C14_22  and  N4_23 
REMARK    5  A    between atoms: N4_23  and  C15_25 
REMARK    6  A    between atoms: C15_25  and  C16_26 
REMARK    7  A    between atoms: C16_26  and  C17_27 
ROOT
HETATM    1  C11 UNL     1     -26.837  -8.243 -11.661  1.00  0.00     0.683 A 
HETATM    2  N3  UNL     1     -26.460  -9.464 -11.354  1.00  0.00    -0.202 N 
ATOM      3  H3  UNL     1     -27.168 -10.162 -11.127  1.00  0.00     0.183 HD
HETATM    4  C12 UNL     1     -25.142  -9.818 -11.331  1.00  0.00     0.110 A 
HETATM    5  C13 UNL     1     -24.176  -8.889 -11.634  1.00  0.00     0.066 A 
HETATM    6  C14 UNL     1     -24.590  -7.611 -11.955  1.00  0.00     0.118 A 
HETATM    7  N5  UNL     1     -25.878  -7.327 -11.961  1.00  0.00    -0.177 N 
ATOM      8  H5  UNL     1     -26.167  -6.378 -12.200  1.00  0.00     0.186 HD
ENDROOT
BRANCH   1   9
HETATM    9  N2  UNL     1     -28.082  -7.832 -11.629  1.00  0.00    -0.194 N 
ATOM     10  H2  UNL     1     -28.756  -8.227 -12.285  1.00  0.00     0.184 HD
BRANCH   9  11
HETATM   11  C10 UNL     1     -28.518  -6.835 -10.685  1.00  0.00     0.042 A 
HETATM   12  C6  UNL     1     -29.290  -5.846 -11.072  1.00  0.00     0.038 A 
HETATM   13  C5  UNL     1     -29.679  -5.654 -12.380  1.00  0.00     0.048 A 
HETATM   14  C7  UNL     1     -29.798  -4.984 -10.085  1.00  0.00     0.075 A 
HETATM   15  C4  UNL     1     -30.546  -4.655 -12.764  1.00  0.00     0.028 A 
HETATM   16 CL1  UNL     1     -29.019  -6.632 -13.680  1.00  0.00    -0.083 Cl
HETATM   17  C3  UNL     1     -31.054  -3.803 -11.817  1.00  0.00     0.041 A 
HETATM   18  C2  UNL     1     -30.675  -3.983 -10.519  1.00  0.00     0.095 A 
HETATM   19  N1  UNL     1     -29.520  -5.078  -8.844  1.00  0.00    -0.387 N 
HETATM   20  C8  UNL     1     -28.656  -6.042  -8.283  1.00  0.00     0.126 A 
ATOM     21  H1  UNL     1     -29.953  -4.407  -8.210  1.00  0.00     0.159 HD
HETATM   22  C9  UNL     1     -28.115  -6.990  -9.276  1.00  0.00     0.078 A 
BRANCH  18  23
HETATM   23  O1  UNL     1     -31.178  -3.127  -9.543  1.00  0.00    -0.354 OA
HETATM   24  C1  UNL     1     -32.522  -2.703  -9.621  1.00  0.00     0.210 C 
ENDBRANCH  18  23
ENDBRANCH   9  11
ENDBRANCH   1   9
BRANCH   6  25
HETATM   25  N4  UNL     1     -23.661  -6.747 -12.240  1.00  0.00    -0.376 N 
ATOM     26  H4  UNL     1     -23.139  -6.325 -11.472  1.00  0.00     0.161 HD
BRANCH  25  27
HETATM   27  C15 UNL     1     -23.335  -6.362 -13.577  1.00  0.00     0.126 C 
BRANCH  27  28
HETATM   28  C16 UNL     1     -23.482  -4.840 -13.690  1.00  0.00     0.058 C 
BRANCH  28  29
HETATM   29  C17 UNL     1     -24.850  -4.509 -14.146  1.00  0.00    -0.057 A 
HETATM   30  C18 UNL     1     -25.258  -4.838 -15.439  1.00  0.00     0.007 A 
HETATM   31  C19 UNL     1     -26.521  -4.544 -15.889  1.00  0.00     0.001 A 
HETATM   32  C20 UNL     1     -27.415  -3.913 -15.061  1.00  0.00     0.000 A 
HETATM   33  C21 UNL     1     -27.035  -3.573 -13.765  1.00  0.00     0.001 A 
HETATM   34  C22 UNL     1     -25.763  -3.884 -13.353  1.00  0.00     0.007 A 
ENDBRANCH  28  29
ENDBRANCH  27  28
ENDBRANCH  25  27
ENDBRANCH   6  25
TORSDOF 7
ENDMDL
MODEL 2
REMARK VINA RESULT: -6.209367338      1.751      4.049
REMARK  7 active torsions:
REMARK  status: ('A' for Active; 'I' for Inactive)
REMARK    1  A    between atoms: O1_2  and  C2_3 
REMARK    2  A    between atoms: C10_14  and  N2_15 
REMARK    3  A    between atoms: N2_15  and  C11_17 
REMARK    4  A    between atoms: C14_22  and  N4_23 
REMARK    5  A    between atoms: N4_23  and  C15_25 
REMARK    6  A    between atoms: C15_25  and  C16_26 
REMARK    7  A    between atoms: C16_26  and  C17_27 
ROOT
HETATM    1  C11 UNL     1     -27.056  -5.156 -13.079  1.00  0.00     0.683 A 
HETATM    2  N3  UNL     1     -26.513  -3.971 -13.245  1.00  0.00    -0.202 N 
ATOM      3  H3  UNL     1     -27.108  -3.143 -13.231  1.00  0.00     0.183 HD
HETATM    4  C12 UNL     1     -25.169  -3.824 -13.437  1.00  0.00     0.110 A 
HETATM    5  C13 UNL     1     -24.353  -4.929 -13.458  1.00  0.00     0.066 A 
HETATM    6  C14 UNL     1     -24.941  -6.167 -13.281  1.00  0.00     0.118 A 
HETATM    7  N5  UNL     1     -26.244  -6.247 -13.100  1.00  0.00    -0.177 N 
ATOM      8  H5  UNL     1     -26.662  -7.168 -12.971  1.00  0.00     0.186 HD
ENDROOT
BRANCH   1   9
HETATM    9  N2  UNL     1     -28.346  -5.359 -12.963  1.00  0.00    -0.194 N 
ATOM     10  H2  UNL     1     -28.832  -5.903 -13.676  1.00  0.00     0.184 HD
BRANCH   9  11
HETATM   11  C10 UNL     1     -29.091  -4.830 -11.850  1.00  0.00     0.042 A 
HETATM   12  C6  UNL     1     -30.158  -4.093 -12.055  1.00  0.00     0.038 A 
HETATM   13  C5  UNL     1     -30.599  -3.727 -13.309  1.00  0.00     0.048 A 
HETATM   14  C7  UNL     1     -30.925  -3.721 -10.937  1.00  0.00     0.075 A 
HETATM   15  C4  UNL     1     -31.760  -3.014 -13.515  1.00  0.00     0.028 A 
HETATM   16 CL1  UNL     1     -29.653  -4.077 -14.745  1.00  0.00    -0.083 Cl
HETATM   17  C3  UNL     1     -32.523  -2.641 -12.439  1.00  0.00     0.041 A 
HETATM   18  C2  UNL     1     -32.096  -2.997 -11.193  1.00  0.00     0.095 A 
HETATM   19  N1  UNL     1     -30.622  -4.018  -9.734  1.00  0.00    -0.387 N 
HETATM   20  C8  UNL     1     -29.476  -4.743  -9.348  1.00  0.00     0.126 A 
ATOM     21  H1  UNL     1     -31.256  -3.708  -8.998  1.00  0.00     0.159 HD
HETATM   22  C9  UNL     1     -28.649  -5.181 -10.489  1.00  0.00     0.078 A 
BRANCH  18  23
HETATM   23  O1  UNL     1     -32.855  -2.626 -10.086  1.00  0.00    -0.354 OA
HETATM   24  C1  UNL     1     -33.562  -1.405 -10.111  1.00  0.00     0.210 C 
ENDBRANCH  18  23
ENDBRANCH   9  11
ENDBRANCH   1   9
BRANCH   6  25
HETATM   25  N4  UNL     1     -24.151  -7.199 -13.304  1.00  0.00    -0.376 N 
ATOM     26  H4  UNL     1     -23.952  -7.639 -14.203  1.00  0.00     0.161 HD
BRANCH  25  27
HETATM   27  C15 UNL     1     -23.549  -7.748 -12.129  1.00  0.00     0.126 C 
BRANCH  27  28
HETATM   28  C16 UNL     1     -24.179  -9.119 -11.860  1.00  0.00     0.058 C 
BRANCH  28  29
HETATM   29  C17 UNL     1     -25.347  -8.958 -10.966  1.00  0.00    -0.057 A 
HETATM   30  C18 UNL     1     -25.358  -7.951 -10.000  1.00  0.00     0.007 A 
HETATM   31  C19 UNL     1     -26.428  -7.778  -9.157  1.00  0.00     0.001 A 
HETATM   32  C20 UNL     1     -27.519  -8.605  -9.255  1.00  0.00     0.000 A 
HETATM   33  C21 UNL     1     -27.536  -9.618 -10.210  1.00  0.00     0.001 A 
HETATM   34  C22 UNL     1     -26.446  -9.759 -11.034  1.00  0.00     0.007 A 
ENDBRANCH  28  29
ENDBRANCH  27  28
ENDBRANCH  25  27
ENDBRANCH   6  25
TORSDOF 7
ENDMDL
MODEL 3
REMARK VINA RESULT: -6.065760108      2.103      3.256
REMARK  7 active torsions:
REMARK  status: ('A' for Active; 'I' for Inactive)
REMARK    1  A    between atoms: O1_2  and  C2_3 
REMARK    2  A    between atoms: C10_14  and  N2_15 
REMARK    3  A    between atoms: N2_15  and  C11_17 
REMARK    4  A    between atoms: C14_22  and  N4_23 
REMARK    5  A    between atoms: N4_23  and  C15_25 
REMARK    6  A    between atoms: C15_25  and  C16_26 
REMARK    7  A    between atoms: C16_26  and  C17_27 
ROOT
HETATM    1  C11 UNL     1     -24.618  -8.787 -10.730  1.00  0.00     0.683 A 
HETATM    2  N3  UNL     1     -24.181  -9.994 -11.015  1.00  0.00    -0.202 N 
ATOM      3  H3  UNL     1     -24.839 -10.773 -11.027  1.00  0.00     0.183 HD
HETATM    4  C12 UNL     1     -22.865 -10.227 -11.297  1.00  0.00     0.110 A 
HETATM    5  C13 UNL     1     -21.966  -9.188 -11.286  1.00  0.00     0.066 A 
HETATM    6  C14 UNL     1     -22.443  -7.927 -10.984  1.00  0.00     0.118 A 
HETATM    7  N5  UNL     1     -23.724  -7.763 -10.720  1.00  0.00    -0.177 N 
ATOM      8  H5  UNL     1     -24.060  -6.825 -10.499  1.00  0.00     0.186 HD
ENDROOT
BRANCH   1   9
HETATM    9  N2  UNL     1     -25.854  -8.521 -10.383  1.00  0.00    -0.194 N 
ATOM     10  H2  UNL     1     -26.249  -8.971  -9.557  1.00  0.00     0.184 HD
BRANCH   9  11
HETATM   11  C10 UNL     1     -26.665  -7.606 -11.143  1.00  0.00     0.042 A 
HETATM   12  C6  UNL     1     -27.582  -6.878 -10.548  1.00  0.00     0.038 A 
HETATM   13  C5  UNL     1     -27.873  -6.975  -9.204  1.00  0.00     0.048 A 
HETATM   14  C7  UNL     1     -28.246  -5.904 -11.312  1.00  0.00     0.075 A 
HETATM   15  C4  UNL     1     -28.786  -6.156  -8.576  1.00  0.00     0.028 A 
HETATM   16 CL1  UNL     1     -27.152  -8.223  -8.202  1.00  0.00    -0.083 Cl
HETATM   17  C3  UNL     1     -29.446  -5.198  -9.303  1.00  0.00     0.041 A 
HETATM   18  C2  UNL     1     -29.166  -5.094 -10.634  1.00  0.00     0.095 A 
HETATM   19  N1  UNL     1     -28.045  -5.715 -12.558  1.00  0.00    -0.387 N 
HETATM   20  C8  UNL     1     -27.145  -6.459 -13.349  1.00  0.00     0.126 A 
ATOM     21  H1  UNL     1     -28.572  -4.972 -13.014  1.00  0.00     0.159 HD
HETATM   22  C9  UNL     1     -26.401  -7.479 -12.587  1.00  0.00     0.078 A 
BRANCH  18  23
HETATM   23  O1  UNL     1     -29.826  -4.130 -11.391  1.00  0.00    -0.354 OA
HETATM   24  C1  UNL     1     -31.167  -3.811 -11.086  1.00  0.00     0.210 C 
ENDBRANCH  18  23
ENDBRANCH   9  11
ENDBRANCH   1   9
BRANCH   6  25
HETATM   25  N4  UNL     1     -21.576  -6.958 -10.980  1.00  0.00    -0.376 N 
ATOM     26  H4  UNL     1     -21.368  -6.497 -10.094  1.00  0.00     0.161 HD
BRANCH  25  27
HETATM   27  C15 UNL     1     -20.901  -6.510 -12.157  1.00  0.00     0.126 C 
BRANCH  27  28
HETATM   28  C16 UNL     1     -21.504  -5.164 -12.576  1.00  0.00     0.058 C 
BRANCH  28  29
HETATM   29  C17 UNL     1     -22.483  -5.380 -13.664  1.00  0.00    -0.057 A 
HETATM   30  C18 UNL     1     -23.428  -4.398 -13.963  1.00  0.00     0.007 A 
HETATM   31  C19 UNL     1     -24.348  -4.571 -14.967  1.00  0.00     0.001 A 
HETATM   32  C20 UNL     1     -24.351  -5.729 -15.703  1.00  0.00     0.000 A 
HETATM   33  C21 UNL     1     -23.418  -6.726 -15.428  1.00  0.00     0.001 A 
HETATM   34  C22 UNL     1     -22.515  -6.515 -14.415  1.00  0.00     0.007 A 
ENDBRANCH  28  29
ENDBRANCH  27  28
ENDBRANCH  25  27
ENDBRANCH   6  25
TORSDOF 7
ENDMDL
MODEL 4
REMARK VINA RESULT: -5.948765877      2.534      6.714
REMARK  7 active torsions:
REMARK  status: ('A' for Active; 'I' for Inactive)
REMARK    1  A    between atoms: O1_2  and  C2_3 
REMARK    2  A    between atoms: C10_14  and  N2_15 
REMARK    3  A    between atoms: N2_15  and  C11_17 
REMARK    4  A    between atoms: C14_22  and  N4_23 
REMARK    5  A    between atoms: N4_23  and  C15_25 
REMARK    6  A    between atoms: C15_25  and  C16_26 
REMARK    7  A    between atoms: C16_26  and  C17_27 
ROOT
HETATM    1  C11 UNL     1     -26.523  -7.553 -10.756  1.00  0.00     0.683 A 
HETATM    2  N3  UNL     1     -26.347  -8.346  -9.723  1.00  0.00    -0.202 N 
ATOM      3  H3  UNL     1     -25.623  -9.063  -9.763  1.00  0.00     0.183 HD
HETATM    4  C12 UNL     1     -27.112  -8.232  -8.598  1.00  0.00     0.110 A 
HETATM    5  C13 UNL     1     -28.092  -7.271  -8.529  1.00  0.00     0.066 A 
HETATM    6  C14 UNL     1     -28.263  -6.446  -9.624  1.00  0.00     0.118 A 
HETATM    7  N5  UNL     1     -27.494  -6.603 -10.683  1.00  0.00    -0.177 N 
ATOM      8  H5  UNL     1     -27.633  -5.985 -11.482  1.00  0.00     0.186 HD
ENDROOT
BRANCH   1   9
HETATM    9  N2  UNL     1     -25.866  -7.666 -11.885  1.00  0.00    -0.194 N 
ATOM     10  H2  UNL     1     -26.335  -8.064 -12.699  1.00  0.00     0.184 HD
BRANCH   9  11
HETATM   11  C10 UNL     1     -24.495  -7.240 -12.000  1.00  0.00     0.042 A 
HETATM   12  C6  UNL     1     -24.156  -6.317 -12.870  1.00  0.00     0.038 A 
HETATM   13  C5  UNL     1     -25.045  -5.745 -13.755  1.00  0.00     0.048 A 
HETATM   14  C7  UNL     1     -22.833  -5.841 -12.843  1.00  0.00     0.075 A 
HETATM   15  C4  UNL     1     -24.694  -4.726 -14.613  1.00  0.00     0.028 A 
HETATM   16 CL1  UNL     1     -26.688  -6.343 -13.911  1.00  0.00    -0.083 Cl
HETATM   17  C3  UNL     1     -23.410  -4.247 -14.603  1.00  0.00     0.041 A 
HETATM   18  C2  UNL     1     -22.521  -4.806 -13.732  1.00  0.00     0.095 A 
HETATM   19  N1  UNL     1     -21.933  -6.284 -12.055  1.00  0.00    -0.387 N 
HETATM   20  C8  UNL     1     -22.123  -7.318 -11.115  1.00  0.00     0.126 A 
ATOM     21  H1  UNL     1     -21.008  -5.860 -12.110  1.00  0.00     0.159 HD
HETATM   22  C9  UNL     1     -23.505  -7.834 -11.085  1.00  0.00     0.078 A 
BRANCH  18  23
HETATM   23  O1  UNL     1     -21.211  -4.336 -13.707  1.00  0.00    -0.354 OA
HETATM   24  C1  UNL     1     -20.438  -4.381 -14.887  1.00  0.00     0.210 C 
ENDBRANCH  18  23
ENDBRANCH   9  11
ENDBRANCH   1   9
BRANCH   6  25
HETATM   25  N4  UNL     1     -29.194  -5.543  -9.537  1.00  0.00    -0.376 N 
ATOM     26  H4  UNL     1     -29.969  -5.705  -8.894  1.00  0.00     0.161 HD
BRANCH  25  27
HETATM   27  C15 UNL     1     -29.184  -4.334 -10.300  1.00  0.00     0.126 C 
BRANCH  27  28
HETATM   28  C16 UNL     1     -30.239  -4.452 -11.406  1.00  0.00     0.058 C 
BRANCH  28  29
HETATM   29  C17 UNL     1     -31.328  -3.483 -11.154  1.00  0.00    -0.057 A 
HETATM   30  C18 UNL     1     -32.012  -2.902 -12.222  1.00  0.00     0.007 A 
HETATM   31  C19 UNL     1     -33.027  -2.000 -12.018  1.00  0.00     0.001 A 
HETATM   32  C20 UNL     1     -33.389  -1.651 -10.741  1.00  0.00     0.000 A 
HETATM   33  C21 UNL     1     -32.723  -2.215  -9.655  1.00  0.00     0.001 A 
HETATM   34  C22 UNL     1     -31.714  -3.113  -9.901  1.00  0.00     0.007 A 
ENDBRANCH  28  29
ENDBRANCH  27  28
ENDBRANCH  25  27
ENDBRANCH   6  25
TORSDOF 7
ENDMDL
MODEL 5
REMARK VINA RESULT: -5.915073869      2.799      5.831
REMARK  7 active torsions:
REMARK  status: ('A' for Active; 'I' for Inactive)
REMARK    1  A    between atoms: O1_2  and  C2_3 
REMARK    2  A    between atoms: C10_14  and  N2_15 
REMARK    3  A    between atoms: N2_15  and  C11_17 
REMARK    4  A    between atoms: C14_22  and  N4_23 
REMARK    5  A    between atoms: N4_23  and  C15_25 
REMARK    6  A    between atoms: C15_25  and  C16_26 
REMARK    7  A    between atoms: C16_26  and  C17_27 
ROOT
HETATM    1  C11 UNL     1     -31.273  -4.614 -11.355  1.00  0.00     0.683 A 
HETATM    2  N3  UNL     1     -32.382  -3.916 -11.251  1.00  0.00    -0.202 N 
ATOM      3  H3  UNL     1     -33.011  -4.092 -10.468  1.00  0.00     0.183 HD
HETATM    4  C12 UNL     1     -32.710  -2.959 -12.169  1.00  0.00     0.110 A 
HETATM    5  C13 UNL     1     -31.874  -2.710 -13.230  1.00  0.00     0.066 A 
HETATM    6  C14 UNL     1     -30.713  -3.453 -13.324  1.00  0.00     0.118 A 
HETATM    7  N5  UNL     1     -30.448  -4.364 -12.407  1.00  0.00    -0.177 N 
ATOM      8  H5  UNL     1     -29.587  -4.903 -12.490  1.00  0.00     0.186 HD
ENDROOT
BRANCH   1   9
HETATM    9  N2  UNL     1     -30.946  -5.591 -10.544  1.00  0.00    -0.194 N 
ATOM     10  H2  UNL     1     -31.052  -5.461  -9.537  1.00  0.00     0.184 HD
BRANCH   9  11
HETATM   11  C10 UNL     1     -30.441  -6.843 -11.043  1.00  0.00     0.042 A 
HETATM   12  C6  UNL     1     -29.346  -7.366 -10.542  1.00  0.00     0.038 A 
HETATM   13  C5  UNL     1     -28.585  -6.748  -9.573  1.00  0.00     0.048 A 
HETATM   14  C7  UNL     1     -28.977  -8.654 -10.968  1.00  0.00     0.075 A 
HETATM   15  C4  UNL     1     -27.479  -7.338  -9.002  1.00  0.00     0.028 A 
HETATM   16 CL1  UNL     1     -28.929  -5.107  -9.052  1.00  0.00    -0.083 Cl
HETATM   17  C3  UNL     1     -27.101  -8.593  -9.402  1.00  0.00     0.041 A 
HETATM   18  C2  UNL     1     -27.846  -9.215 -10.362  1.00  0.00     0.095 A 
HETATM   19  N1  UNL     1     -29.616  -9.325 -11.844  1.00  0.00    -0.387 N 
HETATM   20  C8  UNL     1     -30.767  -8.874 -12.522  1.00  0.00     0.126 A 
ATOM     21  H1  UNL     1     -29.268 -10.256 -12.072  1.00  0.00     0.159 HD
HETATM   22  C9  UNL     1     -31.213  -7.535 -12.091  1.00  0.00     0.078 A 
BRANCH  18  23
HETATM   23  O1  UNL     1     -27.479 -10.489 -10.784  1.00  0.00    -0.354 OA
HETATM   24  C1  UNL     1     -26.237 -10.671 -11.430  1.00  0.00     0.210 C 
ENDBRANCH  18  23
ENDBRANCH   9  11
ENDBRANCH   1   9
BRANCH   6  25
HETATM   25  N4  UNL     1     -29.935  -3.201 -14.334  1.00  0.00    -0.376 N 
ATOM     26  H4  UNL     1     -30.113  -2.362 -14.886  1.00  0.00     0.161 HD
BRANCH  25  27
HETATM   27  C15 UNL     1     -28.841  -4.043 -14.707  1.00  0.00     0.126 C 
BRANCH  27  28
HETATM   28  C16 UNL     1     -27.543  -3.395 -14.211  1.00  0.00     0.058 C 
BRANCH  28  29
HETATM   29  C17 UNL     1     -26.651  -4.440 -13.663  1.00  0.00    -0.057 A 
HETATM   30  C18 UNL     1     -25.265  -4.300 -13.759  1.00  0.00     0.007 A 
HETATM   31  C19 UNL     1     -24.412  -5.253 -13.258  1.00  0.00     0.001 A 
HETATM   32  C20 UNL     1     -24.917  -6.372 -12.646  1.00  0.00     0.000 A 
HETATM   33  C21 UNL     1     -26.296  -6.538 -12.535  1.00  0.00     0.001 A 
HETATM   34  C22 UNL     1     -27.115  -5.563 -13.049  1.00  0.00     0.007 A 
ENDBRANCH  28  29
ENDBRANCH  27  28
ENDBRANCH  25  27
ENDBRANCH   6  25
TORSDOF 7
ENDMDL
