MODEL 1
REMARK VINA RESULT: -7.197514221      0.000      0.000
REMARK  8 active torsions:
REMARK  status: ('A' for Active; 'I' for Inactive)
REMARK    1  A    between atoms: C5_5  and  S1_6 
REMARK    2  A    between atoms: S1_6  and  N1_9 
REMARK    3  A    between atoms: N1_9  and  C6_11 
REMARK    4  A    between atoms: C9_16  and  N3_17 
REMARK    5  A    between atoms: N3_17  and  C10_19 
REMARK    6  A    between atoms: C10_19  and  C12_21 
REMARK    7  A    between atoms: C12_21  and  O3_22 
REMARK    8  A    between atoms: C12_21  and  C13_24 
ROOT
HETATM    1  C6  UNL     1     -28.125  -6.506  -9.902  1.00  0.00     0.131 A 
HETATM    2  C7  UNL     1     -28.026  -7.016  -8.638  1.00  0.00     0.067 A 
HETATM    3  C8  UNL     1     -27.307  -8.211  -8.505  1.00  0.00     0.110 A 
HETATM    4  N2  UNL     1     -26.761  -8.793  -9.575  1.00  0.00    -0.202 N 
ATOM      5  H2  UNL     1     -26.243  -9.663  -9.443  1.00  0.00     0.183 HD
HETATM    6  C9  UNL     1     -26.862  -8.281 -10.842  1.00  0.00     0.679 A 
HETATM    7  N4  UNL     1     -27.551  -7.138 -10.961  1.00  0.00    -0.176 N 
ATOM      8  H4  UNL     1     -27.649  -6.723 -11.887  1.00  0.00     0.186 HD
ENDROOT
BRANCH   6   9
HETATM    9  N3  UNL     1     -26.298  -8.924 -11.801  1.00  0.00    -0.219 N 
ATOM     10  H3  UNL     1     -26.867  -9.366 -12.523  1.00  0.00     0.178 HD
BRANCH   9  11
HETATM   11  C10 UNL     1     -24.863  -9.021 -11.856  1.00  0.00     0.128 C 
HETATM   12  C11 UNL     1     -24.355 -10.422 -11.569  1.00  0.00     0.036 C 
BRANCH  11  13
HETATM   13  C12 UNL     1     -24.206  -8.007 -10.935  1.00  0.00     0.174 C 
BRANCH  13  14
HETATM   14  O3  UNL     1     -23.508  -8.755  -9.970  1.00  0.00    -0.389 OA
ATOM     15  H3  UNL     1     -23.594  -8.275  -9.155  1.00  0.00     0.210 HD
ENDBRANCH  13  14
BRANCH  13  16
HETATM   16  C13 UNL     1     -23.294  -7.102 -11.654  1.00  0.00    -0.025 A 
HETATM   17  C14 UNL     1     -21.934  -7.117 -11.368  1.00  0.00     0.010 A 
HETATM   18  C15 UNL     1     -21.054  -6.298 -12.009  1.00  0.00     0.004 A 
HETATM   19  C16 UNL     1     -21.478  -5.419 -12.969  1.00  0.00     0.042 A 
HETATM   20  C17 UNL     1     -22.840  -5.388 -13.269  1.00  0.00     0.117 A 
HETATM   21  F1  UNL     1     -23.229  -4.507 -14.225  1.00  0.00    -0.206 F 
HETATM   22  C18 UNL     1     -23.723  -6.225 -12.612  1.00  0.00     0.052 A 
ENDBRANCH  13  16
ENDBRANCH  11  13
ENDBRANCH   9  11
ENDBRANCH   6   9
BRANCH   1  23
HETATM   23  N1  UNL     1     -28.759  -5.423 -10.120  1.00  0.00    -0.265 N 
ATOM     24  H1  UNL     1     -28.749  -4.697  -9.404  1.00  0.00     0.180 HD
BRANCH  23  25
HETATM   25  S1  UNL     1     -29.624  -5.141 -11.556  1.00  0.00     0.264 S 
HETATM   26  O1  UNL     1     -30.267  -6.441 -11.987  1.00  0.00    -0.200 OA
HETATM   27  O2  UNL     1     -28.738  -4.676 -12.693  1.00  0.00    -0.200 OA
BRANCH  25  28
HETATM   28  C5  UNL     1     -30.925  -3.978 -11.311  1.00  0.00     0.079 A 
HETATM   29  C4  UNL     1     -31.638  -3.426 -12.328  1.00  0.00     0.026 A 
HETATM   30  C3  UNL     1     -32.649  -2.519 -12.051  1.00  0.00     0.008 A 
HETATM   31  C2  UNL     1     -32.975  -2.138 -10.760  1.00  0.00    -0.062 A 
HETATM   32  C1  UNL     1     -34.075  -1.151 -10.492  1.00  0.00     0.048 C 
HETATM   33  C20 UNL     1     -32.249  -2.701  -9.734  1.00  0.00     0.008 A 
HETATM   34  C19 UNL     1     -31.245  -3.603 -10.012  1.00  0.00     0.026 A 
ENDBRANCH  25  28
ENDBRANCH  23  25
ENDBRANCH   1  23
TORSDOF 8
ENDMDL
MODEL 2
REMARK VINA RESULT: -7.028156695      3.207      5.400
REMARK  8 active torsions:
REMARK  status: ('A' for Active; 'I' for Inactive)
REMARK    1  A    between atoms: C5_5  and  S1_6 
REMARK    2  A    between atoms: S1_6  and  N1_9 
REMARK    3  A    between atoms: N1_9  and  C6_11 
REMARK    4  A    between atoms: C9_16  and  N3_17 
REMARK    5  A    between atoms: N3_17  and  C10_19 
REMARK    6  A    between atoms: C10_19  and  C12_21 
REMARK    7  A    between atoms: C12_21  and  O3_22 
REMARK    8  A    between atoms: C12_21  and  C13_24 
ROOT
HETATM    1  C6  UNL     1     -24.462  -8.507 -10.920  1.00  0.00     0.131 A 
HETATM    2  C7  UNL     1     -23.853  -9.622 -11.422  1.00  0.00     0.067 A 
HETATM    3  C8  UNL     1     -22.990  -9.423 -12.509  1.00  0.00     0.110 A 
HETATM    4  N2  UNL     1     -22.797  -8.198 -13.001  1.00  0.00    -0.202 N 
ATOM      5  H2  UNL     1     -22.161  -8.088 -13.792  1.00  0.00     0.183 HD
HETATM    6  C9  UNL     1     -23.409  -7.080 -12.497  1.00  0.00     0.679 A 
HETATM    7  N4  UNL     1     -24.232  -7.279 -11.459  1.00  0.00    -0.176 N 
ATOM      8  H4  UNL     1     -24.707  -6.473 -11.053  1.00  0.00     0.186 HD
ENDROOT
BRANCH   6   9
HETATM    9  N3  UNL     1     -23.151  -5.949 -13.048  1.00  0.00    -0.219 N 
ATOM     10  H3  UNL     1     -22.293  -5.450 -12.810  1.00  0.00     0.178 HD
BRANCH   9  11
HETATM   11  C10 UNL     1     -24.070  -5.386 -14.001  1.00  0.00     0.128 C 
HETATM   12  C11 UNL     1     -23.375  -4.605 -15.101  1.00  0.00     0.036 C 
BRANCH  11  13
HETATM   13  C12 UNL     1     -25.122  -4.532 -13.313  1.00  0.00     0.174 C 
BRANCH  13  14
HETATM   14  O3  UNL     1     -24.638  -3.213 -13.353  1.00  0.00    -0.389 OA
ATOM     15  H3  UNL     1     -25.321  -2.672 -12.976  1.00  0.00     0.210 HD
ENDBRANCH  13  14
BRANCH  13  16
HETATM   16  C13 UNL     1     -26.438  -4.626 -13.968  1.00  0.00    -0.025 A 
HETATM   17  C14 UNL     1     -26.839  -5.822 -14.550  1.00  0.00     0.010 A 
HETATM   18  C15 UNL     1     -28.047  -5.954 -15.166  1.00  0.00     0.004 A 
HETATM   19  C16 UNL     1     -28.921  -4.903 -15.237  1.00  0.00     0.042 A 
HETATM   20  C17 UNL     1     -28.537  -3.694 -14.659  1.00  0.00     0.117 A 
HETATM   21  F1  UNL     1     -29.425  -2.671 -14.747  1.00  0.00    -0.206 F 
HETATM   22  C18 UNL     1     -27.308  -3.572 -14.037  1.00  0.00     0.052 A 
ENDBRANCH  13  16
ENDBRANCH  11  13
ENDBRANCH   9  11
ENDBRANCH   6   9
BRANCH   1  23
HETATM   23  N1  UNL     1     -25.263  -8.590  -9.933  1.00  0.00    -0.265 N 
ATOM     24  H1  UNL     1     -24.883  -8.534  -8.989  1.00  0.00     0.180 HD
BRANCH  23  25
HETATM   25  S1  UNL     1     -26.939  -8.793 -10.128  1.00  0.00     0.264 S 
HETATM   26  O1  UNL     1     -27.439  -9.703  -9.026  1.00  0.00    -0.200 OA
HETATM   27  O2  UNL     1     -27.304  -9.439 -11.448  1.00  0.00    -0.200 OA
BRANCH  25  28
HETATM   28  C5  UNL     1     -27.800  -7.264  -9.963  1.00  0.00     0.079 A 
HETATM   29  C4  UNL     1     -28.297  -6.807  -8.783  1.00  0.00     0.026 A 
HETATM   30  C3  UNL     1     -28.962  -5.591  -8.738  1.00  0.00     0.008 A 
HETATM   31  C2  UNL     1     -29.149  -4.802  -9.860  1.00  0.00    -0.062 A 
HETATM   32  C1  UNL     1     -29.875  -3.490  -9.779  1.00  0.00     0.048 C 
HETATM   33  C20 UNL     1     -28.642  -5.270 -11.052  1.00  0.00     0.008 A 
HETATM   34  C19 UNL     1     -27.982  -6.479 -11.095  1.00  0.00     0.026 A 
ENDBRANCH  25  28
ENDBRANCH  23  25
ENDBRANCH   1  23
TORSDOF 8
ENDMDL
MODEL 3
REMARK VINA RESULT: -6.988130419      2.178      3.410
REMARK  8 active torsions:
REMARK  status: ('A' for Active; 'I' for Inactive)
REMARK    1  A    between atoms: C5_5  and  S1_6 
REMARK    2  A    between atoms: S1_6  and  N1_9 
REMARK    3  A    between atoms: N1_9  and  C6_11 
REMARK    4  A    between atoms: C9_16  and  N3_17 
REMARK    5  A    between atoms: N3_17  and  C10_19 
REMARK    6  A    between atoms: C10_19  and  C12_21 
REMARK    7  A    between atoms: C12_21  and  O3_22 
REMARK    8  A    between atoms: C12_21  and  C13_24 
ROOT
HETATM    1  C6  UNL     1     -28.163  -6.444  -9.776  1.00  0.00     0.131 A 
HETATM    2  C7  UNL     1     -28.103  -7.111  -8.585  1.00  0.00     0.067 A 
HETATM    3  C8  UNL     1     -27.204  -8.184  -8.519  1.00  0.00     0.110 A 
HETATM    4  N2  UNL     1     -26.462  -8.510  -9.580  1.00  0.00    -0.202 N 
ATOM      5  H2  UNL     1     -25.817  -9.296  -9.497  1.00  0.00     0.183 HD
HETATM    6  C9  UNL     1     -26.524  -7.840 -10.774  1.00  0.00     0.679 A 
HETATM    7  N4  UNL     1     -27.386  -6.815 -10.829  1.00  0.00    -0.176 N 
ATOM      8  H4  UNL     1     -27.462  -6.290 -11.699  1.00  0.00     0.186 HD
ENDROOT
BRANCH   6   9
HETATM    9  N3  UNL     1     -25.765  -8.238 -11.730  1.00  0.00    -0.219 N 
ATOM     10  H3  UNL     1     -26.160  -8.419 -12.653  1.00  0.00     0.178 HD
BRANCH   9  11
HETATM   11  C10 UNL     1     -24.357  -8.428 -11.500  1.00  0.00     0.128 C 
HETATM   12  C11 UNL     1     -23.526  -7.221 -11.897  1.00  0.00     0.036 C 
BRANCH  11  13
HETATM   13  C12 UNL     1     -23.851  -9.684 -12.189  1.00  0.00     0.174 C 
BRANCH  13  14
HETATM   14  O3  UNL     1     -22.877  -9.256 -13.108  1.00  0.00    -0.389 OA
ATOM     15  H3  UNL     1     -23.162  -8.403 -13.414  1.00  0.00     0.210 HD
ENDBRANCH  13  14
BRANCH  13  16
HETATM   16  C13 UNL     1     -23.282 -10.655 -11.239  1.00  0.00    -0.025 A 
HETATM   17  C14 UNL     1     -23.775 -11.954 -11.198  1.00  0.00     0.010 A 
HETATM   18  C15 UNL     1     -23.279 -12.885 -10.335  1.00  0.00     0.004 A 
HETATM   19  C16 UNL     1     -22.267 -12.575  -9.467  1.00  0.00     0.042 A 
HETATM   20  C17 UNL     1     -21.759 -11.276  -9.494  1.00  0.00     0.117 A 
HETATM   21  F1  UNL     1     -20.756 -10.999  -8.622  1.00  0.00    -0.206 F 
HETATM   22  C18 UNL     1     -22.270 -10.340 -10.374  1.00  0.00     0.052 A 
ENDBRANCH  13  16
ENDBRANCH  11  13
ENDBRANCH   9  11
ENDBRANCH   6   9
BRANCH   1  23
HETATM   23  N1  UNL     1     -28.951  -5.455  -9.929  1.00  0.00    -0.265 N 
ATOM     24  H1  UNL     1     -29.156  -4.862  -9.125  1.00  0.00     0.180 HD
BRANCH  23  25
HETATM   25  S1  UNL     1     -29.676  -5.084 -11.421  1.00  0.00     0.264 S 
HETATM   26  O1  UNL     1     -30.285  -6.352 -11.982  1.00  0.00    -0.200 OA
HETATM   27  O2  UNL     1     -28.686  -4.568 -12.443  1.00  0.00    -0.200 OA
BRANCH  25  28
HETATM   28  C5  UNL     1     -30.988  -3.923 -11.233  1.00  0.00     0.079 A 
HETATM   29  C4  UNL     1     -31.674  -3.391 -12.280  1.00  0.00     0.026 A 
HETATM   30  C3  UNL     1     -32.694  -2.482 -12.047  1.00  0.00     0.008 A 
HETATM   31  C2  UNL     1     -33.058  -2.080 -10.774  1.00  0.00    -0.062 A 
HETATM   32  C1  UNL     1     -34.168  -1.093 -10.554  1.00  0.00     0.048 C 
HETATM   33  C20 UNL     1     -32.359  -2.622  -9.717  1.00  0.00     0.008 A 
HETATM   34  C19 UNL     1     -31.345  -3.525  -9.952  1.00  0.00     0.026 A 
ENDBRANCH  25  28
ENDBRANCH  23  25
ENDBRANCH   1  23
TORSDOF 8
ENDMDL
MODEL 4
REMARK VINA RESULT: -6.970695708      3.535      7.412
REMARK  8 active torsions:
REMARK  status: ('A' for Active; 'I' for Inactive)
REMARK    1  A    between atoms: C5_5  and  S1_6 
REMARK    2  A    between atoms: S1_6  and  N1_9 
REMARK    3  A    between atoms: N1_9  and  C6_11 
REMARK    4  A    between atoms: C9_16  and  N3_17 
REMARK    5  A    between atoms: N3_17  and  C10_19 
REMARK    6  A    between atoms: C10_19  and  C12_21 
REMARK    7  A    between atoms: C12_21  and  O3_22 
REMARK    8  A    between atoms: C12_21  and  C13_24 
ROOT
HETATM    1  C6  UNL     1     -30.353  -2.813 -14.499  1.00  0.00     0.131 A 
HETATM    2  C7  UNL     1     -31.251  -1.811 -14.732  1.00  0.00     0.067 A 
HETATM    3  C8  UNL     1     -32.342  -1.738 -13.854  1.00  0.00     0.110 A 
HETATM    4  N2  UNL     1     -32.465  -2.615 -12.856  1.00  0.00    -0.202 N 
ATOM      5  H2  UNL     1     -33.270  -2.533 -12.235  1.00  0.00     0.183 HD
HETATM    6  C9  UNL     1     -31.563  -3.620 -12.624  1.00  0.00     0.679 A 
HETATM    7  N4  UNL     1     -30.523  -3.684 -13.467  1.00  0.00    -0.176 N 
ATOM      8  H4  UNL     1     -29.828  -4.417 -13.328  1.00  0.00     0.186 HD
ENDROOT
BRANCH   6   9
HETATM    9  N3  UNL     1     -31.779  -4.409 -11.634  1.00  0.00    -0.219 N 
ATOM     10  H3  UNL     1     -32.275  -5.289 -11.781  1.00  0.00     0.178 HD
BRANCH   9  11
HETATM   11  C10 UNL     1     -31.322  -4.054 -10.317  1.00  0.00     0.128 C 
HETATM   12  C11 UNL     1     -32.096  -2.894  -9.716  1.00  0.00     0.036 C 
BRANCH  11  13
HETATM   13  C12 UNL     1     -29.829  -3.770 -10.309  1.00  0.00     0.174 C 
BRANCH  13  14
HETATM   14  O3  UNL     1     -29.615  -2.851  -9.267  1.00  0.00    -0.389 OA
ATOM     15  H3  UNL     1     -30.224  -3.089  -8.579  1.00  0.00     0.210 HD
ENDBRANCH  13  14
BRANCH  13  16
HETATM   16  C13 UNL     1     -29.027  -4.988 -10.105  1.00  0.00    -0.025 A 
HETATM   17  C14 UNL     1     -29.007  -5.604  -8.859  1.00  0.00     0.010 A 
HETATM   18  C15 UNL     1     -28.279  -6.732  -8.625  1.00  0.00     0.004 A 
HETATM   19  C16 UNL     1     -27.531  -7.308  -9.616  1.00  0.00     0.042 A 
HETATM   20  C17 UNL     1     -27.538  -6.704 -10.873  1.00  0.00     0.117 A 
HETATM   21  F1  UNL     1     -26.787  -7.298 -11.835  1.00  0.00    -0.206 F 
HETATM   22  C18 UNL     1     -28.281  -5.560 -11.099  1.00  0.00     0.052 A 
ENDBRANCH  13  16
ENDBRANCH  11  13
ENDBRANCH   9  11
ENDBRANCH   6   9
BRANCH   1  23
HETATM   23  N1  UNL     1     -29.330  -2.958 -15.244  1.00  0.00    -0.265 N 
ATOM     24  H1  UNL     1     -28.878  -2.126 -15.622  1.00  0.00     0.180 HD
BRANCH  23  25
HETATM   25  S1  UNL     1     -28.689  -4.483 -15.634  1.00  0.00     0.264 S 
HETATM   26  O1  UNL     1     -28.419  -4.518 -17.123  1.00  0.00    -0.200 OA
HETATM   27  O2  UNL     1     -29.640  -5.618 -15.320  1.00  0.00    -0.200 OA
BRANCH  25  28
HETATM   28  C5  UNL     1     -27.149  -4.765 -14.825  1.00  0.00     0.079 A 
HETATM   29  C4  UNL     1     -26.629  -3.924 -13.891  1.00  0.00     0.026 A 
HETATM   30  C3  UNL     1     -25.410  -4.219 -13.300  1.00  0.00     0.008 A 
HETATM   31  C2  UNL     1     -24.680  -5.351 -13.620  1.00  0.00    -0.062 A 
HETATM   32  C1  UNL     1     -23.362  -5.642 -12.962  1.00  0.00     0.048 C 
HETATM   33  C20 UNL     1     -25.213  -6.198 -14.566  1.00  0.00     0.008 A 
HETATM   34  C19 UNL     1     -26.425  -5.903 -15.153  1.00  0.00     0.026 A 
ENDBRANCH  25  28
ENDBRANCH  23  25
ENDBRANCH   1  23
TORSDOF 8
ENDMDL
MODEL 5
REMARK VINA RESULT: -6.921353253      3.186      5.416
REMARK  8 active torsions:
REMARK  status: ('A' for Active; 'I' for Inactive)
REMARK    1  A    between atoms: C5_5  and  S1_6 
REMARK    2  A    between atoms: S1_6  and  N1_9 
REMARK    3  A    between atoms: N1_9  and  C6_11 
REMARK    4  A    between atoms: C9_16  and  N3_17 
REMARK    5  A    between atoms: N3_17  and  C10_19 
REMARK    6  A    between atoms: C10_19  and  C12_21 
REMARK    7  A    between atoms: C12_21  and  O3_22 
REMARK    8  A    between atoms: C12_21  and  C13_24 
ROOT
HETATM    1  C6  UNL     1     -25.476  -8.798 -11.322  1.00  0.00     0.131 A 
HETATM    2  C7  UNL     1     -25.729  -9.667 -12.346  1.00  0.00     0.067 A 
HETATM    3  C8  UNL     1     -25.308  -9.266 -13.620  1.00  0.00     0.110 A 
HETATM    4  N2  UNL     1     -24.695  -8.093 -13.790  1.00  0.00    -0.202 N 
ATOM      5  H2  UNL     1     -24.400  -7.831 -14.732  1.00  0.00     0.183 HD
HETATM    6  C9  UNL     1     -24.442  -7.222 -12.763  1.00  0.00     0.679 A 
HETATM    7  N4  UNL     1     -24.848  -7.613 -11.547  1.00  0.00    -0.176 N 
ATOM      8  H4  UNL     1     -24.678  -6.994 -10.755  1.00  0.00     0.186 HD
ENDROOT
BRANCH   6   9
HETATM    9  N3  UNL     1     -23.845  -6.118 -13.039  1.00  0.00    -0.219 N 
ATOM     10  H3  UNL     1     -22.905  -5.944 -12.682  1.00  0.00     0.178 HD
BRANCH   9  11
HETATM   11  C10 UNL     1     -24.501  -5.129 -13.852  1.00  0.00     0.128 C 
HETATM   12  C11 UNL     1     -23.542  -4.093 -14.410  1.00  0.00     0.036 C 
BRANCH  11  13
HETATM   13  C12 UNL     1     -25.639  -4.462 -13.098  1.00  0.00     0.174 C 
BRANCH  13  14
HETATM   14  O3  UNL     1     -25.282  -3.108 -12.975  1.00  0.00    -0.389 OA
ATOM     15  H3  UNL     1     -25.941  -2.713 -12.417  1.00  0.00     0.210 HD
ENDBRANCH  13  14
BRANCH  13  16
HETATM   16  C13 UNL     1     -26.931  -4.601 -13.793  1.00  0.00    -0.025 A 
HETATM   17  C14 UNL     1     -27.437  -5.866 -14.067  1.00  0.00     0.010 A 
HETATM   18  C15 UNL     1     -28.627  -6.041 -14.708  1.00  0.00     0.004 A 
HETATM   19  C16 UNL     1     -29.377  -4.969 -15.110  1.00  0.00     0.042 A 
HETATM   20  C17 UNL     1     -28.885  -3.692 -14.843  1.00  0.00     0.117 A 
HETATM   21  F1  UNL     1     -29.651  -2.650 -15.254  1.00  0.00    -0.206 F 
HETATM   22  C18 UNL     1     -27.677  -3.526 -14.193  1.00  0.00     0.052 A 
ENDBRANCH  13  16
ENDBRANCH  11  13
ENDBRANCH   9  11
ENDBRANCH   6   9
BRANCH   1  23
HETATM   23  N1  UNL     1     -25.822  -9.078 -10.129  1.00  0.00    -0.265 N 
ATOM     24  H1  UNL     1     -25.097  -9.299  -9.447  1.00  0.00     0.180 HD
BRANCH  23  25
HETATM   25  S1  UNL     1     -27.446  -9.097  -9.627  1.00  0.00     0.264 S 
HETATM   26  O1  UNL     1     -27.477  -9.052  -8.115  1.00  0.00    -0.200 OA
HETATM   27  O2  UNL     1     -28.179 -10.351 -10.057  1.00  0.00    -0.200 OA
BRANCH  25  28
HETATM   28  C5  UNL     1     -28.320  -7.680 -10.203  1.00  0.00     0.079 A 
HETATM   29  C4  UNL     1     -27.910  -6.403  -9.975  1.00  0.00     0.026 A 
HETATM   30  C3  UNL     1     -28.655  -5.341 -10.464  1.00  0.00     0.008 A 
HETATM   31  C2  UNL     1     -29.820  -5.519 -11.189  1.00  0.00    -0.062 A 
HETATM   32  C1  UNL     1     -30.606  -4.348 -11.705  1.00  0.00     0.048 C 
HETATM   33  C20 UNL     1     -30.230  -6.815 -11.417  1.00  0.00     0.008 A 
HETATM   34  C19 UNL     1     -29.488  -7.869 -10.930  1.00  0.00     0.026 A 
ENDBRANCH  25  28
ENDBRANCH  23  25
ENDBRANCH   1  23
TORSDOF 8
ENDMDL
