MODEL 1
REMARK VINA RESULT: -6.854606226      0.000      0.000
REMARK  8 active torsions:
REMARK  status: ('A' for Active; 'I' for Inactive)
REMARK    1  A    between atoms: C2_2  and  C3_3 
REMARK    2  A    between atoms: N2_6  and  C4_7 
REMARK    3  A    between atoms: C7_10  and  C8_11 
REMARK    4  A    between atoms: C10_17  and  C11_18 
REMARK    5  A    between atoms: C11_18  and  C12_19 
REMARK    6  A    between atoms: C12_19  and  O1_20 
REMARK    7  A    between atoms: C16_26  and  C17_27 
REMARK    8  A    between atoms: C17_27  and  C18_28 
ROOT
HETATM    1  C3  UNL     1     -27.072  -4.028 -13.501  1.00  0.00     0.060 A 
HETATM    2  N1  UNL     1     -27.852  -3.315 -14.302  1.00  0.00    -0.290 N 
ATOM      3  H1  UNL     1     -27.577  -2.430 -14.728  1.00  0.00     0.187 HD
HETATM    4  N2  UNL     1     -29.050  -3.900 -14.483  1.00  0.00    -0.220 N 
HETATM    5  C15 UNL     1     -29.027  -5.027 -13.767  1.00  0.00     0.279 A 
HETATM    6  O2  UNL     1     -29.921  -5.894 -13.631  1.00  0.00    -0.265 OA
HETATM    7  C16 UNL     1     -27.796  -5.143 -13.133  1.00  0.00     0.062 A 
ENDROOT
BRANCH   4   8
HETATM    8  C4  UNL     1     -30.083  -3.359 -15.296  1.00  0.00     0.060 A 
HETATM    9  C5  UNL     1     -30.230  -3.669 -16.623  1.00  0.00     0.032 A 
HETATM   10  C6  UNL     1     -31.248  -3.110 -17.360  1.00  0.00     0.016 A 
HETATM   11  C7  UNL     1     -32.180  -2.206 -16.813  1.00  0.00    -0.007 A 
HETATM   12  C13 UNL     1     -32.026  -1.907 -15.495  1.00  0.00     0.016 A 
HETATM   13  C14 UNL     1     -30.992  -2.478 -14.755  1.00  0.00     0.032 A 
BRANCH  11  14
HETATM   14  C8  UNL     1     -33.244  -1.680 -17.633  1.00  0.00     0.066 A 
HETATM   15  N3  UNL     1     -34.230  -2.506 -18.105  1.00  0.00    -0.350 N 
HETATM   16  C9  UNL     1     -35.048  -1.815 -18.891  1.00  0.00     0.181 A 
ATOM     17  H3  UNL     1     -34.321  -3.497 -17.886  1.00  0.00     0.166 HD
HETATM   18  N4  UNL     1     -34.624  -0.569 -18.943  1.00  0.00    -0.354 N 
HETATM   19  C10 UNL     1     -33.500  -0.454 -18.168  1.00  0.00     0.040 A 
ATOM     20  H4  UNL     1     -35.061   0.185 -19.473  1.00  0.00     0.166 HD
BRANCH  19  21
HETATM   21  C11 UNL     1     -32.788   0.812 -17.996  1.00  0.00     0.085 C 
BRANCH  21  22
HETATM   22  C12 UNL     1     -33.410   2.009 -18.621  1.00  0.00     0.170 C 
BRANCH  22  23
HETATM   23  O1  UNL     1     -34.610   2.366 -17.947  1.00  0.00    -0.400 OA
ATOM     24  H1  UNL     1     -34.771   3.299 -18.014  1.00  0.00     0.209 HD
ENDBRANCH  22  23
ENDBRANCH  21  22
ENDBRANCH  19  21
ENDBRANCH  11  14
ENDBRANCH   4   8
BRANCH   1  25
HETATM   25  C2  UNL     1     -25.841  -3.709 -13.134  1.00  0.00     0.001 C 
HETATM   26  C1  UNL     1     -24.677  -4.219 -13.891  1.00  0.00     0.038 C 
ENDBRANCH   1  25
BRANCH   7  27
HETATM   27  C17 UNL     1     -27.381  -6.118 -12.337  1.00  0.00     0.034 C 
BRANCH  27  28
HETATM   28  C18 UNL     1     -27.806  -6.199 -10.943  1.00  0.00     0.004 A 
HETATM   29  C19 UNL     1     -28.631  -5.174 -10.481  1.00  0.00     0.014 A 
HETATM   30  C20 UNL     1     -29.083  -5.173  -9.175  1.00  0.00     0.001 A 
HETATM   31  C21 UNL     1     -28.709  -6.196  -8.332  1.00  0.00     0.003 A 
HETATM   32  C22 UNL     1     -27.893  -7.197  -8.813  1.00  0.00     0.043 A 
HETATM   33  C23 UNL     1     -27.428  -7.218 -10.118  1.00  0.00     0.126 A 
HETATM   34  F1  UNL     1     -26.622  -8.211 -10.588  1.00  0.00    -0.205 F 
ENDBRANCH  27  28
ENDBRANCH   7  27
TORSDOF 8
ENDMDL
MODEL 2
REMARK VINA RESULT: -6.690285962      3.847      8.620
REMARK  8 active torsions:
REMARK  status: ('A' for Active; 'I' for Inactive)
REMARK    1  A    between atoms: C2_2  and  C3_3 
REMARK    2  A    between atoms: N2_6  and  C4_7 
REMARK    3  A    between atoms: C7_10  and  C8_11 
REMARK    4  A    between atoms: C10_17  and  C11_18 
REMARK    5  A    between atoms: C11_18  and  C12_19 
REMARK    6  A    between atoms: C12_19  and  O1_20 
REMARK    7  A    between atoms: C16_26  and  C17_27 
REMARK    8  A    between atoms: C17_27  and  C18_28 
ROOT
HETATM    1  C3  UNL     1     -30.403  -2.894 -14.549  1.00  0.00     0.060 A 
HETATM    2  N1  UNL     1     -29.140  -2.936 -14.950  1.00  0.00    -0.290 N 
ATOM      3  H1  UNL     1     -28.760  -2.362 -15.702  1.00  0.00     0.187 HD
HETATM    4  N2  UNL     1     -28.422  -3.830 -14.246  1.00  0.00    -0.220 N 
HETATM    5  C15 UNL     1     -29.264  -4.374 -13.364  1.00  0.00     0.279 A 
HETATM    6  O2  UNL     1     -29.043  -5.255 -12.501  1.00  0.00    -0.265 OA
HETATM    7  C16 UNL     1     -30.524  -3.809 -13.525  1.00  0.00     0.062 A 
ENDROOT
BRANCH   4   8
HETATM    8  C4  UNL     1     -27.039  -4.083 -14.459  1.00  0.00     0.060 A 
HETATM    9  C5  UNL     1     -26.546  -4.614 -15.622  1.00  0.00     0.032 A 
HETATM   10  C6  UNL     1     -25.198  -4.840 -15.768  1.00  0.00     0.016 A 
HETATM   11  C7  UNL     1     -24.260  -4.549 -14.756  1.00  0.00    -0.007 A 
HETATM   12  C13 UNL     1     -24.760  -4.021 -13.607  1.00  0.00     0.016 A 
HETATM   13  C14 UNL     1     -26.129  -3.794 -13.468  1.00  0.00     0.032 A 
BRANCH  11  14
HETATM   14  C8  UNL     1     -22.855  -4.781 -14.984  1.00  0.00     0.066 A 
HETATM   15  N3  UNL     1     -22.203  -4.141 -16.005  1.00  0.00    -0.350 N 
HETATM   16  C9  UNL     1     -20.947  -4.567 -16.064  1.00  0.00     0.181 A 
ATOM     17  H3  UNL     1     -22.618  -3.446 -16.624  1.00  0.00     0.166 HD
HETATM   18  N4  UNL     1     -20.764  -5.462 -15.115  1.00  0.00    -0.354 N 
HETATM   19  C10 UNL     1     -21.937  -5.616 -14.424  1.00  0.00     0.040 A 
ATOM     20  H4  UNL     1     -19.893  -5.958 -14.925  1.00  0.00     0.166 HD
BRANCH  19  21
HETATM   21  C11 UNL     1     -22.068  -6.528 -13.288  1.00  0.00     0.085 C 
BRANCH  21  22
HETATM   22  C12 UNL     1     -21.446  -6.087 -12.012  1.00  0.00     0.170 C 
BRANCH  22  23
HETATM   23  O1  UNL     1     -21.097  -4.710 -12.069  1.00  0.00    -0.400 OA
ATOM     24  H1  UNL     1     -21.731  -4.180 -11.602  1.00  0.00     0.209 HD
ENDBRANCH  22  23
ENDBRANCH  21  22
ENDBRANCH  19  21
ENDBRANCH  11  14
ENDBRANCH   4   8
BRANCH   1  25
HETATM   25  C2  UNL     1     -31.350  -2.117 -15.052  1.00  0.00     0.001 C 
HETATM   26  C1  UNL     1     -32.197  -2.593 -16.166  1.00  0.00     0.038 C 
ENDBRANCH   1  25
BRANCH   7  27
HETATM   27  C17 UNL     1     -31.628  -4.079 -12.841  1.00  0.00     0.034 C 
BRANCH  27  28
HETATM   28  C18 UNL     1     -32.074  -3.227 -11.744  1.00  0.00     0.004 A 
HETATM   29  C19 UNL     1     -33.013  -2.245 -12.058  1.00  0.00     0.014 A 
HETATM   30  C20 UNL     1     -33.493  -1.396 -11.079  1.00  0.00     0.001 A 
HETATM   31  C21 UNL     1     -33.034  -1.529  -9.787  1.00  0.00     0.003 A 
HETATM   32  C22 UNL     1     -32.107  -2.508  -9.503  1.00  0.00     0.043 A 
HETATM   33  C23 UNL     1     -31.611  -3.370 -10.468  1.00  0.00     0.126 A 
HETATM   34  F1  UNL     1     -30.695  -4.336 -10.180  1.00  0.00    -0.205 F 
ENDBRANCH  27  28
ENDBRANCH   7  27
TORSDOF 8
ENDMDL
MODEL 3
REMARK VINA RESULT: -6.647504239      3.866      8.472
REMARK  8 active torsions:
REMARK  status: ('A' for Active; 'I' for Inactive)
REMARK    1  A    between atoms: C2_2  and  C3_3 
REMARK    2  A    between atoms: N2_6  and  C4_7 
REMARK    3  A    between atoms: C7_10  and  C8_11 
REMARK    4  A    between atoms: C10_17  and  C11_18 
REMARK    5  A    between atoms: C11_18  and  C12_19 
REMARK    6  A    between atoms: C12_19  and  O1_20 
REMARK    7  A    between atoms: C16_26  and  C17_27 
REMARK    8  A    between atoms: C17_27  and  C18_28 
ROOT
HETATM    1  C3  UNL     1     -30.160  -2.974 -14.664  1.00  0.00     0.060 A 
HETATM    2  N1  UNL     1     -28.864  -2.981 -14.947  1.00  0.00    -0.290 N 
ATOM      3  H1  UNL     1     -28.436  -2.416 -15.680  1.00  0.00     0.187 HD
HETATM    4  N2  UNL     1     -28.184  -3.824 -14.149  1.00  0.00    -0.220 N 
HETATM    5  C15 UNL     1     -29.084  -4.372 -13.330  1.00  0.00     0.279 A 
HETATM    6  O2  UNL     1     -28.913  -5.216 -12.420  1.00  0.00    -0.265 OA
HETATM    7  C16 UNL     1     -30.343  -3.861 -13.625  1.00  0.00     0.062 A 
ENDROOT
BRANCH   4   8
HETATM    8  C4  UNL     1     -26.779  -4.030 -14.225  1.00  0.00     0.060 A 
HETATM    9  C5  UNL     1     -25.908  -3.613 -13.253  1.00  0.00     0.032 A 
HETATM   10  C6  UNL     1     -24.558  -3.837 -13.385  1.00  0.00     0.016 A 
HETATM   11  C7  UNL     1     -23.997  -4.492 -14.500  1.00  0.00    -0.007 A 
HETATM   12  C13 UNL     1     -24.870  -4.902 -15.458  1.00  0.00     0.016 A 
HETATM   13  C14 UNL     1     -26.238  -4.671 -15.316  1.00  0.00     0.032 A 
BRANCH  11  14
HETATM   14  C8  UNL     1     -22.575  -4.724 -14.563  1.00  0.00     0.066 A 
HETATM   15  N3  UNL     1     -21.906  -5.228 -13.479  1.00  0.00    -0.350 N 
HETATM   16  C9  UNL     1     -20.606  -5.284 -13.747  1.00  0.00     0.181 A 
ATOM     17  H3  UNL     1     -22.338  -5.516 -12.602  1.00  0.00     0.166 HD
HETATM   18  N4  UNL     1     -20.412  -4.832 -14.969  1.00  0.00    -0.354 N 
HETATM   19  C10 UNL     1     -21.622  -4.475 -15.503  1.00  0.00     0.040 A 
ATOM     20  H4  UNL     1     -19.510  -4.760 -15.440  1.00  0.00     0.166 HD
BRANCH  19  21
HETATM   21  C11 UNL     1     -21.759  -3.949 -16.862  1.00  0.00     0.085 C 
BRANCH  21  22
HETATM   22  C12 UNL     1     -20.740  -2.956 -17.290  1.00  0.00     0.170 C 
BRANCH  22  23
HETATM   23  O1  UNL     1     -20.567  -1.949 -16.302  1.00  0.00    -0.400 OA
ATOM     24  H1  UNL     1     -21.291  -1.334 -16.314  1.00  0.00     0.209 HD
ENDBRANCH  22  23
ENDBRANCH  21  22
ENDBRANCH  19  21
ENDBRANCH  11  14
ENDBRANCH   4   8
BRANCH   1  25
HETATM   25  C2  UNL     1     -31.082  -2.251 -15.279  1.00  0.00     0.001 C 
HETATM   26  C1  UNL     1     -31.740  -2.757 -16.503  1.00  0.00     0.038 C 
ENDBRANCH   1  25
BRANCH   7  27
HETATM   27  C17 UNL     1     -31.495  -4.152 -13.037  1.00  0.00     0.034 C 
BRANCH  27  28
HETATM   28  C18 UNL     1     -31.998  -3.369 -11.912  1.00  0.00     0.004 A 
HETATM   29  C19 UNL     1     -32.815  -2.283 -12.223  1.00  0.00     0.014 A 
HETATM   30  C20 UNL     1     -33.338  -1.490 -11.220  1.00  0.00     0.001 A 
HETATM   31  C21 UNL     1     -33.043  -1.781  -9.907  1.00  0.00     0.003 A 
HETATM   32  C22 UNL     1     -32.232  -2.861  -9.626  1.00  0.00     0.043 A 
HETATM   33  C23 UNL     1     -31.697  -3.669 -10.616  1.00  0.00     0.126 A 
HETATM   34  F1  UNL     1     -30.897  -4.735 -10.332  1.00  0.00    -0.205 F 
ENDBRANCH  27  28
ENDBRANCH   7  27
TORSDOF 8
ENDMDL
MODEL 4
REMARK VINA RESULT: -6.516814053      4.037      9.231
REMARK  8 active torsions:
REMARK  status: ('A' for Active; 'I' for Inactive)
REMARK    1  A    between atoms: C2_2  and  C3_3 
REMARK    2  A    between atoms: N2_6  and  C4_7 
REMARK    3  A    between atoms: C7_10  and  C8_11 
REMARK    4  A    between atoms: C10_17  and  C11_18 
REMARK    5  A    between atoms: C11_18  and  C12_19 
REMARK    6  A    between atoms: C12_19  and  O1_20 
REMARK    7  A    between atoms: C16_26  and  C17_27 
REMARK    8  A    between atoms: C17_27  and  C18_28 
ROOT
HETATM    1  C3  UNL     1     -29.921  -3.426 -14.122  1.00  0.00     0.060 A 
HETATM    2  N1  UNL     1     -28.619  -3.538 -14.343  1.00  0.00    -0.290 N 
ATOM      3  H1  UNL     1     -28.122  -3.051 -15.089  1.00  0.00     0.187 HD
HETATM    4  N2  UNL     1     -28.033  -4.373 -13.466  1.00  0.00    -0.220 N 
HETATM    5  C15 UNL     1     -29.003  -4.807 -12.658  1.00  0.00     0.279 A 
HETATM    6  O2  UNL     1     -28.930  -5.601 -11.692  1.00  0.00    -0.265 OA
HETATM    7  C16 UNL     1     -30.209  -4.231 -13.040  1.00  0.00     0.062 A 
ENDROOT
BRANCH   4   8
HETATM    8  C4  UNL     1     -26.644  -4.679 -13.466  1.00  0.00     0.060 A 
HETATM    9  C5  UNL     1     -26.160  -5.960 -13.489  1.00  0.00     0.032 A 
HETATM   10  C6  UNL     1     -24.804  -6.193 -13.482  1.00  0.00     0.016 A 
HETATM   11  C7  UNL     1     -23.851  -5.155 -13.451  1.00  0.00    -0.007 A 
HETATM   12  C13 UNL     1     -24.343  -3.887 -13.429  1.00  0.00     0.016 A 
HETATM   13  C14 UNL     1     -25.719  -3.660 -13.437  1.00  0.00     0.032 A 
BRANCH  11  14
HETATM   14  C8  UNL     1     -22.443  -5.466 -13.478  1.00  0.00     0.066 A 
HETATM   15  N3  UNL     1     -21.653  -5.021 -14.505  1.00  0.00    -0.350 N 
HETATM   16  C9  UNL     1     -20.421  -5.492 -14.352  1.00  0.00     0.181 A 
ATOM     17  H3  UNL     1     -21.963  -4.421 -15.268  1.00  0.00     0.166 HD
HETATM   18  N4  UNL     1     -20.387  -6.227 -13.260  1.00  0.00    -0.354 N 
HETATM   19  C10 UNL     1     -21.634  -6.230 -12.692  1.00  0.00     0.040 A 
ATOM     20  H4  UNL     1     -19.567  -6.714 -12.896  1.00  0.00     0.166 HD
BRANCH  19  21
HETATM   21  C11 UNL     1     -21.933  -6.942 -11.450  1.00  0.00     0.085 C 
BRANCH  21  22
HETATM   22  C12 UNL     1     -21.931  -8.427 -11.525  1.00  0.00     0.170 C 
BRANCH  22  23
HETATM   23  O1  UNL     1     -21.147  -8.878 -12.622  1.00  0.00    -0.400 OA
ATOM     24  H1  UNL     1     -21.131  -9.827 -12.659  1.00  0.00     0.209 HD
ENDBRANCH  22  23
ENDBRANCH  21  22
ENDBRANCH  19  21
ENDBRANCH  11  14
ENDBRANCH   4   8
BRANCH   1  25
HETATM   25  C2  UNL     1     -30.764  -2.682 -14.820  1.00  0.00     0.001 C 
HETATM   26  C1  UNL     1     -31.391  -3.212 -16.049  1.00  0.00     0.038 C 
ENDBRANCH   1  25
BRANCH   7  27
HETATM   27  C17 UNL     1     -31.403  -4.406 -12.489  1.00  0.00     0.034 C 
BRANCH  27  28
HETATM   28  C18 UNL     1     -31.958  -3.437 -11.549  1.00  0.00     0.004 A 
HETATM   29  C19 UNL     1     -32.833  -2.487 -12.074  1.00  0.00     0.014 A 
HETATM   30  C20 UNL     1     -33.408  -1.535 -11.254  1.00  0.00     0.001 A 
HETATM   31  C21 UNL     1     -33.108  -1.533  -9.910  1.00  0.00     0.003 A 
HETATM   32  C22 UNL     1     -32.241  -2.484  -9.416  1.00  0.00     0.043 A 
HETATM   33  C23 UNL     1     -31.653  -3.447 -10.219  1.00  0.00     0.126 A 
HETATM   34  F1  UNL     1     -30.797  -4.384  -9.724  1.00  0.00    -0.205 F 
ENDBRANCH  27  28
ENDBRANCH   7  27
TORSDOF 8
ENDMDL
MODEL 5
REMARK VINA RESULT: -6.511719983      4.844     10.345
REMARK  8 active torsions:
REMARK  status: ('A' for Active; 'I' for Inactive)
REMARK    1  A    between atoms: C2_2  and  C3_3 
REMARK    2  A    between atoms: N2_6  and  C4_7 
REMARK    3  A    between atoms: C7_10  and  C8_11 
REMARK    4  A    between atoms: C10_17  and  C11_18 
REMARK    5  A    between atoms: C11_18  and  C12_19 
REMARK    6  A    between atoms: C12_19  and  O1_20 
REMARK    7  A    between atoms: C16_26  and  C17_27 
REMARK    8  A    between atoms: C17_27  and  C18_28 
ROOT
HETATM    1  C3  UNL     1     -31.035  -6.261 -11.571  1.00  0.00     0.060 A 
HETATM    2  N1  UNL     1     -29.954  -7.028 -11.599  1.00  0.00    -0.290 N 
ATOM      3  H1  UNL     1     -29.935  -7.976 -11.975  1.00  0.00     0.187 HD
HETATM    4  N2  UNL     1     -28.885  -6.405 -11.070  1.00  0.00    -0.220 N 
HETATM    5  C15 UNL     1     -29.307  -5.195 -10.693  1.00  0.00     0.279 A 
HETATM    6  O2  UNL     1     -28.662  -4.268 -10.150  1.00  0.00    -0.265 OA
HETATM    7  C16 UNL     1     -30.658  -5.068 -10.992  1.00  0.00     0.062 A 
ENDROOT
BRANCH   4   8
HETATM    8  C4  UNL     1     -27.592  -6.989 -10.973  1.00  0.00     0.060 A 
HETATM    9  C5  UNL     1     -27.068  -7.453  -9.796  1.00  0.00     0.032 A 
HETATM   10  C6  UNL     1     -25.808  -8.004  -9.764  1.00  0.00     0.016 A 
HETATM   11  C7  UNL     1     -24.997  -8.122 -10.911  1.00  0.00    -0.007 A 
HETATM   12  C13 UNL     1     -25.528  -7.660 -12.074  1.00  0.00     0.016 A 
HETATM   13  C14 UNL     1     -26.806  -7.103 -12.097  1.00  0.00     0.032 A 
BRANCH  11  14
HETATM   14  C8  UNL     1     -23.697  -8.740 -10.815  1.00  0.00     0.066 A 
HETATM   15  N3  UNL     1     -23.572 -10.031 -10.375  1.00  0.00    -0.350 N 
HETATM   16  C9  UNL     1     -22.285 -10.352 -10.302  1.00  0.00     0.181 A 
ATOM     17  H3  UNL     1     -24.347 -10.651 -10.141  1.00  0.00     0.166 HD
HETATM   18  N4  UNL     1     -21.573  -9.310 -10.679  1.00  0.00    -0.354 N 
HETATM   19  C10 UNL     1     -22.426  -8.289 -11.006  1.00  0.00     0.040 A 
ATOM     20  H4  UNL     1     -20.554  -9.271 -10.722  1.00  0.00     0.166 HD
BRANCH  19  21
HETATM   21  C11 UNL     1     -21.953  -6.990 -11.484  1.00  0.00     0.085 C 
BRANCH  21  22
HETATM   22  C12 UNL     1     -20.602  -6.967 -12.103  1.00  0.00     0.170 C 
BRANCH  22  23
HETATM   23  O1  UNL     1     -20.404  -8.106 -12.931  1.00  0.00    -0.400 OA
ATOM     24  H1  UNL     1     -19.615  -8.014 -13.451  1.00  0.00     0.209 HD
ENDBRANCH  22  23
ENDBRANCH  21  22
ENDBRANCH  19  21
ENDBRANCH  11  14
ENDBRANCH   4   8
BRANCH   1  25
HETATM   25  C2  UNL     1     -32.235  -6.598 -12.016  1.00  0.00     0.001 C 
HETATM   26  C1  UNL     1     -32.543  -6.542 -13.461  1.00  0.00     0.038 C 
ENDBRANCH   1  25
BRANCH   7  27
HETATM   27  C17 UNL     1     -31.442  -4.020 -10.776  1.00  0.00     0.034 C 
BRANCH  27  28
HETATM   28  C18 UNL     1     -31.801  -3.100 -11.851  1.00  0.00     0.004 A 
HETATM   29  C19 UNL     1     -31.061  -3.197 -13.029  1.00  0.00     0.014 A 
HETATM   30  C20 UNL     1     -31.336  -2.366 -14.099  1.00  0.00     0.001 A 
HETATM   31  C21 UNL     1     -32.349  -1.440 -13.990  1.00  0.00     0.003 A 
HETATM   32  C22 UNL     1     -33.065  -1.365 -12.815  1.00  0.00     0.043 A 
HETATM   33  C23 UNL     1     -32.807  -2.186 -11.730  1.00  0.00     0.126 A 
HETATM   34  F1  UNL     1     -33.519  -2.107 -10.571  1.00  0.00    -0.205 F 
ENDBRANCH  27  28
ENDBRANCH   7  27
TORSDOF 8
ENDMDL
