MODEL 1
REMARK VINA RESULT: -6.799106669      0.000      0.000
REMARK  6 active torsions:
REMARK  status: ('A' for Active; 'I' for Inactive)
REMARK    1  A    between atoms: S1_2  and  N1_4 
REMARK    2  A    between atoms: S1_2  and  C6_13 
REMARK    3  A    between atoms: N1_4  and  C1_6 
REMARK    4  A    between atoms: C9_16  and  N3_17 
REMARK    5  A    between atoms: N3_17  and  S2_19 
REMARK    6  A    between atoms: S2_19  and  C10_22 
ROOT
HETATM    1  C6  UNL     1     -27.790  -7.060 -10.059  1.00  0.00     0.080 A 
HETATM    2  C7  UNL     1     -27.863  -6.424 -11.278  1.00  0.00     0.027 A 
HETATM    3  C8  UNL     1     -28.631  -5.295 -11.468  1.00  0.00     0.031 A 
HETATM    4  C9  UNL     1     -29.379  -4.730 -10.430  1.00  0.00     0.042 A 
HETATM    5  C16 UNL     1     -29.295  -5.378  -9.217  1.00  0.00     0.031 A 
HETATM    6  C17 UNL     1     -28.522  -6.515  -9.027  1.00  0.00     0.027 A 
ENDROOT
BRANCH   1   7
HETATM    7  S1  UNL     1     -26.823  -8.493  -9.796  1.00  0.00     0.263 S 
HETATM    8  O1  UNL     1     -26.948  -9.454 -10.953  1.00  0.00    -0.200 OA
HETATM    9  O2  UNL     1     -27.298  -9.241  -8.565  1.00  0.00    -0.200 OA
BRANCH   7  10
HETATM   10  N1  UNL     1     -25.153  -8.101  -9.632  1.00  0.00    -0.281 N 
ATOM     11  H1  UNL     1     -24.818  -7.805  -8.715  1.00  0.00     0.179 HD
BRANCH  10  12
HETATM   12  C1  UNL     1     -24.313  -8.159 -10.584  1.00  0.00     0.045 A 
HETATM   13  C2  UNL     1     -24.288  -7.286 -11.650  1.00  0.00     0.047 A 
HETATM   14  C3  UNL     1     -23.332  -7.416 -12.658  1.00  0.00     0.090 A 
HETATM   15  N2  UNL     1     -22.404  -8.387 -12.634  1.00  0.00    -0.375 N 
HETATM   16  C4  UNL     1     -22.418  -9.244 -11.601  1.00  0.00     0.090 A 
ATOM     17  H2  UNL     1     -21.709  -8.469 -13.376  1.00  0.00     0.164 HD
HETATM   18  C5  UNL     1     -23.339  -9.161 -10.578  1.00  0.00     0.047 A 
ENDBRANCH  10  12
ENDBRANCH   7  10
ENDBRANCH   1   7
BRANCH   4  19
HETATM   19  N3  UNL     1     -30.161  -3.562 -10.655  1.00  0.00    -0.281 N 
ATOM     20  H3  UNL     1     -29.807  -2.654 -10.355  1.00  0.00     0.179 HD
BRANCH  19  21
HETATM   21  S2  UNL     1     -31.692  -3.662 -11.426  1.00  0.00     0.263 S 
HETATM   22  O3  UNL     1     -32.049  -5.116 -11.630  1.00  0.00    -0.200 OA
HETATM   23  O4  UNL     1     -32.779  -2.938 -10.692  1.00  0.00    -0.200 OA
BRANCH  21  24
HETATM   24  C10 UNL     1     -31.514  -2.952 -13.022  1.00  0.00     0.080 A 
HETATM   25  C11 UNL     1     -30.524  -3.396 -13.873  1.00  0.00     0.028 A 
HETATM   26  C12 UNL     1     -30.422  -2.811 -15.115  1.00  0.00     0.044 A 
HETATM   27  C13 UNL     1     -31.280  -1.811 -15.505  1.00  0.00     0.116 A 
HETATM   28  F1  UNL     1     -31.194  -1.220 -16.731  1.00  0.00    -0.206 F 
HETATM   29  C14 UNL     1     -32.272  -1.363 -14.660  1.00  0.00     0.044 A 
HETATM   30  C15 UNL     1     -32.378  -1.951 -13.406  1.00  0.00     0.028 A 
ENDBRANCH  21  24
ENDBRANCH  19  21
ENDBRANCH   4  19
TORSDOF 6
ENDMDL
MODEL 2
REMARK VINA RESULT: -6.630184205      2.899      8.051
REMARK  6 active torsions:
REMARK  status: ('A' for Active; 'I' for Inactive)
REMARK    1  A    between atoms: S1_2  and  N1_4 
REMARK    2  A    between atoms: S1_2  and  C6_13 
REMARK    3  A    between atoms: N1_4  and  C1_6 
REMARK    4  A    between atoms: C9_16  and  N3_17 
REMARK    5  A    between atoms: N3_17  and  S2_19 
REMARK    6  A    between atoms: S2_19  and  C10_22 
ROOT
HETATM    1  C6  UNL     1     -31.297  -4.636 -11.034  1.00  0.00     0.080 A 
HETATM    2  C7  UNL     1     -30.452  -4.062 -10.110  1.00  0.00     0.027 A 
HETATM    3  C8  UNL     1     -29.501  -4.797  -9.435  1.00  0.00     0.031 A 
HETATM    4  C9  UNL     1     -29.340  -6.169  -9.652  1.00  0.00     0.042 A 
HETATM    5  C16 UNL     1     -30.193  -6.727 -10.578  1.00  0.00     0.031 A 
HETATM    6  C17 UNL     1     -31.150  -5.987 -11.257  1.00  0.00     0.027 A 
ENDROOT
BRANCH   1   7
HETATM    7  S1  UNL     1     -32.510  -3.724 -11.901  1.00  0.00     0.263 S 
HETATM    8  O1  UNL     1     -33.551  -3.169 -10.959  1.00  0.00    -0.200 OA
HETATM    9  O2  UNL     1     -33.250  -4.612 -12.882  1.00  0.00    -0.200 OA
BRANCH   7  10
HETATM   10  N1  UNL     1     -31.811  -2.388 -12.737  1.00  0.00    -0.281 N 
ATOM     11  H1  UNL     1     -31.801  -1.482 -12.269  1.00  0.00     0.179 HD
BRANCH  10  12
HETATM   12  C1  UNL     1     -31.308  -2.464 -13.902  1.00  0.00     0.045 A 
HETATM   13  C2  UNL     1     -30.210  -3.232 -14.224  1.00  0.00     0.047 A 
HETATM   14  C3  UNL     1     -29.716  -3.263 -15.528  1.00  0.00     0.090 A 
HETATM   15  N2  UNL     1     -30.284  -2.553 -16.517  1.00  0.00    -0.375 N 
HETATM   16  C4  UNL     1     -31.353  -1.800 -16.217  1.00  0.00     0.090 A 
ATOM     17  H2  UNL     1     -29.913  -2.585 -17.467  1.00  0.00     0.164 HD
HETATM   18  C5  UNL     1     -31.883  -1.733 -14.945  1.00  0.00     0.047 A 
ENDBRANCH  10  12
ENDBRANCH   7  10
ENDBRANCH   1   7
BRANCH   4  19
HETATM   19  N3  UNL     1     -28.348  -6.902  -8.941  1.00  0.00    -0.281 N 
ATOM     20  H3  UNL     1     -28.033  -6.570  -8.030  1.00  0.00     0.179 HD
BRANCH  19  21
HETATM   21  S2  UNL     1     -27.673  -8.338  -9.598  1.00  0.00     0.263 S 
HETATM   22  O3  UNL     1     -27.204  -9.226  -8.469  1.00  0.00    -0.200 OA
HETATM   23  O4  UNL     1     -28.604  -9.073 -10.512  1.00  0.00    -0.200 OA
BRANCH  21  24
HETATM   24  C10 UNL     1     -26.243  -7.868 -10.503  1.00  0.00     0.080 A 
HETATM   25  C11 UNL     1     -26.368  -7.287 -11.747  1.00  0.00     0.028 A 
HETATM   26  C12 UNL     1     -25.219  -6.934 -12.420  1.00  0.00     0.044 A 
HETATM   27  C13 UNL     1     -23.978  -7.151 -11.874  1.00  0.00     0.116 A 
HETATM   28  F1  UNL     1     -22.830  -6.809 -12.525  1.00  0.00    -0.206 F 
HETATM   29  C14 UNL     1     -23.845  -7.731 -10.630  1.00  0.00     0.044 A 
HETATM   30  C15 UNL     1     -25.002  -8.088  -9.949  1.00  0.00     0.028 A 
ENDBRANCH  21  24
ENDBRANCH  19  21
ENDBRANCH   4  19
TORSDOF 6
ENDMDL
MODEL 3
REMARK VINA RESULT: -6.528165869      2.438      3.476
REMARK  6 active torsions:
REMARK  status: ('A' for Active; 'I' for Inactive)
REMARK    1  A    between atoms: S1_2  and  N1_4 
REMARK    2  A    between atoms: S1_2  and  C6_13 
REMARK    3  A    between atoms: N1_4  and  C1_6 
REMARK    4  A    between atoms: C9_16  and  N3_17 
REMARK    5  A    between atoms: N3_17  and  S2_19 
REMARK    6  A    between atoms: S2_19  and  C10_22 
ROOT
HETATM    1  C6  UNL     1     -27.904  -7.002  -9.848  1.00  0.00     0.080 A 
HETATM    2  C7  UNL     1     -28.658  -6.390  -8.871  1.00  0.00     0.027 A 
HETATM    3  C8  UNL     1     -29.406  -5.260  -9.127  1.00  0.00     0.031 A 
HETATM    4  C9  UNL     1     -29.442  -4.672 -10.395  1.00  0.00     0.042 A 
HETATM    5  C16 UNL     1     -28.683  -5.296 -11.360  1.00  0.00     0.031 A 
HETATM    6  C17 UNL     1     -27.930  -6.433 -11.102  1.00  0.00     0.027 A 
ENDROOT
BRANCH   1   7
HETATM    7  S1  UNL     1     -26.949  -8.434  -9.547  1.00  0.00     0.263 S 
HETATM    8  O1  UNL     1     -27.346  -9.090  -8.246  1.00  0.00    -0.200 OA
HETATM    9  O2  UNL     1     -25.480  -8.081  -9.418  1.00  0.00    -0.200 OA
BRANCH   7  10
HETATM   10  N1  UNL     1     -27.160  -9.603 -10.796  1.00  0.00    -0.281 N 
ATOM     11  H1  UNL     1     -26.421  -9.698 -11.492  1.00  0.00     0.179 HD
BRANCH  10  12
HETATM   12  C1  UNL     1     -28.180 -10.354 -10.902  1.00  0.00     0.045 A 
HETATM   13  C2  UNL     1     -29.392  -9.947 -11.414  1.00  0.00     0.047 A 
HETATM   14  C3  UNL     1     -30.467 -10.833 -11.497  1.00  0.00     0.090 A 
HETATM   15  N2  UNL     1     -30.367 -12.108 -11.086  1.00  0.00    -0.375 N 
HETATM   16  C4  UNL     1     -29.192 -12.516 -10.584  1.00  0.00     0.090 A 
ATOM     17  H2  UNL     1     -31.160 -12.746 -11.153  1.00  0.00     0.164 HD
HETATM   18  C5  UNL     1     -28.097 -11.683 -10.480  1.00  0.00     0.047 A 
ENDBRANCH  10  12
ENDBRANCH   7  10
ENDBRANCH   1   7
BRANCH   4  19
HETATM   19  N3  UNL     1     -30.225  -3.506 -10.629  1.00  0.00    -0.281 N 
ATOM     20  H3  UNL     1     -29.881  -2.598 -10.320  1.00  0.00     0.179 HD
BRANCH  19  21
HETATM   21  S2  UNL     1     -31.743  -3.610 -11.426  1.00  0.00     0.263 S 
HETATM   22  O3  UNL     1     -32.096  -5.065 -11.630  1.00  0.00    -0.200 OA
HETATM   23  O4  UNL     1     -32.843  -2.883 -10.714  1.00  0.00    -0.200 OA
BRANCH  21  24
HETATM   24  C10 UNL     1     -31.537  -2.907 -13.021  1.00  0.00     0.080 A 
HETATM   25  C11 UNL     1     -30.504  -3.320 -13.835  1.00  0.00     0.028 A 
HETATM   26  C12 UNL     1     -30.381  -2.741 -15.078  1.00  0.00     0.044 A 
HETATM   27  C13 UNL     1     -31.261  -1.778 -15.506  1.00  0.00     0.116 A 
HETATM   28  F1  UNL     1     -31.156  -1.194 -16.733  1.00  0.00    -0.206 F 
HETATM   29  C14 UNL     1     -32.298  -1.360 -14.699  1.00  0.00     0.044 A 
HETATM   30  C15 UNL     1     -32.424  -1.942 -13.444  1.00  0.00     0.028 A 
ENDBRANCH  21  24
ENDBRANCH  19  21
ENDBRANCH   4  19
TORSDOF 6
ENDMDL
MODEL 4
REMARK VINA RESULT: -6.440202099      3.858      5.532
REMARK  6 active torsions:
REMARK  status: ('A' for Active; 'I' for Inactive)
REMARK    1  A    between atoms: S1_2  and  N1_4 
REMARK    2  A    between atoms: S1_2  and  C6_13 
REMARK    3  A    between atoms: N1_4  and  C1_6 
REMARK    4  A    between atoms: C9_16  and  N3_17 
REMARK    5  A    between atoms: N3_17  and  S2_19 
REMARK    6  A    between atoms: S2_19  and  C10_22 
ROOT
HETATM    1  C6  UNL     1     -23.690  -8.869 -11.146  1.00  0.00     0.080 A 
HETATM    2  C7  UNL     1     -24.398  -8.061 -10.283  1.00  0.00     0.027 A 
HETATM    3  C8  UNL     1     -25.738  -8.262 -10.029  1.00  0.00     0.031 A 
HETATM    4  C9  UNL     1     -26.455  -9.298 -10.635  1.00  0.00     0.042 A 
HETATM    5  C16 UNL     1     -25.734 -10.096 -11.495  1.00  0.00     0.031 A 
HETATM    6  C17 UNL     1     -24.385  -9.894 -11.750  1.00  0.00     0.027 A 
ENDROOT
BRANCH   1   7
HETATM    7  S1  UNL     1     -21.992  -8.634 -11.483  1.00  0.00     0.263 S 
HETATM    8  O1  UNL     1     -21.674  -8.942 -12.926  1.00  0.00    -0.200 OA
HETATM    9  O2  UNL     1     -21.144  -9.574 -10.648  1.00  0.00    -0.200 OA
BRANCH   7  10
HETATM   10  N1  UNL     1     -21.514  -7.004 -11.189  1.00  0.00    -0.281 N 
ATOM     11  H1  UNL     1     -21.307  -6.731 -10.229  1.00  0.00     0.179 HD
BRANCH  10  12
HETATM   12  C1  UNL     1     -21.403  -6.121 -12.098  1.00  0.00     0.045 A 
HETATM   13  C2  UNL     1     -20.207  -5.564 -12.495  1.00  0.00     0.047 A 
HETATM   14  C3  UNL     1     -20.169  -4.598 -13.502  1.00  0.00     0.090 A 
HETATM   15  N2  UNL     1     -21.283  -4.175 -14.121  1.00  0.00    -0.375 N 
HETATM   16  C4  UNL     1     -22.454  -4.710 -13.743  1.00  0.00     0.090 A 
ATOM     17  H2  UNL     1     -21.240  -3.470 -14.857  1.00  0.00     0.164 HD
HETATM   18  C5  UNL     1     -22.550  -5.668 -12.754  1.00  0.00     0.047 A 
ENDBRANCH  10  12
ENDBRANCH   7  10
ENDBRANCH   1   7
BRANCH   4  19
HETATM   19  N3  UNL     1     -27.839  -9.481 -10.352  1.00  0.00    -0.281 N 
ATOM     20  H3  UNL     1     -28.122 -10.156  -9.642  1.00  0.00     0.179 HD
BRANCH  19  21
HETATM   21  S2  UNL     1     -29.037  -8.580 -11.190  1.00  0.00     0.263 S 
HETATM   22  O3  UNL     1     -28.681  -8.530 -12.658  1.00  0.00    -0.200 OA
HETATM   23  O4  UNL     1     -30.426  -9.101 -10.990  1.00  0.00    -0.200 OA
BRANCH  21  24
HETATM   24  C10 UNL     1     -28.956  -6.932 -10.590  1.00  0.00     0.080 A 
HETATM   25  C11 UNL     1     -29.072  -6.678  -9.240  1.00  0.00     0.028 A 
HETATM   26  C12 UNL     1     -29.003  -5.369  -8.815  1.00  0.00     0.044 A 
HETATM   27  C13 UNL     1     -28.822  -4.339  -9.704  1.00  0.00     0.116 A 
HETATM   28  F1  UNL     1     -28.751  -3.038  -9.302  1.00  0.00    -0.206 F 
HETATM   29  C14 UNL     1     -28.705  -4.585 -11.056  1.00  0.00     0.044 A 
HETATM   30  C15 UNL     1     -28.775  -5.904 -11.488  1.00  0.00     0.028 A 
ENDBRANCH  21  24
ENDBRANCH  19  21
ENDBRANCH   4  19
TORSDOF 6
ENDMDL
MODEL 5
REMARK VINA RESULT: -6.436561769      4.099      6.332
REMARK  6 active torsions:
REMARK  status: ('A' for Active; 'I' for Inactive)
REMARK    1  A    between atoms: S1_2  and  N1_4 
REMARK    2  A    between atoms: S1_2  and  C6_13 
REMARK    3  A    between atoms: N1_4  and  C1_6 
REMARK    4  A    between atoms: C9_16  and  N3_17 
REMARK    5  A    between atoms: N3_17  and  S2_19 
REMARK    6  A    between atoms: S2_19  and  C10_22 
ROOT
HETATM    1  C6  UNL     1     -22.582  -8.137 -12.252  1.00  0.00     0.080 A 
HETATM    2  C7  UNL     1     -23.034  -7.416 -11.168  1.00  0.00     0.027 A 
HETATM    3  C8  UNL     1     -24.163  -7.783 -10.467  1.00  0.00     0.031 A 
HETATM    4  C9  UNL     1     -24.913  -8.910 -10.817  1.00  0.00     0.042 A 
HETATM    5  C16 UNL     1     -24.448  -9.619 -11.902  1.00  0.00     0.031 A 
HETATM    6  C17 UNL     1     -23.311  -9.249 -12.608  1.00  0.00     0.027 A 
ENDROOT
BRANCH   1   7
HETATM    7  S1  UNL     1     -21.154  -7.690 -13.155  1.00  0.00     0.263 S 
HETATM    8  O1  UNL     1     -20.530  -8.894 -13.819  1.00  0.00    -0.200 OA
HETATM    9  O2  UNL     1     -20.096  -7.113 -12.234  1.00  0.00    -0.200 OA
BRANCH   7  10
HETATM   10  N1  UNL     1     -21.527  -6.555 -14.398  1.00  0.00    -0.281 N 
ATOM     11  H1  UNL     1     -20.818  -6.373 -15.107  1.00  0.00     0.179 HD
BRANCH  10  12
HETATM   12  C1  UNL     1     -22.632  -5.933 -14.483  1.00  0.00     0.045 A 
HETATM   13  C2  UNL     1     -22.929  -4.782 -13.785  1.00  0.00     0.047 A 
HETATM   14  C3  UNL     1     -24.167  -4.156 -13.933  1.00  0.00     0.090 A 
HETATM   15  N2  UNL     1     -25.113  -4.642 -14.754  1.00  0.00    -0.375 N 
HETATM   16  C4  UNL     1     -24.836  -5.762 -15.439  1.00  0.00     0.090 A 
ATOM     17  H2  UNL     1     -26.014  -4.173 -14.854  1.00  0.00     0.164 HD
HETATM   18  C5  UNL     1     -23.629  -6.421 -15.331  1.00  0.00     0.047 A 
ENDBRANCH  10  12
ENDBRANCH   7  10
ENDBRANCH   1   7
BRANCH   4  19
HETATM   19  N3  UNL     1     -26.073  -9.265 -10.073  1.00  0.00    -0.281 N 
ATOM     20  H3  UNL     1     -25.970  -9.681  -9.147  1.00  0.00     0.179 HD
BRANCH  19  21
HETATM   21  S2  UNL     1     -27.645  -9.003 -10.713  1.00  0.00     0.263 S 
HETATM   22  O3  UNL     1     -27.583  -9.068 -12.221  1.00  0.00    -0.200 OA
HETATM   23  O4  UNL     1     -28.675  -9.948 -10.175  1.00  0.00    -0.200 OA
BRANCH  21  24
HETATM   24  C10 UNL     1     -28.106  -7.362 -10.292  1.00  0.00     0.080 A 
HETATM   25  C11 UNL     1     -28.463  -7.051  -8.997  1.00  0.00     0.028 A 
HETATM   26  C12 UNL     1     -28.817  -5.750  -8.713  1.00  0.00     0.044 A 
HETATM   27  C13 UNL     1     -28.816  -4.782  -9.687  1.00  0.00     0.116 A 
HETATM   28  F1  UNL     1     -29.163  -3.490  -9.424  1.00  0.00    -0.206 F 
HETATM   29  C14 UNL     1     -28.459  -5.085 -10.983  1.00  0.00     0.044 A 
HETATM   30  C15 UNL     1     -28.102  -6.396 -11.273  1.00  0.00     0.028 A 
ENDBRANCH  21  24
ENDBRANCH  19  21
ENDBRANCH   4  19
TORSDOF 6
ENDMDL
