MODEL 1
REMARK VINA RESULT: -4.655122047      0.000      0.000
REMARK  4 active torsions:
REMARK  status: ('A' for Active; 'I' for Inactive)
REMARK    1  A    between atoms: C1_4  and  N2_5 
REMARK    2  A    between atoms: N2_5  and  C2_7 
REMARK    3  A    between atoms: C4_11  and  N4_12 
REMARK       I    between atoms: N4_12  and  C5_14 
REMARK       I    between atoms: C5_14  and  N5_15 
REMARK       I    between atoms: C5_14  and  N6_19 
REMARK    4  A    between atoms: N9_27  and  O1_28 
ROOT
HETATM    1  C2  UNL     1      10.231  25.371  -3.771  1.00  0.00     0.712 C 
HETATM    2  N3  UNL     1       9.461  25.177  -4.877  1.00  0.00    -0.196 N 
ATOM      3  H3  UNL     1       8.571  24.696  -4.748  1.00  0.00     0.183 HD
HETATM    4  C3  UNL     1       9.779  25.573  -6.148  1.00  0.00     0.154 C 
HETATM    5  C4  UNL     1      11.050  25.612  -6.665  1.00  0.00     0.122 C 
HETATM    6  N7  UNL     1      12.189  25.871  -5.997  1.00  0.00    -0.313 N 
ATOM      7  H7  UNL     1      13.000  26.070  -6.581  1.00  0.00     0.170 HD
HETATM    8  C6  UNL     1      12.417  25.906  -4.652  1.00  0.00     0.239 C 
HETATM    9  N8  UNL     1      13.755  26.133  -4.221  1.00  0.00    -0.060 NA
HETATM   10  N9  UNL     1      11.519  25.749  -3.683  1.00  0.00    -0.021 N 
ENDROOT
BRANCH   5  11
HETATM   11  N4  UNL     1      11.168  25.384  -7.885  1.00  0.00    -0.326 N 
HETATM   12  C5  UNL     1      11.475  24.213  -8.619  1.00  0.00     0.481 C 
HETATM   13  N5  UNL     1      12.601  23.460  -8.128  1.00  0.00    -0.033 N 
HETATM   14  N6  UNL     1      10.316  23.346  -8.627  1.00  0.00    -0.033 N 
ATOM     15  H53 UNL     1      13.424  24.060  -8.064  1.00  0.00     0.278 HD
ATOM     16  H52 UNL     1      12.469  23.233  -7.142  1.00  0.00     0.278 HD
ATOM     17  H51 UNL     1      12.823  22.617  -8.656  1.00  0.00     0.278 HD
ATOM     18  H63 UNL     1       9.979  23.138  -7.687  1.00  0.00     0.278 HD
ATOM     19  H62 UNL     1       9.482  23.816  -8.978  1.00  0.00     0.278 HD
ATOM     20  H61 UNL     1      10.538  22.502  -9.156  1.00  0.00     0.278 HD
ATOM     21  H4  UNL     1      11.012  26.204  -8.471  1.00  0.00     0.164 HD
ENDBRANCH   5  11
BRANCH   1  22
HETATM   22  N2  UNL     1       9.685  25.172  -2.619  1.00  0.00    -0.186 N 
ATOM     23  H2  UNL     1      10.225  24.722  -1.879  1.00  0.00     0.185 HD
BRANCH  22  24
HETATM   24  C1  UNL     1       8.370  25.563  -2.367  1.00  0.00     0.191 C 
HETATM   25  N1  UNL     1       7.590  24.826  -1.672  1.00  0.00    -0.395 N 
ATOM     26  H12 UNL     1       7.950  23.944  -1.305  1.00  0.00     0.156 HD
ATOM     27  H11 UNL     1       6.629  25.111  -1.488  1.00  0.00     0.156 HD
ENDBRANCH  22  24
ENDBRANCH   1  22
BRANCH  10  28
HETATM   28  O1  UNL     1      11.970  26.009  -2.414  1.00  0.00    -0.267 OA
ATOM     29  H1  UNL     1      12.908  26.133  -2.333  1.00  0.00     0.246 HD
ENDBRANCH  10  28
TORSDOF 4
ENDMDL
MODEL 2
REMARK VINA RESULT: -4.511472563      3.168      5.080
REMARK  4 active torsions:
REMARK  status: ('A' for Active; 'I' for Inactive)
REMARK    1  A    between atoms: C1_4  and  N2_5 
REMARK    2  A    between atoms: N2_5  and  C2_7 
REMARK    3  A    between atoms: C4_11  and  N4_12 
REMARK       I    between atoms: N4_12  and  C5_14 
REMARK       I    between atoms: C5_14  and  N5_15 
REMARK       I    between atoms: C5_14  and  N6_19 
REMARK    4  A    between atoms: N9_27  and  O1_28 
ROOT
HETATM    1  C2  UNL     1      11.213  24.575  -8.046  1.00  0.00     0.712 C 
HETATM    2  N3  UNL     1      12.037  25.653  -7.924  1.00  0.00    -0.196 N 
ATOM      3  H3  UNL     1      11.598  26.564  -7.794  1.00  0.00     0.183 HD
HETATM    4  C3  UNL     1      13.404  25.617  -7.960  1.00  0.00     0.154 C 
HETATM    5  C4  UNL     1      14.149  24.749  -8.720  1.00  0.00     0.122 C 
HETATM    6  N7  UNL     1      13.826  23.488  -9.059  1.00  0.00    -0.313 N 
ATOM      7  H7  UNL     1      14.591  22.930  -9.438  1.00  0.00     0.170 HD
HETATM    8  C6  UNL     1      12.626  22.846  -8.970  1.00  0.00     0.239 C 
HETATM    9  N8  UNL     1      12.554  21.519  -9.481  1.00  0.00    -0.060 NA
HETATM   10  N9  UNL     1      11.497  23.326  -8.454  1.00  0.00    -0.021 N 
ENDROOT
BRANCH   5  11
HETATM   11  N4  UNL     1      15.244  25.170  -9.143  1.00  0.00    -0.326 N 
HETATM   12  C5  UNL     1      15.606  25.932 -10.280  1.00  0.00     0.481 C 
HETATM   13  N5  UNL     1      15.025  25.491 -11.523  1.00  0.00    -0.033 N 
HETATM   14  N6  UNL     1      15.226  27.311 -10.063  1.00  0.00    -0.033 N 
ATOM     15  H53 UNL     1      15.235  24.506 -11.680  1.00  0.00     0.278 HD
ATOM     16  H52 UNL     1      14.009  25.446 -11.439  1.00  0.00     0.278 HD
ATOM     17  H51 UNL     1      15.286  26.040 -12.342  1.00  0.00     0.278 HD
ATOM     18  H63 UNL     1      14.238  27.410  -9.828  1.00  0.00     0.278 HD
ATOM     19  H62 UNL     1      15.616  27.691  -9.201  1.00  0.00     0.278 HD
ATOM     20  H61 UNL     1      15.487  27.860 -10.882  1.00  0.00     0.278 HD
ATOM     21  H4  UNL     1      16.036  24.914  -8.554  1.00  0.00     0.164 HD
ENDBRANCH   5  11
BRANCH   1  22
HETATM   22  N2  UNL     1       9.970  24.734  -7.737  1.00  0.00    -0.186 N 
ATOM     23  H2  UNL     1       9.263  24.152  -8.188  1.00  0.00     0.185 HD
BRANCH  22  24
HETATM   24  C1  UNL     1       9.577  25.686  -6.796  1.00  0.00     0.191 C 
HETATM   25  N1  UNL     1       9.530  25.395  -5.551  1.00  0.00    -0.395 N 
ATOM     26  H12 UNL     1       9.787  24.452  -5.260  1.00  0.00     0.156 HD
ATOM     27  H11 UNL     1       9.243  26.091  -4.864  1.00  0.00     0.156 HD
ENDBRANCH  22  24
ENDBRANCH   1  22
BRANCH  10  28
HETATM   28  O1  UNL     1      10.479  22.417  -8.319  1.00  0.00    -0.267 OA
ATOM     29  H1  UNL     1      10.579  21.797  -7.606  1.00  0.00     0.246 HD
ENDBRANCH  10  28
TORSDOF 4
ENDMDL
MODEL 3
REMARK VINA RESULT: -4.404103406      0.937      1.018
REMARK  4 active torsions:
REMARK  status: ('A' for Active; 'I' for Inactive)
REMARK    1  A    between atoms: C1_4  and  N2_5 
REMARK    2  A    between atoms: N2_5  and  C2_7 
REMARK    3  A    between atoms: C4_11  and  N4_12 
REMARK       I    between atoms: N4_12  and  C5_14 
REMARK       I    between atoms: C5_14  and  N5_15 
REMARK       I    between atoms: C5_14  and  N6_19 
REMARK    4  A    between atoms: N9_27  and  O1_28 
ROOT
HETATM    1  C2  UNL     1       9.998  25.455  -4.479  1.00  0.00     0.712 C 
HETATM    2  N3  UNL     1       9.448  25.279  -5.713  1.00  0.00    -0.196 N 
ATOM      3  H3  UNL     1       8.500  24.906  -5.752  1.00  0.00     0.183 HD
HETATM    4  C3  UNL     1      10.060  25.561  -6.903  1.00  0.00     0.154 C 
HETATM    5  C4  UNL     1      11.404  25.432  -7.148  1.00  0.00     0.122 C 
HETATM    6  N7  UNL     1      12.408  25.606  -6.269  1.00  0.00    -0.313 N 
ATOM      7  H7  UNL     1      13.338  25.680  -6.680  1.00  0.00     0.170 HD
HETATM    8  C6  UNL     1      12.364  25.696  -4.908  1.00  0.00     0.239 C 
HETATM    9  N8  UNL     1      13.604  25.804  -4.219  1.00  0.00    -0.060 NA
HETATM   10  N9  UNL     1      11.277  25.696  -4.141  1.00  0.00    -0.021 N 
ENDROOT
BRANCH   5  11
HETATM   11  N4  UNL     1      11.737  25.119  -8.309  1.00  0.00    -0.326 N 
HETATM   12  C5  UNL     1      11.926  23.872  -8.952  1.00  0.00     0.481 C 
HETATM   13  N5  UNL     1      12.712  22.915  -8.214  1.00  0.00    -0.033 N 
HETATM   14  N6  UNL     1      10.632  23.284  -9.226  1.00  0.00    -0.033 N 
ATOM     15  H53 UNL     1      13.613  23.321  -7.963  1.00  0.00     0.278 HD
ATOM     16  H52 UNL     1      12.314  22.776  -7.285  1.00  0.00     0.278 HD
ATOM     17  H51 UNL     1      12.848  22.017  -8.677  1.00  0.00     0.278 HD
ATOM     18  H63 UNL     1      10.055  23.206  -8.389  1.00  0.00     0.278 HD
ATOM     19  H62 UNL     1      10.027  23.908  -9.759  1.00  0.00     0.278 HD
ATOM     20  H61 UNL     1      10.768  22.386  -9.689  1.00  0.00     0.278 HD
ATOM     21  H4  UNL     1      11.908  25.922  -8.915  1.00  0.00     0.164 HD
ENDBRANCH   5  11
BRANCH   1  22
HETATM   22  N2  UNL     1       9.212  25.386  -3.458  1.00  0.00    -0.186 N 
ATOM     23  H2  UNL     1       9.285  24.592  -2.821  1.00  0.00     0.185 HD
BRANCH  22  24
HETATM   24  C1  UNL     1       8.263  26.379  -3.210  1.00  0.00     0.191 C 
HETATM   25  N1  UNL     1       8.599  27.479  -2.650  1.00  0.00    -0.395 N 
ATOM     26  H12 UNL     1       9.575  27.616  -2.388  1.00  0.00     0.156 HD
ATOM     27  H11 UNL     1       7.905  28.204  -2.469  1.00  0.00     0.156 HD
ENDBRANCH  22  24
ENDBRANCH   1  22
BRANCH  10  28
HETATM   28  O1  UNL     1      11.491  25.982  -2.817  1.00  0.00    -0.267 OA
ATOM     29  H1  UNL     1      12.336  26.365  -2.615  1.00  0.00     0.246 HD
ENDBRANCH  10  28
TORSDOF 4
ENDMDL
MODEL 4
REMARK VINA RESULT: -4.403112511      3.064      4.941
REMARK  4 active torsions:
REMARK  status: ('A' for Active; 'I' for Inactive)
REMARK    1  A    between atoms: C1_4  and  N2_5 
REMARK    2  A    between atoms: N2_5  and  C2_7 
REMARK    3  A    between atoms: C4_11  and  N4_12 
REMARK       I    between atoms: N4_12  and  C5_14 
REMARK       I    between atoms: C5_14  and  N5_15 
REMARK       I    between atoms: C5_14  and  N6_19 
REMARK    4  A    between atoms: N9_27  and  O1_28 
ROOT
HETATM    1  C2  UNL     1      11.047  24.703  -7.846  1.00  0.00     0.712 C 
HETATM    2  N3  UNL     1      11.862  25.791  -7.772  1.00  0.00    -0.196 N 
ATOM      3  H3  UNL     1      11.434  26.677  -7.500  1.00  0.00     0.183 HD
HETATM    4  C3  UNL     1      13.205  25.799  -8.030  1.00  0.00     0.154 C 
HETATM    5  C4  UNL     1      13.831  25.013  -8.966  1.00  0.00     0.122 C 
HETATM    6  N7  UNL     1      13.478  23.773  -9.349  1.00  0.00    -0.313 N 
ATOM      7  H7  UNL     1      14.181  23.268  -9.889  1.00  0.00     0.170 HD
HETATM    8  C6  UNL     1      12.319  23.091  -9.120  1.00  0.00     0.239 C 
HETATM    9  N8  UNL     1      12.187  21.805  -9.717  1.00  0.00    -0.060 NA
HETATM   10  N9  UNL     1      11.281  23.496  -8.393  1.00  0.00    -0.021 N 
ENDROOT
BRANCH   5  11
HETATM   11  N4  UNL     1      14.836  25.497  -9.525  1.00  0.00    -0.326 N 
HETATM   12  C5  UNL     1      16.226  25.299  -9.343  1.00  0.00     0.481 C 
HETATM   13  N5  UNL     1      16.676  25.335  -7.974  1.00  0.00    -0.033 N 
HETATM   14  N6  UNL     1      16.597  24.020  -9.910  1.00  0.00    -0.033 N 
ATOM     15  H53 UNL     1      16.385  26.207  -7.532  1.00  0.00     0.278 HD
ATOM     16  H52 UNL     1      16.148  24.666  -7.413  1.00  0.00     0.278 HD
ATOM     17  H51 UNL     1      17.677  25.193  -7.843  1.00  0.00     0.278 HD
ATOM     18  H63 UNL     1      16.042  23.252  -9.532  1.00  0.00     0.278 HD
ATOM     19  H62 UNL     1      16.317  23.932 -10.887  1.00  0.00     0.278 HD
ATOM     20  H61 UNL     1      17.598  23.877  -9.779  1.00  0.00     0.278 HD
ATOM     21  H4  UNL     1      14.611  26.169 -10.259  1.00  0.00     0.164 HD
ENDBRANCH   5  11
BRANCH   1  22
HETATM   22  N2  UNL     1       9.868  24.800  -7.329  1.00  0.00    -0.186 N 
ATOM     23  H2  UNL     1       9.131  24.165  -7.637  1.00  0.00     0.185 HD
BRANCH  22  24
HETATM   24  C1  UNL     1       9.584  25.760  -6.357  1.00  0.00     0.191 C 
HETATM   25  N1  UNL     1       9.519  25.439  -5.121  1.00  0.00    -0.395 N 
ATOM     26  H12 UNL     1       9.679  24.465  -4.860  1.00  0.00     0.156 HD
ATOM     27  H11 UNL     1       9.311  26.140  -4.410  1.00  0.00     0.156 HD
ENDBRANCH  22  24
ENDBRANCH   1  22
BRANCH  10  28
HETATM   28  O1  UNL     1      10.314  22.551  -8.169  1.00  0.00    -0.267 OA
ATOM     29  H1  UNL     1       9.611  22.528  -8.808  1.00  0.00     0.246 HD
ENDBRANCH  10  28
TORSDOF 4
ENDMDL
MODEL 5
REMARK VINA RESULT: -4.335445569      3.154      6.384
REMARK  4 active torsions:
REMARK  status: ('A' for Active; 'I' for Inactive)
REMARK    1  A    between atoms: C1_4  and  N2_5 
REMARK    2  A    between atoms: N2_5  and  C2_7 
REMARK    3  A    between atoms: C4_11  and  N4_12 
REMARK       I    between atoms: N4_12  and  C5_14 
REMARK       I    between atoms: C5_14  and  N5_15 
REMARK       I    between atoms: C5_14  and  N6_19 
REMARK    4  A    between atoms: N9_27  and  O1_28 
ROOT
HETATM    1  C2  UNL     1      13.284  22.299  -8.533  1.00  0.00     0.712 C 
HETATM    2  N3  UNL     1      14.232  22.870  -7.739  1.00  0.00    -0.196 N 
ATOM      3  H3  UNL     1      15.004  22.277  -7.434  1.00  0.00     0.183 HD
HETATM    4  C3  UNL     1      14.237  24.171  -7.316  1.00  0.00     0.154 C 
HETATM    5  C4  UNL     1      13.116  24.910  -7.031  1.00  0.00     0.122 C 
HETATM    6  N7  UNL     1      11.910  24.811  -7.618  1.00  0.00    -0.313 N 
ATOM      7  H7  UNL     1      11.269  25.582  -7.429  1.00  0.00     0.170 HD
HETATM    8  C6  UNL     1      11.417  23.830  -8.428  1.00  0.00     0.239 C 
HETATM    9  N8  UNL     1      10.062  23.947  -8.849  1.00  0.00    -0.060 NA
HETATM   10  N9  UNL     1      12.068  22.760  -8.876  1.00  0.00    -0.021 N 
ENDROOT
BRANCH   5  11
HETATM   11  N4  UNL     1      13.222  25.769  -6.132  1.00  0.00    -0.326 N 
HETATM   12  C5  UNL     1      12.641  25.891  -4.847  1.00  0.00     0.481 C 
HETATM   13  N5  UNL     1      11.218  25.668  -4.795  1.00  0.00    -0.033 N 
HETATM   14  N6  UNL     1      13.282  24.955  -3.949  1.00  0.00    -0.033 N 
ATOM     15  H53 UNL     1      10.741  26.281  -5.456  1.00  0.00     0.278 HD
ATOM     16  H52 UNL     1      10.990  24.759  -5.199  1.00  0.00     0.278 HD
ATOM     17  H51 UNL     1      10.799  25.756  -3.869  1.00  0.00     0.278 HD
ATOM     18  H63 UNL     1      13.252  23.998  -4.299  1.00  0.00     0.278 HD
ATOM     19  H62 UNL     1      14.295  25.069  -3.929  1.00  0.00     0.278 HD
ATOM     20  H61 UNL     1      12.863  25.044  -3.024  1.00  0.00     0.278 HD
ATOM     21  H4  UNL     1      13.852  26.535  -6.370  1.00  0.00     0.164 HD
ENDBRANCH   5  11
BRANCH   1  22
HETATM   22  N2  UNL     1      13.551  21.147  -9.050  1.00  0.00    -0.186 N 
ATOM     23  H2  UNL     1      13.408  21.001 -10.050  1.00  0.00     0.185 HD
BRANCH  22  24
HETATM   24  C1  UNL     1      14.031  20.097  -8.266  1.00  0.00     0.191 C 
HETATM   25  N1  UNL     1      14.258  18.949  -8.779  1.00  0.00    -0.395 N 
ATOM     26  H12 UNL     1      14.081  18.815  -9.776  1.00  0.00     0.156 HD
ATOM     27  H11 UNL     1      14.609  18.182  -8.206  1.00  0.00     0.156 HD
ENDBRANCH  22  24
ENDBRANCH   1  22
BRANCH  10  28
HETATM   28  O1  UNL     1      11.406  22.021  -9.823  1.00  0.00    -0.267 OA
ATOM     29  H1  UNL     1      11.941  21.401 -10.303  1.00  0.00     0.246 HD
ENDBRANCH  10  28
TORSDOF 4
ENDMDL
