MODEL 1
REMARK VINA RESULT: -5.241556804      0.000      0.000
REMARK  2 active torsions:
REMARK  status: ('A' for Active; 'I' for Inactive)
REMARK    1  A    between atoms: N3_6  and  N4_8 
REMARK    2  A    between atoms: N5_10  and  C3_12 
ROOT
HETATM    1  C1  UNL     1      14.112  16.979  -7.053  1.00  0.00     0.169 C 
HETATM    2  N1  UNL     1      14.559  17.892  -7.840  1.00  0.00    -0.093 N 
HETATM    3  N2  UNL     1      13.919  19.132  -7.968  1.00  0.00    -0.109 N 
ATOM      4  H2  UNL     1      13.077  19.309  -7.420  1.00  0.00     0.207 HD
HETATM    5  C2  UNL     1      14.398  20.156  -8.832  1.00  0.00     0.728 A 
HETATM    6  N3  UNL     1      13.804  21.289  -8.942  1.00  0.00    -0.114 N 
ATOM      7  H3  UNL     1      12.963  21.457  -8.390  1.00  0.00     0.207 HD
HETATM    8  N10 UNL     1      15.569  19.943  -9.611  1.00  0.00    -0.115 N 
ATOM      9  H10 UNL     1      15.929  20.663 -10.238  1.00  0.00     0.206 HD
HETATM   10  N11 UNL     1      16.208  18.702  -9.482  1.00  0.00    -0.116 N 
ATOM     11  H11 UNL     1      17.050  18.526 -10.030  1.00  0.00     0.206 HD
HETATM   12  C4  UNL     1      15.729  17.675  -8.614  1.00  0.00     0.711 A 
HETATM   13  N12 UNL     1      16.325  16.534  -8.503  1.00  0.00    -0.232 N 
ATOM     14 1H12 UNL     1      17.165  16.378  -9.060  1.00  0.00     0.174 HD
ATOM     15 2H12 UNL     1      15.982  15.800  -7.883  1.00  0.00     0.174 HD
ENDROOT
BRANCH   6  16
HETATM   16  N4  UNL     1      14.262  22.297  -9.784  1.00  0.00    -0.214 N 
HETATM   17  N5  UNL     1      13.619  23.356 -10.049  1.00  0.00    -0.114 N 
ATOM     18  H5  UNL     1      14.035  24.042 -10.679  1.00  0.00     0.207 HD
ATOM     19  H4  UNL     1      15.177  22.175 -10.218  1.00  0.00     0.209 HD
BRANCH  17  20
HETATM   20  C3  UNL     1      12.334  23.620  -9.496  1.00  0.00     0.729 A 
HETATM   21  N6  UNL     1      11.156  23.021  -9.745  1.00  0.00    -0.114 N 
HETATM   22  N7  UNL     1      10.230  23.602  -8.997  1.00  0.00    -0.213 N 
ATOM     23  H6  UNL     1      11.002  22.251 -10.397  1.00  0.00     0.207 HD
HETATM   24  N8  UNL     1      10.762  24.552  -8.275  1.00  0.00    -0.213 N 
ATOM     25  H7  UNL     1       9.243  23.344  -8.986  1.00  0.00     0.210 HD
HETATM   26  N9  UNL     1      12.052  24.577  -8.569  1.00  0.00    -0.114 N 
ATOM     27  H8  UNL     1      10.276  25.158  -7.613  1.00  0.00     0.210 HD
ATOM     28  H9  UNL     1      12.733  25.217  -8.163  1.00  0.00     0.207 HD
ENDBRANCH  17  20
ENDBRANCH   6  16
TORSDOF 2
ENDMDL
MODEL 2
REMARK VINA RESULT: -5.077445732      1.656      2.304
REMARK  2 active torsions:
REMARK  status: ('A' for Active; 'I' for Inactive)
REMARK    1  A    between atoms: N3_6  and  N4_8 
REMARK    2  A    between atoms: N5_10  and  C3_12 
ROOT
HETATM    1  C1  UNL     1      16.371  20.179  -6.158  1.00  0.00     0.169 C 
HETATM    2  N1  UNL     1      15.525  20.177  -7.127  1.00  0.00    -0.093 N 
HETATM    3  N2  UNL     1      14.633  21.238  -7.329  1.00  0.00    -0.109 N 
ATOM      4  H2  UNL     1      14.659  22.029  -6.687  1.00  0.00     0.207 HD
HETATM    5  C2  UNL     1      13.690  21.255  -8.394  1.00  0.00     0.728 A 
HETATM    6  N3  UNL     1      12.877  22.232  -8.571  1.00  0.00    -0.114 N 
ATOM      7  H3  UNL     1      12.911  23.020  -7.924  1.00  0.00     0.207 HD
HETATM    8  N10 UNL     1      13.626  20.166  -9.308  1.00  0.00    -0.115 N 
ATOM      9  H10 UNL     1      12.958  20.157 -10.078  1.00  0.00     0.206 HD
HETATM   10  N11 UNL     1      14.519  19.105  -9.105  1.00  0.00    -0.116 N 
ATOM     11  H11 UNL     1      14.493  18.313  -9.747  1.00  0.00     0.206 HD
HETATM   12  C4  UNL     1      15.466  19.088  -8.036  1.00  0.00     0.711 A 
HETATM   13  N12 UNL     1      16.285  18.105  -7.858  1.00  0.00    -0.232 N 
ATOM     14 1H12 UNL     1      16.242  17.322  -8.511  1.00  0.00     0.174 HD
ATOM     15 2H12 UNL     1      16.961  18.092  -7.094  1.00  0.00     0.174 HD
ENDROOT
BRANCH   6  16
HETATM   16  N4  UNL     1      11.951  22.259  -9.608  1.00  0.00    -0.214 N 
HETATM   17  N5  UNL     1      10.949  23.033  -9.653  1.00  0.00    -0.114 N 
ATOM     18  H5  UNL     1      10.322  22.983 -10.456  1.00  0.00     0.207 HD
ATOM     19  H4  UNL     1      12.088  21.613 -10.385  1.00  0.00     0.209 HD
BRANCH  17  20
HETATM   20  C3  UNL     1      10.669  23.971  -8.619  1.00  0.00     0.729 A 
HETATM   21  N6  UNL     1      11.373  25.047  -8.226  1.00  0.00    -0.114 N 
HETATM   22  N7  UNL     1      10.726  25.622  -7.224  1.00  0.00    -0.213 N 
ATOM     23  H6  UNL     1      12.255  25.365  -8.630  1.00  0.00     0.207 HD
HETATM   24  N8  UNL     1       9.632  24.961  -6.954  1.00  0.00    -0.213 N 
ATOM     25  H7  UNL     1      11.037  26.460  -6.734  1.00  0.00     0.210 HD
HETATM   26  N9  UNL     1       9.581  23.946  -7.800  1.00  0.00    -0.114 N 
ATOM     27  H8  UNL     1       8.948  25.185  -6.230  1.00  0.00     0.210 HD
ATOM     28  H9  UNL     1       8.838  23.248  -7.834  1.00  0.00     0.207 HD
ENDBRANCH  17  20
ENDBRANCH   6  16
TORSDOF 2
ENDMDL
MODEL 3
REMARK VINA RESULT: -5.048900286      4.277      7.123
REMARK  2 active torsions:
REMARK  status: ('A' for Active; 'I' for Inactive)
REMARK    1  A    between atoms: N3_6  and  N4_8 
REMARK    2  A    between atoms: N5_10  and  C3_12 
ROOT
HETATM    1  C1  UNL     1      13.450  23.486  -8.477  1.00  0.00     0.169 C 
HETATM    2  N1  UNL     1      12.268  23.955  -8.283  1.00  0.00    -0.093 N 
HETATM    3  N2  UNL     1      12.049  25.103  -7.510  1.00  0.00    -0.109 N 
ATOM      4  H2  UNL     1      12.852  25.575  -7.095  1.00  0.00     0.207 HD
HETATM    5  C2  UNL     1      10.751  25.638  -7.284  1.00  0.00     0.728 A 
HETATM    6  N3  UNL     1      10.561  26.692  -6.574  1.00  0.00    -0.114 N 
ATOM      7  H3  UNL     1      11.369  27.157  -6.163  1.00  0.00     0.207 HD
HETATM    8  N10 UNL     1       9.609  25.005  -7.849  1.00  0.00    -0.115 N 
ATOM      9  H10 UNL     1       8.669  25.372  -7.698  1.00  0.00     0.206 HD
HETATM   10  N11 UNL     1       9.829  23.856  -8.621  1.00  0.00    -0.116 N 
ATOM     11  H11 UNL     1       9.026  23.385  -9.037  1.00  0.00     0.206 HD
HETATM   12  C4  UNL     1      11.132  23.319  -8.849  1.00  0.00     0.711 A 
HETATM   13  N12 UNL     1      11.324  22.259  -9.563  1.00  0.00    -0.232 N 
ATOM     14 1H12 UNL     1      10.508  21.802  -9.969  1.00  0.00     0.174 HD
ATOM     15 2H12 UNL     1      12.256  21.875  -9.726  1.00  0.00     0.174 HD
ENDROOT
BRANCH   6  16
HETATM   16  N4  UNL     1       9.296  27.223  -6.346  1.00  0.00    -0.214 N 
HETATM   17  N5  UNL     1       8.694  27.184  -5.231  1.00  0.00    -0.114 N 
ATOM     18  H5  UNL     1       7.766  27.601  -5.156  1.00  0.00     0.207 HD
ATOM     19  H4  UNL     1       8.821  27.674  -7.127  1.00  0.00     0.209 HD
BRANCH  17  20
HETATM   20  C3  UNL     1       9.270  26.576  -4.080  1.00  0.00     0.729 A 
HETATM   21  N6  UNL     1      10.013  27.126  -3.103  1.00  0.00    -0.114 N 
HETATM   22  N7  UNL     1      10.329  26.174  -2.238  1.00  0.00    -0.213 N 
ATOM     23  H6  UNL     1      10.287  28.107  -3.040  1.00  0.00     0.207 HD
HETATM   24  N8  UNL     1       9.820  25.032  -2.615  1.00  0.00    -0.213 N 
ATOM     25  H7  UNL     1      10.889  26.314  -1.397  1.00  0.00     0.210 HD
HETATM   26  N9  UNL     1       9.168  25.260  -3.743  1.00  0.00    -0.114 N 
ATOM     27  H8  UNL     1       9.909  24.137  -2.133  1.00  0.00     0.210 HD
ATOM     28  H9  UNL     1       8.663  24.556  -4.281  1.00  0.00     0.207 HD
ENDBRANCH  17  20
ENDBRANCH   6  16
TORSDOF 2
ENDMDL
MODEL 4
REMARK VINA RESULT: -4.954984113      1.144      1.279
REMARK  2 active torsions:
REMARK  status: ('A' for Active; 'I' for Inactive)
REMARK    1  A    between atoms: N3_6  and  N4_8 
REMARK    2  A    between atoms: N5_10  and  C3_12 
ROOT
HETATM    1  C1  UNL     1      14.709  18.643  -5.862  1.00  0.00     0.169 C 
HETATM    2  N1  UNL     1      14.613  19.198  -7.018  1.00  0.00    -0.093 N 
HETATM    3  N2  UNL     1      14.616  20.591  -7.168  1.00  0.00    -0.109 N 
ATOM      4  H2  UNL     1      14.697  21.174  -6.336  1.00  0.00     0.207 HD
HETATM    5  C2  UNL     1      14.511  21.225  -8.438  1.00  0.00     0.728 A 
HETATM    6  N3  UNL     1      14.515  22.503  -8.566  1.00  0.00    -0.114 N 
ATOM      7  H3  UNL     1      14.597  23.078  -7.728  1.00  0.00     0.207 HD
HETATM    8  N10 UNL     1      14.396  20.441  -9.620  1.00  0.00    -0.115 N 
ATOM      9  H10 UNL     1      14.319  20.875 -10.540  1.00  0.00     0.206 HD
HETATM   10  N11 UNL     1      14.393  19.047  -9.468  1.00  0.00    -0.116 N 
ATOM     11  H11 UNL     1      14.312  18.464 -10.300  1.00  0.00     0.206 HD
HETATM   12  C4  UNL     1      14.499  18.411  -8.194  1.00  0.00     0.711 A 
HETATM   13  N12 UNL     1      14.495  17.126  -8.064  1.00  0.00    -0.232 N 
ATOM     14 1H12 UNL     1      14.413  16.561  -8.909  1.00  0.00     0.174 HD
ATOM     15 2H12 UNL     1      14.570  16.671  -7.154  1.00  0.00     0.174 HD
ENDROOT
BRANCH   6  16
HETATM   16  N4  UNL     1      14.413  23.133  -9.801  1.00  0.00    -0.214 N 
HETATM   17  N5  UNL     1      13.361  23.691 -10.234  1.00  0.00    -0.114 N 
ATOM     18  H5  UNL     1      13.379  24.130 -11.155  1.00  0.00     0.207 HD
ATOM     19  H4  UNL     1      15.239  23.146 -10.398  1.00  0.00     0.209 HD
BRANCH  17  20
HETATM   20  C3  UNL     1      12.155  23.726  -9.478  1.00  0.00     0.729 A 
HETATM   21  N6  UNL     1      11.097  22.897  -9.516  1.00  0.00    -0.114 N 
HETATM   22  N7  UNL     1      10.207  23.322  -8.633  1.00  0.00    -0.213 N 
ATOM     23  H6  UNL     1      10.998  22.081 -10.120  1.00  0.00     0.207 HD
HETATM   24  N8  UNL     1      10.645  24.392  -8.027  1.00  0.00    -0.213 N 
ATOM     25  H7  UNL     1       9.307  22.877  -8.452  1.00  0.00     0.210 HD
HETATM   26  N9  UNL     1      11.839  24.654  -8.533  1.00  0.00    -0.114 N 
ATOM     27  H8  UNL     1      10.161  24.924  -7.303  1.00  0.00     0.210 HD
ATOM     28  H9  UNL     1      12.434  25.435  -8.257  1.00  0.00     0.207 HD
ENDBRANCH  17  20
ENDBRANCH   6  16
TORSDOF 2
ENDMDL
MODEL 5
REMARK VINA RESULT: -4.937213771      5.290      8.319
REMARK  2 active torsions:
REMARK  status: ('A' for Active; 'I' for Inactive)
REMARK    1  A    between atoms: N3_6  and  N4_8 
REMARK    2  A    between atoms: N5_10  and  C3_12 
ROOT
HETATM    1  C1  UNL     1      10.520  23.752  -8.772  1.00  0.00     0.169 C 
HETATM    2  N1  UNL     1      10.744  24.717  -7.953  1.00  0.00    -0.093 N 
HETATM    3  N2  UNL     1       9.753  25.190  -7.082  1.00  0.00    -0.109 N 
ATOM      4  H2  UNL     1       8.833  24.753  -7.104  1.00  0.00     0.207 HD
HETATM    5  C2  UNL     1       9.982  26.257  -6.169  1.00  0.00     0.728 A 
HETATM    6  N3  UNL     1       9.067  26.682  -5.374  1.00  0.00    -0.114 N 
ATOM      7  H3  UNL     1       8.149  26.239  -5.402  1.00  0.00     0.207 HD
HETATM    8  N10 UNL     1      11.254  26.889  -6.114  1.00  0.00    -0.115 N 
ATOM      9  H10 UNL     1      11.439  27.656  -5.467  1.00  0.00     0.206 HD
HETATM   10  N11 UNL     1      12.245  26.416  -6.986  1.00  0.00    -0.116 N 
ATOM     11  H11 UNL     1      13.166  26.853  -6.964  1.00  0.00     0.206 HD
HETATM   12  C4  UNL     1      12.016  25.345  -7.902  1.00  0.00     0.711 A 
HETATM   13  N12 UNL     1      12.936  24.916  -8.702  1.00  0.00    -0.232 N 
ATOM     14 1H12 UNL     1      13.850  25.367  -8.665  1.00  0.00     0.174 HD
ATOM     15 2H12 UNL     1      12.773  24.150  -9.357  1.00  0.00     0.174 HD
ENDROOT
BRANCH   6  16
HETATM   16  N4  UNL     1       9.278  27.724  -4.478  1.00  0.00    -0.214 N 
HETATM   17  N5  UNL     1       9.014  27.668  -3.240  1.00  0.00    -0.114 N 
ATOM     18  H5  UNL     1       9.203  28.483  -2.657  1.00  0.00     0.207 HD
ATOM     19  H4  UNL     1       9.672  28.592  -4.841  1.00  0.00     0.209 HD
BRANCH  17  20
HETATM   20  C3  UNL     1       8.461  26.504  -2.636  1.00  0.00     0.729 A 
HETATM   21  N6  UNL     1       9.075  25.384  -2.216  1.00  0.00    -0.114 N 
HETATM   22  N7  UNL     1       8.157  24.569  -1.718  1.00  0.00    -0.213 N 
ATOM     23  H6  UNL     1      10.076  25.194  -2.271  1.00  0.00     0.207 HD
HETATM   24  N8  UNL     1       6.974  25.118  -1.800  1.00  0.00    -0.213 N 
ATOM     25  H7  UNL     1       8.346  23.647  -1.328  1.00  0.00     0.210 HD
HETATM   26  N9  UNL     1       7.142  26.304  -2.360  1.00  0.00    -0.114 N 
ATOM     27  H8  UNL     1       6.091  24.709  -1.491  1.00  0.00     0.210 HD
ATOM     28  H9  UNL     1       6.396  26.971  -2.556  1.00  0.00     0.207 HD
ENDBRANCH  17  20
ENDBRANCH   6  16
TORSDOF 2
ENDMDL
