MODEL 1
REMARK VINA RESULT: -4.818544752      0.000      0.000
REMARK  2 active torsions:
REMARK  status: ('A' for Active; 'I' for Inactive)
REMARK       I    between atoms: N1_1  and  C1_5 
REMARK       I    between atoms: C1_5  and  N2_6 
REMARK       I    between atoms: C1_5  and  N3_10 
REMARK    1  A    between atoms: N3_10  and  N4_12 
REMARK    2  A    between atoms: N4_12  and  C2_14 
ROOT
HETATM    1  C2  UNL     1      11.899  26.423  -6.960  1.00  0.00     0.150 A 
HETATM    2  N5  UNL     1      13.176  26.830  -7.018  1.00  0.00    -0.336 N 
ATOM      3  H5  UNL     1      13.477  27.614  -6.440  1.00  0.00     0.168 HD
HETATM    4  C3  UNL     1      14.080  26.214  -7.832  1.00  0.00     0.182 A 
HETATM    5  N6  UNL     1      13.638  25.183  -8.574  1.00  0.00    -0.346 N 
ATOM      6  H6  UNL     1      14.305  24.715  -9.187  1.00  0.00     0.167 HD
HETATM    7  C4  UNL     1      12.385  24.735  -8.559  1.00  0.00     0.132 A 
HETATM    8  C5  UNL     1      11.959  23.659  -9.343  1.00  0.00     0.275 A 
HETATM    9  O1  UNL     1      12.782  23.081 -10.100  1.00  0.00    -0.266 OA
HETATM   10  N7  UNL     1      10.697  23.241  -9.300  1.00  0.00    -0.318 N 
ATOM     11  H7  UNL     1      10.388  22.456  -9.872  1.00  0.00     0.169 HD
HETATM   12  C6  UNL     1       9.834  23.880  -8.480  1.00  0.00     0.184 A 
HETATM   13  N8  UNL     1      10.227  24.921  -7.713  1.00  0.00    -0.347 N 
ATOM     14  H8  UNL     1       9.548  25.378  -7.105  1.00  0.00     0.167 HD
HETATM   15  C7  UNL     1      11.478  25.360  -7.736  1.00  0.00     0.111 A 
ENDROOT
BRANCH   1  16
HETATM   16  N4  UNL     1      11.039  26.999  -6.194  1.00  0.00    -0.285 N 
ATOM     17  H4  UNL     1      10.237  27.464  -6.622  1.00  0.00     0.188 HD
BRANCH  16  18
HETATM   18  N3  UNL     1      11.154  27.015  -4.808  1.00  0.00    -0.282 N 
HETATM   19  C1  UNL     1      10.916  25.814  -4.041  1.00  0.00     0.494 C 
HETATM   20  N1  UNL     1      11.092  26.062  -2.632  1.00  0.00    -0.032 N 
HETATM   21  N2  UNL     1       9.585  25.285  -4.229  1.00  0.00    -0.032 N 
ATOM     22  H13 UNL     1      10.367  26.663  -2.241  1.00  0.00     0.279 HD
ATOM     23  H12 UNL     1      10.906  25.239  -2.058  1.00  0.00     0.279 HD
ATOM     24  H11 UNL     1      12.031  26.435  -2.499  1.00  0.00     0.279 HD
ATOM     25  H23 UNL     1       9.399  24.462  -3.655  1.00  0.00     0.279 HD
ATOM     26  H22 UNL     1       8.860  25.886  -3.838  1.00  0.00     0.279 HD
ATOM     27  H21 UNL     1       9.461  25.109  -5.226  1.00  0.00     0.279 HD
ATOM     28  H3  UNL     1      11.408  27.880  -4.330  1.00  0.00     0.184 HD
ENDBRANCH  16  18
ENDBRANCH   1  16
TORSDOF 2
ENDMDL
MODEL 2
REMARK VINA RESULT: -4.782061202      4.059      5.937
REMARK  2 active torsions:
REMARK  status: ('A' for Active; 'I' for Inactive)
REMARK       I    between atoms: N1_1  and  C1_5 
REMARK       I    between atoms: C1_5  and  N2_6 
REMARK       I    between atoms: C1_5  and  N3_10 
REMARK    1  A    between atoms: N3_10  and  N4_12 
REMARK    2  A    between atoms: N4_12  and  C2_14 
ROOT
HETATM    1  C2  UNL     1      14.018  21.487  -8.790  1.00  0.00     0.150 A 
HETATM    2  N5  UNL     1      13.952  20.255  -8.264  1.00  0.00    -0.336 N 
ATOM      3  H5  UNL     1      13.376  20.095  -7.438  1.00  0.00     0.168 HD
HETATM    4  C3  UNL     1      14.637  19.212  -8.813  1.00  0.00     0.182 A 
HETATM    5  N6  UNL     1      15.382  19.471  -9.903  1.00  0.00    -0.346 N 
ATOM      6  H6  UNL     1      15.900  18.698 -10.321  1.00  0.00     0.167 HD
HETATM    7  C4  UNL     1      15.486  20.670 -10.469  1.00  0.00     0.132 A 
HETATM    8  C5  UNL     1      16.270  20.904 -11.603  1.00  0.00     0.275 A 
HETATM    9  O1  UNL     1      16.909  19.951 -12.121  1.00  0.00    -0.266 OA
HETATM   10  N7  UNL     1      16.348  22.118 -12.139  1.00  0.00    -0.318 N 
ATOM     11  H7  UNL     1      16.919  22.287 -12.967  1.00  0.00     0.169 HD
HETATM   12  C6  UNL     1      15.653  23.123 -11.564  1.00  0.00     0.184 A 
HETATM   13  N8  UNL     1      14.890  22.917 -10.468  1.00  0.00    -0.347 N 
ATOM     14  H8  UNL     1      14.378  23.700 -10.061  1.00  0.00     0.167 HD
HETATM   15  C7  UNL     1      14.792  21.718  -9.911  1.00  0.00     0.111 A 
ENDROOT
BRANCH   1  16
HETATM   16  N4  UNL     1      13.374  22.478  -8.278  1.00  0.00    -0.285 N 
ATOM     17  H4  UNL     1      13.900  23.202  -7.788  1.00  0.00     0.188 HD
BRANCH  16  18
HETATM   18  N3  UNL     1      11.991  22.604  -8.364  1.00  0.00    -0.282 N 
HETATM   19  C1  UNL     1      11.400  23.785  -8.950  1.00  0.00     0.494 C 
HETATM   20  N1  UNL     1       9.962  23.701  -8.934  1.00  0.00    -0.032 N 
HETATM   21  N2  UNL     1      11.774  24.999  -8.259  1.00  0.00    -0.032 N 
ATOM     22  H13 UNL     1       9.570  23.760  -7.994  1.00  0.00     0.279 HD
ATOM     23  H12 UNL     1       9.511  24.532  -9.318  1.00  0.00     0.279 HD
ATOM     24  H11 UNL     1       9.698  22.845  -9.422  1.00  0.00     0.279 HD
ATOM     25  H23 UNL     1      11.324  25.830  -8.643  1.00  0.00     0.279 HD
ATOM     26  H22 UNL     1      11.383  25.058  -7.319  1.00  0.00     0.279 HD
ATOM     27  H21 UNL     1      12.792  25.058  -8.270  1.00  0.00     0.279 HD
ATOM     28  H3  UNL     1      11.391  21.859  -8.011  1.00  0.00     0.184 HD
ENDBRANCH  16  18
ENDBRANCH   1  16
TORSDOF 2
ENDMDL
MODEL 3
REMARK VINA RESULT: -4.626466008      1.026      2.669
REMARK  2 active torsions:
REMARK  status: ('A' for Active; 'I' for Inactive)
REMARK       I    between atoms: N1_1  and  C1_5 
REMARK       I    between atoms: C1_5  and  N2_6 
REMARK       I    between atoms: C1_5  and  N3_10 
REMARK    1  A    between atoms: N3_10  and  N4_12 
REMARK    2  A    between atoms: N4_12  and  C2_14 
ROOT
HETATM    1  C2  UNL     1      10.881  25.385  -7.103  1.00  0.00     0.150 A 
HETATM    2  N5  UNL     1       9.751  24.742  -7.436  1.00  0.00    -0.336 N 
ATOM      3  H5  UNL     1       8.906  24.903  -6.890  1.00  0.00     0.168 HD
HETATM    4  C3  UNL     1       9.711  23.879  -8.490  1.00  0.00     0.182 A 
HETATM    5  N6  UNL     1      10.851  23.699  -9.182  1.00  0.00    -0.346 N 
ATOM      6  H6  UNL     1      10.833  23.054  -9.972  1.00  0.00     0.167 HD
HETATM    7  C4  UNL     1      12.000  24.307  -8.900  1.00  0.00     0.132 A 
HETATM    8  C5  UNL     1      13.167  24.097  -9.641  1.00  0.00     0.275 A 
HETATM    9  O1  UNL     1      13.145  23.303 -10.618  1.00  0.00    -0.266 OA
HETATM   10  N7  UNL     1      14.296  24.725  -9.327  1.00  0.00    -0.318 N 
ATOM     11  H7  UNL     1      15.145  24.572  -9.869  1.00  0.00     0.169 HD
HETATM   12  C6  UNL     1      14.292  25.572  -8.275  1.00  0.00     0.184 A 
HETATM   13  N8  UNL     1      13.174  25.789  -7.547  1.00  0.00    -0.347 N 
ATOM     14  H8  UNL     1      13.208  26.436  -6.759  1.00  0.00     0.167 HD
HETATM   15  C7  UNL     1      12.034  25.177  -7.835  1.00  0.00     0.111 A 
ENDROOT
BRANCH   1  16
HETATM   16  N4  UNL     1      10.928  26.202  -6.109  1.00  0.00    -0.285 N 
ATOM     17  H4  UNL     1      11.029  27.199  -6.300  1.00  0.00     0.188 HD
BRANCH  16  18
HETATM   18  N3  UNL     1      10.846  25.785  -4.784  1.00  0.00    -0.282 N 
HETATM   19  C1  UNL     1       9.559  25.575  -4.162  1.00  0.00     0.494 C 
HETATM   20  N1  UNL     1       9.714  25.146  -2.795  1.00  0.00    -0.032 N 
HETATM   21  N2  UNL     1       8.740  26.765  -4.157  1.00  0.00    -0.032 N 
ATOM     22  H13 UNL     1      10.082  25.879  -2.188  1.00  0.00     0.279 HD
ATOM     23  H12 UNL     1       8.822  25.013  -2.317  1.00  0.00     0.279 HD
ATOM     24  H11 UNL     1      10.292  24.306  -2.798  1.00  0.00     0.279 HD
ATOM     25  H23 UNL     1       7.848  26.632  -3.680  1.00  0.00     0.279 HD
ATOM     26  H22 UNL     1       9.107  27.498  -3.550  1.00  0.00     0.279 HD
ATOM     27  H21 UNL     1       8.630  27.068  -5.125  1.00  0.00     0.279 HD
ATOM     28  H3  UNL     1      11.700  25.626  -4.249  1.00  0.00     0.184 HD
ENDBRANCH  16  18
ENDBRANCH   1  16
TORSDOF 2
ENDMDL
MODEL 4
REMARK VINA RESULT: -4.574076127      1.608      2.321
REMARK  2 active torsions:
REMARK  status: ('A' for Active; 'I' for Inactive)
REMARK       I    between atoms: N1_1  and  C1_5 
REMARK       I    between atoms: C1_5  and  N2_6 
REMARK       I    between atoms: C1_5  and  N3_10 
REMARK    1  A    between atoms: N3_10  and  N4_12 
REMARK    2  A    between atoms: N4_12  and  C2_14 
ROOT
HETATM    1  C2  UNL     1      10.505  26.270  -5.249  1.00  0.00     0.150 A 
HETATM    2  N5  UNL     1      11.538  26.947  -4.724  1.00  0.00    -0.336 N 
ATOM      3  H5  UNL     1      11.410  27.455  -3.849  1.00  0.00     0.168 HD
HETATM    4  C3  UNL     1      12.756  26.970  -5.337  1.00  0.00     0.182 A 
HETATM    5  N6  UNL     1      12.878  26.285  -6.488  1.00  0.00    -0.346 N 
ATOM      6  H6  UNL     1      13.784  26.296  -6.956  1.00  0.00     0.167 HD
HETATM    7  C4  UNL     1      11.892  25.596  -7.056  1.00  0.00     0.132 A 
HETATM    8  C5  UNL     1      12.053  24.894  -8.254  1.00  0.00     0.275 A 
HETATM    9  O1  UNL     1      13.172  24.906  -8.832  1.00  0.00    -0.266 OA
HETATM   10  N7  UNL     1      11.042  24.217  -8.789  1.00  0.00    -0.318 N 
ATOM     11  H7  UNL     1      11.162  23.705  -9.663  1.00  0.00     0.169 HD
HETATM   12  C6  UNL     1       9.853  24.221  -8.150  1.00  0.00     0.184 A 
HETATM   13  N8  UNL     1       9.676  24.893  -6.990  1.00  0.00    -0.347 N 
ATOM     14  H8  UNL     1       8.764  24.873  -6.535  1.00  0.00     0.167 HD
HETATM   15  C7  UNL     1      10.665  25.577  -6.433  1.00  0.00     0.111 A 
ENDROOT
BRANCH   1  16
HETATM   16  N4  UNL     1       9.352  26.244  -4.676  1.00  0.00    -0.285 N 
ATOM     17  H4  UNL     1       8.648  26.924  -4.964  1.00  0.00     0.188 HD
BRANCH  16  18
HETATM   18  N3  UNL     1       9.024  25.328  -3.682  1.00  0.00    -0.282 N 
HETATM   19  C1  UNL     1       8.459  25.779  -2.431  1.00  0.00     0.494 C 
HETATM   20  N1  UNL     1       8.199  24.666  -1.554  1.00  0.00    -0.032 N 
HETATM   21  N2  UNL     1       9.325  26.697  -1.725  1.00  0.00    -0.032 N 
ATOM     22  H13 UNL     1       9.051  24.223  -1.210  1.00  0.00     0.279 HD
ATOM     23  H12 UNL     1       7.823  24.952  -0.650  1.00  0.00     0.279 HD
ATOM     24  H11 UNL     1       7.588  24.018  -2.051  1.00  0.00     0.279 HD
ATOM     25  H23 UNL     1       8.949  26.983  -0.821  1.00  0.00     0.279 HD
ATOM     26  H22 UNL     1      10.177  26.255  -1.381  1.00  0.00     0.279 HD
ATOM     27  H21 UNL     1       9.509  27.486  -2.346  1.00  0.00     0.279 HD
ATOM     28  H3  UNL     1       9.183  24.333  -3.837  1.00  0.00     0.184 HD
ENDBRANCH  16  18
ENDBRANCH   1  16
TORSDOF 2
ENDMDL
MODEL 5
REMARK VINA RESULT: -4.472815594      1.107      1.107
REMARK  2 active torsions:
REMARK  status: ('A' for Active; 'I' for Inactive)
REMARK       I    between atoms: N1_1  and  C1_5 
REMARK       I    between atoms: C1_5  and  N2_6 
REMARK       I    between atoms: C1_5  and  N3_10 
REMARK    1  A    between atoms: N3_10  and  N4_12 
REMARK    2  A    between atoms: N4_12  and  C2_14 
ROOT
HETATM    1  C2  UNL     1      12.630  25.579  -6.646  1.00  0.00     0.150 A 
HETATM    2  N5  UNL     1      13.926  25.337  -6.400  1.00  0.00    -0.336 N 
ATOM      3  H5  UNL     1      14.438  25.951  -5.766  1.00  0.00     0.168 HD
HETATM    4  C3  UNL     1      14.574  24.287  -6.980  1.00  0.00     0.182 A 
HETATM    5  N6  UNL     1      13.858  23.504  -7.808  1.00  0.00    -0.346 N 
ATOM      6  H6  UNL     1      14.332  22.716  -8.248  1.00  0.00     0.167 HD
HETATM    7  C4  UNL     1      12.572  23.694  -8.090  1.00  0.00     0.132 A 
HETATM    8  C5  UNL     1      11.857  22.860  -8.955  1.00  0.00     0.275 A 
HETATM    9  O1  UNL     1      12.442  21.886  -9.498  1.00  0.00    -0.266 OA
HETATM   10  N7  UNL     1      10.572  23.083  -9.210  1.00  0.00    -0.318 N 
ATOM     11  H7  UNL     1      10.052  22.473  -9.841  1.00  0.00     0.169 HD
HETATM   12  C6  UNL     1       9.969  24.135  -8.615  1.00  0.00     0.184 A 
HETATM   13  N8  UNL     1      10.642  24.952  -7.775  1.00  0.00    -0.347 N 
ATOM     14  H8  UNL     1      10.154  25.736  -7.342  1.00  0.00     0.167 HD
HETATM   15  C7  UNL     1      11.924  24.755  -7.501  1.00  0.00     0.111 A 
ENDROOT
BRANCH   1  16
HETATM   16  N4  UNL     1      12.011  26.569  -6.102  1.00  0.00    -0.285 N 
ATOM     17  H4  UNL     1      11.646  27.307  -6.705  1.00  0.00     0.188 HD
BRANCH  16  18
HETATM   18  N3  UNL     1      11.818  26.676  -4.729  1.00  0.00    -0.282 N 
HETATM   19  C1  UNL     1      11.010  25.706  -4.026  1.00  0.00     0.494 C 
HETATM   20  N1  UNL     1      10.949  26.011  -2.620  1.00  0.00    -0.032 N 
HETATM   21  N2  UNL     1       9.653  25.645  -4.520  1.00  0.00    -0.032 N 
ATOM     22  H13 UNL     1      10.415  26.857  -2.420  1.00  0.00     0.279 HD
ATOM     23  H12 UNL     1      10.364  25.358  -2.097  1.00  0.00     0.279 HD
ATOM     24  H11 UNL     1      11.906  26.053  -2.271  1.00  0.00     0.279 HD
ATOM     25  H23 UNL     1       9.069  24.993  -3.998  1.00  0.00     0.279 HD
ATOM     26  H22 UNL     1       9.120  26.491  -4.320  1.00  0.00     0.279 HD
ATOM     27  H21 UNL     1       9.697  25.429  -5.516  1.00  0.00     0.279 HD
ATOM     28  H3  UNL     1      12.249  27.444  -4.214  1.00  0.00     0.184 HD
ENDBRANCH  16  18
ENDBRANCH   1  16
TORSDOF 2
ENDMDL
