MODEL 1
REMARK VINA RESULT: -4.441347462      0.000      0.000
REMARK  1 active torsions:
REMARK  status: ('A' for Active; 'I' for Inactive)
REMARK    1  A    between atoms: N1_2  and  C1_3 
ROOT
HETATM    1  C1  UNL     1     -19.440 -32.703  16.930  1.00  0.00     0.292 C 
HETATM    2  C2  UNL     1     -18.391 -31.610  16.838  1.00  0.00     0.051 C 
HETATM    3  C3  UNL     1     -17.771 -31.700  15.471  1.00  0.00     0.003 C 
HETATM    4  C4  UNL     1     -17.467 -33.100  15.040  1.00  0.00     0.002 C 
HETATM    5  C5  UNL     1     -16.969 -33.989  16.125  1.00  0.00     0.027 C 
HETATM    6  C6  UNL     1     -18.073 -34.673  16.901  1.00  0.00     0.234 C 
HETATM    7  N2  UNL     1     -18.859 -33.781  17.688  1.00  0.00    -0.056 N 
ATOM      8  H21 UNL     1     -19.579 -34.291  18.199  1.00  0.00     0.279 HD
ATOM      9  H22 UNL     1     -18.317 -33.419  18.472  1.00  0.00     0.279 HD
ENDROOT
BRANCH   1  10
HETATM   10  N1  UNL     1     -20.602 -32.142  17.600  1.00  0.00    -0.110 NA
HETATM   11 CL1  UNL     1     -20.130 -31.116  18.916  1.00  0.00    -0.002 Cl
ENDBRANCH   1  10
TORSDOF 1
ENDMDL
MODEL 2
REMARK VINA RESULT: -4.433061884      1.336      2.238
REMARK  1 active torsions:
REMARK  status: ('A' for Active; 'I' for Inactive)
REMARK    1  A    between atoms: N1_2  and  C1_3 
ROOT
HETATM    1  C1  UNL     1     -18.637 -32.336  16.982  1.00  0.00     0.292 C 
HETATM    2  C2  UNL     1     -19.055 -33.794  17.053  1.00  0.00     0.051 C 
HETATM    3  C3  UNL     1     -17.801 -34.609  17.219  1.00  0.00     0.003 C 
HETATM    4  C4  UNL     1     -16.678 -34.171  16.334  1.00  0.00     0.002 C 
HETATM    5  C5  UNL     1     -17.093 -33.743  14.970  1.00  0.00     0.027 C 
HETATM    6  C6  UNL     1     -17.475 -32.281  14.884  1.00  0.00     0.234 C 
HETATM    7  N2  UNL     1     -18.669 -31.957  15.592  1.00  0.00    -0.056 N 
ATOM      8  H21 UNL     1     -18.889 -30.967  15.494  1.00  0.00     0.279 HD
ATOM      9  H22 UNL     1     -19.483 -32.360  15.128  1.00  0.00     0.279 HD
ENDROOT
BRANCH   1  10
HETATM   10  N1  UNL     1     -19.587 -31.567  17.769  1.00  0.00    -0.110 NA
HETATM   11 CL1  UNL     1     -21.028 -32.481  18.078  1.00  0.00    -0.002 Cl
ENDBRANCH   1  10
TORSDOF 1
ENDMDL
MODEL 3
REMARK VINA RESULT: -4.425818576      2.422      3.264
REMARK  1 active torsions:
REMARK  status: ('A' for Active; 'I' for Inactive)
REMARK    1  A    between atoms: N1_2  and  C1_3 
ROOT
HETATM    1  C1  UNL     1     -18.307 -33.651  16.249  1.00  0.00     0.292 C 
HETATM    2  C2  UNL     1     -16.887 -34.156  16.430  1.00  0.00     0.051 C 
HETATM    3  C3  UNL     1     -16.885 -35.618  16.078  1.00  0.00     0.003 C 
HETATM    4  C4  UNL     1     -18.050 -36.372  16.636  1.00  0.00     0.002 C 
HETATM    5  C5  UNL     1     -18.462 -35.953  18.004  1.00  0.00     0.027 C 
HETATM    6  C6  UNL     1     -19.448 -34.806  18.015  1.00  0.00     0.234 C 
HETATM    7  N2  UNL     1     -18.897 -33.572  17.561  1.00  0.00    -0.056 N 
ATOM      8  H21 UNL     1     -19.595 -32.830  17.598  1.00  0.00     0.279 HD
ATOM      9  H22 UNL     1     -18.225 -33.207  18.236  1.00  0.00     0.279 HD
ENDROOT
BRANCH   1  10
HETATM   10  N1  UNL     1     -18.232 -32.344  15.615  1.00  0.00    -0.110 NA
HETATM   11 CL1  UNL     1     -17.030 -32.323  14.366  1.00  0.00    -0.002 Cl
ENDBRANCH   1  10
TORSDOF 1
ENDMDL
MODEL 4
REMARK VINA RESULT: -4.420942887      1.378      2.263
REMARK  1 active torsions:
REMARK  status: ('A' for Active; 'I' for Inactive)
REMARK    1  A    between atoms: N1_2  and  C1_3 
ROOT
HETATM    1  C1  UNL     1     -18.544 -32.247  16.955  1.00  0.00     0.292 C 
HETATM    2  C2  UNL     1     -19.031 -33.680  17.073  1.00  0.00     0.051 C 
HETATM    3  C3  UNL     1     -17.815 -34.553  17.225  1.00  0.00     0.003 C 
HETATM    4  C4  UNL     1     -16.696 -34.191  16.300  1.00  0.00     0.002 C 
HETATM    5  C5  UNL     1     -17.128 -33.773  14.937  1.00  0.00     0.027 C 
HETATM    6  C6  UNL     1     -17.439 -32.297  14.827  1.00  0.00     0.234 C 
HETATM    7  N2  UNL     1     -18.596 -31.898  15.559  1.00  0.00    -0.056 N 
ATOM      8  H21 UNL     1     -18.769 -30.900  15.443  1.00  0.00     0.279 HD
ATOM      9  H22 UNL     1     -19.442 -32.270  15.126  1.00  0.00     0.279 HD
ENDROOT
BRANCH   1  10
HETATM   10  N1  UNL     1     -19.432 -31.413  17.749  1.00  0.00    -0.110 NA
HETATM   11 CL1  UNL     1     -18.600 -30.024  18.368  1.00  0.00    -0.002 Cl
ENDBRANCH   1  10
TORSDOF 1
ENDMDL
MODEL 5
REMARK VINA RESULT: -4.402689078      2.647      3.509
REMARK  1 active torsions:
REMARK  status: ('A' for Active; 'I' for Inactive)
REMARK    1  A    between atoms: N1_2  and  C1_3 
ROOT
HETATM    1  C1  UNL     1     -17.430 -33.952  16.606  1.00  0.00     0.292 C 
HETATM    2  C2  UNL     1     -17.880 -33.091  15.439  1.00  0.00     0.051 C 
HETATM    3  C3  UNL     1     -18.043 -31.688  15.957  1.00  0.00     0.003 C 
HETATM    4  C4  UNL     1     -18.733 -31.614  17.283  1.00  0.00     0.002 C 
HETATM    5  C5  UNL     1     -19.843 -32.590  17.460  1.00  0.00     0.027 C 
HETATM    6  C6  UNL     1     -19.390 -33.933  17.989  1.00  0.00     0.234 C 
HETATM    7  N2  UNL     1     -18.590 -34.671  17.069  1.00  0.00    -0.056 N 
ATOM      8  H21 UNL     1     -18.320 -35.571  17.467  1.00  0.00     0.279 HD
ATOM      9  H22 UNL     1     -19.151 -34.994  16.282  1.00  0.00     0.279 HD
ENDROOT
BRANCH   1  10
HETATM   10  N1  UNL     1     -16.401 -34.854  16.117  1.00  0.00    -0.110 NA
HETATM   11 CL1  UNL     1     -17.071 -36.396  15.689  1.00  0.00    -0.002 Cl
ENDBRANCH   1  10
TORSDOF 1
ENDMDL
