MODEL 1
REMARK VINA RESULT: -4.633037781      0.000      0.000
REMARK  2 active torsions:
REMARK  status: ('A' for Active; 'I' for Inactive)
REMARK    1  A    between atoms: C3_7  and  N2_8 
REMARK    2  A    between atoms: N2_8  and  C4_10 
ROOT
HETATM    1 CL1  UNL     1     -15.066 -27.480  14.585  1.00  0.00    -0.123 Cl
HETATM    2  C1  UNL     1     -16.799 -27.886  14.452  1.00  0.00     0.111 C 
HETATM    3  C2  UNL     1     -17.542 -27.466  15.686  1.00  0.00     0.255 C 
HETATM    4  N1  UNL     1     -17.984 -28.650  16.369  1.00  0.00    -0.053 N 
ATOM      5  H11 UNL     1     -18.832 -28.503  16.917  1.00  0.00     0.279 HD
ATOM      6  H12 UNL     1     -17.374 -28.917  17.142  1.00  0.00     0.279 HD
HETATM    7  C3  UNL     1     -18.126 -29.699  15.361  1.00  0.00     0.281 C 
HETATM    8  C7  UNL     1     -16.990 -29.373  14.431  1.00  0.00     0.076 C 
ENDROOT
BRANCH   7   9
HETATM    9  N2  UNL     1     -17.947 -30.934  16.004  1.00  0.00    -0.391 N 
ATOM     10  H2  UNL     1     -17.643 -30.962  16.978  1.00  0.00     0.155 HD
BRANCH   9  11
HETATM   11  C4  UNL     1     -18.185 -32.128  15.311  1.00  0.00     0.078 A 
HETATM   12  C5  UNL     1     -17.170 -33.109  14.901  1.00  0.00     0.027 A 
HETATM   13  C6  UNL     1     -17.884 -33.398  16.156  1.00  0.00     0.027 A 
ENDBRANCH   9  11
ENDBRANCH   7   9
TORSDOF 2
ENDMDL
MODEL 2
REMARK VINA RESULT: -4.346763998      3.829      4.832
REMARK  2 active torsions:
REMARK  status: ('A' for Active; 'I' for Inactive)
REMARK    1  A    between atoms: C3_7  and  N2_8 
REMARK    2  A    between atoms: N2_8  and  C4_10 
ROOT
HETATM    1 CL1  UNL     1     -20.401 -25.343  11.056  1.00  0.00    -0.123 Cl
HETATM    2  C1  UNL     1     -20.790 -26.253  12.541  1.00  0.00     0.111 C 
HETATM    3  C2  UNL     1     -21.140 -25.320  13.663  1.00  0.00     0.255 C 
HETATM    4  N1  UNL     1     -20.108 -25.407  14.658  1.00  0.00    -0.053 N 
ATOM      5  H11 UNL     1     -20.441 -25.198  15.599  1.00  0.00     0.279 HD
ATOM      6  H12 UNL     1     -19.423 -24.654  14.591  1.00  0.00     0.279 HD
HETATM    7  C3  UNL     1     -19.512 -26.737  14.542  1.00  0.00     0.281 C 
HETATM    8  C7  UNL     1     -19.575 -26.963  13.057  1.00  0.00     0.076 C 
ENDROOT
BRANCH   7   9
HETATM    9  N2  UNL     1     -18.191 -26.654  15.011  1.00  0.00    -0.391 N 
ATOM     10  H2  UNL     1     -17.792 -25.746  15.250  1.00  0.00     0.155 HD
BRANCH   9  11
HETATM   11  C4  UNL     1     -17.422 -27.816  15.151  1.00  0.00     0.078 A 
HETATM   12  C5  UNL     1     -16.637 -28.468  14.093  1.00  0.00     0.027 A 
HETATM   13  C6  UNL     1     -15.896 -27.563  14.988  1.00  0.00     0.027 A 
ENDBRANCH   9  11
ENDBRANCH   7   9
TORSDOF 2
ENDMDL
MODEL 3
REMARK VINA RESULT: -4.319532155      4.094      5.530
REMARK  2 active torsions:
REMARK  status: ('A' for Active; 'I' for Inactive)
REMARK    1  A    between atoms: C3_7  and  N2_8 
REMARK    2  A    between atoms: N2_8  and  C4_10 
ROOT
HETATM    1 CL1  UNL     1     -19.574 -32.461  16.736  1.00  0.00    -0.123 Cl
HETATM    2  C1  UNL     1     -17.846 -32.860  16.541  1.00  0.00     0.111 C 
HETATM    3  C2  UNL     1     -17.411 -32.670  15.118  1.00  0.00     0.255 C 
HETATM    4  N1  UNL     1     -17.103 -33.959  14.565  1.00  0.00    -0.053 N 
ATOM      5  H11 UNL     1     -16.404 -33.921  13.823  1.00  0.00     0.279 HD
ATOM      6  H12 UNL     1     -17.864 -34.348  14.008  1.00  0.00     0.279 HD
HETATM    7  C3  UNL     1     -16.710 -34.820  15.679  1.00  0.00     0.281 C 
HETATM    8  C7  UNL     1     -17.615 -34.323  16.773  1.00  0.00     0.076 C 
ENDROOT
BRANCH   7   9
HETATM    9  N2  UNL     1     -16.997 -36.146  15.314  1.00  0.00    -0.391 N 
ATOM     10  H2  UNL     1     -16.838 -36.455  14.355  1.00  0.00     0.155 HD
BRANCH   9  11
HETATM   11  C4  UNL     1     -17.499 -37.043  16.266  1.00  0.00     0.078 A 
HETATM   12  C5  UNL     1     -18.685 -37.897  16.110  1.00  0.00     0.027 A 
HETATM   13  C6  UNL     1     -17.386 -38.529  15.825  1.00  0.00     0.027 A 
ENDBRANCH   9  11
ENDBRANCH   7   9
TORSDOF 2
ENDMDL
MODEL 4
REMARK VINA RESULT: -4.188910438      4.836      6.921
REMARK  2 active torsions:
REMARK  status: ('A' for Active; 'I' for Inactive)
REMARK    1  A    between atoms: C3_7  and  N2_8 
REMARK    2  A    between atoms: N2_8  and  C4_10 
ROOT
HETATM    1 CL1  UNL     1     -19.012 -38.454  15.565  1.00  0.00    -0.123 Cl
HETATM    2  C1  UNL     1     -17.848 -37.562  16.582  1.00  0.00     0.111 C 
HETATM    3  C2  UNL     1     -18.562 -36.661  17.547  1.00  0.00     0.255 C 
HETATM    4  N1  UNL     1     -18.289 -35.300  17.176  1.00  0.00    -0.053 N 
ATOM      5  H11 UNL     1     -18.324 -34.656  17.966  1.00  0.00     0.279 HD
ATOM      6  H12 UNL     1     -19.038 -34.877  16.628  1.00  0.00     0.279 HD
HETATM    7  C3  UNL     1     -17.000 -35.294  16.487  1.00  0.00     0.281 C 
HETATM    8  C7  UNL     1     -17.050 -36.604  15.750  1.00  0.00     0.076 C 
ENDROOT
BRANCH   7   9
HETATM    9  N2  UNL     1     -16.990 -34.194  15.615  1.00  0.00    -0.391 N 
ATOM     10  H2  UNL     1     -16.228 -34.082  14.946  1.00  0.00     0.155 HD
BRANCH   9  11
HETATM   11  C4  UNL     1     -18.025 -33.251  15.661  1.00  0.00     0.078 A 
HETATM   12  C5  UNL     1     -17.978 -31.945  16.333  1.00  0.00     0.027 A 
HETATM   13  C6  UNL     1     -17.697 -31.942  14.888  1.00  0.00     0.027 A 
ENDBRANCH   9  11
ENDBRANCH   7   9
TORSDOF 2
ENDMDL
MODEL 5
REMARK VINA RESULT: -4.143879222      3.237      5.320
REMARK  2 active torsions:
REMARK  status: ('A' for Active; 'I' for Inactive)
REMARK    1  A    between atoms: C3_7  and  N2_8 
REMARK    2  A    between atoms: N2_8  and  C4_10 
ROOT
HETATM    1 CL1  UNL     1     -15.125 -27.186  14.960  1.00  0.00    -0.123 Cl
HETATM    2  C1  UNL     1     -16.766 -27.775  15.341  1.00  0.00     0.111 C 
HETATM    3  C2  UNL     1     -17.292 -28.645  14.237  1.00  0.00     0.255 C 
HETATM    4  N1  UNL     1     -18.387 -27.960  13.609  1.00  0.00    -0.053 N 
ATOM      5  H11 UNL     1     -19.071 -28.594  13.195  1.00  0.00     0.279 HD
ATOM      6  H12 UNL     1     -18.119 -27.479  12.751  1.00  0.00     0.279 HD
HETATM    7  C3  UNL     1     -18.965 -27.067  14.611  1.00  0.00     0.281 C 
HETATM    8  C7  UNL     1     -17.740 -26.636  15.369  1.00  0.00     0.076 C 
ENDROOT
BRANCH   7   9
HETATM    9  N2  UNL     1     -19.571 -25.999  13.930  1.00  0.00    -0.391 N 
ATOM     10  H2  UNL     1     -19.345 -25.038  14.186  1.00  0.00     0.155 HD
BRANCH   9  11
HETATM   11  C4  UNL     1     -20.486 -26.252  12.900  1.00  0.00     0.078 A 
HETATM   12  C5  UNL     1     -21.506 -25.321  12.399  1.00  0.00     0.027 A 
HETATM   13  C6  UNL     1     -20.247 -25.373  11.639  1.00  0.00     0.027 A 
ENDBRANCH   9  11
ENDBRANCH   7   9
TORSDOF 2
ENDMDL
