MODEL 1
REMARK VINA RESULT: -5.095073840      0.000      0.000
REMARK  1 active torsions:
REMARK  status: ('A' for Active; 'I' for Inactive)
REMARK    1  A    between atoms: C2_2  and  C3_3 
ROOT
HETATM    1  C3  UNL     1      -0.293  34.245 -13.838  1.00  0.00     0.056 C 
HETATM    2  C4  UNL     1       1.014  34.729 -13.120  1.00  0.00     0.095 C 
HETATM    3  C5  UNL     1       1.345  35.915 -13.795  1.00  0.00    -0.163 C 
HETATM    4  C6  UNL     1       1.939  37.114 -14.206  1.00  0.00     0.200 C 
HETATM    5  N1  UNL     1       1.207  37.512 -15.448  1.00  0.00    -0.377 N 
ATOM      6  H1  UNL     1       1.663  38.042 -16.191  1.00  0.00     0.161 HD
HETATM    7  C7  UNL     1      -0.146  37.121 -15.546  1.00  0.00     0.176 C 
HETATM    8  N2  UNL     1      -0.658  35.882 -15.785  1.00  0.00    -0.365 N 
ATOM      9  H2  UNL     1      -1.350  35.871 -16.534  1.00  0.00     0.165 HD
HETATM   10  C8  UNL     1      -0.443  34.653 -15.237  1.00  0.00     0.071 C 
ENDROOT
BRANCH   1  11
HETATM   11  C2  UNL     1      -0.434  32.785 -13.689  1.00  0.00    -0.026 C 
HETATM   12  C1  UNL     1       0.291  32.104 -12.829  1.00  0.00     0.007 C 
ENDBRANCH   1  11
TORSDOF 1
ENDMDL
MODEL 2
REMARK VINA RESULT: -5.094110596      2.757      4.653
REMARK  1 active torsions:
REMARK  status: ('A' for Active; 'I' for Inactive)
REMARK    1  A    between atoms: C2_2  and  C3_3 
ROOT
HETATM    1  C3  UNL     1       0.219  34.553 -13.386  1.00  0.00     0.056 C 
HETATM    2  C4  UNL     1      -0.592  34.483 -14.725  1.00  0.00     0.095 C 
HETATM    3  C5  UNL     1      -0.990  33.139 -14.804  1.00  0.00    -0.163 C 
HETATM    4  C6  UNL     1      -1.572  31.923 -15.180  1.00  0.00     0.200 C 
HETATM    5  N1  UNL     1      -1.033  30.912 -14.218  1.00  0.00    -0.377 N 
ATOM      6  H1  UNL     1      -0.903  29.936 -14.486  1.00  0.00     0.161 HD
HETATM    7  C7  UNL     1      -0.714  31.371 -12.922  1.00  0.00     0.176 C 
HETATM    8  N2  UNL     1       0.343  32.134 -12.527  1.00  0.00    -0.365 N 
ATOM      9  H2  UNL     1       0.845  31.743 -11.730  1.00  0.00     0.165 HD
HETATM   10  C8  UNL     1       0.872  33.310 -12.968  1.00  0.00     0.071 C 
ENDROOT
BRANCH   1  11
HETATM   11  C2  UNL     1       1.182  35.668 -13.442  1.00  0.00    -0.026 C 
HETATM   12  C1  UNL     1       1.755  36.032 -14.568  1.00  0.00     0.007 C 
ENDBRANCH   1  11
TORSDOF 1
ENDMDL
MODEL 3
REMARK VINA RESULT: -4.957869461      1.009      1.196
REMARK  1 active torsions:
REMARK  status: ('A' for Active; 'I' for Inactive)
REMARK    1  A    between atoms: C2_2  and  C3_3 
ROOT
HETATM    1  C3  UNL     1      -0.335  34.961 -14.081  1.00  0.00     0.056 C 
HETATM    2  C4  UNL     1       1.022  35.177 -13.327  1.00  0.00     0.095 C 
HETATM    3  C5  UNL     1       1.501  36.391 -13.843  1.00  0.00    -0.163 C 
HETATM    4  C6  UNL     1       2.242  37.550 -14.101  1.00  0.00     0.200 C 
HETATM    5  N1  UNL     1       1.567  38.201 -15.266  1.00  0.00    -0.377 N 
ATOM      6  H1  UNL     1       2.087  38.764 -15.939  1.00  0.00     0.161 HD
HETATM    7  C7  UNL     1       0.175  37.999 -15.393  1.00  0.00     0.176 C 
HETATM    8  N2  UNL     1      -0.489  36.877 -15.787  1.00  0.00    -0.365 N 
ATOM      9  H2  UNL     1      -1.176  37.054 -16.520  1.00  0.00     0.165 HD
HETATM   10  C8  UNL     1      -0.432  35.569 -15.411  1.00  0.00     0.071 C 
ENDROOT
BRANCH   1  11
HETATM   11  C2  UNL     1      -0.660  33.524 -14.127  1.00  0.00    -0.026 C 
HETATM   12  C1  UNL     1      -1.346  33.000 -15.118  1.00  0.00     0.007 C 
ENDBRANCH   1  11
TORSDOF 1
ENDMDL
MODEL 4
REMARK VINA RESULT: -4.919675464      2.829      4.968
REMARK  1 active torsions:
REMARK  status: ('A' for Active; 'I' for Inactive)
REMARK    1  A    between atoms: C2_2  and  C3_3 
ROOT
HETATM    1  C3  UNL     1      -0.215  33.479 -13.904  1.00  0.00     0.056 C 
HETATM    2  C4  UNL     1       0.587  32.811 -12.735  1.00  0.00     0.095 C 
HETATM    3  C5  UNL     1      -0.011  31.549 -12.597  1.00  0.00    -0.163 C 
HETATM    4  C6  UNL     1      -0.334  30.242 -12.215  1.00  0.00     0.200 C 
HETATM    5  N1  UNL     1      -1.589  29.910 -12.959  1.00  0.00    -0.377 N 
ATOM      6  H1  UNL     1      -2.282  29.266 -12.577  1.00  0.00     0.161 HD
HETATM    7  C7  UNL     1      -1.770  30.530 -14.214  1.00  0.00     0.176 C 
HETATM    8  N2  UNL     1      -2.094  31.825 -14.484  1.00  0.00    -0.365 N 
ATOM      9  H2  UNL     1      -2.875  31.917 -15.133  1.00  0.00     0.165 HD
HETATM   10  C8  UNL     1      -1.597  33.025 -14.072  1.00  0.00     0.071 C 
ENDROOT
BRANCH   1  11
HETATM   11  C2  UNL     1      -0.145  34.946 -13.784  1.00  0.00    -0.026 C 
HETATM   12  C1  UNL     1       1.004  35.585 -13.755  1.00  0.00     0.007 C 
ENDBRANCH   1  11
TORSDOF 1
ENDMDL
MODEL 5
REMARK VINA RESULT: -4.825012964      1.050      2.096
REMARK  1 active torsions:
REMARK  status: ('A' for Active; 'I' for Inactive)
REMARK    1  A    between atoms: C2_2  and  C3_3 
ROOT
HETATM    1  C3  UNL     1       0.228  33.776 -14.057  1.00  0.00     0.056 C 
HETATM    2  C4  UNL     1      -0.774  34.378 -15.100  1.00  0.00     0.095 C 
HETATM    3  C5  UNL     1      -0.350  35.709 -15.240  1.00  0.00    -0.163 C 
HETATM    4  C6  UNL     1      -0.189  37.040 -15.642  1.00  0.00     0.200 C 
HETATM    5  N1  UNL     1       0.853  37.606 -14.730  1.00  0.00    -0.377 N 
ATOM      6  H1  UNL     1       0.859  38.593 -14.474  1.00  0.00     0.161 HD
HETATM    7  C7  UNL     1       1.829  36.710 -14.242  1.00  0.00     0.176 C 
HETATM    8  N2  UNL     1       1.696  35.742 -13.294  1.00  0.00    -0.365 N 
ATOM      9  H2  UNL     1       2.414  35.787 -12.571  1.00  0.00     0.165 HD
HETATM   10  C8  UNL     1       0.808  34.726 -13.105  1.00  0.00     0.071 C 
ENDROOT
BRANCH   1  11
HETATM   11  C2  UNL     1      -0.400  32.638 -13.360  1.00  0.00    -0.026 C 
HETATM   12  C1  UNL     1       0.305  31.793 -12.640  1.00  0.00     0.007 C 
ENDBRANCH   1  11
TORSDOF 1
ENDMDL
