MODEL 1
REMARK VINA RESULT: -4.457242107      0.000      0.000
REMARK  1 active torsions:
REMARK  status: ('A' for Active; 'I' for Inactive)
REMARK    1  A    between atoms: C5_8  and  C6_9 
ROOT
HETATM    1  C1  UNL     1      -0.186  39.978 -15.394  1.00  0.00     0.041 C 
HETATM    2  C2  UNL     1       1.200  39.608 -15.909  1.00  0.00     0.208 C 
HETATM    3  C3  UNL     1       2.200  40.288 -14.989  1.00  0.00     0.264 C 
HETATM    4  N1  UNL     1       2.174  39.714 -13.679  1.00  0.00    -0.071 N 
ATOM      5  H11 UNL     1       1.297  39.938 -13.208  1.00  0.00     0.277 HD
ATOM      6  H12 UNL     1       2.829  40.196 -13.065  1.00  0.00     0.277 HD
HETATM    7  C4  UNL     1       2.411  38.294 -13.653  1.00  0.00     0.265 C 
HETATM    8  C5  UNL     1       1.379  37.638 -14.571  1.00  0.00     0.215 C 
HETATM    9  N2  UNL     1       1.359  38.206 -15.877  1.00  0.00    -0.063 N 
ATOM     10  H21 UNL     1       2.193  37.932 -16.395  1.00  0.00     0.278 HD
ATOM     11  H22 UNL     1       0.642  37.756 -16.447  1.00  0.00     0.278 HD
ENDROOT
BRANCH   8  12
HETATM   12  C6  UNL     1       1.489  36.152 -14.588  1.00  0.00     0.018 A 
HETATM   13  C7  UNL     1       1.075  35.303 -13.451  1.00  0.00     0.007 A 
HETATM   14  C8  UNL     1       0.293  35.316 -14.774  1.00  0.00     0.007 A 
ENDBRANCH   8  12
TORSDOF 1
ENDMDL
MODEL 2
REMARK VINA RESULT: -4.401149552      2.468      3.645
REMARK  1 active torsions:
REMARK  status: ('A' for Active; 'I' for Inactive)
REMARK    1  A    between atoms: C5_8  and  C6_9 
ROOT
HETATM    1  C1  UNL     1       0.116  37.525 -15.079  1.00  0.00     0.041 C 
HETATM    2  C2  UNL     1       0.919  36.288 -15.464  1.00  0.00     0.208 C 
HETATM    3  C3  UNL     1       2.024  36.150 -14.431  1.00  0.00     0.264 C 
HETATM    4  N1  UNL     1       1.493  35.808 -13.147  1.00  0.00    -0.071 N 
ATOM      5  H11 UNL     1       0.966  36.589 -12.759  1.00  0.00     0.277 HD
ATOM      6  H12 UNL     1       2.242  35.744 -12.457  1.00  0.00     0.277 HD
HETATM    7  C4  UNL     1       0.697  34.608 -13.139  1.00  0.00     0.265 C 
HETATM    8  C5  UNL     1      -0.414  34.786 -14.173  1.00  0.00     0.215 C 
HETATM    9  N2  UNL     1       0.077  35.155 -15.458  1.00  0.00    -0.063 N 
ATOM     10  H21 UNL     1       0.545  34.363 -15.898  1.00  0.00     0.278 HD
ATOM     11  H22 UNL     1      -0.697  35.286 -16.108  1.00  0.00     0.278 HD
ENDROOT
BRANCH   8  12
HETATM   12  C6  UNL     1      -1.344  33.623 -14.221  1.00  0.00     0.018 A 
HETATM   13  C7  UNL     1      -1.387  32.676 -15.355  1.00  0.00     0.007 A 
HETATM   14  C8  UNL     1      -0.849  32.260 -13.977  1.00  0.00     0.007 A 
ENDBRANCH   8  12
TORSDOF 1
ENDMDL
MODEL 3
REMARK VINA RESULT: -4.313193985      5.772      7.652
REMARK  1 active torsions:
REMARK  status: ('A' for Active; 'I' for Inactive)
REMARK    1  A    between atoms: C5_8  and  C6_9 
ROOT
HETATM    1  C1  UNL     1       0.123  29.279 -13.865  1.00  0.00     0.041 C 
HETATM    2  C2  UNL     1      -0.979  30.012 -13.108  1.00  0.00     0.208 C 
HETATM    3  C3  UNL     1      -0.290  30.855 -12.048  1.00  0.00     0.264 C 
HETATM    4  N1  UNL     1       0.461  31.918 -12.640  1.00  0.00    -0.071 N 
ATOM      5  H11 UNL     1       1.267  31.549 -13.144  1.00  0.00     0.277 HD
ATOM      6  H12 UNL     1       0.940  32.460 -11.920  1.00  0.00     0.277 HD
HETATM    7  C4  UNL     1      -0.312  32.784 -13.491  1.00  0.00     0.265 C 
HETATM    8  C5  UNL     1      -0.975  31.910 -14.556  1.00  0.00     0.215 C 
HETATM    9  N2  UNL     1      -1.710  30.823 -14.002  1.00  0.00    -0.063 N 
ATOM     10  H21 UNL     1      -2.562  31.163 -13.557  1.00  0.00     0.278 HD
ATOM     11  H22 UNL     1      -2.115  30.255 -14.746  1.00  0.00     0.278 HD
ENDROOT
BRANCH   8  12
HETATM   12  C6  UNL     1      -1.767  32.704 -15.538  1.00  0.00     0.018 A 
HETATM   13  C7  UNL     1      -1.314  34.005 -16.071  1.00  0.00     0.007 A 
HETATM   14  C8  UNL     1      -1.374  32.749 -16.954  1.00  0.00     0.007 A 
ENDBRANCH   8  12
TORSDOF 1
ENDMDL
MODEL 4
REMARK VINA RESULT: -4.312772821      3.734      6.104
REMARK  1 active torsions:
REMARK  status: ('A' for Active; 'I' for Inactive)
REMARK    1  A    between atoms: C5_8  and  C6_9 
ROOT
HETATM    1  C1  UNL     1      -1.446  32.090 -15.660  1.00  0.00     0.041 C 
HETATM    2  C2  UNL     1      -1.940  32.563 -14.297  1.00  0.00     0.208 C 
HETATM    3  C3  UNL     1      -1.417  31.565 -13.277  1.00  0.00     0.264 C 
HETATM    4  N1  UNL     1       0.006  31.646 -13.155  1.00  0.00    -0.071 N 
ATOM      5  H11 UNL     1       0.457  31.305 -14.003  1.00  0.00     0.277 HD
ATOM      6  H12 UNL     1       0.346  30.954 -12.488  1.00  0.00     0.277 HD
HETATM    7  C4  UNL     1       0.495  32.956 -12.815  1.00  0.00     0.265 C 
HETATM    8  C5  UNL     1      -0.031  33.931 -13.869  1.00  0.00     0.215 C 
HETATM    9  N2  UNL     1      -1.443  33.858 -14.037  1.00  0.00    -0.063 N 
ATOM     10  H21 UNL     1      -1.917  34.263 -13.230  1.00  0.00     0.278 HD
ATOM     11  H22 UNL     1      -1.747  34.506 -14.763  1.00  0.00     0.278 HD
ENDROOT
BRANCH   8  12
HETATM   12  C6  UNL     1       0.455  35.324 -13.654  1.00  0.00     0.018 A 
HETATM   13  C7  UNL     1       1.616  35.889 -14.372  1.00  0.00     0.007 A 
HETATM   14  C8  UNL     1       0.184  36.371 -14.650  1.00  0.00     0.007 A 
ENDBRANCH   8  12
TORSDOF 1
ENDMDL
MODEL 5
REMARK VINA RESULT: -4.292529089      2.014      4.061
REMARK  1 active torsions:
REMARK  status: ('A' for Active; 'I' for Inactive)
REMARK    1  A    between atoms: C5_8  and  C6_9 
ROOT
HETATM    1  C1  UNL     1      -0.287  34.343 -15.308  1.00  0.00     0.041 C 
HETATM    2  C2  UNL     1      -0.443  35.397 -14.218  1.00  0.00     0.208 C 
HETATM    3  C3  UNL     1       0.688  35.170 -13.230  1.00  0.00     0.264 C 
HETATM    4  N1  UNL     1       1.956  35.488 -13.812  1.00  0.00    -0.071 N 
ATOM      5  H11 UNL     1       2.196  34.812 -14.537  1.00  0.00     0.277 HD
ATOM      6  H12 UNL     1       2.709  35.306 -13.149  1.00  0.00     0.277 HD
HETATM    7  C4  UNL     1       2.050  36.830 -14.324  1.00  0.00     0.265 C 
HETATM    8  C5  UNL     1       0.912  37.020 -15.327  1.00  0.00     0.215 C 
HETATM    9  N2  UNL     1      -0.364  36.686 -14.789  1.00  0.00    -0.063 N 
ATOM     10  H21 UNL     1      -0.659  37.391 -14.114  1.00  0.00     0.278 HD
ATOM     11  H22 UNL     1      -1.088  36.805 -15.497  1.00  0.00     0.278 HD
ENDROOT
BRANCH   8  12
HETATM   12  C6  UNL     1       0.933  38.365 -15.970  1.00  0.00     0.018 A 
HETATM   13  C7  UNL     1       1.262  38.567 -17.397  1.00  0.00     0.007 A 
HETATM   14  C8  UNL     1      -0.161  38.785 -16.859  1.00  0.00     0.007 A 
ENDBRANCH   8  12
TORSDOF 1
ENDMDL
