MODEL 1
REMARK VINA RESULT: -4.354880897      0.000      0.000
REMARK  1 active torsions:
REMARK  status: ('A' for Active; 'I' for Inactive)
REMARK    1  A    between atoms: C2_2  and  C5_5 
ROOT
HETATM    1  C5  UNL     1      -1.141  31.531 -14.599  1.00  0.00     0.389 C 
HETATM    2  N1  UNL     1      -0.918  32.959 -14.530  1.00  0.00    -0.045 N 
ATOM      3  H11 UNL     1      -0.005  33.207 -14.150  1.00  0.00     0.279 HD
ATOM      4  H12 UNL     1      -1.482  33.422 -13.818  1.00  0.00     0.279 HD
HETATM    5  C6  UNL     1      -1.145  33.480 -15.877  1.00  0.00     0.236 C 
HETATM    6  C7  UNL     1      -2.520  33.114 -16.393  1.00  0.00     0.055 C 
HETATM    7  C8  UNL     1      -3.255  32.366 -15.300  1.00  0.00     0.236 C 
HETATM    8  N2  UNL     1      -2.533  31.216 -14.850  1.00  0.00    -0.045 N 
ATOM      9  H21 UNL     1      -2.975  30.793 -14.032  1.00  0.00     0.279 HD
ATOM     10  H22 UNL     1      -2.629  30.437 -15.500  1.00  0.00     0.279 HD
ENDROOT
BRANCH   1  11
HETATM   11  C2  UNL     1      -0.661  30.812 -13.367  1.00  0.00     0.003 C 
HETATM   12  C1  UNL     1       0.096  29.547 -13.711  1.00  0.00     0.018 C 
HETATM   13  C3  UNL     1      -1.750  30.428 -12.427  1.00  0.00     0.018 C 
HETATM   14  C4  UNL     1       0.302  31.723 -12.609  1.00  0.00     0.018 C 
ENDBRANCH   1  11
TORSDOF 1
ENDMDL
MODEL 2
REMARK VINA RESULT: -4.318124729      0.061      1.334
REMARK  1 active torsions:
REMARK  status: ('A' for Active; 'I' for Inactive)
REMARK    1  A    between atoms: C2_2  and  C5_5 
ROOT
HETATM    1  C5  UNL     1      -1.170  31.534 -14.602  1.00  0.00     0.389 C 
HETATM    2  N1  UNL     1      -0.954  32.964 -14.563  1.00  0.00    -0.045 N 
ATOM      3  H11 UNL     1      -0.035  33.224 -14.205  1.00  0.00     0.279 HD
ATOM      4  H12 UNL     1      -1.507  33.437 -13.849  1.00  0.00     0.279 HD
HETATM    5  C6  UNL     1      -1.209  33.459 -15.915  1.00  0.00     0.236 C 
HETATM    6  C7  UNL     1      -2.591  33.077 -16.398  1.00  0.00     0.055 C 
HETATM    7  C8  UNL     1      -3.301  32.345 -15.278  1.00  0.00     0.236 C 
HETATM    8  N2  UNL     1      -2.564  31.207 -14.821  1.00  0.00    -0.045 N 
ATOM      9  H21 UNL     1      -2.988  30.796 -13.989  1.00  0.00     0.279 HD
ATOM     10  H22 UNL     1      -2.668  30.415 -15.456  1.00  0.00     0.279 HD
ENDROOT
BRANCH   1  11
HETATM   11  C2  UNL     1      -0.662  30.839 -13.368  1.00  0.00     0.003 C 
HETATM   12  C1  UNL     1      -1.790  30.436 -12.442  1.00  0.00     0.018 C 
HETATM   13  C3  UNL     1       0.292  31.653 -12.565  1.00  0.00     0.018 C 
HETATM   14  C4  UNL     1       0.061  29.560 -13.784  1.00  0.00     0.018 C 
ENDBRANCH   1  11
TORSDOF 1
ENDMDL
MODEL 3
REMARK VINA RESULT: -4.267830000      0.148      1.332
REMARK  1 active torsions:
REMARK  status: ('A' for Active; 'I' for Inactive)
REMARK    1  A    between atoms: C2_2  and  C5_5 
ROOT
HETATM    1  C5  UNL     1      -1.173  31.565 -14.727  1.00  0.00     0.389 C 
HETATM    2  N1  UNL     1      -0.903  32.986 -14.719  1.00  0.00    -0.045 N 
ATOM      3  H11 UNL     1       0.035  33.217 -14.391  1.00  0.00     0.279 HD
ATOM      4  H12 UNL     1      -1.417  33.491 -13.997  1.00  0.00     0.279 HD
HETATM    5  C6  UNL     1      -1.180  33.469 -16.070  1.00  0.00     0.236 C 
HETATM    6  C7  UNL     1      -2.588  33.131 -16.507  1.00  0.00     0.055 C 
HETATM    7  C8  UNL     1      -3.292  32.444 -15.355  1.00  0.00     0.236 C 
HETATM    8  N2  UNL     1      -2.585  31.287 -14.900  1.00  0.00    -0.045 N 
ATOM      9  H21 UNL     1      -2.999  30.906 -14.049  1.00  0.00     0.279 HD
ATOM     10  H22 UNL     1      -2.736  30.490 -15.518  1.00  0.00     0.279 HD
ENDROOT
BRANCH   1  11
HETATM   11  C2  UNL     1      -0.656  30.871 -13.496  1.00  0.00     0.003 C 
HETATM   12  C1  UNL     1       0.296  31.748 -12.711  1.00  0.00     0.018 C 
HETATM   13  C3  UNL     1       0.056  29.593 -13.775  1.00  0.00     0.018 C 
HETATM   14  C4  UNL     1      -1.835  30.551 -12.579  1.00  0.00     0.018 C 
ENDBRANCH   1  11
TORSDOF 1
ENDMDL
MODEL 4
REMARK VINA RESULT: -4.227190676      1.221      3.916
REMARK  1 active torsions:
REMARK  status: ('A' for Active; 'I' for Inactive)
REMARK    1  A    between atoms: C2_2  and  C5_5 
ROOT
HETATM    1  C5  UNL     1      -0.881  31.484 -14.353  1.00  0.00     0.389 C 
HETATM    2  N1  UNL     1      -1.859  30.453 -14.079  1.00  0.00    -0.045 N 
ATOM      3  H11 UNL     1      -2.541  30.334 -14.828  1.00  0.00     0.279 HD
ATOM      4  H12 UNL     1      -2.520  30.707 -13.345  1.00  0.00     0.279 HD
HETATM    5  C6  UNL     1      -1.106  29.236 -13.783  1.00  0.00     0.236 C 
HETATM    6  C7  UNL     1      -0.127  29.446 -12.650  1.00  0.00     0.055 C 
HETATM    7  C8  UNL     1      -0.292  30.861 -12.134  1.00  0.00     0.236 C 
HETATM    8  N2  UNL     1      -0.126  31.837 -13.167  1.00  0.00    -0.045 N 
ATOM      9  H21 UNL     1      -0.361  32.773 -12.838  1.00  0.00     0.279 HD
ATOM     10  H22 UNL     1       0.859  31.989 -13.383  1.00  0.00     0.279 HD
ENDROOT
BRANCH   1  11
HETATM   11  C2  UNL     1      -1.496  32.716 -14.961  1.00  0.00     0.003 C 
HETATM   12  C1  UNL     1      -1.251  32.793 -16.452  1.00  0.00     0.018 C 
HETATM   13  C3  UNL     1      -1.005  33.992 -14.371  1.00  0.00     0.018 C 
HETATM   14  C4  UNL     1      -3.008  32.666 -14.753  1.00  0.00     0.018 C 
ENDBRANCH   1  11
TORSDOF 1
ENDMDL
MODEL 5
REMARK VINA RESULT: -4.199404670      1.194      3.903
REMARK  1 active torsions:
REMARK  status: ('A' for Active; 'I' for Inactive)
REMARK    1  A    between atoms: C2_2  and  C5_5 
ROOT
HETATM    1  C5  UNL     1      -0.927  31.453 -14.419  1.00  0.00     0.389 C 
HETATM    2  N1  UNL     1      -1.887  30.411 -14.126  1.00  0.00    -0.045 N 
ATOM      3  H11 UNL     1      -2.559  30.258 -14.878  1.00  0.00     0.279 HD
ATOM      4  H12 UNL     1      -2.561  30.673 -13.406  1.00  0.00     0.279 HD
HETATM    5  C6  UNL     1      -1.114  29.218 -13.788  1.00  0.00     0.236 C 
HETATM    6  C7  UNL     1      -0.151  29.480 -12.651  1.00  0.00     0.055 C 
HETATM    7  C8  UNL     1      -0.349  30.905 -12.178  1.00  0.00     0.236 C 
HETATM    8  N2  UNL     1      -0.192  31.854 -13.237  1.00  0.00    -0.045 N 
ATOM      9  H21 UNL     1      -0.449  32.795 -12.937  1.00  0.00     0.279 HD
ATOM     10  H22 UNL     1       0.792  32.020 -13.447  1.00  0.00     0.279 HD
ENDROOT
BRANCH   1  11
HETATM   11  C2  UNL     1      -1.559  32.655 -15.068  1.00  0.00     0.003 C 
HETATM   12  C1  UNL     1      -3.067  32.644 -14.931  1.00  0.00     0.018 C 
HETATM   13  C3  UNL     1      -1.253  32.790 -16.519  1.00  0.00     0.018 C 
HETATM   14  C4  UNL     1      -1.051  33.916 -14.371  1.00  0.00     0.018 C 
ENDBRANCH   1  11
TORSDOF 1
ENDMDL
