MODEL 1
REMARK VINA RESULT: -4.254806980      0.000      0.000
REMARK  1 active torsions:
REMARK  status: ('A' for Active; 'I' for Inactive)
REMARK    1  A    between atoms: C2_2  and  C3_3 
ROOT
HETATM    1  C3  UNL     1      -3.124  30.260 -13.339  1.00  0.00     0.102 C 
HETATM    2  C4  UNL     1      -3.006  31.621 -13.908  1.00  0.00     0.048 C 
HETATM    3  C5  UNL     1      -1.660  32.106 -14.260  1.00  0.00     0.118 C 
HETATM    4  N1  UNL     1      -0.634  31.126 -14.389  1.00  0.00    -0.397 N 
ATOM      5  H1  UNL     1       0.119  31.214 -15.072  1.00  0.00     0.155 HD
HETATM    6  C6  UNL     1      -0.731  30.012 -13.499  1.00  0.00     0.088 C 
HETATM    7  C7  UNL     1      -0.339  30.324 -12.084  1.00  0.00     0.062 C 
HETATM    8  C8  UNL     1       0.288  28.991 -14.022  1.00  0.00     0.062 C 
HETATM    9  N2  UNL     1      -2.005  29.395 -13.540  1.00  0.00    -0.390 N 
ATOM     10  H2  UNL     1      -2.118  28.394 -13.703  1.00  0.00     0.156 HD
ENDROOT
BRANCH   1  11
HETATM   11  C2  UNL     1      -3.501  30.283 -11.895  1.00  0.00    -0.012 C 
HETATM   12  C1  UNL     1      -4.101  29.244 -11.329  1.00  0.00     0.009 C 
ENDBRANCH   1  11
TORSDOF 1
ENDMDL
MODEL 2
REMARK VINA RESULT: -4.240291000      1.147      3.317
REMARK  1 active torsions:
REMARK  status: ('A' for Active; 'I' for Inactive)
REMARK    1  A    between atoms: C2_2  and  C3_3 
ROOT
HETATM    1  C3  UNL     1      -0.821  30.604 -13.203  1.00  0.00     0.102 C 
HETATM    2  C4  UNL     1      -1.325  31.816 -13.884  1.00  0.00     0.048 C 
HETATM    3  C5  UNL     1      -2.783  32.028 -13.924  1.00  0.00     0.118 C 
HETATM    4  N1  UNL     1      -3.569  31.281 -13.000  1.00  0.00    -0.397 N 
ATOM      5  H1  UNL     1      -4.415  31.661 -12.574  1.00  0.00     0.155 HD
HETATM    6  C6  UNL     1      -3.093  29.965 -12.711  1.00  0.00     0.088 C 
HETATM    7  C7  UNL     1      -3.333  28.973 -13.811  1.00  0.00     0.062 C 
HETATM    8  C8  UNL     1      -3.922  29.496 -11.507  1.00  0.00     0.062 C 
HETATM    9  N2  UNL     1      -1.733  29.955 -12.315  1.00  0.00    -0.390 N 
ATOM     10  H2  UNL     1      -1.423  29.512 -11.450  1.00  0.00     0.156 HD
ENDROOT
BRANCH   1  11
HETATM   11  C2  UNL     1      -0.251  29.613 -14.164  1.00  0.00    -0.012 C 
HETATM   12  C1  UNL     1       0.507  28.610 -13.741  1.00  0.00     0.009 C 
ENDBRANCH   1  11
TORSDOF 1
ENDMDL
MODEL 3
REMARK VINA RESULT: -4.232503658      1.600      3.599
REMARK  1 active torsions:
REMARK  status: ('A' for Active; 'I' for Inactive)
REMARK    1  A    between atoms: C2_2  and  C3_3 
ROOT
HETATM    1  C3  UNL     1      -0.804  32.095 -14.257  1.00  0.00     0.102 C 
HETATM    2  C4  UNL     1      -0.025  31.838 -13.026  1.00  0.00     0.048 C 
HETATM    3  C5  UNL     1      -0.533  30.819 -12.090  1.00  0.00     0.118 C 
HETATM    4  N1  UNL     1      -1.498  29.902 -12.595  1.00  0.00    -0.397 N 
ATOM      5  H1  UNL     1      -1.536  28.929 -12.290  1.00  0.00     0.155 HD
HETATM    6  C6  UNL     1      -2.408  30.436 -13.560  1.00  0.00     0.088 C 
HETATM    7  C7  UNL     1      -3.468  31.323 -12.975  1.00  0.00     0.062 C 
HETATM    8  C8  UNL     1      -3.130  29.216 -14.146  1.00  0.00     0.062 C 
HETATM    9  N2  UNL     1      -1.745  31.087 -14.629  1.00  0.00    -0.390 N 
ATOM     10  H2  UNL     1      -1.927  30.851 -15.604  1.00  0.00     0.156 HD
ENDROOT
BRANCH   1  11
HETATM   11  C2  UNL     1      -1.468  33.432 -14.235  1.00  0.00    -0.012 C 
HETATM   12  C1  UNL     1      -0.758  34.547 -14.128  1.00  0.00     0.009 C 
ENDBRANCH   1  11
TORSDOF 1
ENDMDL
MODEL 4
REMARK VINA RESULT: -4.096090483      1.445      3.291
REMARK  1 active torsions:
REMARK  status: ('A' for Active; 'I' for Inactive)
REMARK    1  A    between atoms: C2_2  and  C3_3 
ROOT
HETATM    1  C3  UNL     1      -0.763  30.530 -12.459  1.00  0.00     0.102 C 
HETATM    2  C4  UNL     1      -0.147  31.574 -13.306  1.00  0.00     0.048 C 
HETATM    3  C5  UNL     1      -1.017  32.293 -14.254  1.00  0.00     0.118 C 
HETATM    4  N1  UNL     1      -2.421  32.213 -14.031  1.00  0.00    -0.397 N 
ATOM      5  H1  UNL     1      -3.050  32.991 -14.232  1.00  0.00     0.155 HD
HETATM    6  C6  UNL     1      -2.890  30.968 -13.506  1.00  0.00     0.088 C 
HETATM    7  C7  UNL     1      -2.925  29.855 -14.511  1.00  0.00     0.062 C 
HETATM    8  C8  UNL     1      -4.344  31.232 -13.092  1.00  0.00     0.062 C 
HETATM    9  N2  UNL     1      -2.186  30.571 -12.342  1.00  0.00    -0.390 N 
ATOM     10  H2  UNL     1      -2.665  30.330 -11.475  1.00  0.00     0.156 HD
ENDROOT
BRANCH   1  11
HETATM   11  C2  UNL     1      -0.322  29.157 -12.846  1.00  0.00    -0.012 C 
HETATM   12  C1  UNL     1       0.475  28.963 -13.888  1.00  0.00     0.009 C 
ENDBRANCH   1  11
TORSDOF 1
ENDMDL
MODEL 5
REMARK VINA RESULT: -4.070428161      1.685      3.658
REMARK  1 active torsions:
REMARK  status: ('A' for Active; 'I' for Inactive)
REMARK    1  A    between atoms: C2_2  and  C3_3 
ROOT
HETATM    1  C3  UNL     1      -0.725  30.632 -14.027  1.00  0.00     0.102 C 
HETATM    2  C4  UNL     1      -1.140  29.218 -13.907  1.00  0.00     0.048 C 
HETATM    3  C5  UNL     1      -2.556  28.892 -14.153  1.00  0.00     0.118 C 
HETATM    4  N1  UNL     1      -3.331  29.865 -14.848  1.00  0.00    -0.397 N 
ATOM      5  H1  UNL     1      -4.074  29.607 -15.497  1.00  0.00     0.155 HD
HETATM    6  C6  UNL     1      -2.996  31.228 -14.573  1.00  0.00     0.088 C 
HETATM    7  C7  UNL     1      -3.471  31.716 -13.236  1.00  0.00     0.062 C 
HETATM    8  C8  UNL     1      -3.750  32.045 -15.632  1.00  0.00     0.062 C 
HETATM    9  N2  UNL     1      -1.615  31.491 -14.742  1.00  0.00    -0.390 N 
ATOM     10  H2  UNL     1      -1.276  32.248 -15.337  1.00  0.00     0.156 HD
ENDROOT
BRANCH   1  11
HETATM   11  C2  UNL     1      -0.385  31.235 -12.705  1.00  0.00    -0.012 C 
HETATM   12  C1  UNL     1       0.488  32.229 -12.611  1.00  0.00     0.009 C 
ENDBRANCH   1  11
TORSDOF 1
ENDMDL
