MODEL 1
REMARK VINA RESULT: -7.599598997      0.000      0.000
REMARK  10 active torsions:
REMARK  status: ('A' for Active; 'I' for Inactive)
REMARK    1  A    between atoms: N1_1  and  C1_4 
REMARK    2  A    between atoms: C2_7  and  O1_8 
REMARK    3  A    between atoms: C3_10  and  N3_11 
REMARK    4  A    between atoms: N6_17  and  N7_18 
REMARK    5  A    between atoms: N7_18  and  C6_19 
REMARK    6  A    between atoms: C6_19  and  C7_20 
REMARK    7  A    between atoms: N9_24  and  C9_25 
REMARK    8  A    between atoms: C9_25  and  C10_26 
REMARK    9  A    between atoms: C12_33  and  N12_34 
REMARK   10  A    between atoms: C13_39  and  N14_40 
ROOT
HETATM    1  N3  UNL     1     -13.664   1.396  10.856  1.00  0.00    -0.246 N 
HETATM    2  C4  UNL     1     -13.227   1.311   9.463  1.00  0.00     0.275 A 
HETATM    3  N4  UNL     1     -14.332   1.813   8.693  1.00  0.00    -0.344 N 
ATOM      4  H4  UNL     1     -14.348   1.889   7.676  1.00  0.00     0.164 HD
HETATM    5  C5  UNL     1     -15.303   2.155   9.480  1.00  0.00     0.224 A 
HETATM    6  N5  UNL     1     -16.547   2.689   9.058  1.00  0.00    -0.061 NA
HETATM    7  N6  UNL     1     -14.957   1.924  10.822  1.00  0.00    -0.165 N 
ENDROOT
BRANCH   7   8
HETATM    8  N7  UNL     1     -15.753   2.172  11.954  1.00  0.00    -0.109 NA
BRANCH   8   9
HETATM    9  C6  UNL     1     -15.669   3.560  12.360  1.00  0.00     0.196 C 
BRANCH   9  10
HETATM   10  C7  UNL     1     -17.029   3.986  12.790  1.00  0.00     0.059 A 
HETATM   11  C8  UNL     1     -18.149   3.246  12.478  1.00  0.00     0.134 A 
HETATM   12  N8  UNL     1     -19.370   3.653  12.881  1.00  0.00    -0.293 N 
HETATM   13  N9  UNL     1     -19.566   4.756  13.581  1.00  0.00    -0.119 N 
ATOM     14  H8  UNL     1     -20.179   3.083  12.635  1.00  0.00     0.186 HD
HETATM   15  C12 UNL     1     -18.461   5.485  13.888  1.00  0.00     0.693 A 
HETATM   16  N13 UNL     1     -17.231   5.112  13.505  1.00  0.00    -0.192 N 
ATOM     17  H13 UNL     1     -16.432   5.692  13.759  1.00  0.00     0.184 HD
BRANCH  13  18
HETATM   18  C9  UNL     1     -20.878   5.193  14.013  1.00  0.00     0.227 C 
BRANCH  18  19
HETATM   19  C10 UNL     1     -21.405   4.286  15.109  1.00  0.00     0.054 A 
HETATM   20  C11 UNL     1     -22.743   3.971  15.169  1.00  0.00     0.097 A 
HETATM   21  S1  UNL     1     -22.789   2.959  16.543  1.00  0.00    -0.009 SA
HETATM   22  N10 UNL     1     -21.153   3.003  16.938  1.00  0.00    -0.270 N 
HETATM   23  N11 UNL     1     -20.644   3.773  16.024  1.00  0.00    -0.297 N 
ATOM     24  H10 UNL     1     -20.676   2.536  17.709  1.00  0.00     0.195 HD
ATOM     25  H11 UNL     1     -19.644   3.974  16.028  1.00  0.00     0.187 HD
ENDBRANCH  18  19
ENDBRANCH  13  18
BRANCH  15  26
HETATM   26  N12 UNL     1     -18.639   6.556  14.565  1.00  0.00    -0.233 N 
ATOM     27 2H12 UNL     1     -18.439   6.581  15.565  1.00  0.00     0.174 HD
ATOM     28 1H12 UNL     1     -18.986   7.372  14.062  1.00  0.00     0.174 HD
ENDBRANCH  15  26
ENDBRANCH   9  10
ENDBRANCH   8   9
ENDBRANCH   7   8
BRANCH   1  29
HETATM   29  C3  UNL     1     -12.894   1.008  11.976  1.00  0.00     0.149 A 
HETATM   30  C2  UNL     1     -12.843  -0.309  12.390  1.00  0.00     0.188 A 
HETATM   31  N2  UNL     1     -12.120  -0.705  13.449  1.00  0.00    -0.168 N 
HETATM   32  C1  UNL     1     -11.421   0.215  14.130  1.00  0.00     0.679 A 
ATOM     33  H2  UNL     1     -12.103  -1.685  13.730  1.00  0.00     0.186 HD
HETATM   34  N15 UNL     1     -11.432   1.518  13.773  1.00  0.00    -0.175 N 
HETATM   35  C13 UNL     1     -12.159   1.919  12.708  1.00  0.00     0.147 A 
ATOM     36  H15 UNL     1     -10.893   2.199  14.308  1.00  0.00     0.186 HD
BRANCH  30  37
HETATM   37  O1  UNL     1     -13.570  -1.230  11.672  1.00  0.00    -0.344 OA
ATOM     38  H1  UNL     1     -13.122  -1.901  11.170  1.00  0.00     0.219 HD
ENDBRANCH  30  37
BRANCH  32  39
HETATM   39  N1  UNL     1     -10.707  -0.105  15.156  1.00  0.00    -0.234 N 
ATOM     40  H12 UNL     1     -10.481  -1.093  15.273  1.00  0.00     0.174 HD
ATOM     41  H11 UNL     1     -10.384   0.598  15.820  1.00  0.00     0.174 HD
ENDBRANCH  32  39
BRANCH  35  42
HETATM   42  N14 UNL     1     -12.186   3.166  12.343  1.00  0.00    -0.383 N 
ATOM     43 2H14 UNL     1     -12.498   3.897  12.983  1.00  0.00     0.157 HD
ATOM     44 1H14 UNL     1     -11.885   3.399  11.397  1.00  0.00     0.157 HD
ENDBRANCH  35  42
ENDBRANCH   1  29
TORSDOF 10
ENDMDL
MODEL 2
REMARK VINA RESULT: -7.415369222      3.489      8.273
REMARK  10 active torsions:
REMARK  status: ('A' for Active; 'I' for Inactive)
REMARK    1  A    between atoms: N1_1  and  C1_4 
REMARK    2  A    between atoms: C2_7  and  O1_8 
REMARK    3  A    between atoms: C3_10  and  N3_11 
REMARK    4  A    between atoms: N6_17  and  N7_18 
REMARK    5  A    between atoms: N7_18  and  C6_19 
REMARK    6  A    between atoms: C6_19  and  C7_20 
REMARK    7  A    between atoms: N9_24  and  C9_25 
REMARK    8  A    between atoms: C9_25  and  C10_26 
REMARK    9  A    between atoms: C12_33  and  N12_34 
REMARK   10  A    between atoms: C13_39  and  N14_40 
ROOT
HETATM    1  N3  UNL     1     -21.012   2.809  12.505  1.00  0.00    -0.246 N 
HETATM    2  C4  UNL     1     -21.518   1.585  11.884  1.00  0.00     0.275 A 
HETATM    3  N4  UNL     1     -20.893   1.535  10.592  1.00  0.00    -0.344 N 
ATOM      4  H4  UNL     1     -21.035   0.798   9.902  1.00  0.00     0.164 HD
HETATM    5  C5  UNL     1     -20.121   2.564  10.432  1.00  0.00     0.224 A 
HETATM    6  N5  UNL     1     -19.349   2.835   9.273  1.00  0.00    -0.061 NA
HETATM    7  N6  UNL     1     -20.150   3.386  11.571  1.00  0.00    -0.165 N 
ENDROOT
BRANCH   7   8
HETATM    8  N7  UNL     1     -19.442   4.586  11.765  1.00  0.00    -0.109 NA
BRANCH   8   9
HETATM    9  C6  UNL     1     -18.406   4.428  12.764  1.00  0.00     0.196 C 
BRANCH   9  10
HETATM   10  C7  UNL     1     -17.282   3.684  12.132  1.00  0.00     0.059 A 
HETATM   11  C8  UNL     1     -16.774   2.532  12.692  1.00  0.00     0.134 A 
HETATM   12  N8  UNL     1     -15.757   1.876  12.097  1.00  0.00    -0.293 N 
HETATM   13  N9  UNL     1     -15.197   2.283  10.973  1.00  0.00    -0.119 N 
ATOM     14  H8  UNL     1     -15.404   1.025  12.536  1.00  0.00     0.186 HD
HETATM   15  C12 UNL     1     -15.698   3.419  10.421  1.00  0.00     0.693 A 
HETATM   16  N13 UNL     1     -16.709   4.098  10.983  1.00  0.00    -0.192 N 
ATOM     17  H13 UNL     1     -17.052   4.946  10.531  1.00  0.00     0.184 HD
BRANCH  13  18
HETATM   18  C9  UNL     1     -14.104   1.577  10.336  1.00  0.00     0.227 C 
BRANCH  18  19
HETATM   19  C10 UNL     1     -13.112   1.085  11.372  1.00  0.00     0.054 A 
HETATM   20  C11 UNL     1     -12.447   1.978  12.180  1.00  0.00     0.097 A 
HETATM   21  S1  UNL     1     -11.491   0.927  13.127  1.00  0.00    -0.009 SA
HETATM   22  N10 UNL     1     -11.986  -0.534  12.453  1.00  0.00    -0.270 N 
HETATM   23  N11 UNL     1     -12.845  -0.172  11.549  1.00  0.00    -0.297 N 
ATOM     24  H10 UNL     1     -11.684  -1.477  12.696  1.00  0.00     0.195 HD
ATOM     25  H11 UNL     1     -13.310  -0.877  10.976  1.00  0.00     0.187 HD
ENDBRANCH  18  19
ENDBRANCH  13  18
BRANCH  15  26
HETATM   26  N12 UNL     1     -15.163   3.823   9.332  1.00  0.00    -0.233 N 
ATOM     27 2H12 UNL     1     -14.736   4.748   9.270  1.00  0.00     0.174 HD
ATOM     28 1H12 UNL     1     -15.185   3.183   8.538  1.00  0.00     0.174 HD
ENDBRANCH  15  26
ENDBRANCH   9  10
ENDBRANCH   8   9
ENDBRANCH   7   8
BRANCH   1  29
HETATM   29  C3  UNL     1     -21.360   3.271  13.796  1.00  0.00     0.149 A 
HETATM   30  C2  UNL     1     -22.116   4.414  13.970  1.00  0.00     0.188 A 
HETATM   31  N2  UNL     1     -22.458   4.873  15.182  1.00  0.00    -0.168 N 
HETATM   32  C1  UNL     1     -22.052   4.195  16.267  1.00  0.00     0.679 A 
ATOM     33  H2  UNL     1     -23.017   5.721  15.278  1.00  0.00     0.186 HD
HETATM   34  N15 UNL     1     -21.311   3.071  16.159  1.00  0.00    -0.175 N 
HETATM   35  C13 UNL     1     -20.963   2.606  14.939  1.00  0.00     0.147 A 
ATOM     36  H15 UNL     1     -21.013   2.574  16.998  1.00  0.00     0.186 HD
BRANCH  30  37
HETATM   37  O1  UNL     1     -22.518   5.088  12.840  1.00  0.00    -0.344 OA
ATOM     38  H1  UNL     1     -22.794   4.603  12.071  1.00  0.00     0.219 HD
ENDBRANCH  30  37
BRANCH  32  39
HETATM   39  N1  UNL     1     -22.352   4.588  17.458  1.00  0.00    -0.234 N 
ATOM     40  H12 UNL     1     -22.117   5.551  17.701  1.00  0.00     0.174 HD
ATOM     41  H11 UNL     1     -22.804   3.964  18.126  1.00  0.00     0.174 HD
ENDBRANCH  32  39
BRANCH  35  42
HETATM   42  N14 UNL     1     -20.252   1.526  14.809  1.00  0.00    -0.383 N 
ATOM     43 2H14 UNL     1     -20.639   0.609  15.033  1.00  0.00     0.157 HD
ATOM     44 1H14 UNL     1     -19.293   1.617  14.475  1.00  0.00     0.157 HD
ENDBRANCH  35  42
ENDBRANCH   1  29
TORSDOF 10
ENDMDL
MODEL 3
REMARK VINA RESULT: -7.368383250      3.496      8.457
REMARK  10 active torsions:
REMARK  status: ('A' for Active; 'I' for Inactive)
REMARK    1  A    between atoms: N1_1  and  C1_4 
REMARK    2  A    between atoms: C2_7  and  O1_8 
REMARK    3  A    between atoms: C3_10  and  N3_11 
REMARK    4  A    between atoms: N6_17  and  N7_18 
REMARK    5  A    between atoms: N7_18  and  C6_19 
REMARK    6  A    between atoms: C6_19  and  C7_20 
REMARK    7  A    between atoms: N9_24  and  C9_25 
REMARK    8  A    between atoms: C9_25  and  C10_26 
REMARK    9  A    between atoms: C12_33  and  N12_34 
REMARK   10  A    between atoms: C13_39  and  N14_40 
ROOT
HETATM    1  N3  UNL     1     -20.139   4.291  14.128  1.00  0.00    -0.246 N 
HETATM    2  C4  UNL     1     -19.317   5.130  15.000  1.00  0.00     0.275 A 
HETATM    3  N4  UNL     1     -18.451   5.856  14.113  1.00  0.00    -0.344 N 
ATOM      4  H4  UNL     1     -17.749   6.534  14.407  1.00  0.00     0.164 HD
HETATM    5  C5  UNL     1     -18.693   5.522  12.884  1.00  0.00     0.224 A 
HETATM    6  N5  UNL     1     -18.023   6.043  11.748  1.00  0.00    -0.061 NA
HETATM    7  N6  UNL     1     -19.720   4.564  12.825  1.00  0.00    -0.165 N 
ENDROOT
BRANCH   7   8
HETATM    8  N7  UNL     1     -20.253   3.968  11.668  1.00  0.00    -0.109 NA
BRANCH   8   9
HETATM    9  C6  UNL     1     -19.866   2.576  11.570  1.00  0.00     0.196 C 
BRANCH   9  10
HETATM   10  C7  UNL     1     -18.445   2.534  11.127  1.00  0.00     0.059 A 
HETATM   11  C8  UNL     1     -17.407   2.509  12.034  1.00  0.00     0.134 A 
HETATM   12  N8  UNL     1     -16.129   2.469  11.606  1.00  0.00    -0.293 N 
HETATM   13  N9  UNL     1     -15.798   2.454  10.328  1.00  0.00    -0.119 N 
ATOM     14  H8  UNL     1     -15.384   2.450  12.302  1.00  0.00     0.186 HD
HETATM   15  C12 UNL     1     -16.822   2.479   9.435  1.00  0.00     0.693 A 
HETATM   16  N13 UNL     1     -18.105   2.518   9.822  1.00  0.00    -0.192 N 
ATOM     17  H13 UNL     1     -18.839   2.535   9.114  1.00  0.00     0.184 HD
BRANCH  13  18
HETATM   18  C9  UNL     1     -14.424   2.411   9.870  1.00  0.00     0.227 C 
BRANCH  18  19
HETATM   19  C10 UNL     1     -13.553   1.670  10.867  1.00  0.00     0.054 A 
HETATM   20  C11 UNL     1     -12.859   2.360  11.833  1.00  0.00     0.097 A 
HETATM   21  S1  UNL     1     -12.071   1.087  12.655  1.00  0.00    -0.009 SA
HETATM   22  N10 UNL     1     -12.661  -0.199  11.742  1.00  0.00    -0.270 N 
HETATM   23  N11 UNL     1     -13.421   0.380  10.862  1.00  0.00    -0.297 N 
ATOM     24  H10 UNL     1     -12.468  -1.194  11.853  1.00  0.00     0.195 HD
ATOM     25  H11 UNL     1     -13.914  -0.181  10.167  1.00  0.00     0.187 HD
ENDBRANCH  18  19
ENDBRANCH  13  18
BRANCH  15  26
HETATM   26  N12 UNL     1     -16.512   2.464   8.193  1.00  0.00    -0.233 N 
ATOM     27 2H12 UNL     1     -15.645   2.030   7.876  1.00  0.00     0.174 HD
ATOM     28 1H12 UNL     1     -17.168   2.901   7.546  1.00  0.00     0.174 HD
ENDBRANCH  15  26
ENDBRANCH   9  10
ENDBRANCH   8   9
ENDBRANCH   7   8
BRANCH   1  29
HETATM   29  C3  UNL     1     -21.144   3.399  14.569  1.00  0.00     0.149 A 
HETATM   30  C2  UNL     1     -22.469   3.786  14.634  1.00  0.00     0.188 A 
HETATM   31  N2  UNL     1     -23.441   2.960  15.048  1.00  0.00    -0.168 N 
HETATM   32  C1  UNL     1     -23.113   1.711  15.411  1.00  0.00     0.679 A 
ATOM     33  H2  UNL     1     -24.410   3.275  15.085  1.00  0.00     0.186 HD
HETATM   34  N15 UNL     1     -21.835   1.276  15.369  1.00  0.00    -0.175 N 
HETATM   35  C13 UNL     1     -20.854   2.106  14.953  1.00  0.00     0.147 A 
ATOM     36  H15 UNL     1     -21.611   0.322  15.651  1.00  0.00     0.186 HD
BRANCH  30  37
HETATM   37  O1  UNL     1     -22.775   5.073  14.255  1.00  0.00    -0.344 OA
ATOM     38  H1  UNL     1     -22.959   5.268  13.343  1.00  0.00     0.219 HD
ENDBRANCH  30  37
BRANCH  32  39
HETATM   39  N1  UNL     1     -24.005   0.872  15.817  1.00  0.00    -0.234 N 
ATOM     40  H12 UNL     1     -24.501   1.103  16.678  1.00  0.00     0.174 HD
ATOM     41  H11 UNL     1     -24.205   0.016  15.299  1.00  0.00     0.174 HD
ENDBRANCH  32  39
BRANCH  35  42
HETATM   42  N14 UNL     1     -19.616   1.711  14.902  1.00  0.00    -0.383 N 
ATOM     43 2H14 UNL     1     -18.944   1.987  15.618  1.00  0.00     0.157 HD
ATOM     44 1H14 UNL     1     -19.331   1.115  14.125  1.00  0.00     0.157 HD
ENDBRANCH  35  42
ENDBRANCH   1  29
TORSDOF 10
ENDMDL
MODEL 4
REMARK VINA RESULT: -7.349260691      4.502      8.267
REMARK  10 active torsions:
REMARK  status: ('A' for Active; 'I' for Inactive)
REMARK    1  A    between atoms: N1_1  and  C1_4 
REMARK    2  A    between atoms: C2_7  and  O1_8 
REMARK    3  A    between atoms: C3_10  and  N3_11 
REMARK    4  A    between atoms: N6_17  and  N7_18 
REMARK    5  A    between atoms: N7_18  and  C6_19 
REMARK    6  A    between atoms: C6_19  and  C7_20 
REMARK    7  A    between atoms: N9_24  and  C9_25 
REMARK    8  A    between atoms: C9_25  and  C10_26 
REMARK    9  A    between atoms: C12_33  and  N12_34 
REMARK   10  A    between atoms: C13_39  and  N14_40 
ROOT
HETATM    1  N3  UNL     1     -21.434   0.836   8.909  1.00  0.00    -0.246 N 
HETATM    2  C4  UNL     1     -22.851   0.778   8.551  1.00  0.00     0.275 A 
HETATM    3  N4  UNL     1     -23.555   1.139   9.751  1.00  0.00    -0.344 N 
ATOM      4  H4  UNL     1     -24.570   1.196   9.838  1.00  0.00     0.164 HD
HETATM    5  C5  UNL     1     -22.712   1.382  10.704  1.00  0.00     0.224 A 
HETATM    6  N5  UNL     1     -23.060   1.766  12.025  1.00  0.00    -0.061 NA
HETATM    7  N6  UNL     1     -21.392   1.214  10.253  1.00  0.00    -0.165 N 
ENDROOT
BRANCH   7   8
HETATM    8  N7  UNL     1     -20.215   1.390  11.001  1.00  0.00    -0.109 NA
BRANCH   8   9
HETATM    9  C6  UNL     1     -19.824   2.784  11.044  1.00  0.00     0.196 C 
BRANCH   9  10
HETATM   10  C7  UNL     1     -18.344   2.841  10.893  1.00  0.00     0.059 A 
HETATM   11  C8  UNL     1     -17.531   3.290  11.911  1.00  0.00     0.134 A 
HETATM   12  N8  UNL     1     -16.193   3.329  11.749  1.00  0.00    -0.293 N 
HETATM   13  N9  UNL     1     -15.592   2.953  10.635  1.00  0.00    -0.119 N 
ATOM     14  H8  UNL     1     -15.619   3.666  12.522  1.00  0.00     0.186 HD
HETATM   15  C12 UNL     1     -16.394   2.510   9.631  1.00  0.00     0.693 A 
HETATM   16  N13 UNL     1     -17.728   2.456   9.756  1.00  0.00    -0.192 N 
ATOM     17  H13 UNL     1     -18.288   2.116   8.975  1.00  0.00     0.184 HD
BRANCH  13  18
HETATM   18  C9  UNL     1     -14.154   2.996  10.462  1.00  0.00     0.227 C 
BRANCH  18  19
HETATM   19  C10 UNL     1     -13.490   1.881  11.248  1.00  0.00     0.054 A 
HETATM   20  C11 UNL     1     -12.981   2.121  12.503  1.00  0.00     0.097 A 
HETATM   21  S1  UNL     1     -12.370   0.581  12.918  1.00  0.00    -0.009 SA
HETATM   22  N10 UNL     1     -12.791  -0.240  11.510  1.00  0.00    -0.270 N 
HETATM   23  N11 UNL     1     -13.370   0.674  10.790  1.00  0.00    -0.297 N 
ATOM     24  H10 UNL     1     -12.630  -1.220  11.277  1.00  0.00     0.195 HD
ATOM     25  H11 UNL     1     -13.729   0.441   9.865  1.00  0.00     0.187 HD
ENDBRANCH  18  19
ENDBRANCH  13  18
BRANCH  15  26
HETATM   26  N12 UNL     1     -15.822   2.142   8.548  1.00  0.00    -0.233 N 
ATOM     27 2H12 UNL     1     -15.535   1.172   8.411  1.00  0.00     0.174 HD
ATOM     28 1H12 UNL     1     -15.670   2.857   7.837  1.00  0.00     0.174 HD
ENDBRANCH  15  26
ENDBRANCH   9  10
ENDBRANCH   8   9
ENDBRANCH   7   8
BRANCH   1  29
HETATM   29  C3  UNL     1     -20.361   0.556   8.032  1.00  0.00     0.149 A 
HETATM   30  C2  UNL     1     -19.685   1.568   7.379  1.00  0.00     0.188 A 
HETATM   31  N2  UNL     1     -18.665   1.330   6.542  1.00  0.00    -0.168 N 
HETATM   32  C1  UNL     1     -18.286   0.059   6.333  1.00  0.00     0.679 A 
ATOM     33  H2  UNL     1     -18.185   2.099   6.074  1.00  0.00     0.186 HD
HETATM   34  N15 UNL     1     -18.910  -0.972   6.944  1.00  0.00    -0.175 N 
HETATM   35  C13 UNL     1     -19.938  -0.735   7.786  1.00  0.00     0.147 A 
ATOM     36  H15 UNL     1     -18.604  -1.929   6.768  1.00  0.00     0.186 HD
BRANCH  30  37
HETATM   37  O1  UNL     1     -20.095   2.860   7.612  1.00  0.00    -0.344 OA
ATOM     38  H1  UNL     1     -19.474   3.505   7.930  1.00  0.00     0.219 HD
ENDBRANCH  30  37
BRANCH  32  39
HETATM   39  N1  UNL     1     -17.311  -0.231   5.540  1.00  0.00    -0.234 N 
ATOM     40  H12 UNL     1     -16.671  -0.966   5.842  1.00  0.00     0.174 HD
ATOM     41  H11 UNL     1     -17.186   0.254   4.652  1.00  0.00     0.174 HD
ENDBRANCH  32  39
BRANCH  35  42
HETATM   42  N14 UNL     1     -20.553  -1.710   8.387  1.00  0.00    -0.383 N 
ATOM     43 2H14 UNL     1     -21.432  -2.081   8.026  1.00  0.00     0.157 HD
ATOM     44 1H14 UNL     1     -20.134  -2.098   9.232  1.00  0.00     0.157 HD
ENDBRANCH  35  42
ENDBRANCH   1  29
TORSDOF 10
ENDMDL
MODEL 5
REMARK VINA RESULT: -7.320307658      1.605      2.355
REMARK  10 active torsions:
REMARK  status: ('A' for Active; 'I' for Inactive)
REMARK    1  A    between atoms: N1_1  and  C1_4 
REMARK    2  A    between atoms: C2_7  and  O1_8 
REMARK    3  A    between atoms: C3_10  and  N3_11 
REMARK    4  A    between atoms: N6_17  and  N7_18 
REMARK    5  A    between atoms: N7_18  and  C6_19 
REMARK    6  A    between atoms: C6_19  and  C7_20 
REMARK    7  A    between atoms: N9_24  and  C9_25 
REMARK    8  A    between atoms: C9_25  and  C10_26 
REMARK    9  A    between atoms: C12_33  and  N12_34 
REMARK   10  A    between atoms: C13_39  and  N14_40 
ROOT
HETATM    1  N3  UNL     1     -15.133   1.942  10.800  1.00  0.00    -0.246 N 
HETATM    2  C4  UNL     1     -15.221   1.790   9.347  1.00  0.00     0.275 A 
HETATM    3  N4  UNL     1     -16.543   2.240   9.005  1.00  0.00    -0.344 N 
ATOM      4  H4  UNL     1     -16.925   2.263   8.059  1.00  0.00     0.164 HD
HETATM    5  C5  UNL     1     -17.177   2.611  10.072  1.00  0.00     0.224 A 
HETATM    6  N5  UNL     1     -18.504   3.109  10.103  1.00  0.00    -0.061 NA
HETATM    7  N6  UNL     1     -16.366   2.453  11.209  1.00  0.00    -0.165 N 
ENDROOT
BRANCH   7   8
HETATM    8  N7  UNL     1     -16.711   2.751  12.540  1.00  0.00    -0.109 NA
BRANCH   8   9
HETATM    9  C6  UNL     1     -16.809   4.181  12.748  1.00  0.00     0.196 C 
BRANCH   9  10
HETATM   10  C7  UNL     1     -18.154   4.460  13.321  1.00  0.00     0.059 A 
HETATM   11  C8  UNL     1     -18.309   5.224  14.458  1.00  0.00     0.134 A 
HETATM   12  N8  UNL     1     -19.539   5.464  14.955  1.00  0.00    -0.293 N 
HETATM   13  N9  UNL     1     -20.643   4.996  14.403  1.00  0.00    -0.119 N 
ATOM     14  H8  UNL     1     -19.621   6.034  15.797  1.00  0.00     0.186 HD
HETATM   15  C12 UNL     1     -20.489   4.243  13.282  1.00  0.00     0.693 A 
HETATM   16  N13 UNL     1     -19.283   3.983  12.758  1.00  0.00    -0.192 N 
ATOM     17  H13 UNL     1     -19.217   3.413  11.915  1.00  0.00     0.184 HD
BRANCH  13  18
HETATM   18  C9  UNL     1     -21.964   5.254  14.938  1.00  0.00     0.227 C 
BRANCH  18  19
HETATM   19  C10 UNL     1     -22.170   4.496  16.236  1.00  0.00     0.054 A 
HETATM   20  C11 UNL     1     -23.132   4.899  17.133  1.00  0.00     0.097 A 
HETATM   21  S1  UNL     1     -22.942   3.739  18.372  1.00  0.00    -0.009 SA
HETATM   22  N10 UNL     1     -21.690   2.847  17.687  1.00  0.00    -0.270 N 
HETATM   23  N11 UNL     1     -21.468   3.455  16.561  1.00  0.00    -0.297 N 
ATOM     24  H10 UNL     1     -21.219   2.025  18.065  1.00  0.00     0.195 HD
ATOM     25  H11 UNL     1     -20.741   3.114  15.932  1.00  0.00     0.187 HD
ENDBRANCH  18  19
ENDBRANCH  13  18
BRANCH  15  26
HETATM   26  N12 UNL     1     -21.552   3.784  12.738  1.00  0.00    -0.233 N 
ATOM     27 2H12 UNL     1     -22.420   3.706  13.269  1.00  0.00     0.174 HD
ATOM     28 1H12 UNL     1     -21.490   3.504  11.759  1.00  0.00     0.174 HD
ENDBRANCH  15  26
ENDBRANCH   9  10
ENDBRANCH   8   9
ENDBRANCH   7   8
BRANCH   1  29
HETATM   29  C3  UNL     1     -14.001   1.621  11.584  1.00  0.00     0.149 A 
HETATM   30  C2  UNL     1     -12.809   2.302  11.436  1.00  0.00     0.188 A 
HETATM   31  N2  UNL     1     -11.721   2.017  12.167  1.00  0.00    -0.168 N 
HETATM   32  C1  UNL     1     -11.795   1.033  13.076  1.00  0.00     0.679 A 
ATOM     33  H2  UNL     1     -10.854   2.538  12.034  1.00  0.00     0.186 HD
HETATM   34  N15 UNL     1     -12.934   0.332  13.265  1.00  0.00    -0.175 N 
HETATM   35  C13 UNL     1     -14.031   0.616  12.530  1.00  0.00     0.147 A 
ATOM     36  H15 UNL     1     -12.966  -0.412  13.962  1.00  0.00     0.186 HD
BRANCH  30  37
HETATM   37  O1  UNL     1     -12.762   3.306  10.496  1.00  0.00    -0.344 OA
ATOM     38  H1  UNL     1     -13.567   3.637  10.116  1.00  0.00     0.219 HD
ENDBRANCH  30  37
BRANCH  32  39
HETATM   39  N1  UNL     1     -10.782   0.715  13.808  1.00  0.00    -0.234 N 
ATOM     40  H12 UNL     1     -10.594   1.303  14.620  1.00  0.00     0.174 HD
ATOM     41  H11 UNL     1     -10.196  -0.089  13.585  1.00  0.00     0.174 HD
ENDBRANCH  32  39
BRANCH  35  42
HETATM   42  N14 UNL     1     -15.140  -0.043  12.694  1.00  0.00    -0.383 N 
ATOM     43 2H14 UNL     1     -15.718  -0.310  11.897  1.00  0.00     0.157 HD
ATOM     44 1H14 UNL     1     -15.419  -0.289  13.644  1.00  0.00     0.157 HD
ENDBRANCH  35  42
ENDBRANCH   1  29
TORSDOF 10
ENDMDL
