MODEL 1
REMARK VINA RESULT: -9.119046300      0.000      0.000
REMARK  9 active torsions:
REMARK  status: ('A' for Active; 'I' for Inactive)
REMARK    1  A    between atoms: O1_2  and  C2_3 
REMARK    2  A    between atoms: C4_6  and  C5_7 
REMARK    3  A    between atoms: C5_7  and  O3_8 
REMARK    4  A    between atoms: C5_7  and  O4_10 
REMARK       I    between atoms: N1_13  and  C7_14 
REMARK    5  A    between atoms: C7_14  and  C8_16 
REMARK    6  A    between atoms: C8_16  and  N2_17 
REMARK    7  A    between atoms: N7_29  and  O6_30 
REMARK    8  A    between atoms: C14_35  and  C15_36 
REMARK    9  A    between atoms: C15_36  and  O8_37 
ROOT
HETATM    1  C2  UNL     1     -18.102   2.241   8.136  1.00  0.00     0.195 A 
HETATM    2  O2  UNL     1     -18.029   2.808   9.334  1.00  0.00    -0.286 OA
HETATM    3  C3  UNL     1     -16.815   2.731   9.815  1.00  0.00     0.107 A 
HETATM    4  C4  UNL     1     -16.243   3.193  10.981  1.00  0.00     0.047 A 
HETATM    5  C6  UNL     1     -14.900   2.979  11.226  1.00  0.00     0.118 A 
HETATM    6  N1  UNL     1     -14.116   2.328  10.337  1.00  0.00    -0.257 N 
HETATM    7  C7  UNL     1     -12.758   1.977  10.722  1.00  0.00     0.250 C 
HETATM    8  O5  UNL     1     -12.085   1.405   9.795  1.00  0.00    -0.271 OA
HETATM    9  C12 UNL     1     -14.675   1.892   9.213  1.00  0.00     0.268 A 
HETATM   10  O7  UNL     1     -13.923   1.289   8.362  1.00  0.00    -0.267 OA
HETATM   11  C13 UNL     1     -16.026   2.057   8.886  1.00  0.00     0.080 A 
HETATM   12  C14 UNL     1     -16.835   1.756   7.840  1.00  0.00     0.042 A 
ENDROOT
BRANCH   7  13
HETATM   13  C8  UNL     1     -12.237   2.251  12.047  1.00  0.00     0.254 C 
BRANCH  13  14
HETATM   14  N2  UNL     1     -12.141   1.065  12.883  1.00  0.00    -0.263 N 
HETATM   15  N3  UNL     1     -11.173   0.179  12.834  1.00  0.00    -0.280 N 
HETATM   16  C9  UNL     1     -11.284  -0.758  13.809  1.00  0.00     0.148 A 
ATOM     17  H3  UNL     1     -10.423   0.194  12.142  1.00  0.00     0.189 HD
HETATM   18  N4  UNL     1     -10.481  -1.750  14.028  1.00  0.00    -0.382 N 
HETATM   19  C10 UNL     1     -12.426  -0.446  14.531  1.00  0.00     0.170 A 
ATOM     20  H42 UNL     1      -9.640  -1.979  13.497  1.00  0.00     0.157 HD
ATOM     21  H41 UNL     1     -10.564  -2.455  14.761  1.00  0.00     0.157 HD
HETATM   22  C11 UNL     1     -12.929   0.692  13.918  1.00  0.00     0.171 A 
HETATM   23  N7  UNL     1     -13.324  -0.806  15.569  1.00  0.00    -0.140 N 
HETATM   24  N5  UNL     1     -14.126   1.043  14.598  1.00  0.00    -0.264 N 
HETATM   25  N6  UNL     1     -14.509  -0.151  15.260  1.00  0.00     0.008 NA
ATOM     26  H5  UNL     1     -14.600   1.946  14.607  1.00  0.00     0.186 HD
BRANCH  23  27
HETATM   27  O6  UNL     1     -12.996  -1.568  16.642  1.00  0.00    -0.269 OA
ATOM     28  H6  UNL     1     -12.491  -2.372  16.600  1.00  0.00     0.246 HD
ENDBRANCH  23  27
ENDBRANCH  13  14
ENDBRANCH   7  13
BRANCH   4  29
HETATM   29  C5  UNL     1     -17.097   3.929  11.932  1.00  0.00     0.292 C 
BRANCH  29  30
HETATM   30  O3  UNL     1     -16.417   4.101  13.118  1.00  0.00    -0.367 OA
ATOM     31  H3  UNL     1     -16.978   4.548  13.740  1.00  0.00     0.213 HD
ENDBRANCH  29  30
BRANCH  29  32
HETATM   32  O4  UNL     1     -17.564   5.120  11.447  1.00  0.00    -0.367 OA
ATOM     33  H4  UNL     1     -18.443   5.333  11.736  1.00  0.00     0.213 HD
ENDBRANCH  29  32
ENDBRANCH   4  29
BRANCH  12  34
HETATM   34  C15 UNL     1     -16.494   1.144   6.535  1.00  0.00     0.208 C 
BRANCH  34  35
HETATM   35  O8  UNL     1     -17.609   0.450   5.965  1.00  0.00    -0.396 OA
ATOM     36  H8  UNL     1     -17.830   0.783   5.103  1.00  0.00     0.209 HD
ENDBRANCH  34  35
ENDBRANCH  12  34
BRANCH   1  37
HETATM   37  O1  UNL     1     -19.234   2.181   7.361  1.00  0.00    -0.335 OA
HETATM   38  C1  UNL     1     -20.489   2.521   7.887  1.00  0.00     0.212 C 
ENDBRANCH   1  37
TORSDOF 9
ENDMDL
MODEL 2
REMARK VINA RESULT: -9.112797079      0.831      1.803
REMARK  9 active torsions:
REMARK  status: ('A' for Active; 'I' for Inactive)
REMARK    1  A    between atoms: O1_2  and  C2_3 
REMARK    2  A    between atoms: C4_6  and  C5_7 
REMARK    3  A    between atoms: C5_7  and  O3_8 
REMARK    4  A    between atoms: C5_7  and  O4_10 
REMARK       I    between atoms: N1_13  and  C7_14 
REMARK    5  A    between atoms: C7_14  and  C8_16 
REMARK    6  A    between atoms: C8_16  and  N2_17 
REMARK    7  A    between atoms: N7_29  and  O6_30 
REMARK    8  A    between atoms: C14_35  and  C15_36 
REMARK    9  A    between atoms: C15_36  and  O8_37 
ROOT
HETATM    1  C2  UNL     1     -18.049   2.358   8.582  1.00  0.00     0.195 A 
HETATM    2  O2  UNL     1     -17.923   2.952   9.762  1.00  0.00    -0.286 OA
HETATM    3  C3  UNL     1     -16.703   2.832  10.219  1.00  0.00     0.107 A 
HETATM    4  C4  UNL     1     -16.085   3.297  11.360  1.00  0.00     0.047 A 
HETATM    5  C6  UNL     1     -14.747   3.029  11.581  1.00  0.00     0.118 A 
HETATM    6  N1  UNL     1     -14.013   2.320  10.693  1.00  0.00    -0.257 N 
HETATM    7  C7  UNL     1     -12.665   1.918  11.059  1.00  0.00     0.250 C 
HETATM    8  O5  UNL     1     -12.039   1.292  10.133  1.00  0.00    -0.271 OA
HETATM    9  C12 UNL     1     -14.617   1.881   9.594  1.00  0.00     0.268 A 
HETATM   10  O7  UNL     1     -13.912   1.222   8.744  1.00  0.00    -0.267 OA
HETATM   11  C13 UNL     1     -15.966   2.099   9.292  1.00  0.00     0.080 A 
HETATM   12  C14 UNL     1     -16.811   1.808   8.272  1.00  0.00     0.042 A 
ENDROOT
BRANCH   7  13
HETATM   13  C8  UNL     1     -12.102   2.201  12.364  1.00  0.00     0.254 C 
BRANCH  13  14
HETATM   14  N2  UNL     1     -12.477   1.226  13.376  1.00  0.00    -0.263 N 
HETATM   15  N3  UNL     1     -13.625   1.195  14.010  1.00  0.00    -0.280 N 
HETATM   16  C9  UNL     1     -13.740   0.107  14.813  1.00  0.00     0.148 A 
ATOM     17  H3  UNL     1     -14.349   1.907  13.911  1.00  0.00     0.189 HD
HETATM   18  N4  UNL     1     -14.754  -0.210  15.553  1.00  0.00    -0.382 N 
HETATM   19  C10 UNL     1     -12.558  -0.607  14.685  1.00  0.00     0.170 A 
ATOM     20  H42 UNL     1     -15.624   0.315  15.647  1.00  0.00     0.157 HD
ATOM     21  H41 UNL     1     -14.840  -1.028  16.157  1.00  0.00     0.157 HD
HETATM   22  C11 UNL     1     -11.800   0.128  13.785  1.00  0.00     0.171 A 
HETATM   23  N7  UNL     1     -11.772  -1.710  15.107  1.00  0.00    -0.140 N 
HETATM   24  N5  UNL     1     -10.556  -0.541  13.637  1.00  0.00    -0.264 N 
HETATM   25  N6  UNL     1     -10.465  -1.360  14.792  1.00  0.00     0.008 NA
ATOM     26  H5  UNL     1      -9.883  -0.452  12.876  1.00  0.00     0.186 HD
BRANCH  23  27
HETATM   27  O6  UNL     1     -12.272  -2.859  15.625  1.00  0.00    -0.269 OA
ATOM     28  H6  UNL     1     -11.893  -3.721  15.494  1.00  0.00     0.246 HD
ENDBRANCH  23  27
ENDBRANCH  13  14
ENDBRANCH   7  13
BRANCH   4  29
HETATM   29  C5  UNL     1     -16.882   4.096  12.308  1.00  0.00     0.292 C 
BRANCH  29  30
HETATM   30  O3  UNL     1     -17.421   5.182  11.652  1.00  0.00    -0.367 OA
ATOM     31  H3  UNL     1     -18.282   4.955  11.322  1.00  0.00     0.213 HD
ENDBRANCH  29  30
BRANCH  29  32
HETATM   32  O4  UNL     1     -17.847   3.377  12.960  1.00  0.00    -0.367 OA
ATOM     33  H4  UNL     1     -18.585   3.900  13.250  1.00  0.00     0.213 HD
ENDBRANCH  29  32
ENDBRANCH   4  29
BRANCH  12  34
HETATM   34  C15 UNL     1     -16.528   1.148   6.977  1.00  0.00     0.208 C 
BRANCH  34  35
HETATM   35  O8  UNL     1     -17.027   1.908   5.871  1.00  0.00    -0.396 OA
ATOM     36  H8  UNL     1     -17.784   1.495   5.471  1.00  0.00     0.209 HD
ENDBRANCH  34  35
ENDBRANCH  12  34
BRANCH   1  37
HETATM   37  O1  UNL     1     -19.200   2.330   7.833  1.00  0.00    -0.335 OA
HETATM   38  C1  UNL     1     -20.456   2.202   8.443  1.00  0.00     0.212 C 
ENDBRANCH   1  37
TORSDOF 9
ENDMDL
MODEL 3
REMARK VINA RESULT: -8.771027509      3.300      5.703
REMARK  9 active torsions:
REMARK  status: ('A' for Active; 'I' for Inactive)
REMARK    1  A    between atoms: O1_2  and  C2_3 
REMARK    2  A    between atoms: C4_6  and  C5_7 
REMARK    3  A    between atoms: C5_7  and  O3_8 
REMARK    4  A    between atoms: C5_7  and  O4_10 
REMARK       I    between atoms: N1_13  and  C7_14 
REMARK    5  A    between atoms: C7_14  and  C8_16 
REMARK    6  A    between atoms: C8_16  and  N2_17 
REMARK    7  A    between atoms: N7_29  and  O6_30 
REMARK    8  A    between atoms: C14_35  and  C15_36 
REMARK    9  A    between atoms: C15_36  and  O8_37 
ROOT
HETATM    1  C2  UNL     1     -21.633   4.656  13.518  1.00  0.00     0.195 A 
HETATM    2  O2  UNL     1     -21.672   3.700  12.599  1.00  0.00    -0.286 OA
HETATM    3  C3  UNL     1     -20.480   3.468  12.113  1.00  0.00     0.107 A 
HETATM    4  C4  UNL     1     -20.013   2.566  11.182  1.00  0.00     0.047 A 
HETATM    5  C6  UNL     1     -18.667   2.530  10.867  1.00  0.00     0.118 A 
HETATM    6  N1  UNL     1     -17.781   3.362  11.461  1.00  0.00    -0.257 N 
HETATM    7  C7  UNL     1     -16.415   3.403  10.966  1.00  0.00     0.250 C 
HETATM    8  O5  UNL     1     -15.646   4.187  11.624  1.00  0.00    -0.271 OA
HETATM    9  C12 UNL     1     -18.241   4.224  12.361  1.00  0.00     0.268 A 
HETATM   10  O7  UNL     1     -17.394   5.002  12.936  1.00  0.00    -0.267 OA
HETATM   11  C13 UNL     1     -19.585   4.335  12.736  1.00  0.00     0.080 A 
HETATM   12  C14 UNL     1     -20.311   5.072  13.613  1.00  0.00     0.042 A 
ENDROOT
BRANCH   7  13
HETATM   13  C8  UNL     1     -15.986   2.625   9.820  1.00  0.00     0.254 C 
BRANCH  13  14
HETATM   14  N2  UNL     1     -14.804   1.819  10.083  1.00  0.00    -0.263 N 
HETATM   15  N3  UNL     1     -13.852   1.566   9.216  1.00  0.00    -0.280 N 
HETATM   16  C9  UNL     1     -12.818   0.884   9.773  1.00  0.00     0.148 A 
ATOM     17  H3  UNL     1     -13.883   1.850   8.237  1.00  0.00     0.189 HD
HETATM   18  N4  UNL     1     -11.731   0.503   9.183  1.00  0.00    -0.382 N 
HETATM   19  C10 UNL     1     -13.150   0.678  11.104  1.00  0.00     0.170 A 
ATOM     20  H42 UNL     1     -11.487   0.655   8.204  1.00  0.00     0.157 HD
ATOM     21  H41 UNL     1     -10.955  -0.010   9.601  1.00  0.00     0.157 HD
HETATM   22  C11 UNL     1     -14.395   1.272  11.251  1.00  0.00     0.171 A 
HETATM   23  N7  UNL     1     -12.808   0.086  12.346  1.00  0.00    -0.140 N 
HETATM   24  N5  UNL     1     -14.806   1.063  12.595  1.00  0.00    -0.264 N 
HETATM   25  N6  UNL     1     -14.011  -0.028  13.032  1.00  0.00     0.008 NA
ATOM     26  H5  UNL     1     -15.509   1.578  13.123  1.00  0.00     0.186 HD
BRANCH  23  27
HETATM   27  O6  UNL     1     -11.543  -0.205  12.739  1.00  0.00    -0.269 OA
ATOM     28  H6  UNL     1     -11.261  -1.050  13.070  1.00  0.00     0.246 HD
ENDBRANCH  23  27
ENDBRANCH  13  14
ENDBRANCH   7  13
BRANCH   4  29
HETATM   29  C5  UNL     1     -20.978   1.641  10.561  1.00  0.00     0.292 C 
BRANCH  29  30
HETATM   30  O3  UNL     1     -20.297   0.682   9.844  1.00  0.00    -0.367 OA
ATOM     31  H3  UNL     1     -20.909   0.025   9.535  1.00  0.00     0.213 HD
ENDBRANCH  29  30
BRANCH  29  32
HETATM   32  O4  UNL     1     -21.850   1.074  11.450  1.00  0.00    -0.367 OA
ATOM     33  H4  UNL     1     -21.560   1.120  12.354  1.00  0.00     0.213 HD
ENDBRANCH  29  32
ENDBRANCH   4  29
BRANCH  12  34
HETATM   34  C15 UNL     1     -19.851   6.062  14.613  1.00  0.00     0.208 C 
BRANCH  34  35
HETATM   35  O8  UNL     1     -20.909   6.932  15.028  1.00  0.00    -0.396 OA
ATOM     36  H8  UNL     1     -20.587   7.661  15.546  1.00  0.00     0.209 HD
ENDBRANCH  34  35
ENDBRANCH  12  34
BRANCH   1  37
HETATM   37  O1  UNL     1     -22.716   5.109  14.230  1.00  0.00    -0.335 OA
HETATM   38  C1  UNL     1     -23.188   4.412  15.351  1.00  0.00     0.212 C 
ENDBRANCH   1  37
TORSDOF 9
ENDMDL
MODEL 4
REMARK VINA RESULT: -8.754463152      3.263      5.104
REMARK  9 active torsions:
REMARK  status: ('A' for Active; 'I' for Inactive)
REMARK    1  A    between atoms: O1_2  and  C2_3 
REMARK    2  A    between atoms: C4_6  and  C5_7 
REMARK    3  A    between atoms: C5_7  and  O3_8 
REMARK    4  A    between atoms: C5_7  and  O4_10 
REMARK       I    between atoms: N1_13  and  C7_14 
REMARK    5  A    between atoms: C7_14  and  C8_16 
REMARK    6  A    between atoms: C8_16  and  N2_17 
REMARK    7  A    between atoms: N7_29  and  O6_30 
REMARK    8  A    between atoms: C14_35  and  C15_36 
REMARK    9  A    between atoms: C15_36  and  O8_37 
ROOT
HETATM    1  C2  UNL     1     -21.739   3.988  13.579  1.00  0.00     0.195 A 
HETATM    2  O2  UNL     1     -20.724   4.813  13.807  1.00  0.00    -0.286 OA
HETATM    3  C3  UNL     1     -19.719   4.548  13.013  1.00  0.00     0.107 A 
HETATM    4  C4  UNL     1     -18.483   5.135  12.848  1.00  0.00     0.047 A 
HETATM    5  C6  UNL     1     -17.606   4.647  11.898  1.00  0.00     0.118 A 
HETATM    6  N1  UNL     1     -17.934   3.600  11.107  1.00  0.00    -0.257 N 
HETATM    7  C7  UNL     1     -16.912   3.019  10.252  1.00  0.00     0.250 C 
HETATM    8  O5  UNL     1     -17.335   2.064   9.510  1.00  0.00    -0.271 OA
HETATM    9  C12 UNL     1     -19.130   3.045  11.270  1.00  0.00     0.268 A 
HETATM   10  O7  UNL     1     -19.446   2.061  10.505  1.00  0.00    -0.267 OA
HETATM   11  C13 UNL     1     -20.077   3.468  12.210  1.00  0.00     0.080 A 
HETATM   12  C14 UNL     1     -21.339   3.125  12.567  1.00  0.00     0.042 A 
ENDROOT
BRANCH   7  13
HETATM   13  C8  UNL     1     -15.541   3.486  10.261  1.00  0.00     0.254 C 
BRANCH  13  14
HETATM   14  N2  UNL     1     -14.568   2.414  10.406  1.00  0.00    -0.263 N 
HETATM   15  N3  UNL     1     -13.670   2.079   9.510  1.00  0.00    -0.280 N 
HETATM   16  C9  UNL     1     -12.823   1.120   9.964  1.00  0.00     0.148 A 
ATOM     17  H3  UNL     1     -13.614   2.491   8.579  1.00  0.00     0.189 HD
HETATM   18  N4  UNL     1     -11.829   0.594   9.324  1.00  0.00    -0.382 N 
HETATM   19  C10 UNL     1     -13.227   0.815  11.256  1.00  0.00     0.170 A 
ATOM     20  H42 UNL     1     -11.532   0.819   8.374  1.00  0.00     0.157 HD
ATOM     21  H41 UNL     1     -11.193  -0.127   9.665  1.00  0.00     0.157 HD
HETATM   22  C11 UNL     1     -14.317   1.640  11.488  1.00  0.00     0.171 A 
HETATM   23  N7  UNL     1     -13.053   0.001  12.405  1.00  0.00    -0.140 N 
HETATM   24  N5  UNL     1     -14.798   1.347  12.791  1.00  0.00    -0.264 N 
HETATM   25  N6  UNL     1     -14.269   0.062  13.073  1.00  0.00     0.008 NA
ATOM     26  H5  UNL     1     -15.387   1.928  13.388  1.00  0.00     0.186 HD
BRANCH  23  27
HETATM   27  O6  UNL     1     -11.891  -0.608  12.750  1.00  0.00    -0.269 OA
ATOM     28  H6  UNL     1     -11.322  -1.068  12.144  1.00  0.00     0.246 HD
ENDBRANCH  23  27
ENDBRANCH  13  14
ENDBRANCH   7  13
BRANCH   4  29
HETATM   29  C5  UNL     1     -18.144   6.295  13.692  1.00  0.00     0.292 C 
BRANCH  29  30
HETATM   30  O3  UNL     1     -17.276   5.899  14.687  1.00  0.00    -0.367 OA
ATOM     31  H3  UNL     1     -17.773   5.642  15.454  1.00  0.00     0.213 HD
ENDBRANCH  29  30
BRANCH  29  32
HETATM   32  O4  UNL     1     -17.647   7.361  12.992  1.00  0.00    -0.367 OA
ATOM     33  H4  UNL     1     -17.816   7.319  12.058  1.00  0.00     0.213 HD
ENDBRANCH  29  32
ENDBRANCH   4  29
BRANCH  12  34
HETATM   34  C15 UNL     1     -22.246   2.121  11.964  1.00  0.00     0.208 C 
BRANCH  34  35
HETATM   35  O8  UNL     1     -23.280   1.724  12.870  1.00  0.00    -0.396 OA
ATOM     36  H8  UNL     1     -23.145   0.842  13.196  1.00  0.00     0.209 HD
ENDBRANCH  34  35
ENDBRANCH  12  34
BRANCH   1  37
HETATM   37  O1  UNL     1     -22.947   4.026  14.232  1.00  0.00    -0.335 OA
HETATM   38  C1  UNL     1     -23.022   4.344  15.596  1.00  0.00     0.212 C 
ENDBRANCH   1  37
TORSDOF 9
ENDMDL
MODEL 5
REMARK VINA RESULT: -8.598594851      1.393      1.722
REMARK  9 active torsions:
REMARK  status: ('A' for Active; 'I' for Inactive)
REMARK    1  A    between atoms: O1_2  and  C2_3 
REMARK    2  A    between atoms: C4_6  and  C5_7 
REMARK    3  A    between atoms: C5_7  and  O3_8 
REMARK    4  A    between atoms: C5_7  and  O4_10 
REMARK       I    between atoms: N1_13  and  C7_14 
REMARK    5  A    between atoms: C7_14  and  C8_16 
REMARK    6  A    between atoms: C8_16  and  N2_17 
REMARK    7  A    between atoms: N7_29  and  O6_30 
REMARK    8  A    between atoms: C14_35  and  C15_36 
REMARK    9  A    between atoms: C15_36  and  O8_37 
ROOT
HETATM    1  C2  UNL     1     -19.844   2.144   9.080  1.00  0.00     0.195 A 
HETATM    2  O2  UNL     1     -19.436   2.894  10.096  1.00  0.00    -0.286 OA
HETATM    3  C3  UNL     1     -18.131   2.961  10.133  1.00  0.00     0.107 A 
HETATM    4  C4  UNL     1     -17.255   3.630  10.962  1.00  0.00     0.047 A 
HETATM    5  C6  UNL     1     -15.892   3.534  10.753  1.00  0.00     0.118 A 
HETATM    6  N1  UNL     1     -15.385   2.797   9.738  1.00  0.00    -0.257 N 
HETATM    7  C7  UNL     1     -13.948   2.587   9.672  1.00  0.00     0.250 C 
HETATM    8  O5  UNL     1     -13.566   1.916   8.650  1.00  0.00    -0.271 OA
HETATM    9  C12 UNL     1     -16.237   2.161   8.941  1.00  0.00     0.268 A 
HETATM   10  O7  UNL     1     -15.753   1.475   7.967  1.00  0.00    -0.267 OA
HETATM   11  C13 UNL     1     -17.629   2.196   9.083  1.00  0.00     0.080 A 
HETATM   12  C14 UNL     1     -18.704   1.691   8.428  1.00  0.00     0.042 A 
ENDROOT
BRANCH   7  13
HETATM   13  C8  UNL     1     -13.047   3.093  10.688  1.00  0.00     0.254 C 
BRANCH  13  14
HETATM   14  N2  UNL     1     -12.766   2.127  11.739  1.00  0.00    -0.263 N 
HETATM   15  N3  UNL     1     -11.573   1.689  12.067  1.00  0.00    -0.280 N 
HETATM   16  C9  UNL     1     -11.603   0.884  13.159  1.00  0.00     0.148 A 
ATOM     17  H3  UNL     1     -10.721   1.927  11.559  1.00  0.00     0.189 HD
HETATM   18  N4  UNL     1     -10.593   0.311  13.730  1.00  0.00    -0.382 N 
HETATM   19  C10 UNL     1     -12.931   0.795  13.550  1.00  0.00     0.170 A 
ATOM     20  H42 UNL     1      -9.616   0.376  13.443  1.00  0.00     0.157 HD
ATOM     21  H41 UNL     1     -10.615  -0.295  14.552  1.00  0.00     0.157 HD
HETATM   22  C11 UNL     1     -13.619   1.580  12.637  1.00  0.00     0.171 A 
HETATM   23  N7  UNL     1     -13.887   0.218  14.425  1.00  0.00    -0.140 N 
HETATM   24  N5  UNL     1     -14.998   1.503  12.968  1.00  0.00    -0.264 N 
HETATM   25  N6  UNL     1     -15.098   0.325  13.753  1.00  0.00     0.008 NA
ATOM     26  H5  UNL     1     -15.744   2.145  12.704  1.00  0.00     0.186 HD
BRANCH  23  27
HETATM   27  O6  UNL     1     -13.612  -0.245  15.670  1.00  0.00    -0.269 OA
ATOM     28  H6  UNL     1     -14.034   0.058  16.465  1.00  0.00     0.246 HD
ENDBRANCH  23  27
ENDBRANCH  13  14
ENDBRANCH   7  13
BRANCH   4  29
HETATM   29  C5  UNL     1     -17.815   4.456  12.047  1.00  0.00     0.292 C 
BRANCH  29  30
HETATM   30  O3  UNL     1     -17.079   4.263  13.196  1.00  0.00    -0.367 OA
ATOM     31  H3  UNL     1     -16.172   4.101  12.965  1.00  0.00     0.213 HD
ENDBRANCH  29  30
BRANCH  29  32
HETATM   32  O4  UNL     1     -17.914   5.785  11.735  1.00  0.00    -0.367 OA
ATOM     33  H4  UNL     1     -18.172   6.332  12.466  1.00  0.00     0.213 HD
ENDBRANCH  29  32
ENDBRANCH   4  29
BRANCH  12  34
HETATM   34  C15 UNL     1     -18.755   0.903   7.175  1.00  0.00     0.208 C 
BRANCH  34  35
HETATM   35  O8  UNL     1     -18.138   1.596   6.085  1.00  0.00    -0.396 OA
ATOM     36  H8  UNL     1     -17.821   2.453   6.345  1.00  0.00     0.209 HD
ENDBRANCH  34  35
ENDBRANCH  12  34
BRANCH   1  37
HETATM   37  O1  UNL     1     -21.157   1.901   8.758  1.00  0.00    -0.335 OA
HETATM   38  C1  UNL     1     -22.068   1.454   9.726  1.00  0.00     0.212 C 
ENDBRANCH   1  37
TORSDOF 9
ENDMDL
