MODEL 1
REMARK VINA RESULT: -8.741520710      0.000      0.000
REMARK  8 active torsions:
REMARK  status: ('A' for Active; 'I' for Inactive)
REMARK    1  A    between atoms: N1_1  and  C1_4 
REMARK    2  A    between atoms: C2_7  and  N3_8 
REMARK    3  A    between atoms: N6_16  and  N7_17 
REMARK    4  A    between atoms: N7_17  and  C7_19 
REMARK    5  A    between atoms: C11_26  and  C12_27 
REMARK    6  A    between atoms: C12_27  and  O1_28 
REMARK    7  A    between atoms: C12_27  and  O2_30 
REMARK    8  A    between atoms: C13_32  and  C14_33 
ROOT
HETATM    1  C1  UNL     1     -20.762   1.611   9.447  1.00  0.00     0.727 A 
HETATM    2  N2  UNL     1     -20.468   0.972   8.305  1.00  0.00    -0.019 N 
ATOM      3  H2  UNL     1     -21.215   0.486   7.807  1.00  0.00     0.203 HD
HETATM    4  C2  UNL     1     -19.224   0.947   7.793  1.00  0.00     0.725 A 
HETATM    5  N5  UNL     1     -18.289   1.600   8.490  1.00  0.00    -0.016 N 
ATOM      6  H5  UNL     1     -17.332   1.606   8.137  1.00  0.00     0.203 HD
HETATM    7  C6  UNL     1     -18.564   2.259   9.656  1.00  0.00     0.756 A 
HETATM    8  N6  UNL     1     -17.766   2.991  10.524  1.00  0.00    -0.061 N 
HETATM    9  C13 UNL     1     -18.534   3.434  11.526  1.00  0.00     0.208 A 
HETATM   10  N14 UNL     1     -19.794   2.961  11.247  1.00  0.00    -0.244 N 
ATOM     11  H14 UNL     1     -20.617   3.128  11.826  1.00  0.00     0.190 HD
HETATM   12  N15 UNL     1     -19.792   2.273  10.144  1.00  0.00     0.094 N 
ENDROOT
BRANCH   8  13
HETATM   13  N7  UNL     1     -16.417   3.090  10.329  1.00  0.00    -0.276 N 
ATOM     14  H7  UNL     1     -16.138   4.071  10.327  1.00  0.00     0.188 HD
BRANCH  13  15
HETATM   15  C7  UNL     1     -15.321   2.293  10.136  1.00  0.00     0.077 A 
HETATM   16  C8  UNL     1     -14.870   2.166   8.803  1.00  0.00     0.119 A 
HETATM   17  N8  UNL     1     -13.769   1.519   8.457  1.00  0.00    -0.371 N 
HETATM   18  C9  UNL     1     -13.002   0.933   9.381  1.00  0.00     0.114 A 
ATOM     19  H8  UNL     1     -13.503   1.466   7.473  1.00  0.00     0.164 HD
HETATM   20  C10 UNL     1     -13.393   1.028  10.687  1.00  0.00     0.075 A 
HETATM   21  N9  UNL     1     -12.608   0.421  11.703  1.00  0.00    -0.100 NA
HETATM   22  C11 UNL     1     -14.560   1.711  11.093  1.00  0.00     0.051 A 
BRANCH  22  23
HETATM   23  C12 UNL     1     -14.857   1.820  12.527  1.00  0.00     0.292 C 
BRANCH  23  24
HETATM   24  O1  UNL     1     -15.913   1.111  13.008  1.00  0.00    -0.367 OA
ATOM     25  H1  UNL     1     -16.317   1.413  13.813  1.00  0.00     0.213 HD
ENDBRANCH  23  24
BRANCH  23  26
HETATM   26  O2  UNL     1     -14.881   3.166  12.943  1.00  0.00    -0.367 OA
ATOM     27  H2  UNL     1     -14.970   3.233  13.886  1.00  0.00     0.213 HD
ENDBRANCH  23  26
ENDBRANCH  22  23
ENDBRANCH  13  15
ENDBRANCH   8  13
BRANCH   9  28
HETATM   28  C14 UNL     1     -18.236   4.228  12.722  1.00  0.00     0.186 A 
HETATM   29  N10 UNL     1     -19.137   4.295  13.738  1.00  0.00    -0.266 N 
HETATM   30  N11 UNL     1     -18.630   5.054  14.670  1.00  0.00    -0.226 N 
ATOM     31  H10 UNL     1     -20.047   3.835  13.766  1.00  0.00     0.190 HD
HETATM   32  N12 UNL     1     -17.438   5.491  14.322  1.00  0.00    -0.226 N 
ATOM     33  H11 UNL     1     -19.095   5.277  15.550  1.00  0.00     0.210 HD
HETATM   34  N13 UNL     1     -17.233   4.968  13.134  1.00  0.00    -0.266 N 
ATOM     35  H12 UNL     1     -16.815   6.098  14.854  1.00  0.00     0.210 HD
ATOM     36  H13 UNL     1     -16.385   5.121  12.589  1.00  0.00     0.190 HD
ENDBRANCH   9  28
BRANCH   4  37
HETATM   37  N3  UNL     1     -18.934   0.258   6.573  1.00  0.00    -0.127 N 
HETATM   38  C3  UNL     1     -19.899  -0.488   5.788  1.00  0.00     0.165 C 
HETATM   39  C4  UNL     1     -19.098  -1.402   4.926  1.00  0.00     0.040 C 
HETATM   40  C5  UNL     1     -17.686  -0.948   5.094  1.00  0.00     0.137 C 
HETATM   41  N4  UNL     1     -17.684   0.196   5.955  1.00  0.00    -0.124 NA
ENDBRANCH   4  37
BRANCH   1  42
HETATM   42  N1  UNL     1     -21.937   1.663   9.975  1.00  0.00    -0.232 N 
ATOM     43  H12 UNL     1     -22.684   1.924   9.330  1.00  0.00     0.174 HD
ATOM     44  H11 UNL     1     -22.141   1.464  10.954  1.00  0.00     0.174 HD
ENDBRANCH   1  42
TORSDOF 8
ENDMDL
MODEL 2
REMARK VINA RESULT: -8.472415029      2.339      7.063
REMARK  8 active torsions:
REMARK  status: ('A' for Active; 'I' for Inactive)
REMARK    1  A    between atoms: N1_1  and  C1_4 
REMARK    2  A    between atoms: C2_7  and  N3_8 
REMARK    3  A    between atoms: N6_16  and  N7_17 
REMARK    4  A    between atoms: N7_17  and  C7_19 
REMARK    5  A    between atoms: C11_26  and  C12_27 
REMARK    6  A    between atoms: C12_27  and  O1_28 
REMARK    7  A    between atoms: C12_27  and  O2_30 
REMARK    8  A    between atoms: C13_32  and  C14_33 
ROOT
HETATM    1  C1  UNL     1     -15.074   1.928   9.022  1.00  0.00     0.727 A 
HETATM    2  N2  UNL     1     -14.255   1.959  10.083  1.00  0.00    -0.019 N 
ATOM      3  H2  UNL     1     -13.252   1.849   9.934  1.00  0.00     0.203 HD
HETATM    4  C2  UNL     1     -14.710   2.130  11.338  1.00  0.00     0.725 A 
HETATM    5  N5  UNL     1     -16.032   2.267  11.470  1.00  0.00    -0.016 N 
ATOM      6  H5  UNL     1     -16.419   2.398  12.405  1.00  0.00     0.203 HD
HETATM    7  C6  UNL     1     -16.887   2.239  10.404  1.00  0.00     0.756 A 
HETATM    8  N6  UNL     1     -18.266   2.363  10.310  1.00  0.00    -0.061 N 
HETATM    9  C13 UNL     1     -18.608   2.265   9.020  1.00  0.00     0.208 A 
HETATM   10  N14 UNL     1     -17.424   2.084   8.348  1.00  0.00    -0.244 N 
ATOM     11  H14 UNL     1     -17.341   1.974   7.337  1.00  0.00     0.190 HD
HETATM   12  N15 UNL     1     -16.422   2.071   9.178  1.00  0.00     0.094 N 
ENDROOT
BRANCH   8  13
HETATM   13  N7  UNL     1     -19.043   2.468  11.429  1.00  0.00    -0.276 N 
ATOM     14  H7  UNL     1     -18.974   1.613  11.981  1.00  0.00     0.188 HD
BRANCH  13  15
HETATM   15  C7  UNL     1     -19.885   3.354  12.046  1.00  0.00     0.077 A 
HETATM   16  C8  UNL     1     -21.240   2.966  12.138  1.00  0.00     0.119 A 
HETATM   17  N8  UNL     1     -22.161   3.656  12.790  1.00  0.00    -0.371 N 
HETATM   18  C9  UNL     1     -21.846   4.795  13.415  1.00  0.00     0.114 A 
ATOM     19  H8  UNL     1     -23.123   3.316  12.815  1.00  0.00     0.164 HD
HETATM   20  C10 UNL     1     -20.547   5.215  13.357  1.00  0.00     0.075 A 
HETATM   21  N9  UNL     1     -20.168   6.419  14.007  1.00  0.00    -0.100 NA
HETATM   22  C11 UNL     1     -19.538   4.504  12.673  1.00  0.00     0.051 A 
BRANCH  22  23
HETATM   23  C12 UNL     1     -18.157   4.998  12.730  1.00  0.00     0.292 C 
BRANCH  23  24
HETATM   24  O1  UNL     1     -17.600   5.447  11.573  1.00  0.00    -0.367 OA
ATOM     25  H1  UNL     1     -17.461   6.383  11.484  1.00  0.00     0.213 HD
ENDBRANCH  23  24
BRANCH  23  26
HETATM   26  O2  UNL     1     -17.319   4.095  13.413  1.00  0.00    -0.367 OA
ATOM     27  H2  UNL     1     -16.682   3.705  12.826  1.00  0.00     0.213 HD
ENDBRANCH  23  26
ENDBRANCH  22  23
ENDBRANCH  13  15
ENDBRANCH   8  13
BRANCH   9  28
HETATM   28  C14 UNL     1     -19.906   2.302   8.337  1.00  0.00     0.186 A 
HETATM   29  N10 UNL     1     -20.008   2.851   7.098  1.00  0.00    -0.266 N 
HETATM   30  N11 UNL     1     -21.253   2.754   6.721  1.00  0.00    -0.226 N 
ATOM     31  H10 UNL     1     -19.247   3.264   6.558  1.00  0.00     0.190 HD
HETATM   32  N12 UNL     1     -21.979   2.168   7.650  1.00  0.00    -0.226 N 
ATOM     33  H11 UNL     1     -21.615   3.087   5.827  1.00  0.00     0.210 HD
HETATM   34  N13 UNL     1     -21.126   1.908   8.615  1.00  0.00    -0.266 N 
ATOM     35  H12 UNL     1     -22.978   1.962   7.626  1.00  0.00     0.210 HD
ATOM     36  H13 UNL     1     -21.385   1.449   9.488  1.00  0.00     0.190 HD
ENDBRANCH   9  28
BRANCH   4  37
HETATM   37  N3  UNL     1     -13.817   2.159  12.457  1.00  0.00    -0.127 N 
HETATM   38  C3  UNL     1     -12.478   2.717  12.439  1.00  0.00     0.165 C 
HETATM   39  C4  UNL     1     -11.774   2.113  13.605  1.00  0.00     0.040 C 
HETATM   40  C5  UNL     1     -12.844   1.416  14.380  1.00  0.00     0.137 C 
HETATM   41  N4  UNL     1     -14.095   1.658  13.729  1.00  0.00    -0.124 NA
ENDBRANCH   4  37
BRANCH   1  42
HETATM   42  N1  UNL     1     -14.685   1.769   7.802  1.00  0.00    -0.232 N 
ATOM     43  H12 UNL     1     -13.913   2.372   7.518  1.00  0.00     0.174 HD
ATOM     44  H11 UNL     1     -15.093   1.102   7.148  1.00  0.00     0.174 HD
ENDBRANCH   1  42
TORSDOF 8
ENDMDL
MODEL 3
REMARK VINA RESULT: -8.403882759      2.378      5.449
REMARK  8 active torsions:
REMARK  status: ('A' for Active; 'I' for Inactive)
REMARK    1  A    between atoms: N1_1  and  C1_4 
REMARK    2  A    between atoms: C2_7  and  N3_8 
REMARK    3  A    between atoms: N6_16  and  N7_17 
REMARK    4  A    between atoms: N7_17  and  C7_19 
REMARK    5  A    between atoms: C11_26  and  C12_27 
REMARK    6  A    between atoms: C12_27  and  O1_28 
REMARK    7  A    between atoms: C12_27  and  O2_30 
REMARK    8  A    between atoms: C13_32  and  C14_33 
ROOT
HETATM    1  C1  UNL     1     -16.900   1.590   7.363  1.00  0.00     0.727 A 
HETATM    2  N2  UNL     1     -18.211   1.752   7.131  1.00  0.00    -0.019 N 
ATOM      3  H2  UNL     1     -18.580   1.514   6.210  1.00  0.00     0.203 HD
HETATM    4  C2  UNL     1     -19.056   2.217   8.068  1.00  0.00     0.725 A 
HETATM    5  N5  UNL     1     -18.515   2.513   9.253  1.00  0.00    -0.016 N 
ATOM      6  H5  UNL     1     -19.121   2.869   9.992  1.00  0.00     0.203 HD
HETATM    7  C6  UNL     1     -17.181   2.357   9.515  1.00  0.00     0.756 A 
HETATM    8  N6  UNL     1     -16.421   2.592  10.651  1.00  0.00    -0.061 N 
HETATM    9  C13 UNL     1     -15.151   2.268  10.378  1.00  0.00     0.208 A 
HETATM   10  N14 UNL     1     -15.163   1.839   9.073  1.00  0.00    -0.244 N 
ATOM     11  H14 UNL     1     -14.342   1.517   8.560  1.00  0.00     0.190 HD
HETATM   12  N15 UNL     1     -16.366   1.898   8.581  1.00  0.00     0.094 N 
ENDROOT
BRANCH   8  13
HETATM   13  N7  UNL     1     -16.974   3.151  11.768  1.00  0.00    -0.276 N 
ATOM     14  H7  UNL     1     -16.246   3.585  12.336  1.00  0.00     0.188 HD
BRANCH  13  15
HETATM   15  C7  UNL     1     -18.192   3.315  12.369  1.00  0.00     0.077 A 
HETATM   16  C8  UNL     1     -18.839   2.135  12.799  1.00  0.00     0.119 A 
HETATM   17  N8  UNL     1     -19.971   2.123  13.484  1.00  0.00    -0.371 N 
HETATM   18  C9  UNL     1     -20.579   3.265  13.817  1.00  0.00     0.114 A 
ATOM     19  H8  UNL     1     -20.383   1.232  13.762  1.00  0.00     0.164 HD
HETATM   20  C10 UNL     1     -19.994   4.436  13.427  1.00  0.00     0.075 A 
HETATM   21  N9  UNL     1     -20.606   5.674  13.759  1.00  0.00    -0.100 NA
HETATM   22  C11 UNL     1     -18.788   4.487  12.696  1.00  0.00     0.051 A 
BRANCH  22  23
HETATM   23  C12 UNL     1     -18.199   5.796  12.385  1.00  0.00     0.292 C 
BRANCH  23  24
HETATM   24  O1  UNL     1     -17.660   6.505  13.413  1.00  0.00    -0.367 OA
ATOM     25  H1  UNL     1     -17.448   7.417  13.256  1.00  0.00     0.213 HD
ENDBRANCH  23  24
BRANCH  23  26
HETATM   26  O2  UNL     1     -19.070   6.574  11.597  1.00  0.00    -0.367 OA
ATOM     27  H2  UNL     1     -19.969   6.494  11.895  1.00  0.00     0.213 HD
ENDBRANCH  23  26
ENDBRANCH  22  23
ENDBRANCH  13  15
ENDBRANCH   8  13
BRANCH   9  28
HETATM   28  C14 UNL     1     -13.923   2.327  11.178  1.00  0.00     0.186 A 
HETATM   29  N10 UNL     1     -12.873   1.519  10.876  1.00  0.00    -0.266 N 
HETATM   30  N11 UNL     1     -11.919   1.770  11.728  1.00  0.00    -0.226 N 
ATOM     31  H10 UNL     1     -12.838   0.837  10.117  1.00  0.00     0.190 HD
HETATM   32  N12 UNL     1     -12.285   2.705  12.579  1.00  0.00    -0.226 N 
ATOM     33  H11 UNL     1     -11.011   1.305  11.734  1.00  0.00     0.210 HD
HETATM   34  N13 UNL     1     -13.507   3.019  12.213  1.00  0.00    -0.266 N 
ATOM     35  H12 UNL     1     -11.743   3.098  13.349  1.00  0.00     0.210 HD
ATOM     36  H13 UNL     1     -14.074   3.725  12.683  1.00  0.00     0.190 HD
ENDBRANCH   9  28
BRANCH   4  37
HETATM   37  N3  UNL     1     -20.452   2.382   7.797  1.00  0.00    -0.127 N 
HETATM   38  C3  UNL     1     -21.528   1.905   8.645  1.00  0.00     0.165 C 
HETATM   39  C4  UNL     1     -22.736   1.855   7.775  1.00  0.00     0.040 C 
HETATM   40  C5  UNL     1     -22.331   2.550   6.517  1.00  0.00     0.137 C 
HETATM   41  N4  UNL     1     -20.990   3.022   6.679  1.00  0.00    -0.124 NA
ENDBRANCH   4  37
BRANCH   1  42
HETATM   42  N1  UNL     1     -16.052   1.147   6.498  1.00  0.00    -0.232 N 
ATOM     43  H12 UNL     1     -15.880   1.771   5.710  1.00  0.00     0.174 HD
ATOM     44  H11 UNL     1     -15.573   0.249   6.566  1.00  0.00     0.174 HD
ENDBRANCH   1  42
TORSDOF 8
ENDMDL
MODEL 4
REMARK VINA RESULT: -8.375701163      2.213      5.333
REMARK  8 active torsions:
REMARK  status: ('A' for Active; 'I' for Inactive)
REMARK    1  A    between atoms: N1_1  and  C1_4 
REMARK    2  A    between atoms: C2_7  and  N3_8 
REMARK    3  A    between atoms: N6_16  and  N7_17 
REMARK    4  A    between atoms: N7_17  and  C7_19 
REMARK    5  A    between atoms: C11_26  and  C12_27 
REMARK    6  A    between atoms: C12_27  and  O1_28 
REMARK    7  A    between atoms: C12_27  and  O2_30 
REMARK    8  A    between atoms: C13_32  and  C14_33 
ROOT
HETATM    1  C1  UNL     1     -16.887   1.686   7.401  1.00  0.00     0.727 A 
HETATM    2  N2  UNL     1     -18.203   1.807   7.173  1.00  0.00    -0.019 N 
ATOM      3  H2  UNL     1     -18.559   1.620   6.236  1.00  0.00     0.203 HD
HETATM    4  C2  UNL     1     -19.071   2.166   8.138  1.00  0.00     0.725 A 
HETATM    5  N5  UNL     1     -18.546   2.398   9.343  1.00  0.00    -0.016 N 
ATOM      6  H5  UNL     1     -19.168   2.673  10.103  1.00  0.00     0.203 HD
HETATM    7  C6  UNL     1     -17.207   2.282   9.601  1.00  0.00     0.756 A 
HETATM    8  N6  UNL     1     -16.460   2.467  10.755  1.00  0.00    -0.061 N 
HETATM    9  C13 UNL     1     -15.177   2.220  10.467  1.00  0.00     0.208 A 
HETATM   10  N14 UNL     1     -15.167   1.886   9.134  1.00  0.00    -0.244 N 
ATOM     11  H14 UNL     1     -14.332   1.639   8.604  1.00  0.00     0.190 HD
HETATM   12  N15 UNL     1     -16.370   1.928   8.641  1.00  0.00     0.094 N 
ENDROOT
BRANCH   8  13
HETATM   13  N7  UNL     1     -17.040   2.919  11.907  1.00  0.00    -0.276 N 
ATOM     14  H7  UNL     1     -16.613   2.463  12.713  1.00  0.00     0.188 HD
BRANCH  13  15
HETATM   15  C7  UNL     1     -18.011   3.789  12.325  1.00  0.00     0.077 A 
HETATM   16  C8  UNL     1     -17.749   5.162  12.117  1.00  0.00     0.119 A 
HETATM   17  N8  UNL     1     -18.620   6.124  12.369  1.00  0.00    -0.371 N 
HETATM   18  C9  UNL     1     -19.835   5.837  12.848  1.00  0.00     0.114 A 
ATOM     19  H8  UNL     1     -18.363   7.096  12.195  1.00  0.00     0.164 HD
HETATM   20  C10 UNL     1     -20.140   4.523  13.065  1.00  0.00     0.075 A 
HETATM   21  N9  UNL     1     -21.419   4.172  13.573  1.00  0.00    -0.100 NA
HETATM   22  C11 UNL     1     -19.236   3.471  12.807  1.00  0.00     0.051 A 
BRANCH  22  23
HETATM   23  C12 UNL     1     -19.682   2.086  13.004  1.00  0.00     0.292 C 
BRANCH  23  24
HETATM   24  O1  UNL     1     -18.936   1.292  13.819  1.00  0.00    -0.367 OA
ATOM     25  H1  UNL     1     -19.186   0.379  13.894  1.00  0.00     0.213 HD
ENDBRANCH  23  24
BRANCH  23  26
HETATM   26  O2  UNL     1     -19.977   1.464  11.775  1.00  0.00    -0.367 OA
ATOM     27  H2  UNL     1     -20.761   0.932  11.837  1.00  0.00     0.213 HD
ENDBRANCH  23  26
ENDBRANCH  22  23
ENDBRANCH  13  15
ENDBRANCH   8  13
BRANCH   9  28
HETATM   28  C14 UNL     1     -13.955   2.274  11.276  1.00  0.00     0.186 A 
HETATM   29  N10 UNL     1     -12.897   1.478  10.967  1.00  0.00    -0.266 N 
HETATM   30  N11 UNL     1     -11.950   1.722  11.830  1.00  0.00    -0.226 N 
ATOM     31  H10 UNL     1     -12.852   0.810  10.198  1.00  0.00     0.190 HD
HETATM   32  N12 UNL     1     -12.329   2.641  12.694  1.00  0.00    -0.226 N 
ATOM     33  H11 UNL     1     -11.039   1.264  11.834  1.00  0.00     0.210 HD
HETATM   34  N13 UNL     1     -13.551   2.952  12.325  1.00  0.00    -0.266 N 
ATOM     35  H12 UNL     1     -11.794   3.024  13.474  1.00  0.00     0.210 HD
ATOM     36  H13 UNL     1     -14.125   3.646  12.803  1.00  0.00     0.190 HD
ENDBRANCH   9  28
BRANCH   4  37
HETATM   37  N3  UNL     1     -20.472   2.288   7.871  1.00  0.00    -0.127 N 
HETATM   38  C3  UNL     1     -21.528   1.717   8.685  1.00  0.00     0.165 C 
HETATM   39  C4  UNL     1     -22.732   1.670   7.808  1.00  0.00     0.040 C 
HETATM   40  C5  UNL     1     -22.354   2.455   6.596  1.00  0.00     0.137 C 
HETATM   41  N4  UNL     1     -21.034   2.972   6.792  1.00  0.00    -0.124 NA
ENDBRANCH   4  37
BRANCH   1  42
HETATM   42  N1  UNL     1     -16.019   1.344   6.511  1.00  0.00    -0.232 N 
ATOM     43  H12 UNL     1     -16.168   0.422   6.101  1.00  0.00     0.174 HD
ATOM     44  H11 UNL     1     -15.234   1.924   6.216  1.00  0.00     0.174 HD
ENDBRANCH   1  42
TORSDOF 8
ENDMDL
MODEL 5
REMARK VINA RESULT: -8.334706461      1.408      5.809
REMARK  8 active torsions:
REMARK  status: ('A' for Active; 'I' for Inactive)
REMARK    1  A    between atoms: N1_1  and  C1_4 
REMARK    2  A    between atoms: C2_7  and  N3_8 
REMARK    3  A    between atoms: N6_16  and  N7_17 
REMARK    4  A    between atoms: N7_17  and  C7_19 
REMARK    5  A    between atoms: C11_26  and  C12_27 
REMARK    6  A    between atoms: C12_27  and  O1_28 
REMARK    7  A    between atoms: C12_27  and  O2_30 
REMARK    8  A    between atoms: C13_32  and  C14_33 
ROOT
HETATM    1  C1  UNL     1     -21.145   2.184  10.499  1.00  0.00     0.727 A 
HETATM    2  N2  UNL     1     -21.032   2.979  11.573  1.00  0.00    -0.019 N 
ATOM      3  H2  UNL     1     -21.861   3.161  12.140  1.00  0.00     0.203 HD
HETATM    4  C2  UNL     1     -19.865   3.547  11.929  1.00  0.00     0.725 A 
HETATM    5  N5  UNL     1     -18.817   3.273  11.148  1.00  0.00    -0.016 N 
ATOM      6  H5  UNL     1     -17.913   3.684  11.382  1.00  0.00     0.203 HD
HETATM    7  C6  UNL     1     -18.906   2.465  10.048  1.00  0.00     0.756 A 
HETATM    8  N6  UNL     1     -17.965   2.050   9.117  1.00  0.00    -0.061 N 
HETATM    9  C13 UNL     1     -18.576   1.253   8.232  1.00  0.00     0.208 A 
HETATM   10  N14 UNL     1     -19.885   1.197   8.645  1.00  0.00    -0.244 N 
ATOM     11  H14 UNL     1     -20.619   0.664   8.177  1.00  0.00     0.190 HD
HETATM   12  N15 UNL     1     -20.061   1.916   9.714  1.00  0.00     0.094 N 
ENDROOT
BRANCH   8  13
HETATM   13  N7  UNL     1     -16.683   2.521   9.150  1.00  0.00    -0.276 N 
ATOM     14  H7  UNL     1     -16.635   3.431   8.693  1.00  0.00     0.188 HD
BRANCH  13  15
HETATM   15  C7  UNL     1     -15.442   2.162   9.602  1.00  0.00     0.077 A 
HETATM   16  C8  UNL     1     -14.562   1.617   8.640  1.00  0.00     0.119 A 
HETATM   17  N8  UNL     1     -13.298   1.313   8.886  1.00  0.00    -0.371 N 
HETATM   18  C9  UNL     1     -12.772   1.513  10.098  1.00  0.00     0.114 A 
ATOM     19  H8  UNL     1     -12.719   0.921   8.143  1.00  0.00     0.164 HD
HETATM   20  C10 UNL     1     -13.580   2.040  11.065  1.00  0.00     0.075 A 
HETATM   21  N9  UNL     1     -13.062   2.270  12.367  1.00  0.00    -0.100 NA
HETATM   22  C11 UNL     1     -14.932   2.377  10.838  1.00  0.00     0.051 A 
BRANCH  22  23
HETATM   23  C12 UNL     1     -15.699   3.006  11.921  1.00  0.00     0.292 C 
BRANCH  23  24
HETATM   24  O1  UNL     1     -16.621   2.242  12.567  1.00  0.00    -0.367 OA
ATOM     25  H1  UNL     1     -17.290   1.820  12.041  1.00  0.00     0.213 HD
ENDBRANCH  23  24
BRANCH  23  26
HETATM   26  O2  UNL     1     -16.221   4.252  11.520  1.00  0.00    -0.367 OA
ATOM     27  H2  UNL     1     -15.557   4.784  11.099  1.00  0.00     0.213 HD
ENDBRANCH  23  26
ENDBRANCH  22  23
ENDBRANCH  13  15
ENDBRANCH   8  13
BRANCH   9  28
HETATM   28  C14 UNL     1     -18.093   0.552   7.038  1.00  0.00     0.186 A 
HETATM   29  N10 UNL     1     -18.888  -0.359   6.415  1.00  0.00    -0.266 N 
HETATM   30  N11 UNL     1     -18.229  -0.827   5.391  1.00  0.00    -0.226 N 
ATOM     31  H10 UNL     1     -19.831  -0.627   6.697  1.00  0.00     0.190 HD
HETATM   32  N12 UNL     1     -17.039  -0.272   5.306  1.00  0.00    -0.226 N 
ATOM     33  H11 UNL     1     -18.588  -1.529   4.744  1.00  0.00     0.210 HD
HETATM   34  N13 UNL     1     -16.993   0.560   6.322  1.00  0.00    -0.266 N 
ATOM     35  H12 UNL     1     -16.315  -0.447   4.609  1.00  0.00     0.210 HD
ATOM     36  H13 UNL     1     -16.188   1.150   6.533  1.00  0.00     0.190 HD
ENDBRANCH   9  28
BRANCH   4  37
HETATM   37  N3  UNL     1     -19.769   4.393  13.080  1.00  0.00    -0.127 N 
HETATM   38  C3  UNL     1     -20.884   5.074  13.708  1.00  0.00     0.165 C 
HETATM   39  C4  UNL     1     -20.283   6.175  14.512  1.00  0.00     0.040 C 
HETATM   40  C5  UNL     1     -18.815   5.907  14.492  1.00  0.00     0.137 C 
HETATM   41  N4  UNL     1     -18.593   4.692  13.769  1.00  0.00    -0.124 NA
ENDBRANCH   4  37
BRANCH   1  42
HETATM   42  N1  UNL     1     -22.240   1.617  10.120  1.00  0.00    -0.232 N 
ATOM     43  H12 UNL     1     -22.796   1.215  10.875  1.00  0.00     0.174 HD
ATOM     44  H11 UNL     1     -22.556   1.558   9.153  1.00  0.00     0.174 HD
ENDBRANCH   1  42
TORSDOF 8
ENDMDL
