MODEL 1
REMARK VINA RESULT: -8.519845826      0.000      0.000
REMARK  11 active torsions:
REMARK  status: ('A' for Active; 'I' for Inactive)
REMARK    1  A    between atoms: N1_1  and  C1_4 
REMARK    2  A    between atoms: C2_10  and  C3_11 
REMARK    3  A    between atoms: C4_12  and  N4_13 
REMARK    4  A    between atoms: C6_15  and  C7_16 
REMARK    5  A    between atoms: C7_16  and  N5_17 
REMARK    6  A    between atoms: N5_17  and  C8_19 
REMARK    7  A    between atoms: N6_22  and  N7_23 
REMARK    8  A    between atoms: N7_23  and  O2_25 
REMARK    9  A    between atoms: C11_29  and  N9_30 
REMARK   10  A    between atoms: C12_38  and  N12_39 
REMARK   11  A    between atoms: N14_46  and  N15_47 
ROOT
HETATM    1  N4  UNL     1     -15.951   2.668  11.576  1.00  0.00    -0.245 N 
HETATM    2  C5  UNL     1     -17.208   2.184  11.591  1.00  0.00     0.150 A 
HETATM    3  C6  UNL     1     -18.003   2.923  12.418  1.00  0.00     0.082 A 
HETATM    4  N10 UNL     1     -17.140   3.919  12.915  1.00  0.00    -0.283 N 
ATOM      5  H10 UNL     1     -17.394   4.661  13.566  1.00  0.00     0.188 HD
HETATM    6  N11 UNL     1     -15.960   3.728  12.397  1.00  0.00    -0.235 N 
ATOM      7  H11 UNL     1     -15.145   4.311  12.592  1.00  0.00     0.209 HD
ENDROOT
BRANCH   1   8
HETATM    8  C4  UNL     1     -14.757   2.252  10.957  1.00  0.00     0.132 A 
HETATM    9  C3  UNL     1     -13.865   1.375  11.509  1.00  0.00     0.126 A 
HETATM   10  N14 UNL     1     -12.775   0.949  10.809  1.00  0.00    -0.207 N 
HETATM   11  C13 UNL     1     -12.557   1.392   9.559  1.00  0.00     0.347 A 
HETATM   12  N13 UNL     1     -13.431   2.273   8.982  1.00  0.00    -0.291 N 
HETATM   13  O3  UNL     1     -11.555   1.012   8.881  1.00  0.00    -0.245 OA
HETATM   14  C12 UNL     1     -14.514   2.715   9.628  1.00  0.00     0.134 A 
ATOM     15  H13 UNL     1     -13.251   2.601   8.033  1.00  0.00     0.172 HD
BRANCH   9  16
HETATM   16  C2  UNL     1     -14.050   0.894  12.859  1.00  0.00     0.133 A 
HETATM   17  C1  UNL     1     -13.262   1.356  13.922  1.00  0.00     0.152 A 
HETATM   18  N2  UNL     1     -13.679   0.722  15.061  1.00  0.00    -0.224 N 
HETATM   19  O1  UNL     1     -14.637  -0.049  14.684  1.00  0.00    -0.155 OA
ATOM     20  H2  UNL     1     -13.310   0.837  16.005  1.00  0.00     0.198 HD
HETATM   21  N3  UNL     1     -14.876   0.024  13.424  1.00  0.00    -0.236 N 
ATOM     22  H3  UNL     1     -15.595  -0.506  12.932  1.00  0.00     0.197 HD
BRANCH  17  23
HETATM   23  N1  UNL     1     -12.320   2.218  13.889  1.00  0.00    -0.382 N 
ATOM     24  H12 UNL     1     -11.341   2.091  14.144  1.00  0.00     0.157 HD
ATOM     25  H11 UNL     1     -12.442   3.183  13.582  1.00  0.00     0.157 HD
ENDBRANCH  17  23
ENDBRANCH   9  16
BRANCH  10  26
HETATM   26  N15 UNL     1     -11.934  -0.006  11.379  1.00  0.00    -0.334 N 
ATOM     27 2H15 UNL     1     -11.842  -0.077  12.393  1.00  0.00     0.177 HD
ATOM     28 1H15 UNL     1     -11.370  -0.597  10.769  1.00  0.00     0.177 HD
ENDBRANCH  10  26
BRANCH  14  29
HETATM   29  N12 UNL     1     -15.372   3.534   9.148  1.00  0.00    -0.383 N 
ATOM     30 2H12 UNL     1     -16.058   4.051   9.697  1.00  0.00     0.157 HD
ATOM     31 1H12 UNL     1     -15.353   3.668   8.137  1.00  0.00     0.157 HD
ENDBRANCH  14  29
ENDBRANCH   1   8
BRANCH   3  32
HETATM   32  C7  UNL     1     -19.390   2.798  12.888  1.00  0.00     0.116 C 
BRANCH  32  33
HETATM   33  N5  UNL     1     -19.857   3.663  13.894  1.00  0.00    -0.388 N 
ATOM     34  H5  UNL     1     -19.453   3.689  14.831  1.00  0.00     0.159 HD
BRANCH  33  35
HETATM   35  C8  UNL     1     -20.956   4.514  13.494  1.00  0.00     0.134 C 
HETATM   36  C9  UNL     1     -20.679   5.423  12.351  1.00  0.00     0.052 C 
HETATM   37  C10 UNL     1     -19.543   6.343  12.571  1.00  0.00     0.173 C 
HETATM   38  N6  UNL     1     -19.203   6.485  13.966  1.00  0.00    -0.217 N 
HETATM   39  N8  UNL     1     -20.013   6.107  15.027  1.00  0.00    -0.286 N 
HETATM   40  C11 UNL     1     -21.228   5.444  14.699  1.00  0.00     0.320 C 
ATOM     41  H8  UNL     1     -19.751   6.295  15.995  1.00  0.00     0.184 HD
BRANCH  38  42
HETATM   42  N7  UNL     1     -17.970   7.052  14.262  1.00  0.00    -0.194 N 
ATOM     43  H7  UNL     1     -17.509   6.813  15.140  1.00  0.00     0.217 HD
BRANCH  42  44
HETATM   44  O2  UNL     1     -17.411   7.853  13.472  1.00  0.00    -0.273 OA
ATOM     45  H2  UNL     1     -17.021   7.555  12.658  1.00  0.00     0.246 HD
ENDBRANCH  42  44
ENDBRANCH  38  42
BRANCH  40  46
HETATM   46  N9  UNL     1     -21.647   4.548  15.765  1.00  0.00    -0.055 N 
ATOM     47  H93 UNL     1     -22.643   4.327  15.754  1.00  0.00     0.276 HD
ATOM     48  H92 UNL     1     -21.316   3.589  15.657  1.00  0.00     0.276 HD
ATOM     49  H91 UNL     1     -21.332   5.003  16.622  1.00  0.00     0.276 HD
ENDBRANCH  40  46
ENDBRANCH  33  35
ENDBRANCH  32  33
ENDBRANCH   3  32
TORSDOF 11
ENDMDL
MODEL 2
REMARK VINA RESULT: -7.842992126      2.044      2.614
REMARK  11 active torsions:
REMARK  status: ('A' for Active; 'I' for Inactive)
REMARK    1  A    between atoms: N1_1  and  C1_4 
REMARK    2  A    between atoms: C2_10  and  C3_11 
REMARK    3  A    between atoms: C4_12  and  N4_13 
REMARK    4  A    between atoms: C6_15  and  C7_16 
REMARK    5  A    between atoms: C7_16  and  N5_17 
REMARK    6  A    between atoms: N5_17  and  C8_19 
REMARK    7  A    between atoms: N6_22  and  N7_23 
REMARK    8  A    between atoms: N7_23  and  O2_25 
REMARK    9  A    between atoms: C11_29  and  N9_30 
REMARK   10  A    between atoms: C12_38  and  N12_39 
REMARK   11  A    between atoms: N14_46  and  N15_47 
ROOT
HETATM    1  N4  UNL     1     -15.615   3.273  11.468  1.00  0.00    -0.245 N 
HETATM    2  C5  UNL     1     -16.892   3.449  11.077  1.00  0.00     0.150 A 
HETATM    3  C6  UNL     1     -17.610   4.100  12.038  1.00  0.00     0.082 A 
HETATM    4  N10 UNL     1     -16.671   4.327  13.063  1.00  0.00    -0.283 N 
ATOM      5  H10 UNL     1     -16.854   4.801  13.948  1.00  0.00     0.188 HD
HETATM    6  N11 UNL     1     -15.529   3.828  12.685  1.00  0.00    -0.235 N 
ATOM      7  H11 UNL     1     -14.676   3.856  13.245  1.00  0.00     0.209 HD
ENDROOT
BRANCH   1   8
HETATM    8  C4  UNL     1     -14.504   2.624  10.897  1.00  0.00     0.132 A 
HETATM    9  C3  UNL     1     -13.918   1.500  11.410  1.00  0.00     0.126 A 
HETATM   10  N14 UNL     1     -12.901   0.875  10.749  1.00  0.00    -0.207 N 
HETATM   11  C13 UNL     1     -12.455   1.361   9.579  1.00  0.00     0.347 A 
HETATM   12  N13 UNL     1     -13.019   2.486   9.044  1.00  0.00    -0.291 N 
HETATM   13  O3  UNL     1     -11.514   0.801   8.939  1.00  0.00    -0.245 OA
HETATM   14  C12 UNL     1     -14.020   3.130   9.653  1.00  0.00     0.134 A 
ATOM     15  H13 UNL     1     -12.668   2.844   8.155  1.00  0.00     0.172 HD
BRANCH   9  16
HETATM   16  C2  UNL     1     -14.353   0.959  12.678  1.00  0.00     0.133 A 
HETATM   17  C1  UNL     1     -13.616   1.151  13.854  1.00  0.00     0.152 A 
HETATM   18  N2  UNL     1     -14.283   0.530  14.874  1.00  0.00    -0.224 N 
HETATM   19  O1  UNL     1     -15.329   0.017  14.328  1.00  0.00    -0.155 OA
ATOM     20  H2  UNL     1     -14.011   0.483  15.856  1.00  0.00     0.198 HD
HETATM   21  N3  UNL     1     -15.401   0.245  13.066  1.00  0.00    -0.236 N 
ATOM     22  H3  UNL     1     -16.150  -0.076  12.454  1.00  0.00     0.197 HD
BRANCH  17  23
HETATM   23  N1  UNL     1     -12.520   1.789  14.003  1.00  0.00    -0.382 N 
ATOM     24  H12 UNL     1     -12.333   2.774  13.814  1.00  0.00     0.157 HD
ATOM     25  H11 UNL     1     -11.659   1.368  14.354  1.00  0.00     0.157 HD
ENDBRANCH  17  23
ENDBRANCH   9  16
BRANCH  10  26
HETATM   26  N15 UNL     1     -12.386  -0.313  11.268  1.00  0.00    -0.334 N 
ATOM     27 2H15 UNL     1     -12.099  -0.371  12.244  1.00  0.00     0.177 HD
ATOM     28 1H15 UNL     1     -12.248  -1.107  10.643  1.00  0.00     0.177 HD
ENDBRANCH  10  26
BRANCH  14  29
HETATM   29  N12 UNL     1     -14.595   4.182   9.207  1.00  0.00    -0.383 N 
ATOM     30 2H12 UNL     1     -15.433   4.189   8.625  1.00  0.00     0.157 HD
ATOM     31 1H12 UNL     1     -14.171   5.073   9.463  1.00  0.00     0.157 HD
ENDBRANCH  14  29
ENDBRANCH   1   8
BRANCH   3  32
HETATM   32  C7  UNL     1     -19.028   4.455  12.195  1.00  0.00     0.116 C 
BRANCH  32  33
HETATM   33  N5  UNL     1     -19.962   3.443  12.479  1.00  0.00    -0.388 N 
ATOM     34  H5  UNL     1     -19.905   2.509  12.071  1.00  0.00     0.159 HD
BRANCH  33  35
HETATM   35  C8  UNL     1     -21.012   3.833  13.395  1.00  0.00     0.134 C 
HETATM   36  C9  UNL     1     -20.559   4.248  14.748  1.00  0.00     0.052 C 
HETATM   37  C10 UNL     1     -19.785   3.216  15.470  1.00  0.00     0.173 C 
HETATM   38  N6  UNL     1     -19.976   1.893  14.927  1.00  0.00    -0.217 N 
HETATM   39  N8  UNL     1     -21.001   1.525  14.067  1.00  0.00    -0.286 N 
HETATM   40  C11 UNL     1     -21.865   2.562  13.621  1.00  0.00     0.320 C 
ATOM     41  H8  UNL     1     -21.129   0.557  13.769  1.00  0.00     0.184 HD
BRANCH  38  42
HETATM   42  N7  UNL     1     -19.065   0.915  15.304  1.00  0.00    -0.194 N 
ATOM     43  H7  UNL     1     -18.983   0.663  16.290  1.00  0.00     0.217 HD
BRANCH  42  44
HETATM   44  O2  UNL     1     -18.339   0.335  14.458  1.00  0.00    -0.273 OA
ATOM     45  H2  UNL     1     -17.772  -0.387  14.704  1.00  0.00     0.246 HD
ENDBRANCH  42  44
ENDBRANCH  38  42
BRANCH  40  46
HETATM   46  N9  UNL     1     -22.425   2.261  12.312  1.00  0.00    -0.055 N 
ATOM     47  H93 UNL     1     -22.953   3.029  11.899  1.00  0.00     0.276 HD
ATOM     48  H92 UNL     1     -21.730   2.188  11.569  1.00  0.00     0.276 HD
ATOM     49  H91 UNL     1     -22.970   1.411  12.457  1.00  0.00     0.276 HD
ENDBRANCH  40  46
ENDBRANCH  33  35
ENDBRANCH  32  33
ENDBRANCH   3  32
TORSDOF 11
ENDMDL
MODEL 3
REMARK VINA RESULT: -7.815229646      3.034      7.489
REMARK  11 active torsions:
REMARK  status: ('A' for Active; 'I' for Inactive)
REMARK    1  A    between atoms: N1_1  and  C1_4 
REMARK    2  A    between atoms: C2_10  and  C3_11 
REMARK    3  A    between atoms: C4_12  and  N4_13 
REMARK    4  A    between atoms: C6_15  and  C7_16 
REMARK    5  A    between atoms: C7_16  and  N5_17 
REMARK    6  A    between atoms: N5_17  and  C8_19 
REMARK    7  A    between atoms: N6_22  and  N7_23 
REMARK    8  A    between atoms: N7_23  and  O2_25 
REMARK    9  A    between atoms: C11_29  and  N9_30 
REMARK   10  A    between atoms: C12_38  and  N12_39 
REMARK   11  A    between atoms: N14_46  and  N15_47 
ROOT
HETATM    1  N4  UNL     1     -18.632   2.836  12.102  1.00  0.00    -0.245 N 
HETATM    2  C5  UNL     1     -17.439   2.250  12.323  1.00  0.00     0.150 A 
HETATM    3  C6  UNL     1     -16.433   3.173  12.295  1.00  0.00     0.082 A 
HETATM    4  N10 UNL     1     -17.098   4.389  12.047  1.00  0.00    -0.283 N 
ATOM      5  H10 UNL     1     -16.658   5.305  11.965  1.00  0.00     0.188 HD
HETATM    6  N11 UNL     1     -18.372   4.141  11.942  1.00  0.00    -0.235 N 
ATOM      7  H11 UNL     1     -19.083   4.851  11.761  1.00  0.00     0.209 HD
ENDROOT
BRANCH   1   8
HETATM    8  C4  UNL     1     -19.945   2.346  11.968  1.00  0.00     0.132 A 
HETATM    9  C3  UNL     1     -20.787   2.096  13.015  1.00  0.00     0.126 A 
HETATM   10  N14 UNL     1     -22.078   1.709  12.801  1.00  0.00    -0.207 N 
HETATM   11  C13 UNL     1     -22.541   1.561  11.548  1.00  0.00     0.347 A 
HETATM   12  N13 UNL     1     -21.720   1.801  10.481  1.00  0.00    -0.291 N 
HETATM   13  O3  UNL     1     -23.737   1.206  11.317  1.00  0.00    -0.245 OA
HETATM   14  C12 UNL     1     -20.450   2.186  10.642  1.00  0.00     0.134 A 
ATOM     15  H13 UNL     1     -22.086   1.683   9.537  1.00  0.00     0.172 HD
BRANCH   9  16
HETATM   16  C2  UNL     1     -20.321   2.219  14.378  1.00  0.00     0.133 A 
HETATM   17  C1  UNL     1     -20.362   3.440  15.064  1.00  0.00     0.152 A 
HETATM   18  N2  UNL     1     -19.863   3.233  16.322  1.00  0.00    -0.224 N 
HETATM   19  O1  UNL     1     -19.556   1.984  16.358  1.00  0.00    -0.155 OA
ATOM     20  H2  UNL     1     -19.757   3.920  17.068  1.00  0.00     0.198 HD
HETATM   21  N3  UNL     1     -19.806   1.371  15.258  1.00  0.00    -0.236 N 
ATOM     22  H3  UNL     1     -19.635   0.381  15.086  1.00  0.00     0.197 HD
BRANCH  17  23
HETATM   23  N1  UNL     1     -20.788   4.569  14.643  1.00  0.00    -0.382 N 
ATOM     24  H12 UNL     1     -21.051   5.387  15.192  1.00  0.00     0.157 HD
ATOM     25  H11 UNL     1     -20.913   4.798  13.657  1.00  0.00     0.157 HD
ENDBRANCH  17  23
ENDBRANCH   9  16
BRANCH  10  26
HETATM   26  N15 UNL     1     -22.926   1.541  13.896  1.00  0.00    -0.334 N 
ATOM     27 2H15 UNL     1     -22.765   2.058  14.760  1.00  0.00     0.177 HD
ATOM     28 1H15 UNL     1     -23.677   0.854  13.840  1.00  0.00     0.177 HD
ENDBRANCH  10  26
BRANCH  14  29
HETATM   29  N12 UNL     1     -19.631   2.430   9.690  1.00  0.00    -0.383 N 
ATOM     30 2H12 UNL     1     -18.666   2.101   9.650  1.00  0.00     0.157 HD
ATOM     31 1H12 UNL     1     -19.987   2.997   8.921  1.00  0.00     0.157 HD
ENDBRANCH  14  29
ENDBRANCH   1   8
BRANCH   3  32
HETATM   32  C7  UNL     1     -14.967   3.093  12.365  1.00  0.00     0.116 C 
BRANCH  32  33
HETATM   33  N5  UNL     1     -14.309   1.997  11.779  1.00  0.00    -0.388 N 
ATOM     34  H5  UNL     1     -14.640   1.037  11.879  1.00  0.00     0.159 HD
BRANCH  33  35
HETATM   35  C8  UNL     1     -13.125   2.340  11.022  1.00  0.00     0.134 C 
HETATM   36  C9  UNL     1     -13.219   3.585  10.216  1.00  0.00     0.052 C 
HETATM   37  C10 UNL     1     -14.318   3.584   9.227  1.00  0.00     0.173 C 
HETATM   38  N6  UNL     1     -14.805   2.257   8.935  1.00  0.00    -0.217 N 
HETATM   39  N8  UNL     1     -14.142   1.078   9.247  1.00  0.00    -0.286 N 
HETATM   40  C11 UNL     1     -12.938   1.200   9.994  1.00  0.00     0.320 C 
ATOM     41  H8  UNL     1     -14.500   0.169   8.954  1.00  0.00     0.184 HD
BRANCH  38  42
HETATM   42  N7  UNL     1     -16.029   2.161   8.286  1.00  0.00    -0.194 N 
ATOM     43  H7  UNL     1     -16.101   2.452   7.311  1.00  0.00     0.217 HD
BRANCH  42  44
HETATM   44  O2  UNL     1     -17.049   1.722   8.875  1.00  0.00    -0.273 OA
ATOM     45  H2  UNL     1     -17.251   1.972   9.768  1.00  0.00     0.246 HD
ENDBRANCH  42  44
ENDBRANCH  38  42
BRANCH  40  46
HETATM   46  N9  UNL     1     -12.694   0.016  10.802  1.00  0.00    -0.055 N 
ATOM     47  H93 UNL     1     -12.316   0.216  11.728  1.00  0.00     0.276 HD
ATOM     48  H92 UNL     1     -13.542  -0.452  11.123  1.00  0.00     0.276 HD
ATOM     49  H91 UNL     1     -12.090  -0.569  10.224  1.00  0.00     0.276 HD
ENDBRANCH  40  46
ENDBRANCH  33  35
ENDBRANCH  32  33
ENDBRANCH   3  32
TORSDOF 11
ENDMDL
MODEL 4
REMARK VINA RESULT: -7.761595420      1.850      2.530
REMARK  11 active torsions:
REMARK  status: ('A' for Active; 'I' for Inactive)
REMARK    1  A    between atoms: N1_1  and  C1_4 
REMARK    2  A    between atoms: C2_10  and  C3_11 
REMARK    3  A    between atoms: C4_12  and  N4_13 
REMARK    4  A    between atoms: C6_15  and  C7_16 
REMARK    5  A    between atoms: C7_16  and  N5_17 
REMARK    6  A    between atoms: N5_17  and  C8_19 
REMARK    7  A    between atoms: N6_22  and  N7_23 
REMARK    8  A    between atoms: N7_23  and  O2_25 
REMARK    9  A    between atoms: C11_29  and  N9_30 
REMARK   10  A    between atoms: C12_38  and  N12_39 
REMARK   11  A    between atoms: N14_46  and  N15_47 
ROOT
HETATM    1  N4  UNL     1     -15.939   3.000  11.707  1.00  0.00    -0.245 N 
HETATM    2  C5  UNL     1     -16.080   3.891  12.708  1.00  0.00     0.150 A 
HETATM    3  C6  UNL     1     -17.400   4.118  12.974  1.00  0.00     0.082 A 
HETATM    4  N10 UNL     1     -18.075   3.286  12.060  1.00  0.00    -0.283 N 
ATOM      5  H10 UNL     1     -19.087   3.191  11.973  1.00  0.00     0.188 HD
HETATM    6  N11 UNL     1     -17.184   2.658  11.347  1.00  0.00    -0.235 N 
ATOM      7  H11 UNL     1     -17.406   1.991  10.607  1.00  0.00     0.209 HD
ENDROOT
BRANCH   1   8
HETATM    8  C4  UNL     1     -14.826   2.478  11.021  1.00  0.00     0.132 A 
HETATM    9  C3  UNL     1     -14.037   1.464  11.486  1.00  0.00     0.126 A 
HETATM   10  N14 UNL     1     -13.031   0.951  10.721  1.00  0.00    -0.207 N 
HETATM   11  C13 UNL     1     -12.797   1.441   9.492  1.00  0.00     0.347 A 
HETATM   12  N13 UNL     1     -13.569   2.458   9.001  1.00  0.00    -0.291 N 
HETATM   13  O3  UNL     1     -11.871   0.982   8.755  1.00  0.00    -0.245 OA
HETATM   14  C12 UNL     1     -14.568   2.990   9.713  1.00  0.00     0.134 A 
ATOM     15  H13 UNL     1     -13.377   2.820   8.067  1.00  0.00     0.172 HD
BRANCH   9  16
HETATM   16  C2  UNL     1     -14.240   0.926  12.812  1.00  0.00     0.133 A 
HETATM   17  C1  UNL     1     -13.408   1.272  13.885  1.00  0.00     0.152 A 
HETATM   18  N2  UNL     1     -13.856   0.610  14.995  1.00  0.00    -0.224 N 
HETATM   19  O1  UNL     1     -14.872  -0.068  14.594  1.00  0.00    -0.155 OA
ATOM     20  H2  UNL     1     -13.469   0.647  15.938  1.00  0.00     0.198 HD
HETATM   21  N3  UNL     1     -15.121   0.089  13.343  1.00  0.00    -0.236 N 
ATOM     22  H3  UNL     1     -15.882  -0.361  12.835  1.00  0.00     0.197 HD
BRANCH  17  23
HETATM   23  N1  UNL     1     -12.406   2.064  13.883  1.00  0.00    -0.382 N 
ATOM     24  H12 UNL     1     -12.012   2.585  14.667  1.00  0.00     0.157 HD
ATOM     25  H11 UNL     1     -11.848   2.274  13.055  1.00  0.00     0.157 HD
ENDBRANCH  17  23
ENDBRANCH   9  16
BRANCH  10  26
HETATM   26  N15 UNL     1     -12.301  -0.136  11.203  1.00  0.00    -0.334 N 
ATOM     27 2H15 UNL     1     -12.704  -0.765  11.897  1.00  0.00     0.177 HD
ATOM     28 1H15 UNL     1     -11.337  -0.261  10.893  1.00  0.00     0.177 HD
ENDBRANCH  10  26
BRANCH  14  29
HETATM   29  N12 UNL     1     -15.329   3.937   9.314  1.00  0.00    -0.383 N 
ATOM     30 2H12 UNL     1     -15.900   4.525   9.922  1.00  0.00     0.157 HD
ATOM     31 1H12 UNL     1     -15.354   4.105   8.308  1.00  0.00     0.157 HD
ENDBRANCH  14  29
ENDBRANCH   1   8
BRANCH   3  32
HETATM   32  C7  UNL     1     -18.123   5.041  13.861  1.00  0.00     0.116 C 
BRANCH  32  33
HETATM   33  N5  UNL     1     -19.516   4.911  14.000  1.00  0.00    -0.388 N 
ATOM     34  H5  UNL     1     -20.172   5.186  13.267  1.00  0.00     0.159 HD
BRANCH  33  35
HETATM   35  C8  UNL     1     -19.946   4.357  15.265  1.00  0.00     0.134 C 
HETATM   36  C9  UNL     1     -19.608   2.927  15.486  1.00  0.00     0.052 C 
HETATM   37  C10 UNL     1     -20.156   2.012  14.462  1.00  0.00     0.173 C 
HETATM   38  N6  UNL     1     -21.239   2.599  13.710  1.00  0.00    -0.217 N 
HETATM   39  N8  UNL     1     -21.944   3.735  14.082  1.00  0.00    -0.286 N 
HETATM   40  C11 UNL     1     -21.491   4.415  15.246  1.00  0.00     0.320 C 
ATOM     41  H8  UNL     1     -22.746   4.066  13.547  1.00  0.00     0.184 HD
BRANCH  38  42
HETATM   42  N7  UNL     1     -21.603   1.969  12.527  1.00  0.00    -0.194 N 
ATOM     43  H7  UNL     1     -22.585   1.952  12.253  1.00  0.00     0.217 HD
BRANCH  42  44
HETATM   44  O2  UNL     1     -20.748   1.418  11.788  1.00  0.00    -0.273 OA
ATOM     45  H2  UNL     1     -20.852   0.521  11.494  1.00  0.00     0.246 HD
ENDBRANCH  42  44
ENDBRANCH  38  42
BRANCH  40  46
HETATM   46  N9  UNL     1     -21.803   5.834  15.186  1.00  0.00    -0.055 N 
ATOM     47  H93 UNL     1     -21.013   6.423  14.923  1.00  0.00     0.276 HD
ATOM     48  H92 UNL     1     -22.404   6.096  14.404  1.00  0.00     0.276 HD
ATOM     49  H91 UNL     1     -22.195   6.050  16.102  1.00  0.00     0.276 HD
ENDBRANCH  40  46
ENDBRANCH  33  35
ENDBRANCH  32  33
ENDBRANCH   3  32
TORSDOF 11
ENDMDL
MODEL 5
REMARK VINA RESULT: -7.690559156      1.632      2.220
REMARK  11 active torsions:
REMARK  status: ('A' for Active; 'I' for Inactive)
REMARK    1  A    between atoms: N1_1  and  C1_4 
REMARK    2  A    between atoms: C2_10  and  C3_11 
REMARK    3  A    between atoms: C4_12  and  N4_13 
REMARK    4  A    between atoms: C6_15  and  C7_16 
REMARK    5  A    between atoms: C7_16  and  N5_17 
REMARK    6  A    between atoms: N5_17  and  C8_19 
REMARK    7  A    between atoms: N6_22  and  N7_23 
REMARK    8  A    between atoms: N7_23  and  O2_25 
REMARK    9  A    between atoms: C11_29  and  N9_30 
REMARK   10  A    between atoms: C12_38  and  N12_39 
REMARK   11  A    between atoms: N14_46  and  N15_47 
ROOT
HETATM    1  N4  UNL     1     -15.979   2.951  11.753  1.00  0.00    -0.245 N 
HETATM    2  C5  UNL     1     -17.289   2.639  11.803  1.00  0.00     0.150 A 
HETATM    3  C6  UNL     1     -17.942   3.426  12.708  1.00  0.00     0.082 A 
HETATM    4  N10 UNL     1     -16.931   4.265  13.215  1.00  0.00    -0.283 N 
ATOM      5  H10 UNL     1     -17.054   4.994  13.918  1.00  0.00     0.188 HD
HETATM    6  N11 UNL     1     -15.810   3.950  12.630  1.00  0.00    -0.235 N 
ATOM      7  H11 UNL     1     -14.916   4.406  12.817  1.00  0.00     0.209 HD
ENDROOT
BRANCH   1   8
HETATM    8  C4  UNL     1     -14.880   2.417  11.054  1.00  0.00     0.132 A 
HETATM    9  C3  UNL     1     -14.063   1.433  11.536  1.00  0.00     0.126 A 
HETATM   10  N14 UNL     1     -13.072   0.903  10.762  1.00  0.00    -0.207 N 
HETATM   11  C13 UNL     1     -12.881   1.347   9.508  1.00  0.00     0.347 A 
HETATM   12  N13 UNL     1     -13.681   2.334   9.001  1.00  0.00    -0.291 N 
HETATM   13  O3  UNL     1     -11.971   0.872   8.763  1.00  0.00    -0.245 OA
HETATM   14  C12 UNL     1     -14.667   2.881   9.721  1.00  0.00     0.134 A 
ATOM     15  H13 UNL     1     -13.522   2.661   8.049  1.00  0.00     0.172 HD
BRANCH   9  16
HETATM   16  C2  UNL     1     -14.219   0.944  12.887  1.00  0.00     0.133 A 
HETATM   17  C1  UNL     1     -13.352   1.329  13.916  1.00  0.00     0.152 A 
HETATM   18  N2  UNL     1     -13.761   0.709  15.066  1.00  0.00    -0.224 N 
HETATM   19  O1  UNL     1     -14.790   0.017  14.725  1.00  0.00    -0.155 OA
ATOM     20  H2  UNL     1     -13.341   0.781  15.993  1.00  0.00     0.198 HD
HETATM   21  N3  UNL     1     -15.082   0.129  13.479  1.00  0.00    -0.236 N 
ATOM     22  H3  UNL     1     -15.860  -0.339  13.015  1.00  0.00     0.197 HD
BRANCH  17  23
HETATM   23  N1  UNL     1     -12.350   2.120  13.850  1.00  0.00    -0.382 N 
ATOM     24  H12 UNL     1     -12.258   2.977  13.305  1.00  0.00     0.157 HD
ATOM     25  H11 UNL     1     -11.482   1.983  14.369  1.00  0.00     0.157 HD
ENDBRANCH  17  23
ENDBRANCH   9  16
BRANCH  10  26
HETATM   26  N15 UNL     1     -12.313  -0.154  11.264  1.00  0.00    -0.334 N 
ATOM     27 2H15 UNL     1     -11.317  -0.037  11.447  1.00  0.00     0.177 HD
ATOM     28 1H15 UNL     1     -12.756  -1.064  11.393  1.00  0.00     0.177 HD
ENDBRANCH  10  26
BRANCH  14  29
HETATM   29  N12 UNL     1     -15.453   3.801   9.308  1.00  0.00    -0.383 N 
ATOM     30 2H12 UNL     1     -15.844   4.541   9.890  1.00  0.00     0.157 HD
ATOM     31 1H12 UNL     1     -15.694   3.780   8.317  1.00  0.00     0.157 HD
ENDBRANCH  14  29
ENDBRANCH   1   8
BRANCH   3  32
HETATM   32  C7  UNL     1     -19.312   3.459  13.238  1.00  0.00     0.116 C 
BRANCH  32  33
HETATM   33  N5  UNL     1     -19.525   3.232  14.610  1.00  0.00    -0.388 N 
ATOM     34  H5  UNL     1     -19.082   3.795  15.337  1.00  0.00     0.159 HD
BRANCH  33  35
HETATM   35  C8  UNL     1     -20.421   2.136  14.907  1.00  0.00     0.134 C 
HETATM   36  C9  UNL     1     -21.737   2.181  14.218  1.00  0.00     0.052 C 
HETATM   37  C10 UNL     1     -22.523   3.403  14.492  1.00  0.00     0.173 C 
HETATM   38  N6  UNL     1     -22.077   4.099  15.675  1.00  0.00    -0.217 N 
HETATM   39  N8  UNL     1     -21.254   3.561  16.655  1.00  0.00    -0.286 N 
HETATM   40  C11 UNL     1     -20.745   2.256  16.415  1.00  0.00     0.320 C 
ATOM     41  H8  UNL     1     -21.027   4.076  17.505  1.00  0.00     0.184 HD
BRANCH  38  42
HETATM   42  N7  UNL     1     -22.514   5.407  15.843  1.00  0.00    -0.194 N 
ATOM     43  H7  UNL     1     -23.411   5.579  16.297  1.00  0.00     0.217 HD
BRANCH  42  44
HETATM   44  O2  UNL     1     -21.827   6.382  15.447  1.00  0.00    -0.273 OA
ATOM     45  H2  UNL     1     -21.562   7.074  16.041  1.00  0.00     0.246 HD
ENDBRANCH  42  44
ENDBRANCH  38  42
BRANCH  40  46
HETATM   46  N9  UNL     1     -19.466   2.055  17.079  1.00  0.00    -0.055 N 
ATOM     47  H93 UNL     1     -19.444   2.382  18.045  1.00  0.00     0.276 HD
ATOM     48  H92 UNL     1     -19.253   1.078  17.285  1.00  0.00     0.276 HD
ATOM     49  H91 UNL     1     -18.786   2.509  16.470  1.00  0.00     0.276 HD
ENDBRANCH  40  46
ENDBRANCH  33  35
ENDBRANCH  32  33
ENDBRANCH   3  32
TORSDOF 11
ENDMDL
