MODEL 1
REMARK VINA RESULT: -8.414881968      0.000      0.000
REMARK  7 active torsions:
REMARK  status: ('A' for Active; 'I' for Inactive)
REMARK    1  A    between atoms: N3_6  and  C3_7 
REMARK    2  A    between atoms: C3_7  and  C4_8 
REMARK    3  A    between atoms: C4_8  and  S1_9 
REMARK    4  A    between atoms: S1_9  and  C5_10 
REMARK       I    between atoms: N5_14  and  C7_16 
REMARK       I    between atoms: C7_16  and  N6_17 
REMARK       I    between atoms: C7_16  and  N7_21 
REMARK    5  A    between atoms: C10_30  and  C11_31 
REMARK    6  A    between atoms: C11_31  and  O1_32 
REMARK    7  A    between atoms: C11_31  and  O2_34 
ROOT
HETATM    1  C5  UNL     1     -15.450   2.772   9.641  1.00  0.00     0.151 A 
HETATM    2  N4  UNL     1     -16.179   2.301   8.722  1.00  0.00    -0.322 N 
ATOM      3  H4  UNL     1     -15.649   2.006   7.902  1.00  0.00     0.169 HD
HETATM    4  C6  UNL     1     -17.547   2.098   8.591  1.00  0.00     0.127 A 
HETATM    5  N5  UNL     1     -18.158   1.592   7.564  1.00  0.00    -0.326 N 
ATOM      6  H5  UNL     1     -19.174   1.511   7.628  1.00  0.00     0.164 HD
HETATM    7  C7  UNL     1     -17.555   1.139   6.361  1.00  0.00     0.481 C 
HETATM    8  N6  UNL     1     -17.984  -0.252   6.145  1.00  0.00    -0.033 N 
ATOM      9  H61 UNL     1     -17.550  -0.577   5.281  1.00  0.00     0.278 HD
ATOM     10  H62 UNL     1     -18.998  -0.359   6.145  1.00  0.00     0.278 HD
ATOM     11  H63 UNL     1     -17.785  -0.857   6.941  1.00  0.00     0.278 HD
HETATM   12  N7  UNL     1     -16.107   1.097   6.433  1.00  0.00    -0.033 N 
ATOM     13  H71 UNL     1     -15.673   0.771   5.569  1.00  0.00     0.278 HD
ATOM     14  H72 UNL     1     -15.797   0.537   7.229  1.00  0.00     0.278 HD
ATOM     15  H73 UNL     1     -15.730   2.003   6.711  1.00  0.00     0.278 HD
HETATM   16  C8  UNL     1     -18.412   2.480   9.692  1.00  0.00     0.101 A 
HETATM   17  C9  UNL     1     -19.644   2.533  10.123  1.00  0.00     0.139 A 
HETATM   18  N8  UNL     1     -20.700   2.042   9.247  1.00  0.00    -0.081 NA
HETATM   19  N9  UNL     1     -19.903   3.050  11.393  1.00  0.00    -0.337 N 
ATOM     20  H9  UNL     1     -20.866   3.090  11.727  1.00  0.00     0.167 HD
HETATM   21  C10 UNL     1     -18.974   3.469  12.137  1.00  0.00     0.117 A 
HETATM   22  S2  UNL     1     -17.529   3.182  11.112  1.00  0.00    -0.030 SA
HETATM   23  N10 UNL     1     -15.948   3.272  10.926  1.00  0.00    -0.310 N 
ATOM     24  H10 UNL     1     -15.331   3.648  11.645  1.00  0.00     0.176 HD
ENDROOT
BRANCH   1  25
HETATM   25  S1  UNL     1     -13.671   2.874   9.437  1.00  0.00    -0.092 SA
BRANCH  25  26
HETATM   26  C4  UNL     1     -12.794   1.842  10.613  1.00  0.00     0.102 C 
BRANCH  26  27
HETATM   27  C3  UNL     1     -12.761   2.551  11.947  1.00  0.00     0.138 C 
BRANCH  27  28
HETATM   28  N3  UNL     1     -12.607   1.517  12.975  1.00  0.00    -0.339 N 
HETATM   29  C2  UNL     1     -11.271   1.153  13.362  1.00  0.00     0.251 A 
HETATM   30  N2  UNL     1     -11.279   0.134  14.389  1.00  0.00    -0.348 N 
HETATM   31  C1  UNL     1     -12.347  -0.381  14.880  1.00  0.00     0.191 A 
ATOM     32  H2  UNL     1     -10.382  -0.197  14.743  1.00  0.00     0.163 HD
HETATM   33  N1  UNL     1     -12.226  -1.386  15.895  1.00  0.00    -0.063 NA
HETATM   34  N12 UNL     1     -13.631   0.031  14.438  1.00  0.00    -0.305 N 
HETATM   35  C12 UNL     1     -13.772   0.927  13.536  1.00  0.00     0.194 A 
ATOM     36  H12 UNL     1     -14.461  -0.398  14.847  1.00  0.00     0.171 HD
HETATM   37  N11 UNL     1     -15.077   1.326  13.107  1.00  0.00    -0.063 NA
ENDBRANCH  27  28
ENDBRANCH  26  27
ENDBRANCH  25  26
ENDBRANCH   1  25
BRANCH  21  38
HETATM   38  C11 UNL     1     -18.808   4.061  13.476  1.00  0.00     0.313 C 
BRANCH  38  39
HETATM   39  O1  UNL     1     -17.478   4.425  13.683  1.00  0.00    -0.365 OA
ATOM     40  H1  UNL     1     -17.387   4.889  14.507  1.00  0.00     0.213 HD
ENDBRANCH  38  39
BRANCH  38  41
HETATM   41  O2  UNL     1     -19.140   3.175  14.499  1.00  0.00    -0.365 OA
ATOM     42  H2  UNL     1     -18.376   2.816  14.934  1.00  0.00     0.213 HD
ENDBRANCH  38  41
ENDBRANCH  21  38
TORSDOF 7
ENDMDL
MODEL 2
REMARK VINA RESULT: -8.348216265      1.264      1.530
REMARK  7 active torsions:
REMARK  status: ('A' for Active; 'I' for Inactive)
REMARK    1  A    between atoms: N3_6  and  C3_7 
REMARK    2  A    between atoms: C3_7  and  C4_8 
REMARK    3  A    between atoms: C4_8  and  S1_9 
REMARK    4  A    between atoms: S1_9  and  C5_10 
REMARK       I    between atoms: N5_14  and  C7_16 
REMARK       I    between atoms: C7_16  and  N6_17 
REMARK       I    between atoms: C7_16  and  N7_21 
REMARK    5  A    between atoms: C10_30  and  C11_31 
REMARK    6  A    between atoms: C11_31  and  O1_32 
REMARK    7  A    between atoms: C11_31  and  O2_34 
ROOT
HETATM    1  C5  UNL     1     -16.085   2.943   9.880  1.00  0.00     0.151 A 
HETATM    2  N4  UNL     1     -16.970   2.400   9.159  1.00  0.00    -0.322 N 
ATOM      3  H4  UNL     1     -16.597   1.998   8.300  1.00  0.00     0.169 HD
HETATM    4  C6  UNL     1     -18.344   2.236   9.288  1.00  0.00     0.127 A 
HETATM    5  N5  UNL     1     -19.133   1.643   8.445  1.00  0.00    -0.326 N 
ATOM      6  H5  UNL     1     -20.123   1.608   8.690  1.00  0.00     0.164 HD
HETATM    7  C7  UNL     1     -18.756   1.038   7.217  1.00  0.00     0.481 C 
HETATM    8  N6  UNL     1     -19.241  -0.350   7.237  1.00  0.00    -0.033 N 
ATOM      9  H61 UNL     1     -18.970  -0.785   6.355  1.00  0.00     0.278 HD
ATOM     10  H62 UNL     1     -20.242  -0.419   7.423  1.00  0.00     0.278 HD
ATOM     11  H63 UNL     1     -18.917  -0.871   8.052  1.00  0.00     0.278 HD
HETATM   12  N7  UNL     1     -17.318   0.951   7.045  1.00  0.00    -0.033 N 
ATOM     13  H71 UNL     1     -17.047   0.516   6.162  1.00  0.00     0.278 HD
ATOM     14  H72 UNL     1     -16.886   0.471   7.834  1.00  0.00     0.278 HD
ATOM     15  H73 UNL     1     -16.883   1.867   7.148  1.00  0.00     0.278 HD
HETATM   16  C8  UNL     1     -18.997   2.768  10.469  1.00  0.00     0.101 A 
HETATM   17  C9  UNL     1     -20.134   2.914  11.095  1.00  0.00     0.139 A 
HETATM   18  N8  UNL     1     -21.335   2.370  10.474  1.00  0.00    -0.081 NA
HETATM   19  N9  UNL     1     -20.159   3.577  12.323  1.00  0.00    -0.337 N 
ATOM     20  H9  UNL     1     -21.049   3.689  12.810  1.00  0.00     0.167 HD
HETATM   21  C10 UNL     1     -19.108   4.040  12.845  1.00  0.00     0.117 A 
HETATM   22  S2  UNL     1     -17.868   3.589  11.627  1.00  0.00    -0.030 SA
HETATM   23  N10 UNL     1     -16.343   3.598  11.165  1.00  0.00    -0.310 N 
ATOM     24  H10 UNL     1     -15.604   4.028  11.721  1.00  0.00     0.176 HD
ENDROOT
BRANCH   1  25
HETATM   25  S1  UNL     1     -14.367   2.955   9.365  1.00  0.00    -0.092 SA
BRANCH  25  26
HETATM   26  C4  UNL     1     -13.574   1.365   9.611  1.00  0.00     0.102 C 
BRANCH  26  27
HETATM   27  C3  UNL     1     -12.341   1.567  10.461  1.00  0.00     0.138 C 
BRANCH  27  28
HETATM   28  N3  UNL     1     -12.702   1.190  11.831  1.00  0.00    -0.339 N 
HETATM   29  C2  UNL     1     -12.985  -0.196  12.089  1.00  0.00     0.251 A 
HETATM   30  N2  UNL     1     -13.313  -0.416  13.481  1.00  0.00    -0.348 N 
HETATM   31  C1  UNL     1     -13.352   0.514  14.364  1.00  0.00     0.191 A 
ATOM     32  H2  UNL     1     -13.527  -1.368  13.779  1.00  0.00     0.163 HD
HETATM   33  N1  UNL     1     -13.691   0.171  15.714  1.00  0.00    -0.063 NA
HETATM   34  N12 UNL     1     -13.064   1.862  14.025  1.00  0.00    -0.305 N 
HETATM   35  C12 UNL     1     -12.755   2.199  12.831  1.00  0.00     0.194 A 
ATOM     36  H12 UNL     1     -13.105   2.578  14.750  1.00  0.00     0.171 HD
HETATM   37  N11 UNL     1     -12.468   3.564  12.512  1.00  0.00    -0.063 NA
ENDBRANCH  27  28
ENDBRANCH  26  27
ENDBRANCH  25  26
ENDBRANCH   1  25
BRANCH  21  38
HETATM   38  C11 UNL     1     -18.701   4.769  14.059  1.00  0.00     0.313 C 
BRANCH  38  39
HETATM   39  O1  UNL     1     -17.324   4.989  14.053  1.00  0.00    -0.365 OA
ATOM     40  H1  UNL     1     -17.093   5.651  14.694  1.00  0.00     0.213 HD
ENDBRANCH  38  39
BRANCH  38  41
HETATM   41  O2  UNL     1     -18.985   4.064  15.227  1.00  0.00    -0.365 OA
ATOM     42  H2  UNL     1     -18.882   4.595  16.008  1.00  0.00     0.213 HD
ENDBRANCH  38  41
ENDBRANCH  21  38
TORSDOF 7
ENDMDL
MODEL 3
REMARK VINA RESULT: -8.044041114      1.804      2.348
REMARK  7 active torsions:
REMARK  status: ('A' for Active; 'I' for Inactive)
REMARK    1  A    between atoms: N3_6  and  C3_7 
REMARK    2  A    between atoms: C3_7  and  C4_8 
REMARK    3  A    between atoms: C4_8  and  S1_9 
REMARK    4  A    between atoms: S1_9  and  C5_10 
REMARK       I    between atoms: N5_14  and  C7_16 
REMARK       I    between atoms: C7_16  and  N6_17 
REMARK       I    between atoms: C7_16  and  N7_21 
REMARK    5  A    between atoms: C10_30  and  C11_31 
REMARK    6  A    between atoms: C11_31  and  O1_32 
REMARK    7  A    between atoms: C11_31  and  O2_34 
ROOT
HETATM    1  C5  UNL     1     -16.737   3.184  10.450  1.00  0.00     0.151 A 
HETATM    2  N4  UNL     1     -17.703   2.609   9.873  1.00  0.00    -0.322 N 
ATOM      3  H4  UNL     1     -17.433   2.139   9.010  1.00  0.00     0.169 HD
HETATM    4  C6  UNL     1     -19.056   2.480  10.165  1.00  0.00     0.127 A 
HETATM    5  N5  UNL     1     -19.941   1.843   9.460  1.00  0.00    -0.326 N 
ATOM      6  H5  UNL     1     -20.897   1.845   9.815  1.00  0.00     0.164 HD
HETATM    7  C7  UNL     1     -19.709   1.145   8.245  1.00  0.00     0.481 C 
HETATM    8  N6  UNL     1     -20.204  -0.229   8.421  1.00  0.00    -0.033 N 
ATOM      9  H61 UNL     1     -20.038  -0.730   7.548  1.00  0.00     0.278 HD
ATOM     10  H62 UNL     1     -21.179  -0.265   8.721  1.00  0.00     0.278 HD
ATOM     11  H63 UNL     1     -19.797  -0.696   9.231  1.00  0.00     0.278 HD
HETATM   12  N7  UNL     1     -18.301   1.019   7.922  1.00  0.00    -0.033 N 
ATOM     13  H71 UNL     1     -18.135   0.517   7.049  1.00  0.00     0.278 HD
ATOM     14  H72 UNL     1     -17.788   0.588   8.692  1.00  0.00     0.278 HD
ATOM     15  H73 UNL     1     -17.847   1.932   7.909  1.00  0.00     0.278 HD
HETATM   16  C8  UNL     1     -19.567   3.108  11.369  1.00  0.00     0.101 A 
HETATM   17  C9  UNL     1     -20.626   3.320  12.105  1.00  0.00     0.139 A 
HETATM   18  N8  UNL     1     -21.895   2.755  11.662  1.00  0.00    -0.081 NA
HETATM   19  N9  UNL     1     -20.507   4.069  13.275  1.00  0.00    -0.337 N 
ATOM     20  H9  UNL     1     -21.335   4.232  13.848  1.00  0.00     0.167 HD
HETATM   21  C10 UNL     1     -19.399   4.549  13.643  1.00  0.00     0.117 A 
HETATM   22  S2  UNL     1     -18.307   3.988  12.332  1.00  0.00    -0.030 SA
HETATM   23  N10 UNL     1     -16.843   3.935  11.705  1.00  0.00    -0.310 N 
ATOM     24  H10 UNL     1     -16.042   4.389  12.142  1.00  0.00     0.176 HD
ENDROOT
BRANCH   1  25
HETATM   25  S1  UNL     1     -15.088   3.128   9.749  1.00  0.00    -0.092 SA
BRANCH  25  26
HETATM   26  C4  UNL     1     -14.173   1.681  10.285  1.00  0.00     0.102 C 
BRANCH  26  27
HETATM   27  C3  UNL     1     -14.488   1.423  11.741  1.00  0.00     0.138 C 
BRANCH  27  28
HETATM   28  N3  UNL     1     -13.244   0.973  12.373  1.00  0.00    -0.339 N 
HETATM   29  C2  UNL     1     -13.038  -0.443  12.508  1.00  0.00     0.251 A 
HETATM   30  N2  UNL     1     -11.767  -0.733  13.137  1.00  0.00    -0.348 N 
HETATM   31  C1  UNL     1     -10.939   0.166  13.529  1.00  0.00     0.191 A 
ATOM     32  H2  UNL     1     -11.514  -1.711  13.279  1.00  0.00     0.163 HD
HETATM   33  N1  UNL     1      -9.710  -0.246  14.140  1.00  0.00    -0.063 NA
HETATM   34  N12 UNL     1     -11.222   1.547  13.363  1.00  0.00    -0.305 N 
HETATM   35  C12 UNL     1     -12.308   1.947  12.818  1.00  0.00     0.194 A 
ATOM     36  H12 UNL     1     -10.544   2.237  13.685  1.00  0.00     0.171 HD
HETATM   37  N11 UNL     1     -12.571   3.344  12.661  1.00  0.00    -0.063 NA
ENDBRANCH  27  28
ENDBRANCH  26  27
ENDBRANCH  25  26
ENDBRANCH   1  25
BRANCH  21  38
HETATM   38  C11 UNL     1     -18.851   5.354  14.747  1.00  0.00     0.313 C 
BRANCH  38  39
HETATM   39  O1  UNL     1     -19.632   6.491  14.952  1.00  0.00    -0.365 OA
ATOM     40  H1  UNL     1     -19.378   6.925  15.758  1.00  0.00     0.213 HD
ENDBRANCH  38  39
BRANCH  38  41
HETATM   41  O2  UNL     1     -17.556   5.803  14.493  1.00  0.00    -0.365 OA
ATOM     42  H2  UNL     1     -17.483   6.749  14.535  1.00  0.00     0.213 HD
ENDBRANCH  38  41
ENDBRANCH  21  38
TORSDOF 7
ENDMDL
MODEL 4
REMARK VINA RESULT: -7.962773392      2.946      4.775
REMARK  7 active torsions:
REMARK  status: ('A' for Active; 'I' for Inactive)
REMARK    1  A    between atoms: N3_6  and  C3_7 
REMARK    2  A    between atoms: C3_7  and  C4_8 
REMARK    3  A    between atoms: C4_8  and  S1_9 
REMARK    4  A    between atoms: S1_9  and  C5_10 
REMARK       I    between atoms: N5_14  and  C7_16 
REMARK       I    between atoms: C7_16  and  N6_17 
REMARK       I    between atoms: C7_16  and  N7_21 
REMARK    5  A    between atoms: C10_30  and  C11_31 
REMARK    6  A    between atoms: C11_31  and  O1_32 
REMARK    7  A    between atoms: C11_31  and  O2_34 
ROOT
HETATM    1  C5  UNL     1     -17.132   3.189  11.227  1.00  0.00     0.151 A 
HETATM    2  N4  UNL     1     -17.732   3.745  12.190  1.00  0.00    -0.322 N 
ATOM      3  H4  UNL     1     -17.107   4.264  12.807  1.00  0.00     0.169 HD
HETATM    4  C6  UNL     1     -19.062   3.801  12.588  1.00  0.00     0.127 A 
HETATM    5  N5  UNL     1     -19.533   4.427  13.623  1.00  0.00    -0.326 N 
ATOM      6  H5  UNL     1     -20.540   4.368  13.776  1.00  0.00     0.164 HD
HETATM    7  C7  UNL     1     -18.786   5.187  14.562  1.00  0.00     0.481 C 
HETATM    8  N6  UNL     1     -19.386   6.529  14.625  1.00  0.00    -0.033 N 
ATOM      9  H61 UNL     1     -18.849   7.075  15.300  1.00  0.00     0.278 HD
ATOM     10  H62 UNL     1     -20.384   6.509  14.835  1.00  0.00     0.278 HD
ATOM     11  H63 UNL     1     -19.449   6.979  13.712  1.00  0.00     0.278 HD
HETATM   12  N7  UNL     1     -17.408   5.390  14.160  1.00  0.00    -0.033 N 
ATOM     13  H71 UNL     1     -16.871   5.936  14.835  1.00  0.00     0.278 HD
ATOM     14  H72 UNL     1     -17.357   5.810  13.231  1.00  0.00     0.278 HD
ATOM     15  H73 UNL     1     -16.950   4.500  13.967  1.00  0.00     0.278 HD
HETATM   16  C8  UNL     1     -20.053   3.100  11.793  1.00  0.00     0.101 A 
HETATM   17  C9  UNL     1     -21.320   2.809  11.666  1.00  0.00     0.139 A 
HETATM   18  N8  UNL     1     -22.248   3.335  12.659  1.00  0.00    -0.081 NA
HETATM   19  N9  UNL     1     -21.736   2.016  10.596  1.00  0.00    -0.337 N 
ATOM     20  H9  UNL     1     -22.726   1.791  10.499  1.00  0.00     0.167 HD
HETATM   21  C10 UNL     1     -20.916   1.570   9.746  1.00  0.00     0.117 A 
HETATM   22  S2  UNL     1     -19.364   2.236  10.355  1.00  0.00    -0.030 SA
HETATM   23  N10 UNL     1     -17.785   2.380  10.193  1.00  0.00    -0.310 N 
ATOM     24  H10 UNL     1     -17.269   1.944   9.430  1.00  0.00     0.176 HD
ENDROOT
BRANCH   1  25
HETATM   25  S1  UNL     1     -15.355   3.350  11.040  1.00  0.00    -0.092 SA
BRANCH  25  26
HETATM   26  C4  UNL     1     -14.462   2.664  12.437  1.00  0.00     0.102 C 
BRANCH  26  27
HETATM   27  C3  UNL     1     -14.776   1.188  12.533  1.00  0.00     0.138 C 
BRANCH  27  28
HETATM   28  N3  UNL     1     -13.632   0.552  13.194  1.00  0.00    -0.339 N 
HETATM   29  C2  UNL     1     -13.679   0.418  14.625  1.00  0.00     0.251 A 
HETATM   30  N2  UNL     1     -12.491  -0.236  15.131  1.00  0.00    -0.348 N 
HETATM   31  C1  UNL     1     -11.522  -0.635  14.391  1.00  0.00     0.191 A 
ATOM     32  H2  UNL     1     -12.420  -0.389  16.137  1.00  0.00     0.163 HD
HETATM   33  N1  UNL     1     -10.396  -1.271  15.010  1.00  0.00    -0.063 NA
HETATM   34  N12 UNL     1     -11.552  -0.459  12.983  1.00  0.00    -0.305 N 
HETATM   35  C12 UNL     1     -12.543   0.102  12.400  1.00  0.00     0.194 A 
ATOM     36  H12 UNL     1     -10.765  -0.786  12.422  1.00  0.00     0.171 HD
HETATM   37  N11 UNL     1     -12.551   0.268  10.979  1.00  0.00    -0.063 NA
ENDBRANCH  27  28
ENDBRANCH  26  27
ENDBRANCH  25  26
ENDBRANCH   1  25
BRANCH  21  38
HETATM   38  C11 UNL     1     -20.923   0.743   8.528  1.00  0.00     0.313 C 
BRANCH  38  39
HETATM   39  O1  UNL     1     -19.968  -0.269   8.623  1.00  0.00    -0.365 OA
ATOM     40  H1  UNL     1     -20.205  -1.000   8.065  1.00  0.00     0.213 HD
ENDBRANCH  38  39
BRANCH  38  41
HETATM   41  O2  UNL     1     -20.613   1.473   7.382  1.00  0.00    -0.365 OA
ATOM     42  H2  UNL     1     -20.052   0.994   6.784  1.00  0.00     0.213 HD
ENDBRANCH  38  41
ENDBRANCH  21  38
TORSDOF 7
ENDMDL
MODEL 5
REMARK VINA RESULT: -7.961725280      1.955      2.549
REMARK  7 active torsions:
REMARK  status: ('A' for Active; 'I' for Inactive)
REMARK    1  A    between atoms: N3_6  and  C3_7 
REMARK    2  A    between atoms: C3_7  and  C4_8 
REMARK    3  A    between atoms: C4_8  and  S1_9 
REMARK    4  A    between atoms: S1_9  and  C5_10 
REMARK       I    between atoms: N5_14  and  C7_16 
REMARK       I    between atoms: C7_16  and  N6_17 
REMARK       I    between atoms: C7_16  and  N7_21 
REMARK    5  A    between atoms: C10_30  and  C11_31 
REMARK    6  A    between atoms: C11_31  and  O1_32 
REMARK    7  A    between atoms: C11_31  and  O2_34 
ROOT
HETATM    1  C5  UNL     1     -17.882   2.364   9.306  1.00  0.00     0.151 A 
HETATM    2  N4  UNL     1     -18.870   1.649   8.977  1.00  0.00    -0.322 N 
ATOM      3  H4  UNL     1     -18.765   1.215   8.060  1.00  0.00     0.169 HD
HETATM    4  C6  UNL     1     -20.072   1.329   9.598  1.00  0.00     0.127 A 
HETATM    5  N5  UNL     1     -21.007   0.564   9.123  1.00  0.00    -0.326 N 
ATOM      6  H5  UNL     1     -21.832   0.430   9.709  1.00  0.00     0.164 HD
HETATM    7  C7  UNL     1     -20.996  -0.105   7.871  1.00  0.00     0.481 C 
HETATM    8  N6  UNL     1     -21.228  -1.535   8.128  1.00  0.00    -0.033 N 
ATOM      9  H61 UNL     1     -21.220  -2.015   7.228  1.00  0.00     0.278 HD
ATOM     10  H62 UNL     1     -22.079  -1.709   8.664  1.00  0.00     0.278 HD
ATOM     11  H63 UNL     1     -20.566  -1.930   8.795  1.00  0.00     0.278 HD
HETATM   12  N7  UNL     1     -19.713  -0.030   7.198  1.00  0.00    -0.033 N 
ATOM     13  H71 UNL     1     -19.705  -0.510   6.298  1.00  0.00     0.278 HD
ATOM     14  H72 UNL     1     -18.965  -0.374   7.801  1.00  0.00     0.278 HD
ATOM     15  H73 UNL     1     -19.412   0.939   7.095  1.00  0.00     0.278 HD
HETATM   16  C8  UNL     1     -20.344   1.887  10.909  1.00  0.00     0.101 A 
HETATM   17  C9  UNL     1     -21.199   1.951  11.895  1.00  0.00     0.139 A 
HETATM   18  N8  UNL     1     -22.445   1.205  11.772  1.00  0.00    -0.081 NA
HETATM   19  N9  UNL     1     -20.893   2.721  13.017  1.00  0.00    -0.337 N 
ATOM     20  H9  UNL     1     -21.563   2.768  13.786  1.00  0.00     0.167 HD
HETATM   21  C10 UNL     1     -19.808   3.360  13.105  1.00  0.00     0.117 A 
HETATM   22  S2  UNL     1     -19.019   2.950  11.545  1.00  0.00    -0.030 SA
HETATM   23  N10 UNL     1     -17.771   3.104  10.566  1.00  0.00    -0.310 N 
ATOM     24  H10 UNL     1     -16.957   3.674  10.799  1.00  0.00     0.176 HD
ENDROOT
BRANCH   1  25
HETATM   25  S1  UNL     1     -16.474   2.540   8.208  1.00  0.00    -0.092 SA
BRANCH  25  26
HETATM   26  C4  UNL     1     -15.021   1.691   8.828  1.00  0.00     0.102 C 
BRANCH  26  27
HETATM   27  C3  UNL     1     -14.456   2.482   9.985  1.00  0.00     0.138 C 
BRANCH  27  28
HETATM   28  N3  UNL     1     -13.924   1.511  10.945  1.00  0.00    -0.339 N 
HETATM   29  C2  UNL     1     -12.901   0.610  10.487  1.00  0.00     0.251 A 
HETATM   30  N2  UNL     1     -12.468  -0.277  11.545  1.00  0.00    -0.348 N 
HETATM   31  C1  UNL     1     -12.948  -0.262  12.735  1.00  0.00     0.191 A 
ATOM     32  H2  UNL     1     -11.739  -0.958  11.331  1.00  0.00     0.163 HD
HETATM   33  N1  UNL     1     -12.437  -1.193  13.697  1.00  0.00    -0.063 NA
HETATM   34  N12 UNL     1     -13.963   0.658  13.106  1.00  0.00    -0.305 N 
HETATM   35  C12 UNL     1     -14.437   1.503  12.271  1.00  0.00     0.194 A 
ATOM     36  H12 UNL     1     -14.324   0.644  14.060  1.00  0.00     0.171 HD
HETATM   37  N11 UNL     1     -15.460   2.421  12.668  1.00  0.00    -0.063 NA
ENDBRANCH  27  28
ENDBRANCH  26  27
ENDBRANCH  25  26
ENDBRANCH   1  25
BRANCH  21  38
HETATM   38  C11 UNL     1     -19.118   4.246  14.057  1.00  0.00     0.313 C 
BRANCH  38  39
HETATM   39  O1  UNL     1     -17.763   4.339  13.738  1.00  0.00    -0.365 OA
ATOM     40  H1  UNL     1     -17.231   4.053  14.471  1.00  0.00     0.213 HD
ENDBRANCH  38  39
BRANCH  38  41
HETATM   41  O2  UNL     1     -19.185   3.782  15.369  1.00  0.00    -0.365 OA
ATOM     42  H2  UNL     1     -19.268   4.485  16.002  1.00  0.00     0.213 HD
ENDBRANCH  38  41
ENDBRANCH  21  38
TORSDOF 7
ENDMDL
