MODEL 1
REMARK VINA RESULT: -7.597004842      0.000      0.000
REMARK  9 active torsions:
REMARK  status: ('A' for Active; 'I' for Inactive)
REMARK    1  A    between atoms: O1_2  and  C2_3 
REMARK    2  A    between atoms: C2_3  and  C3_5 
REMARK    3  A    between atoms: C3_5  and  C4_6 
REMARK    4  A    between atoms: C3_5  and  O5_33 
REMARK    5  A    between atoms: C5_7  and  C6_8 
REMARK    6  A    between atoms: C6_8  and  C8_10 
REMARK    7  A    between atoms: C8_10  and  O3_11 
REMARK    8  A    between atoms: C19_23  and  C21_25 
REMARK    9  A    between atoms: C21_25  and  O4_26 
ROOT
HETATM    1  C8  UNL     1     -25.471 -19.899 -41.381  1.00  0.00     0.111 C 
HETATM    2  C9  UNL     1     -26.361 -18.806 -40.995  1.00  0.00    -0.049 C 
HETATM    3  C10 UNL     1     -27.762 -18.849 -40.496  1.00  0.00     0.046 C 
HETATM    4  C11 UNL     1     -25.803 -17.569 -41.177  1.00  0.00    -0.021 C 
HETATM    5  C12 UNL     1     -24.453 -17.379 -41.712  1.00  0.00     0.033 C 
HETATM    6  C13 UNL     1     -24.107 -18.325 -42.823  1.00  0.00     0.009 C 
HETATM    7  C14 UNL     1     -24.111 -17.724 -44.208  1.00  0.00    -0.035 C 
HETATM    8  C15 UNL     1     -22.942 -18.424 -45.003  1.00  0.00     0.016 C 
HETATM    9  C16 UNL     1     -23.617 -16.297 -44.229  1.00  0.00     0.010 C 
HETATM   10  C17 UNL     1     -24.606 -15.236 -44.418  1.00  0.00     0.002 C 
HETATM   11  C18 UNL     1     -25.995 -15.687 -44.793  1.00  0.00     0.012 C 
HETATM   12  C19 UNL     1     -25.878 -16.791 -45.767  1.00  0.00    -0.018 C 
HETATM   13  C20 UNL     1     -27.310 -17.162 -46.189  1.00  0.00     0.018 C 
HETATM   14  C22 UNL     1     -25.273 -17.992 -45.078  1.00  0.00     0.004 C 
HETATM   15  C23 UNL     1     -26.405 -18.733 -44.429  1.00  0.00     0.007 C 
HETATM   16  C24 UNL     1     -25.792 -19.931 -43.778  1.00  0.00     0.014 C 
HETATM   17  C25 UNL     1     -24.770 -19.665 -42.730  1.00  0.00    -0.000 C 
HETATM   18  C26 UNL     1     -23.634 -20.705 -42.743  1.00  0.00     0.019 C 
ENDROOT
BRANCH   1  19
HETATM   19  C6  UNL     1     -26.058 -21.189 -41.167  1.00  0.00    -0.045 C 
HETATM   20  C7  UNL     1     -25.804 -22.411 -41.931  1.00  0.00     0.047 C 
BRANCH  19  21
HETATM   21  C5  UNL     1     -26.012 -21.552 -39.724  1.00  0.00     0.005 C 
HETATM   22  C4  UNL     1     -26.267 -22.809 -39.290  1.00  0.00     0.015 C 
BRANCH  22  23
HETATM   23  C3  UNL     1     -26.231 -23.207 -37.872  1.00  0.00     0.243 C 
BRANCH  23  24
HETATM   24  C2  UNL     1     -27.626 -23.270 -37.370  1.00  0.00     0.291 C 
HETATM   25  O2  UNL     1     -28.379 -24.177 -37.803  1.00  0.00    -0.262 OA
BRANCH  24  26
HETATM   26  O1  UNL     1     -28.138 -22.380 -36.449  1.00  0.00    -0.324 OA
HETATM   27  C1  UNL     1     -28.562 -21.104 -36.886  1.00  0.00     0.213 C 
ENDBRANCH  24  26
ENDBRANCH  23  24
BRANCH  23  28
HETATM   28  O5  UNL     1     -25.600 -24.433 -37.690  1.00  0.00    -0.377 OA
HETATM   29  C27 UNL     1     -24.953 -24.420 -36.474  1.00  0.00     0.203 C 
ENDBRANCH  23  28
ENDBRANCH  22  23
ENDBRANCH  19  21
ENDBRANCH   1  19
BRANCH   1  30
HETATM   30  O3  UNL     1     -24.321 -19.839 -40.516  1.00  0.00    -0.380 OA
ATOM     31  H3  UNL     1     -24.135 -18.916 -40.392  1.00  0.00     0.211 HD
ENDBRANCH   1  30
BRANCH  12  32
HETATM   32  C21 UNL     1     -25.190 -16.394 -47.031  1.00  0.00     0.173 C 
BRANCH  32  33
HETATM   33  O4  UNL     1     -24.787 -17.539 -47.753  1.00  0.00    -0.400 OA
ATOM     34  H4  UNL     1     -24.751 -17.348 -48.682  1.00  0.00     0.209 HD
ENDBRANCH  32  33
ENDBRANCH  12  32
TORSDOF 9
ENDMDL
MODEL 2
REMARK VINA RESULT: -7.468240435      0.681      1.558
REMARK  9 active torsions:
REMARK  status: ('A' for Active; 'I' for Inactive)
REMARK    1  A    between atoms: O1_2  and  C2_3 
REMARK    2  A    between atoms: C2_3  and  C3_5 
REMARK    3  A    between atoms: C3_5  and  C4_6 
REMARK    4  A    between atoms: C3_5  and  O5_33 
REMARK    5  A    between atoms: C5_7  and  C6_8 
REMARK    6  A    between atoms: C6_8  and  C8_10 
REMARK    7  A    between atoms: C8_10  and  O3_11 
REMARK    8  A    between atoms: C19_23  and  C21_25 
REMARK    9  A    between atoms: C21_25  and  O4_26 
ROOT
HETATM    1  C8  UNL     1     -25.610 -20.040 -41.467  1.00  0.00     0.111 C 
HETATM    2  C9  UNL     1     -26.603 -19.034 -41.097  1.00  0.00    -0.049 C 
HETATM    3  C10 UNL     1     -28.036 -19.199 -40.732  1.00  0.00     0.046 C 
HETATM    4  C11 UNL     1     -26.117 -17.755 -41.149  1.00  0.00    -0.021 C 
HETATM    5  C12 UNL     1     -24.742 -17.444 -41.545  1.00  0.00     0.033 C 
HETATM    6  C13 UNL     1     -24.236 -18.289 -42.676  1.00  0.00     0.009 C 
HETATM    7  C14 UNL     1     -24.160 -17.596 -44.015  1.00  0.00    -0.035 C 
HETATM    8  C15 UNL     1     -22.881 -18.164 -44.742  1.00  0.00     0.016 C 
HETATM    9  C16 UNL     1     -23.765 -16.142 -43.901  1.00  0.00     0.010 C 
HETATM   10  C17 UNL     1     -24.804 -15.134 -44.113  1.00  0.00     0.002 C 
HETATM   11  C18 UNL     1     -26.121 -15.645 -44.642  1.00  0.00     0.012 C 
HETATM   12  C19 UNL     1     -25.843 -16.669 -45.668  1.00  0.00    -0.018 C 
HETATM   13  C20 UNL     1     -27.204 -17.100 -46.242  1.00  0.00     0.018 C 
HETATM   14  C22 UNL     1     -25.221 -17.875 -45.003  1.00  0.00     0.004 C 
HETATM   15  C23 UNL     1     -26.351 -18.728 -44.509  1.00  0.00     0.007 C 
HETATM   16  C24 UNL     1     -25.717 -19.927 -43.881  1.00  0.00     0.014 C 
HETATM   17  C25 UNL     1     -24.811 -19.670 -42.729  1.00  0.00    -0.000 C 
HETATM   18  C26 UNL     1     -23.610 -20.634 -42.702  1.00  0.00     0.019 C 
ENDROOT
BRANCH   1  19
HETATM   19  C6  UNL     1     -26.124 -21.376 -41.390  1.00  0.00    -0.045 C 
HETATM   20  C7  UNL     1     -25.662 -22.543 -42.142  1.00  0.00     0.047 C 
BRANCH  19  21
HETATM   21  C5  UNL     1     -26.275 -21.796 -39.970  1.00  0.00     0.005 C 
HETATM   22  C4  UNL     1     -27.094 -22.811 -39.603  1.00  0.00     0.015 C 
BRANCH  22  23
HETATM   23  C3  UNL     1     -27.271 -23.256 -38.210  1.00  0.00     0.243 C 
BRANCH  23  24
HETATM   24  C2  UNL     1     -26.176 -24.200 -37.879  1.00  0.00     0.291 C 
HETATM   25  O2  UNL     1     -26.101 -25.279 -38.517  1.00  0.00    -0.262 OA
BRANCH  24  26
HETATM   26  O1  UNL     1     -25.234 -23.952 -36.903  1.00  0.00    -0.324 OA
HETATM   27  C1  UNL     1     -24.978 -24.941 -35.925  1.00  0.00     0.213 C 
ENDBRANCH  24  26
ENDBRANCH  23  24
BRANCH  23  28
HETATM   28  O5  UNL     1     -27.271 -22.189 -37.318  1.00  0.00    -0.377 OA
HETATM   29  C27 UNL     1     -28.355 -22.317 -36.477  1.00  0.00     0.203 C 
ENDBRANCH  23  28
ENDBRANCH  22  23
ENDBRANCH  19  21
ENDBRANCH   1  19
BRANCH   1  30
HETATM   30  O3  UNL     1     -24.546 -19.968 -40.498  1.00  0.00    -0.380 OA
ATOM     31  H3  UNL     1     -24.769 -19.249 -39.920  1.00  0.00     0.211 HD
ENDBRANCH   1  30
BRANCH  12  32
HETATM   32  C21 UNL     1     -25.077 -16.144 -46.836  1.00  0.00     0.173 C 
BRANCH  32  33
HETATM   33  O4  UNL     1     -24.654 -17.206 -47.665  1.00  0.00    -0.400 OA
ATOM     34  H4  UNL     1     -24.917 -17.050 -48.564  1.00  0.00     0.209 HD
ENDBRANCH  32  33
ENDBRANCH  12  32
TORSDOF 9
ENDMDL
MODEL 3
REMARK VINA RESULT: -6.984593458      2.520      4.190
REMARK  9 active torsions:
REMARK  status: ('A' for Active; 'I' for Inactive)
REMARK    1  A    between atoms: O1_2  and  C2_3 
REMARK    2  A    between atoms: C2_3  and  C3_5 
REMARK    3  A    between atoms: C3_5  and  C4_6 
REMARK    4  A    between atoms: C3_5  and  O5_33 
REMARK    5  A    between atoms: C5_7  and  C6_8 
REMARK    6  A    between atoms: C6_8  and  C8_10 
REMARK    7  A    between atoms: C8_10  and  O3_11 
REMARK    8  A    between atoms: C19_23  and  C21_25 
REMARK    9  A    between atoms: C21_25  and  O4_26 
ROOT
HETATM    1  C8  UNL     1     -25.363 -20.353 -41.769  1.00  0.00     0.111 C 
HETATM    2  C9  UNL     1     -26.468 -19.517 -41.308  1.00  0.00    -0.049 C 
HETATM    3  C10 UNL     1     -27.866 -19.891 -40.963  1.00  0.00     0.046 C 
HETATM    4  C11 UNL     1     -26.144 -18.189 -41.238  1.00  0.00    -0.021 C 
HETATM    5  C12 UNL     1     -24.821 -17.675 -41.601  1.00  0.00     0.033 C 
HETATM    6  C13 UNL     1     -24.226 -18.340 -42.806  1.00  0.00     0.009 C 
HETATM    7  C14 UNL     1     -24.249 -17.521 -44.073  1.00  0.00    -0.035 C 
HETATM    8  C15 UNL     1     -22.917 -17.857 -44.848  1.00  0.00     0.016 C 
HETATM    9  C16 UNL     1     -24.035 -16.047 -43.822  1.00  0.00     0.010 C 
HETATM   10  C17 UNL     1     -25.192 -15.160 -43.940  1.00  0.00     0.002 C 
HETATM   11  C18 UNL     1     -26.441 -15.777 -44.516  1.00  0.00     0.012 C 
HETATM   12  C19 UNL     1     -26.050 -16.659 -45.634  1.00  0.00    -0.018 C 
HETATM   13  C20 UNL     1     -27.354 -17.198 -46.248  1.00  0.00     0.018 C 
HETATM   14  C22 UNL     1     -25.278 -17.835 -45.085  1.00  0.00     0.004 C 
HETATM   15  C23 UNL     1     -26.290 -18.864 -44.675  1.00  0.00     0.007 C 
HETATM   16  C24 UNL     1     -25.506 -20.029 -44.162  1.00  0.00     0.014 C 
HETATM   17  C25 UNL     1     -24.628 -19.772 -42.990  1.00  0.00    -0.000 C 
HETATM   18  C26 UNL     1     -23.318 -20.578 -43.052  1.00  0.00     0.019 C 
ENDROOT
BRANCH   1  19
HETATM   19  C6  UNL     1     -25.708 -21.744 -41.819  1.00  0.00    -0.045 C 
HETATM   20  C7  UNL     1     -25.906 -22.645 -40.683  1.00  0.00     0.047 C 
BRANCH  19  21
HETATM   21  C5  UNL     1     -26.835 -21.969 -42.764  1.00  0.00     0.005 C 
HETATM   22  C4  UNL     1     -26.902 -23.066 -43.556  1.00  0.00     0.015 C 
BRANCH  22  23
HETATM   23  C3  UNL     1     -28.000 -23.325 -44.504  1.00  0.00     0.243 C 
BRANCH  23  24
HETATM   24  C2  UNL     1     -27.587 -22.833 -45.841  1.00  0.00     0.291 C 
HETATM   25  O2  UNL     1     -26.838 -23.557 -46.542  1.00  0.00    -0.262 OA
BRANCH  24  26
HETATM   26  O1  UNL     1     -27.986 -21.617 -46.355  1.00  0.00    -0.324 OA
HETATM   27  C1  UNL     1     -29.151 -21.000 -45.841  1.00  0.00     0.213 C 
ENDBRANCH  24  26
ENDBRANCH  23  24
BRANCH  23  28
HETATM   28  O5  UNL     1     -28.325 -24.675 -44.569  1.00  0.00    -0.377 OA
HETATM   29  C27 UNL     1     -29.680 -24.792 -44.790  1.00  0.00     0.203 C 
ENDBRANCH  23  28
ENDBRANCH  22  23
ENDBRANCH  19  21
ENDBRANCH   1  19
BRANCH   1  30
HETATM   30  O3  UNL     1     -24.306 -20.242 -40.796  1.00  0.00    -0.380 OA
ATOM     31  H3  UNL     1     -23.890 -21.095 -40.765  1.00  0.00     0.211 HD
ENDBRANCH   1  30
BRANCH  12  32
HETATM   32  C21 UNL     1     -25.366 -15.936 -46.746  1.00  0.00     0.173 C 
BRANCH  32  33
HETATM   33  O4  UNL     1     -24.793 -16.855 -47.652  1.00  0.00    -0.400 OA
ATOM     34  H4  UNL     1     -25.471 -17.369 -48.075  1.00  0.00     0.209 HD
ENDBRANCH  32  33
ENDBRANCH  12  32
TORSDOF 9
ENDMDL
MODEL 4
REMARK VINA RESULT: -6.814976912      1.803      3.282
REMARK  9 active torsions:
REMARK  status: ('A' for Active; 'I' for Inactive)
REMARK    1  A    between atoms: O1_2  and  C2_3 
REMARK    2  A    between atoms: C2_3  and  C3_5 
REMARK    3  A    between atoms: C3_5  and  C4_6 
REMARK    4  A    between atoms: C3_5  and  O5_33 
REMARK    5  A    between atoms: C5_7  and  C6_8 
REMARK    6  A    between atoms: C6_8  and  C8_10 
REMARK    7  A    between atoms: C8_10  and  O3_11 
REMARK    8  A    between atoms: C19_23  and  C21_25 
REMARK    9  A    between atoms: C21_25  and  O4_26 
ROOT
HETATM    1  C8  UNL     1     -26.297 -19.917 -42.141  1.00  0.00     0.111 C 
HETATM    2  C9  UNL     1     -26.187 -20.587 -43.435  1.00  0.00    -0.049 C 
HETATM    3  C10 UNL     1     -25.485 -21.847 -43.799  1.00  0.00     0.046 C 
HETATM    4  C11 UNL     1     -26.797 -19.898 -44.449  1.00  0.00    -0.021 C 
HETATM    5  C12 UNL     1     -27.478 -18.618 -44.242  1.00  0.00     0.033 C 
HETATM    6  C13 UNL     1     -26.769 -17.707 -43.286  1.00  0.00     0.009 C 
HETATM    7  C14 UNL     1     -26.036 -16.550 -43.919  1.00  0.00    -0.035 C 
HETATM    8  C15 UNL     1     -26.187 -15.329 -42.933  1.00  0.00     0.016 C 
HETATM    9  C16 UNL     1     -26.752 -15.993 -45.128  1.00  0.00     0.010 C 
HETATM   10  C17 UNL     1     -26.194 -16.289 -46.448  1.00  0.00     0.002 C 
HETATM   11  C18 UNL     1     -24.833 -16.939 -46.458  1.00  0.00     0.012 C 
HETATM   12  C19 UNL     1     -24.006 -16.300 -45.416  1.00  0.00    -0.018 C 
HETATM   13  C20 UNL     1     -22.604 -16.927 -45.519  1.00  0.00     0.018 C 
HETATM   14  C22 UNL     1     -24.569 -16.649 -44.059  1.00  0.00     0.004 C 
HETATM   15  C23 UNL     1     -23.974 -17.970 -43.670  1.00  0.00     0.007 C 
HETATM   16  C24 UNL     1     -24.521 -18.284 -42.314  1.00  0.00     0.014 C 
HETATM   17  C25 UNL     1     -26.000 -18.409 -42.209  1.00  0.00    -0.000 C 
HETATM   18  C26 UNL     1     -26.539 -17.864 -40.874  1.00  0.00     0.019 C 
ENDROOT
BRANCH   1  19
HETATM   19  C6  UNL     1     -25.673 -20.657 -41.083  1.00  0.00    -0.045 C 
HETATM   20  C7  UNL     1     -25.304 -20.158 -39.758  1.00  0.00     0.047 C 
BRANCH  19  21
HETATM   21  C5  UNL     1     -26.353 -21.966 -40.890  1.00  0.00     0.005 C 
HETATM   22  C4  UNL     1     -26.343 -22.614 -39.700  1.00  0.00     0.015 C 
BRANCH  22  23
HETATM   23  C3  UNL     1     -27.003 -23.910 -39.469  1.00  0.00     0.243 C 
BRANCH  23  24
HETATM   24  C2  UNL     1     -26.331 -24.578 -38.328  1.00  0.00     0.291 C 
HETATM   25  O2  UNL     1     -26.359 -25.832 -38.265  1.00  0.00    -0.262 OA
BRANCH  24  26
HETATM   26  O1  UNL     1     -25.676 -23.890 -37.329  1.00  0.00    -0.324 OA
HETATM   27  C1  UNL     1     -24.902 -24.610 -36.388  1.00  0.00     0.213 C 
ENDBRANCH  24  26
ENDBRANCH  23  24
BRANCH  23  28
HETATM   28  O5  UNL     1     -28.361 -23.765 -39.208  1.00  0.00    -0.377 OA
HETATM   29  C27 UNL     1     -29.071 -24.443 -40.175  1.00  0.00     0.203 C 
ENDBRANCH  23  28
ENDBRANCH  22  23
ENDBRANCH  19  21
ENDBRANCH   1  19
BRANCH   1  30
HETATM   30  O3  UNL     1     -27.698 -19.855 -41.808  1.00  0.00    -0.380 OA
ATOM     31  H3  UNL     1     -27.853 -18.971 -41.499  1.00  0.00     0.211 HD
ENDBRANCH   1  30
BRANCH  12  32
HETATM   32  C21 UNL     1     -23.795 -14.839 -45.640  1.00  0.00     0.173 C 
BRANCH  32  33
HETATM   33  O4  UNL     1     -23.419 -14.206 -44.435  1.00  0.00    -0.400 OA
ATOM     34  H4  UNL     1     -22.830 -13.482 -44.612  1.00  0.00     0.209 HD
ENDBRANCH  32  33
ENDBRANCH  12  32
TORSDOF 9
ENDMDL
MODEL 5
REMARK VINA RESULT: -6.814021892      1.139      1.908
REMARK  9 active torsions:
REMARK  status: ('A' for Active; 'I' for Inactive)
REMARK    1  A    between atoms: O1_2  and  C2_3 
REMARK    2  A    between atoms: C2_3  and  C3_5 
REMARK    3  A    between atoms: C3_5  and  C4_6 
REMARK    4  A    between atoms: C3_5  and  O5_33 
REMARK    5  A    between atoms: C5_7  and  C6_8 
REMARK    6  A    between atoms: C6_8  and  C8_10 
REMARK    7  A    between atoms: C8_10  and  O3_11 
REMARK    8  A    between atoms: C19_23  and  C21_25 
REMARK    9  A    between atoms: C21_25  and  O4_26 
ROOT
HETATM    1  C8  UNL     1     -26.628 -19.044 -41.163  1.00  0.00     0.111 C 
HETATM    2  C9  UNL     1     -27.122 -17.669 -41.159  1.00  0.00    -0.049 C 
HETATM    3  C10 UNL     1     -28.513 -17.157 -41.031  1.00  0.00     0.046 C 
HETATM    4  C11 UNL     1     -26.132 -16.742 -41.350  1.00  0.00    -0.021 C 
HETATM    5  C12 UNL     1     -24.728 -17.110 -41.544  1.00  0.00     0.033 C 
HETATM    6  C13 UNL     1     -24.537 -18.327 -42.400  1.00  0.00     0.009 C 
HETATM    7  C14 UNL     1     -24.056 -18.059 -43.805  1.00  0.00    -0.035 C 
HETATM    8  C15 UNL     1     -23.086 -19.245 -44.180  1.00  0.00     0.016 C 
HETATM    9  C16 UNL     1     -23.087 -16.902 -43.882  1.00  0.00     0.010 C 
HETATM   10  C17 UNL     1     -23.572 -15.644 -44.451  1.00  0.00     0.002 C 
HETATM   11  C18 UNL     1     -24.929 -15.695 -45.106  1.00  0.00     0.012 C 
HETATM   12  C19 UNL     1     -25.030 -16.955 -45.868  1.00  0.00    -0.018 C 
HETATM   13  C20 UNL     1     -26.389 -16.928 -46.589  1.00  0.00     0.018 C 
HETATM   14  C22 UNL     1     -25.044 -18.115 -44.900  1.00  0.00     0.004 C 
HETATM   15  C23 UNL     1     -26.469 -18.303 -44.471  1.00  0.00     0.007 C 
HETATM   16  C24 UNL     1     -26.467 -19.471 -43.538  1.00  0.00     0.014 C 
HETATM   17  C25 UNL     1     -25.642 -19.334 -42.308  1.00  0.00    -0.000 C 
HETATM   18  C26 UNL     1     -24.977 -20.661 -41.898  1.00  0.00     0.019 C 
ENDROOT
BRANCH   1  19
HETATM   19  C6  UNL     1     -27.669 -20.005 -40.942  1.00  0.00    -0.045 C 
HETATM   20  C7  UNL     1     -28.175 -20.992 -41.896  1.00  0.00     0.047 C 
BRANCH  19  21
HETATM   21  C5  UNL     1     -27.466 -20.706 -39.645  1.00  0.00     0.005 C 
HETATM   22  C4  UNL     1     -27.852 -21.990 -39.453  1.00  0.00     0.015 C 
BRANCH  22  23
HETATM   23  C3  UNL     1     -27.670 -22.719 -38.186  1.00  0.00     0.243 C 
BRANCH  23  24
HETATM   24  C2  UNL     1     -26.356 -23.405 -38.228  1.00  0.00     0.291 C 
HETATM   25  O2  UNL     1     -25.957 -23.872 -39.323  1.00  0.00    -0.262 OA
BRANCH  24  26
HETATM   26  O1  UNL     1     -25.547 -23.557 -37.121  1.00  0.00    -0.324 OA
HETATM   27  C1  UNL     1     -25.691 -24.711 -36.315  1.00  0.00     0.213 C 
ENDBRANCH  24  26
ENDBRANCH  23  24
BRANCH  23  28
HETATM   28  O5  UNL     1     -27.734 -21.873 -37.084  1.00  0.00    -0.377 OA
HETATM   29  C27 UNL     1     -28.762 -22.291 -36.267  1.00  0.00     0.203 C 
ENDBRANCH  23  28
ENDBRANCH  22  23
ENDBRANCH  19  21
ENDBRANCH   1  19
BRANCH   1  30
HETATM   30  O3  UNL     1     -25.724 -19.177 -40.048  1.00  0.00    -0.380 OA
ATOM     31  H3  UNL     1     -24.850 -19.155 -40.418  1.00  0.00     0.211 HD
ENDBRANCH   1  30
BRANCH  12  32
HETATM   32  C21 UNL     1     -24.014 -17.071 -46.956  1.00  0.00     0.173 C 
BRANCH  32  33
HETATM   33  O4  UNL     1     -24.606 -17.593 -48.127  1.00  0.00    -0.400 OA
ATOM     34  H4  UNL     1     -24.518 -18.539 -48.149  1.00  0.00     0.209 HD
ENDBRANCH  32  33
ENDBRANCH  12  32
TORSDOF 9
ENDMDL
