MODEL 1
REMARK VINA RESULT: -6.896003736      0.000      0.000
REMARK  8 active torsions:
REMARK  status: ('A' for Active; 'I' for Inactive)
REMARK    1  A    between atoms: O1_2  and  C2_3 
REMARK    2  A    between atoms: C2_3  and  C3_4 
REMARK    3  A    between atoms: C3_4  and  O2_5 
REMARK    4  A    between atoms: C3_4  and  C4_7 
REMARK    5  A    between atoms: C4_7  and  C5_8 
REMARK    6  A    between atoms: C5_8  and  C6_9 
REMARK    7  A    between atoms: C6_9  and  C7_10 
REMARK    8  A    between atoms: C13_18  and  C15_20 
ROOT
HETATM    1  C7  UNL     1     -26.221 -17.143 -46.363  1.00  0.00    -0.044 C 
HETATM    2  C8  UNL     1     -27.150 -16.388 -47.322  1.00  0.00     0.015 C 
HETATM    3  C9  UNL     1     -26.854 -18.373 -45.808  1.00  0.00     0.010 C 
HETATM    4  C10 UNL     1     -27.026 -18.313 -44.294  1.00  0.00     0.011 C 
HETATM    5  C11 UNL     1     -27.943 -17.142 -44.006  1.00  0.00     0.036 C 
HETATM    6  C12 UNL     1     -28.279 -17.035 -42.569  1.00  0.00    -0.003 C 
HETATM    7  N1  UNL     1     -27.992 -17.961 -41.780  1.00  0.00    -0.377 N 
ATOM      8  H1  UNL     1     -27.524 -18.779 -42.171  1.00  0.00     0.160 HD
HETATM    9  C13 UNL     1     -28.263 -17.973 -40.377  1.00  0.00     0.119 C 
HETATM   10  C14 UNL     1     -29.573 -18.716 -40.084  1.00  0.00     0.051 C 
HETATM   11  C16 UNL     1     -28.248 -16.603 -39.778  1.00  0.00     0.037 C 
HETATM   12  C17 UNL     1     -29.072 -16.594 -38.499  1.00  0.00     0.016 C 
HETATM   13  C18 UNL     1     -30.240 -15.670 -38.743  1.00  0.00     0.079 C 
HETATM   14  C19 UNL     1     -30.001 -14.990 -40.016  1.00  0.00     0.132 C 
HETATM   15  O5  UNL     1     -30.696 -14.138 -40.519  1.00  0.00    -0.298 OA
HETATM   16  C20 UNL     1     -28.744 -15.504 -40.639  1.00  0.00     0.076 C 
HETATM   17  C21 UNL     1     -28.959 -15.817 -42.082  1.00  0.00     0.005 C 
HETATM   18  C22 UNL     1     -30.421 -15.948 -42.448  1.00  0.00     0.022 C 
HETATM   19  C23 UNL     1     -28.442 -14.617 -42.889  1.00  0.00     0.016 C 
HETATM   20  C24 UNL     1     -27.046 -14.952 -43.422  1.00  0.00     0.006 C 
HETATM   21  C25 UNL     1     -27.288 -15.916 -44.564  1.00  0.00    -0.004 C 
HETATM   22  C26 UNL     1     -25.954 -16.192 -45.216  1.00  0.00     0.014 C 
ENDROOT
BRANCH   1  23
HETATM   23  C6  UNL     1     -24.952 -17.414 -47.163  1.00  0.00     0.009 C 
BRANCH  23  24
HETATM   24  C5  UNL     1     -23.717 -17.032 -46.425  1.00  0.00     0.003 C 
BRANCH  24  25
HETATM   25  C4  UNL     1     -23.039 -18.286 -45.924  1.00  0.00     0.034 C 
BRANCH  25  26
HETATM   26  C3  UNL     1     -23.405 -18.660 -44.522  1.00  0.00     0.142 C 
BRANCH  26  27
HETATM   27  C2  UNL     1     -22.665 -19.929 -44.175  1.00  0.00     0.198 C 
BRANCH  27  28
HETATM   28  O1  UNL     1     -23.078 -20.512 -42.990  1.00  0.00    -0.393 OA
HETATM   29  C1  UNL     1     -24.427 -20.747 -42.890  1.00  0.00     0.201 C 
ENDBRANCH  27  28
ENDBRANCH  26  27
BRANCH  26  30
HETATM   30  O2  UNL     1     -23.039 -17.675 -43.605  1.00  0.00    -0.393 OA
ATOM     31  H2  UNL     1     -23.028 -16.839 -44.055  1.00  0.00     0.210 HD
ENDBRANCH  26  30
ENDBRANCH  25  26
ENDBRANCH  24  25
ENDBRANCH  23  24
ENDBRANCH   1  23
BRANCH   9  32
HETATM   32  C15 UNL     1     -27.204 -18.791 -39.729  1.00  0.00     0.202 C 
HETATM   33  O3  UNL     1     -26.040 -18.719 -40.244  1.00  0.00    -0.646 OA
HETATM   34  O4  UNL     1     -27.462 -19.581 -38.634  1.00  0.00    -0.646 OA
ENDBRANCH   9  32
TORSDOF 8
ENDMDL
MODEL 2
REMARK VINA RESULT: -6.847496466      3.933      7.655
REMARK  8 active torsions:
REMARK  status: ('A' for Active; 'I' for Inactive)
REMARK    1  A    between atoms: O1_2  and  C2_3 
REMARK    2  A    between atoms: C2_3  and  C3_4 
REMARK    3  A    between atoms: C3_4  and  O2_5 
REMARK    4  A    between atoms: C3_4  and  C4_7 
REMARK    5  A    between atoms: C4_7  and  C5_8 
REMARK    6  A    between atoms: C5_8  and  C6_9 
REMARK    7  A    between atoms: C6_9  and  C7_10 
REMARK    8  A    between atoms: C13_18  and  C15_20 
ROOT
HETATM    1  C7  UNL     1     -26.868 -21.830 -39.509  1.00  0.00    -0.044 C 
HETATM    2  C8  UNL     1     -26.483 -23.159 -40.172  1.00  0.00     0.015 C 
HETATM    3  C9  UNL     1     -27.965 -21.129 -40.234  1.00  0.00     0.010 C 
HETATM    4  C10 UNL     1     -27.527 -19.782 -40.800  1.00  0.00     0.011 C 
HETATM    5  C11 UNL     1     -26.417 -20.066 -41.791  1.00  0.00     0.036 C 
HETATM    6  C12 UNL     1     -25.971 -18.844 -42.495  1.00  0.00    -0.003 C 
HETATM    7  N1  UNL     1     -26.626 -17.783 -42.403  1.00  0.00    -0.377 N 
ATOM      8  H1  UNL     1     -27.468 -17.804 -41.828  1.00  0.00     0.160 HD
HETATM    9  C13 UNL     1     -26.296 -16.545 -43.033  1.00  0.00     0.119 C 
HETATM   10  C14 UNL     1     -27.060 -16.388 -44.355  1.00  0.00     0.051 C 
HETATM   11  C16 UNL     1     -24.822 -16.365 -43.212  1.00  0.00     0.037 C 
HETATM   12  C17 UNL     1     -24.558 -15.383 -44.343  1.00  0.00     0.016 C 
HETATM   13  C18 UNL     1     -23.848 -16.154 -45.429  1.00  0.00     0.079 C 
HETATM   14  C19 UNL     1     -23.505 -17.466 -44.881  1.00  0.00     0.132 C 
HETATM   15  O5  UNL     1     -22.886 -18.341 -45.440  1.00  0.00    -0.298 OA
HETATM   16  C20 UNL     1     -24.040 -17.592 -43.491  1.00  0.00     0.076 C 
HETATM   17  C21 UNL     1     -24.739 -18.898 -43.311  1.00  0.00     0.005 C 
HETATM   18  C22 UNL     1     -25.103 -19.561 -44.621  1.00  0.00     0.022 C 
HETATM   19  C23 UNL     1     -23.748 -19.854 -42.630  1.00  0.00     0.016 C 
HETATM   20  C24 UNL     1     -24.074 -19.911 -41.135  1.00  0.00     0.006 C 
HETATM   21  C25 UNL     1     -25.321 -20.763 -41.043  1.00  0.00    -0.004 C 
HETATM   22  C26 UNL     1     -25.629 -20.964 -39.578  1.00  0.00     0.014 C 
ENDROOT
BRANCH   1  23
HETATM   23  C6  UNL     1     -27.214 -22.186 -38.068  1.00  0.00     0.009 C 
BRANCH  23  24
HETATM   24  C5  UNL     1     -26.741 -23.544 -37.684  1.00  0.00     0.003 C 
BRANCH  24  25
HETATM   25  C4  UNL     1     -25.536 -23.407 -36.784  1.00  0.00     0.034 C 
BRANCH  25  26
HETATM   26  C3  UNL     1     -25.181 -24.657 -36.041  1.00  0.00     0.142 C 
BRANCH  26  27
HETATM   27  C2  UNL     1     -25.903 -25.806 -36.699  1.00  0.00     0.198 C 
BRANCH  27  28
HETATM   28  O1  UNL     1     -26.437 -26.718 -35.805  1.00  0.00    -0.393 OA
HETATM   29  C1  UNL     1     -27.328 -26.201 -34.899  1.00  0.00     0.201 C 
ENDBRANCH  27  28
ENDBRANCH  26  27
BRANCH  26  30
HETATM   30  O2  UNL     1     -23.812 -24.920 -36.081  1.00  0.00    -0.393 OA
ATOM     31  H2  UNL     1     -23.555 -25.288 -35.244  1.00  0.00     0.210 HD
ENDBRANCH  26  30
ENDBRANCH  25  26
ENDBRANCH  24  25
ENDBRANCH  23  24
ENDBRANCH   1  23
BRANCH   9  32
HETATM   32  C15 UNL     1     -26.809 -15.454 -42.162  1.00  0.00     0.202 C 
HETATM   33  O3  UNL     1     -26.776 -15.672 -40.906  1.00  0.00    -0.646 OA
HETATM   34  O4  UNL     1     -27.292 -14.276 -42.679  1.00  0.00    -0.646 OA
ENDBRANCH   9  32
TORSDOF 8
ENDMDL
MODEL 3
REMARK VINA RESULT: -6.706646076      2.932      8.497
REMARK  8 active torsions:
REMARK  status: ('A' for Active; 'I' for Inactive)
REMARK    1  A    between atoms: O1_2  and  C2_3 
REMARK    2  A    between atoms: C2_3  and  C3_4 
REMARK    3  A    between atoms: C3_4  and  O2_5 
REMARK    4  A    between atoms: C3_4  and  C4_7 
REMARK    5  A    between atoms: C4_7  and  C5_8 
REMARK    6  A    between atoms: C5_8  and  C6_9 
REMARK    7  A    between atoms: C6_9  and  C7_10 
REMARK    8  A    between atoms: C13_18  and  C15_20 
ROOT
HETATM    1  C7  UNL     1     -30.046 -15.150 -40.744  1.00  0.00    -0.044 C 
HETATM    2  C8  UNL     1     -29.169 -15.284 -39.493  1.00  0.00     0.015 C 
HETATM    3  C9  UNL     1     -30.346 -16.468 -41.372  1.00  0.00     0.010 C 
HETATM    4  C10 UNL     1     -29.775 -16.592 -42.781  1.00  0.00     0.011 C 
HETATM    5  C11 UNL     1     -28.271 -16.465 -42.653  1.00  0.00     0.036 C 
HETATM    6  C12 UNL     1     -27.581 -16.673 -43.945  1.00  0.00    -0.003 C 
HETATM    7  N1  UNL     1     -28.204 -17.119 -44.933  1.00  0.00    -0.377 N 
ATOM      8  H1  UNL     1     -29.194 -17.329 -44.804  1.00  0.00     0.160 HD
HETATM    9  C13 UNL     1     -27.649 -17.361 -46.227  1.00  0.00     0.119 C 
HETATM   10  C14 UNL     1     -27.236 -18.831 -46.374  1.00  0.00     0.051 C 
HETATM   11  C16 UNL     1     -26.528 -16.427 -46.555  1.00  0.00     0.037 C 
HETATM   12  C17 UNL     1     -25.631 -17.054 -47.612  1.00  0.00     0.016 C 
HETATM   13  C18 UNL     1     -24.284 -17.264 -46.967  1.00  0.00     0.079 C 
HETATM   14  C19 UNL     1     -24.310 -16.591 -45.668  1.00  0.00     0.132 C 
HETATM   15  O5  UNL     1     -23.394 -16.500 -44.885  1.00  0.00    -0.298 OA
HETATM   16  C20 UNL     1     -25.666 -16.012 -45.423  1.00  0.00     0.076 C 
HETATM   17  C21 UNL     1     -26.143 -16.346 -44.050  1.00  0.00     0.005 C 
HETATM   18  C22 UNL     1     -25.381 -17.491 -43.420  1.00  0.00     0.022 C 
HETATM   19  C23 UNL     1     -25.857 -15.126 -43.161  1.00  0.00     0.016 C 
HETATM   20  C24 UNL     1     -27.153 -14.326 -42.999  1.00  0.00     0.006 C 
HETATM   21  C25 UNL     1     -27.988 -15.133 -42.028  1.00  0.00    -0.004 C 
HETATM   22  C26 UNL     1     -29.234 -14.335 -41.728  1.00  0.00     0.014 C 
ENDROOT
BRANCH   1  23
HETATM   23  C6  UNL     1     -31.286 -14.392 -40.287  1.00  0.00     0.009 C 
BRANCH  23  24
HETATM   24  C5  UNL     1     -31.275 -14.103 -38.827  1.00  0.00     0.003 C 
BRANCH  24  25
HETATM   25  C4  UNL     1     -32.057 -12.836 -38.573  1.00  0.00     0.034 C 
BRANCH  25  26
HETATM   26  C3  UNL     1     -32.791 -12.821 -37.268  1.00  0.00     0.142 C 
BRANCH  26  27
HETATM   27  C2  UNL     1     -32.433 -14.083 -36.522  1.00  0.00     0.198 C 
BRANCH  27  28
HETATM   28  O1  UNL     1     -32.935 -14.134 -35.234  1.00  0.00    -0.393 OA
HETATM   29  C1  UNL     1     -34.192 -14.672 -35.114  1.00  0.00     0.201 C 
ENDBRANCH  27  28
ENDBRANCH  26  27
BRANCH  26  30
HETATM   30  O2  UNL     1     -32.434 -11.729 -36.478  1.00  0.00    -0.393 OA
ATOM     31  H2  UNL     1     -33.203 -11.185 -36.358  1.00  0.00     0.210 HD
ENDBRANCH  26  30
ENDBRANCH  25  26
ENDBRANCH  24  25
ENDBRANCH  23  24
ENDBRANCH   1  23
BRANCH   9  32
HETATM   32  C15 UNL     1     -28.740 -17.167 -47.220  1.00  0.00     0.202 C 
HETATM   33  O3  UNL     1     -29.929 -17.164 -46.760  1.00  0.00    -0.646 OA
HETATM   34  O4  UNL     1     -28.483 -17.000 -48.559  1.00  0.00    -0.646 OA
ENDBRANCH   9  32
TORSDOF 8
ENDMDL
MODEL 4
REMARK VINA RESULT: -6.688796458      4.120      6.305
REMARK  8 active torsions:
REMARK  status: ('A' for Active; 'I' for Inactive)
REMARK    1  A    between atoms: O1_2  and  C2_3 
REMARK    2  A    between atoms: C2_3  and  C3_4 
REMARK    3  A    between atoms: C3_4  and  O2_5 
REMARK    4  A    between atoms: C3_4  and  C4_7 
REMARK    5  A    between atoms: C4_7  and  C5_8 
REMARK    6  A    between atoms: C5_8  and  C6_9 
REMARK    7  A    between atoms: C6_9  and  C7_10 
REMARK    8  A    between atoms: C13_18  and  C15_20 
ROOT
HETATM    1  C7  UNL     1     -24.841 -20.417 -42.228  1.00  0.00    -0.044 C 
HETATM    2  C8  UNL     1     -25.752 -19.308 -42.771  1.00  0.00     0.015 C 
HETATM    3  C9  UNL     1     -25.392 -21.779 -42.480  1.00  0.00     0.010 C 
HETATM    4  C10 UNL     1     -25.708 -22.532 -41.191  1.00  0.00     0.011 C 
HETATM    5  C11 UNL     1     -26.764 -21.726 -40.464  1.00  0.00     0.036 C 
HETATM    6  C12 UNL     1     -27.240 -22.404 -39.239  1.00  0.00    -0.003 C 
HETATM    7  N1  UNL     1     -26.932 -23.595 -39.012  1.00  0.00    -0.377 N 
ATOM      8  H1  UNL     1     -26.348 -24.065 -39.704  1.00  0.00     0.160 HD
HETATM    9  C13 UNL     1     -27.329 -24.354 -37.869  1.00  0.00     0.119 C 
HETATM   10  C14 UNL     1     -28.576 -25.192 -38.179  1.00  0.00     0.051 C 
HETATM   11  C16 UNL     1     -27.511 -23.504 -36.651  1.00  0.00     0.037 C 
HETATM   12  C17 UNL     1     -28.446 -24.203 -35.675  1.00  0.00     0.016 C 
HETATM   13  C18 UNL     1     -29.676 -23.337 -35.558  1.00  0.00     0.079 C 
HETATM   14  C19 UNL     1     -29.393 -22.079 -36.250  1.00  0.00     0.132 C 
HETATM   15  O5  UNL     1     -30.123 -21.119 -36.327  1.00  0.00    -0.298 OA
HETATM   16  C20 UNL     1     -28.037 -22.138 -36.876  1.00  0.00     0.076 C 
HETATM   17  C21 UNL     1     -28.085 -21.653 -38.287  1.00  0.00     0.005 C 
HETATM   18  C22 UNL     1     -29.485 -21.631 -38.858  1.00  0.00     0.022 C 
HETATM   19  C23 UNL     1     -27.623 -20.188 -38.279  1.00  0.00     0.016 C 
HETATM   20  C24 UNL     1     -26.157 -20.137 -38.718  1.00  0.00     0.006 C 
HETATM   21  C25 UNL     1     -26.192 -20.364 -40.214  1.00  0.00    -0.004 C 
HETATM   22  C26 UNL     1     -24.782 -20.202 -40.731  1.00  0.00     0.014 C 
ENDROOT
BRANCH   1  23
HETATM   23  C6  UNL     1     -23.484 -20.175 -42.876  1.00  0.00     0.009 C 
BRANCH  23  24
HETATM   24  C5  UNL     1     -23.589 -19.861 -44.327  1.00  0.00     0.003 C 
BRANCH  24  25
HETATM   25  C4  UNL     1     -22.774 -18.624 -44.622  1.00  0.00     0.034 C 
BRANCH  25  26
HETATM   26  C3  UNL     1     -23.110 -17.965 -45.924  1.00  0.00     0.142 C 
BRANCH  26  27
HETATM   27  C2  UNL     1     -24.534 -17.475 -45.840  1.00  0.00     0.198 C 
BRANCH  27  28
HETATM   28  O1  UNL     1     -25.173 -17.395 -47.065  1.00  0.00    -0.393 OA
HETATM   29  C1  UNL     1     -25.948 -16.279 -47.253  1.00  0.00     0.201 C 
ENDBRANCH  27  28
ENDBRANCH  26  27
BRANCH  26  30
HETATM   30  O2  UNL     1     -22.285 -16.871 -46.185  1.00  0.00    -0.393 OA
ATOM     31  H2  UNL     1     -22.567 -16.474 -47.000  1.00  0.00     0.210 HD
ENDBRANCH  26  30
ENDBRANCH  25  26
ENDBRANCH  24  25
ENDBRANCH  23  24
ENDBRANCH   1  23
BRANCH   9  32
HETATM   32  C15 UNL     1     -26.254 -25.347 -37.603  1.00  0.00     0.202 C 
HETATM   33  O3  UNL     1     -25.266 -24.938 -36.909  1.00  0.00    -0.646 OA
HETATM   34  O4  UNL     1     -26.321 -26.635 -38.077  1.00  0.00    -0.646 OA
ENDBRANCH   9  32
TORSDOF 8
ENDMDL
MODEL 5
REMARK VINA RESULT: -6.687440904      4.002      7.518
REMARK  8 active torsions:
REMARK  status: ('A' for Active; 'I' for Inactive)
REMARK    1  A    between atoms: O1_2  and  C2_3 
REMARK    2  A    between atoms: C2_3  and  C3_4 
REMARK    3  A    between atoms: C3_4  and  O2_5 
REMARK    4  A    between atoms: C3_4  and  C4_7 
REMARK    5  A    between atoms: C4_7  and  C5_8 
REMARK    6  A    between atoms: C5_8  and  C6_9 
REMARK    7  A    between atoms: C6_9  and  C7_10 
REMARK    8  A    between atoms: C13_18  and  C15_20 
ROOT
HETATM    1  C7  UNL     1     -26.592 -21.868 -40.360  1.00  0.00    -0.044 C 
HETATM    2  C8  UNL     1     -28.037 -21.691 -39.874  1.00  0.00     0.015 C 
HETATM    3  C9  UNL     1     -25.740 -20.684 -40.055  1.00  0.00     0.010 C 
HETATM    4  C10 UNL     1     -25.216 -19.998 -41.312  1.00  0.00     0.011 C 
HETATM    5  C11 UNL     1     -26.428 -19.518 -42.083  1.00  0.00     0.036 C 
HETATM    6  C12 UNL     1     -26.053 -18.737 -43.283  1.00  0.00    -0.003 C 
HETATM    7  N1  UNL     1     -24.872 -18.364 -43.454  1.00  0.00    -0.377 N 
ATOM      8  H1  UNL     1     -24.194 -18.621 -42.737  1.00  0.00     0.160 HD
HETATM    9  C13 UNL     1     -24.391 -17.609 -44.567  1.00  0.00     0.119 C 
HETATM   10  C14 UNL     1     -24.355 -16.112 -44.233  1.00  0.00     0.051 C 
HETATM   11  C16 UNL     1     -25.157 -17.885 -45.822  1.00  0.00     0.037 C 
HETATM   12  C17 UNL     1     -25.019 -16.708 -46.776  1.00  0.00     0.016 C 
HETATM   13  C18 UNL     1     -26.399 -16.121 -46.942  1.00  0.00     0.079 C 
HETATM   14  C19 UNL     1     -27.344 -17.037 -46.302  1.00  0.00     0.132 C 
HETATM   15  O5  UNL     1     -28.548 -16.927 -46.274  1.00  0.00    -0.298 OA
HETATM   16  C20 UNL     1     -26.603 -18.166 -45.662  1.00  0.00     0.076 C 
HETATM   17  C21 UNL     1     -27.097 -18.403 -44.274  1.00  0.00     0.005 C 
HETATM   18  C22 UNL     1     -27.882 -17.235 -43.717  1.00  0.00     0.022 C 
HETATM   19  C23 UNL     1     -28.094 -19.570 -44.341  1.00  0.00     0.016 C 
HETATM   20  C24 UNL     1     -27.380 -20.847 -43.891  1.00  0.00     0.006 C 
HETATM   21  C25 UNL     1     -27.268 -20.720 -42.387  1.00  0.00    -0.004 C 
HETATM   22  C26 UNL     1     -26.680 -22.010 -41.864  1.00  0.00     0.014 C 
ENDROOT
BRANCH   1  23
HETATM   23  C6  UNL     1     -26.106 -23.158 -39.710  1.00  0.00     0.009 C 
BRANCH  23  24
HETATM   24  C5  UNL     1     -26.122 -23.092 -38.223  1.00  0.00     0.003 C 
BRANCH  24  25
HETATM   25  C4  UNL     1     -25.685 -24.428 -37.669  1.00  0.00     0.034 C 
BRANCH  25  26
HETATM   26  C3  UNL     1     -25.134 -24.363 -36.279  1.00  0.00     0.142 C 
BRANCH  26  27
HETATM   27  C2  UNL     1     -25.866 -25.386 -35.444  1.00  0.00     0.198 C 
BRANCH  27  28
HETATM   28  O1  UNL     1     -26.565 -26.320 -36.189  1.00  0.00    -0.393 OA
HETATM   29  C1  UNL     1     -26.854 -27.493 -35.538  1.00  0.00     0.201 C 
ENDBRANCH  27  28
ENDBRANCH  26  27
BRANCH  26  30
HETATM   30  O2  UNL     1     -23.772 -24.660 -36.240  1.00  0.00    -0.393 OA
ATOM     31  H2  UNL     1     -23.561 -25.190 -36.999  1.00  0.00     0.210 HD
ENDBRANCH  26  30
ENDBRANCH  25  26
ENDBRANCH  24  25
ENDBRANCH  23  24
ENDBRANCH   1  23
BRANCH   9  32
HETATM   32  C15 UNL     1     -22.970 -17.991 -44.780  1.00  0.00     0.202 C 
HETATM   33  O3  UNL     1     -22.681 -19.218 -44.595  1.00  0.00    -0.646 OA
HETATM   34  O4  UNL     1     -22.019 -17.072 -45.155  1.00  0.00    -0.646 OA
ENDBRANCH   9  32
TORSDOF 8
ENDMDL
